MODEL 1
REMARK VINA RESULT:     -10.7      0.000      0.000
REMARK SMILES Cc1ccc(S(=O)(=O)Nc2cc(C(=O)OCCOCCOC(=O)c3ccc(-c4c5nc(c(-c6ccc(S(=O)(=O)[O-])cc6)c6ccc([nH]6)c(-c6ccc(S(=O)(=O)[O-])cc6)c6nc(c(-c7ccc(S(=O)(=O)[O-])cc7)c7ccc4[nH]7)C=C6)C=C5)cc3)cnc2N2CCCC2)c(C)c1
REMARK SMILES IDX 18 1 17 2 16 3 15 4 13 5 14 6 12 7 10 8 11 9 86 10 85 11
REMARK SMILES IDX 84 12 9 13 6 15 7 16 8 17 5 18 1 19 2 20 3 21 94 22 4 23
REMARK SMILES IDX 92 24 93 25 87 26 88 27 91 28 89 29 90 30 19 31 20 32 21 33
REMARK SMILES IDX 22 34 23 35 24 36 25 37 83 38 26 39 82 40 27 41 28 42 29 43
REMARK SMILES IDX 76 44 30 45 81 46 75 47 77 48 31 49 80 50 74 51 73 52 32 54
REMARK SMILES IDX 62 55 43 56 61 57 44 58 47 59 60 60 78 61 45 62 46 63 59 65
REMARK SMILES IDX 79 66 48 67 33 68 34 69 42 70 35 71 41 72 36 73 37 74 38 75
REMARK SMILES IDX 39 76 40 77 63 78 64 79 72 80 65 81 71 82 66 83 67 84 68 85
REMARK SMILES IDX 69 86 70 87 49 88 50 89 58 90 51 91 57 92 52 93 53 94 54 95
REMARK SMILES IDX 55 96 56 97
REMARK H PARENT 9 14 77 53 47 64
REMARK Flexibility Score: inf
ROOT
ATOM      1  O   UNL A   1      34.910  33.631  29.157  1.00  0.00    -0.374 OA
ENDROOT
BRANCH   1   2
ATOM      2  C   UNL A   1      34.777  32.231  28.906  1.00  0.00     0.202 C 
BRANCH   2   3
ATOM      3  C   UNL A   1      34.188  31.813  27.556  1.00  0.00     0.261 C 
BRANCH   3   4
ATOM      4  O   UNL A   1      33.477  30.568  27.657  1.00  0.00    -0.460 OA
BRANCH   4   5
ATOM      5  C   UNL A   1      32.457  30.406  26.789  1.00  0.00     0.339 C 
ATOM      6  O   UNL A   1      31.803  31.289  26.241  1.00  0.00    -0.246 OA
BRANCH   5   7
ATOM      7  C   UNL A   1      32.254  28.981  26.488  1.00  0.00     0.080 A 
ATOM      8  C   UNL A   1      32.886  26.921  25.463  1.00  0.00     0.092 A 
ATOM      9  C   UNL A   1      32.937  28.311  25.480  1.00  0.00     0.048 A 
ATOM     10  C   UNL A   1      32.004  26.237  26.337  1.00  0.00     0.153 A 
ATOM     11  N   UNL A   1      31.253  26.904  27.239  1.00  0.00    -0.236 NA
ATOM     12  C   UNL A   1      31.420  28.247  27.321  1.00  0.00     0.129 A 
BRANCH   8  13
ATOM     13  N   UNL A   1      33.728  26.194  24.554  1.00  0.00    -0.276 N 
ATOM     14  H   UNL A   1      34.688  26.112  24.756  1.00  0.00     0.180 HD
BRANCH  13  15
ATOM     15  S   UNL A   1      33.116  25.463  23.132  1.00  0.00     0.262 S 
ATOM     16  O   UNL A   1      34.050  25.899  22.114  1.00  0.00    -0.201 OA
ATOM     17  O   UNL A   1      31.719  25.828  23.029  1.00  0.00    -0.201 OA
BRANCH  15  18
ATOM     18  C   UNL A   1      33.158  23.673  23.222  1.00  0.00     0.090 A 
ATOM     19  C   UNL A   1      32.831  19.517  24.318  1.00  0.00     0.044 C 
ATOM     20  C   UNL A   1      32.961  20.939  23.859  1.00  0.00    -0.051 A 
ATOM     21  C   UNL A   1      31.916  21.582  23.198  1.00  0.00     0.005 A 
ATOM     22  C   UNL A   1      34.171  21.622  24.011  1.00  0.00     0.008 A 
ATOM     23  C   UNL A   1      32.030  22.931  22.847  1.00  0.00     0.023 A 
ATOM     24  C   UNL A   1      34.300  22.980  23.655  1.00  0.00    -0.030 A 
ATOM     25  C   UNL A   1      35.695  23.543  23.664  1.00  0.00     0.046 C 
ENDBRANCH  15  18
ENDBRANCH  13  15
ENDBRANCH   8  13
BRANCH  10  26
ATOM     26  N   UNL A   1      31.901  24.855  26.269  1.00  0.00    -0.355 N 
ATOM     27  C   UNL A   1      32.703  24.080  27.207  1.00  0.00     0.118 C 
ATOM     28  C   UNL A   1      30.565  24.260  26.222  1.00  0.00     0.118 C 
ATOM     29  C   UNL A   1      32.296  22.663  26.838  1.00  0.00     0.023 C 
ATOM     30  C   UNL A   1      30.793  22.788  26.608  1.00  0.00     0.023 C 
ENDBRANCH  10  26
ENDBRANCH   5   7
ENDBRANCH   4   5
ENDBRANCH   3   4
ENDBRANCH   2   3
ENDBRANCH   1   2
BRANCH   1  31
ATOM     31  C   UNL A   1      35.495  34.046  30.387  1.00  0.00     0.202 C 
BRANCH  31  32
ATOM     32  C   UNL A   1      35.725  32.996  31.482  1.00  0.00     0.261 C 
BRANCH  32  33
ATOM     33  O   UNL A   1      37.035  32.413  31.460  1.00  0.00    -0.460 OA
BRANCH  33  34
ATOM     34  C   UNL A   1      37.043  31.086  31.738  1.00  0.00     0.338 C 
ATOM     35  O   UNL A   1      36.226  30.472  32.410  1.00  0.00    -0.246 OA
BRANCH  34  36
ATOM     36  C   UNL A   1      38.101  30.400  30.977  1.00  0.00     0.060 A 
ATOM     37  C   UNL A   1      39.071  29.716  31.718  1.00  0.00     0.016 A 
ATOM     38  C   UNL A   1      38.204  30.495  29.586  1.00  0.00     0.016 A 
ATOM     39  C   UNL A   1      40.185  29.183  31.080  1.00  0.00     0.010 A 
ATOM     40  C   UNL A   1      39.328  29.959  28.946  1.00  0.00     0.010 A 
ATOM     41  C   UNL A   1      40.343  29.339  29.696  1.00  0.00    -0.014 A 
BRANCH  41  42
ATOM     42  C   UNL A   1      41.640  28.954  29.089  1.00  0.00     0.031 A 
ATOM     43  C   UNL A   1      42.765  29.952  29.050  1.00  0.00     0.074 A 
ATOM     44  C   UNL A   1      41.841  27.696  28.660  1.00  0.00     0.049 A 
ATOM     45  N   UNL A   1      44.013  29.775  28.701  1.00  0.00    -0.248 NA
ATOM     46  C   UNL A   1      42.441  31.326  29.461  1.00  0.00     0.031 C 
ATOM     47  C   UNL A   1      40.832  26.637  28.656  1.00  0.00     0.029 A 
ATOM     48  N   UNL A   1      42.967  27.094  28.162  1.00  0.00    -0.354 N 
ATOM     49  C   UNL A   1      44.629  31.012  28.860  1.00  0.00     0.074 A 
ATOM     50  C   UNL A   1      43.604  31.939  29.292  1.00  0.00     0.031 C 
ATOM     51  C   UNL A   1      41.389  25.510  28.183  1.00  0.00     0.029 A 
ATOM     52  C   UNL A   1      42.787  25.771  27.844  1.00  0.00     0.049 A 
ATOM     53  H   UNL A   1      43.824  27.565  28.044  1.00  0.00     0.167 HD
ATOM     54  C   UNL A   1      45.929  31.346  28.675  1.00  0.00     0.031 A 
ATOM     55  C   UNL A   1      43.651  24.867  27.341  1.00  0.00     0.031 A 
ATOM     56  C   UNL A   1      46.940  30.432  28.211  1.00  0.00     0.049 A 
ATOM     57  C   UNL A   1      45.084  25.261  27.115  1.00  0.00     0.074 A 
ATOM     58  C   UNL A   1      48.287  30.669  27.999  1.00  0.00     0.029 A 
ATOM     59  N   UNL A   1      46.711  29.105  27.874  1.00  0.00    -0.354 N 
ATOM     60  N   UNL A   1      45.661  26.422  27.316  1.00  0.00    -0.248 NA
ATOM     61  C   UNL A   1      45.987  24.214  26.620  1.00  0.00     0.031 C 
ATOM     62  C   UNL A   1      48.862  29.501  27.485  1.00  0.00     0.029 A 
ATOM     63  C   UNL A   1      47.886  28.517  27.433  1.00  0.00     0.049 A 
ATOM     64  H   UNL A   1      45.842  28.649  27.937  1.00  0.00     0.167 HD
ATOM     65  C   UNL A   1      47.002  26.241  26.991  1.00  0.00     0.074 A 
ATOM     66  C   UNL A   1      47.150  24.854  26.597  1.00  0.00     0.031 C 
ATOM     67  C   UNL A   1      48.017  27.141  27.022  1.00  0.00     0.031 A 
BRANCH  54  68
ATOM     68  C   UNL A   1      46.311  32.779  28.943  1.00  0.00    -0.014 A 
ATOM     69  C   UNL A   1      46.299  33.741  27.915  1.00  0.00     0.010 A 
ATOM     70  C   UNL A   1      46.698  33.169  30.237  1.00  0.00     0.010 A 
ATOM     71  C   UNL A   1      46.728  35.049  28.163  1.00  0.00     0.020 A 
ATOM     72  C   UNL A   1      47.101  34.482  30.496  1.00  0.00     0.020 A 
ATOM     73  C   UNL A   1      47.138  35.407  29.450  1.00  0.00     0.054 A 
BRANCH  73  74
ATOM     74  S   UNL A   1      47.714  37.102  29.743  1.00  0.00     0.124 S 
ATOM     75  O   UNL A   1      46.455  37.822  29.913  1.00  0.00    -0.237 OA
ATOM     76  O   UNL A   1      48.526  36.964  30.949  1.00  0.00    -0.237 OA
ATOM     77  O   UNL A   1      48.459  37.429  28.529  1.00  0.00    -0.744 OA
ENDBRANCH  73  74
ENDBRANCH  54  68
BRANCH  55  78
ATOM     78  C   UNL A   1      43.165  23.494  27.037  1.00  0.00    -0.014 A 
ATOM     79  C   UNL A   1      42.853  23.111  25.722  1.00  0.00     0.010 A 
ATOM     80  C   UNL A   1      43.079  22.541  28.069  1.00  0.00     0.010 A 
ATOM     81  C   UNL A   1      42.471  21.795  25.443  1.00  0.00     0.020 A 
ATOM     82  C   UNL A   1      42.722  21.220  27.790  1.00  0.00     0.020 A 
ATOM     83  C   UNL A   1      42.420  20.855  26.477  1.00  0.00     0.054 A 
BRANCH  83  84
ATOM     84  S   UNL A   1      42.033  19.128  26.076  1.00  0.00     0.124 S 
ATOM     85  O   UNL A   1      40.611  19.200  25.756  1.00  0.00    -0.237 OA
ATOM     86  O   UNL A   1      42.925  18.860  24.949  1.00  0.00    -0.237 OA
ATOM     87  O   UNL A   1      42.366  18.411  27.304  1.00  0.00    -0.744 OA
ENDBRANCH  83  84
ENDBRANCH  55  78
BRANCH  67  88
ATOM     88  C   UNL A   1      49.387  26.644  26.635  1.00  0.00    -0.014 A 
ATOM     89  C   UNL A   1      50.275  26.124  27.595  1.00  0.00     0.010 A 
ATOM     90  C   UNL A   1      49.782  26.682  25.286  1.00  0.00     0.010 A 
ATOM     91  C   UNL A   1      51.553  25.699  27.219  1.00  0.00     0.020 A 
ATOM     92  C   UNL A   1      51.049  26.230  24.902  1.00  0.00     0.020 A 
ATOM     93  C   UNL A   1      51.934  25.764  25.875  1.00  0.00     0.054 A 
BRANCH  93  94
ATOM     94  S   UNL A   1      53.595  25.203  25.408  1.00  0.00     0.124 S 
ATOM     95  O   UNL A   1      53.416  23.755  25.334  1.00  0.00    -0.237 OA
ATOM     96  O   UNL A   1      53.816  25.875  24.130  1.00  0.00    -0.237 OA
ATOM     97  O   UNL A   1      54.440  25.672  26.504  1.00  0.00    -0.744 OA
ENDBRANCH  93  94
ENDBRANCH  67  88
ENDBRANCH  41  42
ENDBRANCH  34  36
ENDBRANCH  33  34
ENDBRANCH  32  33
ENDBRANCH  31  32
ENDBRANCH   1  31
TORSDOF 21
ENDMDL
MODEL 2
REMARK VINA RESULT:     -10.6      3.003      9.891
REMARK SMILES Cc1ccc(S(=O)(=O)Nc2cc(C(=O)OCCOCCOC(=O)c3ccc(-c4c5nc(c(-c6ccc(S(=O)(=O)[O-])cc6)c6ccc([nH]6)c(-c6ccc(S(=O)(=O)[O-])cc6)c6nc(c(-c7ccc(S(=O)(=O)[O-])cc7)c7ccc4[nH]7)C=C6)C=C5)cc3)cnc2N2CCCC2)c(C)c1
REMARK SMILES IDX 18 1 17 2 16 3 15 4 13 5 14 6 12 7 10 8 11 9 86 10 85 11
REMARK SMILES IDX 84 12 9 13 6 15 7 16 8 17 5 18 1 19 2 20 3 21 94 22 4 23
REMARK SMILES IDX 92 24 93 25 87 26 88 27 91 28 89 29 90 30 19 31 20 32 21 33
REMARK SMILES IDX 22 34 23 35 24 36 25 37 83 38 26 39 82 40 27 41 28 42 29 43
REMARK SMILES IDX 76 44 30 45 81 46 75 47 77 48 31 49 80 50 74 51 73 52 32 54
REMARK SMILES IDX 62 55 43 56 61 57 44 58 47 59 60 60 78 61 45 62 46 63 59 65
REMARK SMILES IDX 79 66 48 67 33 68 34 69 42 70 35 71 41 72 36 73 37 74 38 75
REMARK SMILES IDX 39 76 40 77 63 78 64 79 72 80 65 81 71 82 66 83 67 84 68 85
REMARK SMILES IDX 69 86 70 87 49 88 50 89 58 90 51 91 57 92 52 93 53 94 54 95
REMARK SMILES IDX 55 96 56 97
REMARK H PARENT 9 14 77 53 47 64
REMARK Flexibility Score: inf
ROOT
ATOM      1  O   UNL A   1      35.022  21.523  24.870  1.00  0.00    -0.374 OA
ENDROOT
BRANCH   1   2
ATOM      2  C   UNL A   1      33.810  20.796  24.661  1.00  0.00     0.202 C 
BRANCH   2   3
ATOM      3  C   UNL A   1      32.547  21.325  25.347  1.00  0.00     0.261 C 
BRANCH   3   4
ATOM      4  O   UNL A   1      32.378  22.733  25.120  1.00  0.00    -0.460 OA
BRANCH   4   5
ATOM      5  C   UNL A   1      31.759  23.414  26.107  1.00  0.00     0.339 C 
ATOM      6  O   UNL A   1      31.701  23.108  27.294  1.00  0.00    -0.246 OA
BRANCH   5   7
ATOM      7  C   UNL A   1      31.200  24.675  25.596  1.00  0.00     0.080 A 
ATOM      8  C   UNL A   1      31.074  27.056  25.511  1.00  0.00     0.092 A 
ATOM      9  C   UNL A   1      31.398  25.902  26.218  1.00  0.00     0.048 A 
ATOM     10  C   UNL A   1      30.387  26.957  24.276  1.00  0.00     0.153 A 
ATOM     11  N   UNL A   1      30.093  25.757  23.730  1.00  0.00    -0.236 NA
ATOM     12  C   UNL A   1      30.535  24.651  24.378  1.00  0.00     0.129 A 
BRANCH   8  13
ATOM     13  N   UNL A   1      31.440  28.338  26.046  1.00  0.00    -0.276 N 
ATOM     14  H   UNL A   1      30.749  28.890  26.478  1.00  0.00     0.180 HD
BRANCH  13  15
ATOM     15  S   UNL A   1      33.042  28.937  25.959  1.00  0.00     0.262 S 
ATOM     16  O   UNL A   1      33.202  29.236  24.551  1.00  0.00    -0.201 OA
ATOM     17  O   UNL A   1      33.901  27.957  26.588  1.00  0.00    -0.201 OA
BRANCH  15  18
ATOM     18  C   UNL A   1      33.247  30.452  26.895  1.00  0.00     0.090 A 
ATOM     19  C   UNL A   1      33.968  34.477  28.261  1.00  0.00     0.044 C 
ATOM     20  C   UNL A   1      33.681  33.060  27.859  1.00  0.00    -0.051 A 
ATOM     21  C   UNL A   1      32.416  32.678  27.417  1.00  0.00     0.005 A 
ATOM     22  C   UNL A   1      34.661  32.074  28.003  1.00  0.00     0.008 A 
ATOM     23  C   UNL A   1      32.192  31.371  26.974  1.00  0.00     0.023 A 
ATOM     24  C   UNL A   1      34.444  30.752  27.567  1.00  0.00    -0.030 A 
ATOM     25  C   UNL A   1      35.482  29.738  27.965  1.00  0.00     0.046 C 
ENDBRANCH  15  18
ENDBRANCH  13  15
ENDBRANCH   8  13
BRANCH  10  26
ATOM     26  N   UNL A   1      30.001  28.110  23.608  1.00  0.00    -0.355 N 
ATOM     27  C   UNL A   1      30.708  28.435  22.376  1.00  0.00     0.118 C 
ATOM     28  C   UNL A   1      28.572  28.335  23.378  1.00  0.00     0.118 C 
ATOM     29  C   UNL A   1      29.992  29.708  21.955  1.00  0.00     0.023 C 
ATOM     30  C   UNL A   1      28.531  29.398  22.267  1.00  0.00     0.023 C 
ENDBRANCH  10  26
ENDBRANCH   5   7
ENDBRANCH   4   5
ENDBRANCH   3   4
ENDBRANCH   2   3
ENDBRANCH   1   2
BRANCH   1  31
ATOM     31  C   UNL A   1      36.221  20.789  25.102  1.00  0.00     0.202 C 
BRANCH  31  32
ATOM     32  C   UNL A   1      37.566  21.500  24.905  1.00  0.00     0.261 C 
BRANCH  32  33
ATOM     33  O   UNL A   1      37.889  22.427  25.950  1.00  0.00    -0.460 OA
BRANCH  33  34
ATOM     34  C   UNL A   1      39.163  22.315  26.400  1.00  0.00     0.338 C 
ATOM     35  O   UNL A   1      39.941  21.398  26.181  1.00  0.00    -0.246 OA
BRANCH  34  36
ATOM     36  C   UNL A   1      39.587  23.552  27.079  1.00  0.00     0.060 A 
ATOM     37  C   UNL A   1      38.934  24.732  26.709  1.00  0.00     0.016 A 
ATOM     38  C   UNL A   1      40.652  23.581  27.984  1.00  0.00     0.016 A 
ATOM     39  C   UNL A   1      39.388  25.956  27.187  1.00  0.00     0.010 A 
ATOM     40  C   UNL A   1      41.108  24.815  28.463  1.00  0.00     0.010 A 
ATOM     41  C   UNL A   1      40.504  26.010  28.032  1.00  0.00    -0.014 A 
BRANCH  41  42
ATOM     42  C   UNL A   1      41.089  27.338  28.340  1.00  0.00     0.031 A 
ATOM     43  C   UNL A   1      42.464  27.678  27.835  1.00  0.00     0.074 A 
ATOM     44  C   UNL A   1      40.361  28.264  28.988  1.00  0.00     0.049 A 
ATOM     45  N   UNL A   1      43.095  28.823  27.866  1.00  0.00    -0.248 NA
ATOM     46  C   UNL A   1      43.225  26.586  27.209  1.00  0.00     0.031 C 
ATOM     47  C   UNL A   1      39.014  28.057  29.517  1.00  0.00     0.029 A 
ATOM     48  N   UNL A   1      40.649  29.570  29.293  1.00  0.00    -0.354 N 
ATOM     49  C   UNL A   1      44.323  28.595  27.256  1.00  0.00     0.074 A 
ATOM     50  C   UNL A   1      44.364  27.191  26.907  1.00  0.00     0.031 C 
ATOM     51  C   UNL A   1      38.588  29.201  30.078  1.00  0.00     0.029 A 
ATOM     52  C   UNL A   1      39.635  30.215  29.955  1.00  0.00     0.049 A 
ATOM     53  H   UNL A   1      41.502  30.003  29.060  1.00  0.00     0.167 HD
ATOM     54  C   UNL A   1      45.322  29.474  26.997  1.00  0.00     0.031 A 
ATOM     55  C   UNL A   1      39.553  31.481  30.409  1.00  0.00     0.031 A 
ATOM     56  C   UNL A   1      45.295  30.863  27.377  1.00  0.00     0.049 A 
ATOM     57  C   UNL A   1      40.682  32.437  30.138  1.00  0.00     0.074 A 
ATOM     58  C   UNL A   1      46.252  31.837  27.155  1.00  0.00     0.029 A 
ATOM     59  N   UNL A   1      44.259  31.472  28.071  1.00  0.00    -0.354 N 
ATOM     60  N   UNL A   1      41.816  32.217  29.517  1.00  0.00    -0.248 NA
ATOM     61  C   UNL A   1      40.506  33.817  30.607  1.00  0.00     0.031 C 
ATOM     62  C   UNL A   1      45.818  33.023  27.758  1.00  0.00     0.029 A 
ATOM     63  C   UNL A   1      44.563  32.804  28.306  1.00  0.00     0.049 A 
ATOM     64  H   UNL A   1      43.431  31.024  28.356  1.00  0.00     0.167 HD
ATOM     65  C   UNL A   1      42.484  33.438  29.502  1.00  0.00     0.074 A 
ATOM     66  C   UNL A   1      41.616  34.394  30.162  1.00  0.00     0.031 C 
ATOM     67  C   UNL A   1      43.701  33.740  28.984  1.00  0.00     0.031 A 
BRANCH  54  68
ATOM     68  C   UNL A   1      46.544  28.933  26.301  1.00  0.00    -0.014 A 
ATOM     69  C   UNL A   1      46.503  28.557  24.944  1.00  0.00     0.010 A 
ATOM     70  C   UNL A   1      47.748  28.787  27.012  1.00  0.00     0.010 A 
ATOM     71  C   UNL A   1      47.624  27.988  24.332  1.00  0.00     0.020 A 
ATOM     72  C   UNL A   1      48.879  28.243  26.397  1.00  0.00     0.020 A 
ATOM     73  C   UNL A   1      48.801  27.823  25.067  1.00  0.00     0.054 A 
BRANCH  73  74
ATOM     74  S   UNL A   1      50.234  27.059  24.260  1.00  0.00     0.124 S 
ATOM     75  O   UNL A   1      49.678  26.669  22.966  1.00  0.00    -0.237 OA
ATOM     76  O   UNL A   1      51.205  28.150  24.223  1.00  0.00    -0.237 OA
ATOM     77  O   UNL A   1      50.582  25.951  25.147  1.00  0.00    -0.744 OA
ENDBRANCH  73  74
ENDBRANCH  54  68
BRANCH  55  78
ATOM     78  C   UNL A   1      38.337  31.906  31.152  1.00  0.00    -0.014 A 
ATOM     79  C   UNL A   1      38.268  31.797  32.550  1.00  0.00     0.010 A 
ATOM     80  C   UNL A   1      37.262  32.489  30.454  1.00  0.00     0.010 A 
ATOM     81  C   UNL A   1      37.148  32.272  33.240  1.00  0.00     0.020 A 
ATOM     82  C   UNL A   1      36.153  32.985  31.142  1.00  0.00     0.020 A 
ATOM     83  C   UNL A   1      36.103  32.874  32.532  1.00  0.00     0.054 A 
BRANCH  83  84
ATOM     84  S   UNL A   1      34.711  33.585  33.456  1.00  0.00     0.124 S 
ATOM     85  O   UNL A   1      33.606  32.718  33.059  1.00  0.00    -0.237 OA
ATOM     86  O   UNL A   1      35.155  33.454  34.842  1.00  0.00    -0.237 OA
ATOM     87  O   UNL A   1      34.642  34.958  32.962  1.00  0.00    -0.744 OA
ENDBRANCH  83  84
ENDBRANCH  55  78
BRANCH  67  88
ATOM     88  C   UNL A   1      44.158  35.172  29.094  1.00  0.00    -0.014 A 
ATOM     89  C   UNL A   1      44.922  35.614  30.190  1.00  0.00     0.010 A 
ATOM     90  C   UNL A   1      43.834  36.084  28.074  1.00  0.00     0.010 A 
ATOM     91  C   UNL A   1      45.308  36.955  30.288  1.00  0.00     0.020 A 
ATOM     92  C   UNL A   1      44.242  37.419  28.155  1.00  0.00     0.020 A 
ATOM     93  C   UNL A   1      44.957  37.850  29.273  1.00  0.00     0.054 A 
BRANCH  93  94
ATOM     94  S   UNL A   1      45.472  39.584  29.418  1.00  0.00     0.124 S 
ATOM     95  O   UNL A   1      46.262  39.564  30.646  1.00  0.00    -0.237 OA
ATOM     96  O   UNL A   1      46.227  39.801  28.187  1.00  0.00    -0.237 OA
ATOM     97  O   UNL A   1      44.208  40.314  29.502  1.00  0.00    -0.744 OA
ENDBRANCH  93  94
ENDBRANCH  67  88
ENDBRANCH  41  42
ENDBRANCH  34  36
ENDBRANCH  33  34
ENDBRANCH  32  33
ENDBRANCH  31  32
ENDBRANCH   1  31
TORSDOF 21
ENDMDL
MODEL 3
REMARK VINA RESULT:     -10.5      5.683     10.118
REMARK SMILES Cc1ccc(S(=O)(=O)Nc2cc(C(=O)OCCOCCOC(=O)c3ccc(-c4c5nc(c(-c6ccc(S(=O)(=O)[O-])cc6)c6ccc([nH]6)c(-c6ccc(S(=O)(=O)[O-])cc6)c6nc(c(-c7ccc(S(=O)(=O)[O-])cc7)c7ccc4[nH]7)C=C6)C=C5)cc3)cnc2N2CCCC2)c(C)c1
REMARK SMILES IDX 18 1 17 2 16 3 15 4 13 5 14 6 12 7 10 8 11 9 86 10 85 11
REMARK SMILES IDX 84 12 9 13 6 15 7 16 8 17 5 18 1 19 2 20 3 21 94 22 4 23
REMARK SMILES IDX 92 24 93 25 87 26 88 27 91 28 89 29 90 30 19 31 20 32 21 33
REMARK SMILES IDX 22 34 23 35 24 36 25 37 83 38 26 39 82 40 27 41 28 42 29 43
REMARK SMILES IDX 76 44 30 45 81 46 75 47 77 48 31 49 80 50 74 51 73 52 32 54
REMARK SMILES IDX 62 55 43 56 61 57 44 58 47 59 60 60 78 61 45 62 46 63 59 65
REMARK SMILES IDX 79 66 48 67 33 68 34 69 42 70 35 71 41 72 36 73 37 74 38 75
REMARK SMILES IDX 39 76 40 77 63 78 64 79 72 80 65 81 71 82 66 83 67 84 68 85
REMARK SMILES IDX 69 86 70 87 49 88 50 89 58 90 51 91 57 92 52 93 53 94 54 95
REMARK SMILES IDX 55 96 56 97
REMARK H PARENT 9 14 77 53 47 64
REMARK Flexibility Score: inf
ROOT
ATOM      1  O   UNL A   1      33.949  32.831  28.590  1.00  0.00    -0.374 OA
ENDROOT
BRANCH   1   2
ATOM      2  C   UNL A   1      34.793  32.035  27.757  1.00  0.00     0.202 C 
BRANCH   2   3
ATOM      3  C   UNL A   1      34.275  30.653  27.347  1.00  0.00     0.261 C 
BRANCH   3   4
ATOM      4  O   UNL A   1      32.876  30.511  27.637  1.00  0.00    -0.460 OA
BRANCH   4   5
ATOM      5  C   UNL A   1      32.067  30.379  26.564  1.00  0.00     0.339 C 
ATOM      6  O   UNL A   1      31.680  31.271  25.815  1.00  0.00    -0.246 OA
BRANCH   5   7
ATOM      7  C   UNL A   1      31.749  28.964  26.326  1.00  0.00     0.080 A 
ATOM      8  C   UNL A   1      31.774  26.981  24.997  1.00  0.00     0.092 A 
ATOM      9  C   UNL A   1      31.815  28.370  25.070  1.00  0.00     0.048 A 
ATOM     10  C   UNL A   1      31.480  26.222  26.158  1.00  0.00     0.153 A 
ATOM     11  N   UNL A   1      31.301  26.816  27.358  1.00  0.00    -0.236 NA
ATOM     12  C   UNL A   1      31.475  28.159  27.423  1.00  0.00     0.129 A 
BRANCH   8  13
ATOM     13  N   UNL A   1      32.028  26.331  23.742  1.00  0.00    -0.276 N 
ATOM     14  H   UNL A   1      31.317  26.313  23.062  1.00  0.00     0.180 HD
BRANCH  13  15
ATOM     15  S   UNL A   1      33.530  25.589  23.389  1.00  0.00     0.262 S 
ATOM     16  O   UNL A   1      34.340  25.929  24.541  1.00  0.00    -0.201 OA
ATOM     17  O   UNL A   1      33.932  26.037  22.072  1.00  0.00    -0.201 OA
BRANCH  15  18
ATOM     18  C   UNL A   1      33.394  23.805  23.288  1.00  0.00     0.090 A 
ATOM     19  C   UNL A   1      32.603  19.614  23.915  1.00  0.00     0.044 C 
ATOM     20  C   UNL A   1      32.897  21.055  23.618  1.00  0.00    -0.051 A 
ATOM     21  C   UNL A   1      31.960  21.864  22.979  1.00  0.00     0.005 A 
ATOM     22  C   UNL A   1      34.156  21.591  23.902  1.00  0.00     0.008 A 
ATOM     23  C   UNL A   1      32.225  23.223  22.781  1.00  0.00     0.023 A 
ATOM     24  C   UNL A   1      34.436  22.958  23.701  1.00  0.00    -0.030 A 
ATOM     25  C   UNL A   1      35.876  23.372  23.840  1.00  0.00     0.046 C 
ENDBRANCH  15  18
ENDBRANCH  13  15
ENDBRANCH   8  13
BRANCH  10  26
ATOM     26  N   UNL A   1      31.368  24.843  26.069  1.00  0.00    -0.355 N 
ATOM     27  C   UNL A   1      32.288  24.046  26.870  1.00  0.00     0.118 C 
ATOM     28  C   UNL A   1      30.036  24.245  26.187  1.00  0.00     0.118 C 
ATOM     29  C   UNL A   1      31.833  22.637  26.523  1.00  0.00     0.023 C 
ATOM     30  C   UNL A   1      30.314  22.765  26.501  1.00  0.00     0.023 C 
ENDBRANCH  10  26
ENDBRANCH   5   7
ENDBRANCH   4   5
ENDBRANCH   3   4
ENDBRANCH   2   3
ENDBRANCH   1   2
BRANCH   1  31
ATOM     31  C   UNL A   1      33.280  33.947  28.009  1.00  0.00     0.202 C 
BRANCH  31  32
ATOM     32  C   UNL A   1      33.095  35.213  28.855  1.00  0.00     0.261 C 
BRANCH  32  33
ATOM     33  O   UNL A   1      32.452  34.978  30.116  1.00  0.00    -0.460 OA
BRANCH  33  34
ATOM     34  C   UNL A   1      33.159  35.436  31.179  1.00  0.00     0.338 C 
ATOM     35  O   UNL A   1      32.839  36.339  31.938  1.00  0.00    -0.246 OA
BRANCH  34  36
ATOM     36  C   UNL A   1      34.333  34.584  31.431  1.00  0.00     0.060 A 
ATOM     37  C   UNL A   1      34.124  33.429  32.192  1.00  0.00     0.016 A 
ATOM     38  C   UNL A   1      35.621  34.942  31.020  1.00  0.00     0.016 A 
ATOM     39  C   UNL A   1      35.209  32.663  32.605  1.00  0.00     0.010 A 
ATOM     40  C   UNL A   1      36.711  34.171  31.438  1.00  0.00     0.010 A 
ATOM     41  C   UNL A   1      36.512  33.053  32.268  1.00  0.00    -0.014 A 
BRANCH  41  42
ATOM     42  C   UNL A   1      37.646  32.342  32.908  1.00  0.00     0.031 A 
ATOM     43  C   UNL A   1      38.350  31.244  32.159  1.00  0.00     0.074 A 
ATOM     44  C   UNL A   1      38.101  32.737  34.110  1.00  0.00     0.049 A 
ATOM     45  N   UNL A   1      39.445  30.601  32.472  1.00  0.00    -0.248 NA
ATOM     46  C   UNL A   1      37.742  30.818  30.889  1.00  0.00     0.031 C 
ATOM     47  C   UNL A   1      37.510  33.794  34.928  1.00  0.00     0.029 A 
ATOM     48  N   UNL A   1      39.177  32.302  34.841  1.00  0.00    -0.354 N 
ATOM     49  C   UNL A   1      39.665  29.701  31.436  1.00  0.00     0.074 A 
ATOM     50  C   UNL A   1      38.564  29.851  30.508  1.00  0.00     0.031 C 
ATOM     51  C   UNL A   1      38.237  33.932  36.049  1.00  0.00     0.029 A 
ATOM     52  C   UNL A   1      39.336  32.967  36.031  1.00  0.00     0.049 A 
ATOM     53  H   UNL A   1      39.777  31.581  34.541  1.00  0.00     0.167 HD
ATOM     54  C   UNL A   1      40.694  28.837  31.262  1.00  0.00     0.031 A 
ATOM     55  C   UNL A   1      40.263  32.822  36.997  1.00  0.00     0.031 A 
ATOM     56  C   UNL A   1      41.771  28.664  32.203  1.00  0.00     0.049 A 
ATOM     57  C   UNL A   1      41.384  31.839  36.803  1.00  0.00     0.074 A 
ATOM     58  C   UNL A   1      42.865  27.820  32.118  1.00  0.00     0.029 A 
ATOM     59  N   UNL A   1      41.881  29.338  33.411  1.00  0.00    -0.354 N 
ATOM     60  N   UNL A   1      41.604  31.029  35.794  1.00  0.00    -0.248 NA
ATOM     61  C   UNL A   1      42.395  31.769  37.866  1.00  0.00     0.031 C 
ATOM     62  C   UNL A   1      43.610  27.948  33.296  1.00  0.00     0.029 A 
ATOM     63  C   UNL A   1      43.012  28.915  34.091  1.00  0.00     0.049 A 
ATOM     64  H   UNL A   1      41.249  30.017  33.738  1.00  0.00     0.167 HD
ATOM     65  C   UNL A   1      42.791  30.367  36.091  1.00  0.00     0.074 A 
ATOM     66  C   UNL A   1      43.249  30.885  37.365  1.00  0.00     0.031 C 
ATOM     67  C   UNL A   1      43.445  29.421  35.370  1.00  0.00     0.031 A 
BRANCH  54  68
ATOM     68  C   UNL A   1      40.672  27.988  30.018  1.00  0.00    -0.014 A 
ATOM     69  C   UNL A   1      39.742  26.940  29.867  1.00  0.00     0.010 A 
ATOM     70  C   UNL A   1      41.598  28.231  28.989  1.00  0.00     0.010 A 
ATOM     71  C   UNL A   1      39.782  26.115  28.740  1.00  0.00     0.020 A 
ATOM     72  C   UNL A   1      41.623  27.425  27.847  1.00  0.00     0.020 A 
ATOM     73  C   UNL A   1      40.732  26.355  27.743  1.00  0.00     0.054 A 
BRANCH  73  74
ATOM     74  S   UNL A   1      40.781  25.255  26.302  1.00  0.00     0.124 S 
ATOM     75  O   UNL A   1      39.405  24.768  26.247  1.00  0.00    -0.237 OA
ATOM     76  O   UNL A   1      41.171  26.156  25.220  1.00  0.00    -0.237 OA
ATOM     77  O   UNL A   1      41.783  24.253  26.664  1.00  0.00    -0.744 OA
ENDBRANCH  73  74
ENDBRANCH  54  68
BRANCH  55  78
ATOM     78  C   UNL A   1      40.164  33.653  38.227  1.00  0.00    -0.014 A 
ATOM     79  C   UNL A   1      40.625  34.979  38.243  1.00  0.00     0.010 A 
ATOM     80  C   UNL A   1      39.539  33.128  39.374  1.00  0.00     0.010 A 
ATOM     81  C   UNL A   1      40.454  35.771  39.383  1.00  0.00     0.020 A 
ATOM     82  C   UNL A   1      39.346  33.923  40.506  1.00  0.00     0.020 A 
ATOM     83  C   UNL A   1      39.806  35.241  40.503  1.00  0.00     0.054 A 
BRANCH  83  84
ATOM     84  S   UNL A   1      39.493  36.320  41.929  1.00  0.00     0.124 S 
ATOM     85  O   UNL A   1      38.242  35.781  42.451  1.00  0.00    -0.237 OA
ATOM     86  O   UNL A   1      40.676  36.096  42.758  1.00  0.00    -0.237 OA
ATOM     87  O   UNL A   1      39.405  37.652  41.335  1.00  0.00    -0.744 OA
ENDBRANCH  83  84
ENDBRANCH  55  78
BRANCH  67  88
ATOM     88  C   UNL A   1      44.740  28.898  35.938  1.00  0.00    -0.014 A 
ATOM     89  C   UNL A   1      44.768  27.767  36.774  1.00  0.00     0.010 A 
ATOM     90  C   UNL A   1      45.949  29.539  35.612  1.00  0.00     0.010 A 
ATOM     91  C   UNL A   1      45.977  27.318  37.316  1.00  0.00     0.020 A 
ATOM     92  C   UNL A   1      47.163  29.075  36.129  1.00  0.00     0.020 A 
ATOM     93  C   UNL A   1      47.165  27.982  36.996  1.00  0.00     0.054 A 
BRANCH  93  94
ATOM     94  S   UNL A   1      48.723  27.381  37.707  1.00  0.00     0.124 S 
ATOM     95  O   UNL A   1      49.320  28.614  38.212  1.00  0.00    -0.237 OA
ATOM     96  O   UNL A   1      48.271  26.437  38.725  1.00  0.00    -0.237 OA
ATOM     97  O   UNL A   1      49.412  26.775  36.568  1.00  0.00    -0.744 OA
ENDBRANCH  93  94
ENDBRANCH  67  88
ENDBRANCH  41  42
ENDBRANCH  34  36
ENDBRANCH  33  34
ENDBRANCH  32  33
ENDBRANCH  31  32
ENDBRANCH   1  31
TORSDOF 21
ENDMDL
