MODEL 1
REMARK VINA RESULT:     -10.9      0.000      0.000
REMARK SMILES Cc1cc2c(c(C)c1Cl)C=C(C(=O)OCCOCCOC(=O)c1ccc(-c3c4nc(c(-c5ccc(S(=O)(=O)[O-])cc5)c5ccc([nH]5)c(-c5ccc(S(=O)(=O)[O-])cc5)c5nc(c(-c6ccc(S(=O)(=O)[O-])cc6)c6ccc3[nH]6)C=C5)C=C4)cc1)[C@H](C(F)(F)F)O2
REMARK SMILES IDX 18 1 17 2 16 3 15 4 14 5 12 6 13 7 11 8 1 9 2 10 3 11 8 12
REMARK SMILES IDX 4 13 6 14 9 15 5 16 88 17 7 18 10 19 83 20 84 21 85 22 86 23
REMARK SMILES IDX 87 24 19 25 20 26 21 27 22 28 23 29 24 30 82 31 25 32 81 33
REMARK SMILES IDX 26 34 27 35 28 36 75 37 29 38 80 39 74 40 76 41 30 42 79 43
REMARK SMILES IDX 73 44 72 45 31 47 61 48 42 49 60 50 43 51 46 52 59 53 77 54
REMARK SMILES IDX 44 55 45 56 58 58 78 59 47 60 32 61 33 62 41 63 34 64 40 65
REMARK SMILES IDX 35 66 36 67 37 68 38 69 39 70 62 71 63 72 71 73 64 74 70 75
REMARK SMILES IDX 65 76 66 77 67 78 68 79 69 80 48 81 49 82 57 83 50 84 56 85
REMARK SMILES IDX 51 86 52 87 53 88 54 89 55 90
REMARK H PARENT 76 46 46 57
REMARK Flexibility Score: inf
ROOT
ATOM      1  C   UNL A   1      34.142  31.600  28.064  1.00  0.00     0.202 C 
ENDROOT
BRANCH   1   2
ATOM      2  O   UNL A   1      33.692  30.375  27.480  1.00  0.00    -0.374 OA
BRANCH   2   3
ATOM      3  C   UNL A   1      32.970  30.477  26.251  1.00  0.00     0.202 C 
BRANCH   3   4
ATOM      4  C   UNL A   1      32.532  29.156  25.615  1.00  0.00     0.261 C 
BRANCH   4   5
ATOM      5  O   UNL A   1      33.619  28.578  24.873  1.00  0.00    -0.460 OA
BRANCH   5   6
ATOM      6  C   UNL A   1      33.285  28.151  23.640  1.00  0.00     0.338 C 
ATOM      7  O   UNL A   1      33.474  28.756  22.595  1.00  0.00    -0.246 OA
BRANCH   6   8
ATOM      8  C   UNL A   1      32.760  26.772  23.691  1.00  0.00     0.087 C 
ATOM      9  C   UNL A   1      32.429  20.303  23.447  1.00  0.00     0.046 C 
ATOM     10  C   UNL A   1      32.725  21.747  23.751  1.00  0.00    -0.028 A 
ATOM     11  C   UNL A   1      31.908  22.739  23.188  1.00  0.00     0.052 A 
ATOM     12  C   UNL A   1      33.821  22.128  24.552  1.00  0.00     0.047 A 
ATOM     13  C   UNL A   1      32.187  24.088  23.391  1.00  0.00     0.128 A 
ATOM     14  C   UNL A   1      34.112  23.491  24.781  1.00  0.00    -0.021 A 
ATOM     15  Cl  UNL A   1      34.836  20.884  25.221  1.00  0.00    -0.084 Cl
ATOM     16  C   UNL A   1      33.284  24.468  24.174  1.00  0.00     0.022 A 
ATOM     17  O   UNL A   1      31.388  24.973  22.712  1.00  0.00    -0.475 OA
ATOM     18  C   UNL A   1      35.288  23.928  25.626  1.00  0.00     0.047 C 
ATOM     19  C   UNL A   1      33.607  25.887  24.230  1.00  0.00     0.027 C 
ATOM     20  C   UNL A   1      31.432  26.380  23.105  1.00  0.00     0.316 C 
BRANCH  20  21
ATOM     21  C   UNL A   1      30.201  26.674  23.988  1.00  0.00     0.430 C 
ATOM     22  F   UNL A   1      30.426  26.475  25.303  1.00  0.00    -0.167 F 
ATOM     23  F   UNL A   1      29.814  27.968  23.857  1.00  0.00    -0.167 F 
ATOM     24  F   UNL A   1      29.138  25.904  23.648  1.00  0.00    -0.167 F 
ENDBRANCH  20  21
ENDBRANCH   6   8
ENDBRANCH   5   6
ENDBRANCH   4   5
ENDBRANCH   3   4
ENDBRANCH   2   3
ENDBRANCH   1   2
BRANCH   1  25
ATOM     25  C   UNL A   1      35.297  31.511  29.073  1.00  0.00     0.261 C 
BRANCH  25  26
ATOM     26  O   UNL A   1      35.855  30.185  29.127  1.00  0.00    -0.460 OA
BRANCH  26  27
ATOM     27  C   UNL A   1      36.595  29.916  30.230  1.00  0.00     0.338 C 
ATOM     28  O   UNL A   1      36.178  29.627  31.341  1.00  0.00    -0.246 OA
BRANCH  27  29
ATOM     29  C   UNL A   1      38.016  29.777  29.844  1.00  0.00     0.060 A 
ATOM     30  C   UNL A   1      38.310  29.767  28.474  1.00  0.00     0.016 A 
ATOM     31  C   UNL A   1      39.036  29.646  30.788  1.00  0.00     0.016 A 
ATOM     32  C   UNL A   1      39.621  29.581  28.041  1.00  0.00     0.010 A 
ATOM     33  C   UNL A   1      40.351  29.444  30.350  1.00  0.00     0.010 A 
ATOM     34  C   UNL A   1      40.644  29.375  28.976  1.00  0.00    -0.014 A 
BRANCH  34  35
ATOM     35  C   UNL A   1      41.972  28.916  28.495  1.00  0.00     0.031 A 
ATOM     36  C   UNL A   1      43.112  29.899  28.479  1.00  0.00     0.074 A 
ATOM     37  C   UNL A   1      42.185  27.631  28.157  1.00  0.00     0.049 A 
ATOM     38  N   UNL A   1      44.365  29.708  28.156  1.00  0.00    -0.248 NA
ATOM     39  C   UNL A   1      42.801  31.281  28.886  1.00  0.00     0.031 C 
ATOM     40  C   UNL A   1      41.177  26.572  28.181  1.00  0.00     0.029 A 
ATOM     41  N   UNL A   1      43.330  26.997  27.740  1.00  0.00    -0.354 N 
ATOM     42  C   UNL A   1      44.990  30.936  28.328  1.00  0.00     0.074 A 
ATOM     43  C   UNL A   1      43.973  31.879  28.737  1.00  0.00     0.031 C 
ATOM     44  C   UNL A   1      41.754  25.414  27.812  1.00  0.00     0.029 A 
ATOM     45  C   UNL A   1      43.161  25.655  27.495  1.00  0.00     0.049 A 
ATOM     46  H   UNL A   1      44.191  27.461  27.628  1.00  0.00     0.167 HD
ATOM     47  C   UNL A   1      46.298  31.251  28.178  1.00  0.00     0.031 A 
ATOM     48  C   UNL A   1      44.039  24.726  27.062  1.00  0.00     0.031 A 
ATOM     49  C   UNL A   1      47.310  30.318  27.761  1.00  0.00     0.049 A 
ATOM     50  C   UNL A   1      45.471  25.124  26.802  1.00  0.00     0.074 A 
ATOM     51  C   UNL A   1      48.664  30.544  27.586  1.00  0.00     0.029 A 
ATOM     52  N   UNL A   1      47.080  28.988  27.446  1.00  0.00    -0.354 N 
ATOM     53  N   UNL A   1      46.052  26.285  26.997  1.00  0.00    -0.248 NA
ATOM     54  C   UNL A   1      46.364  24.088  26.264  1.00  0.00     0.031 C 
ATOM     55  C   UNL A   1      49.242  29.367  27.102  1.00  0.00     0.029 A 
ATOM     56  C   UNL A   1      48.262  28.389  27.042  1.00  0.00     0.049 A 
ATOM     57  H   UNL A   1      46.208  28.536  27.501  1.00  0.00     0.167 HD
ATOM     58  C   UNL A   1      47.382  26.111  26.627  1.00  0.00     0.074 A 
ATOM     59  C   UNL A   1      47.524  24.730  26.213  1.00  0.00     0.031 C 
ATOM     60  C   UNL A   1      48.392  27.014  26.628  1.00  0.00     0.031 A 
BRANCH  47  61
ATOM     61  C   UNL A   1      46.712  32.671  28.455  1.00  0.00    -0.014 A 
ATOM     62  C   UNL A   1      46.682  33.644  27.439  1.00  0.00     0.010 A 
ATOM     63  C   UNL A   1      47.079  33.052  29.758  1.00  0.00     0.010 A 
ATOM     64  C   UNL A   1      47.039  34.966  27.717  1.00  0.00     0.020 A 
ATOM     65  C   UNL A   1      47.410  34.379  30.046  1.00  0.00     0.020 A 
ATOM     66  C   UNL A   1      47.400  35.326  29.019  1.00  0.00     0.054 A 
BRANCH  66  67
ATOM     67  S   UNL A   1      47.826  37.056  29.353  1.00  0.00     0.124 S 
ATOM     68  O   UNL A   1      49.013  36.918  30.192  1.00  0.00    -0.237 OA
ATOM     69  O   UNL A   1      48.063  37.589  28.013  1.00  0.00    -0.237 OA
ATOM     70  O   UNL A   1      46.643  37.583  30.029  1.00  0.00    -0.744 OA
ENDBRANCH  66  67
ENDBRANCH  47  61
BRANCH  48  71
ATOM     71  C   UNL A   1      43.589  23.323  26.844  1.00  0.00    -0.014 A 
ATOM     72  C   UNL A   1      43.558  22.773  25.550  1.00  0.00     0.010 A 
ATOM     73  C   UNL A   1      43.194  22.524  27.933  1.00  0.00     0.010 A 
ATOM     74  C   UNL A   1      43.135  21.455  25.349  1.00  0.00     0.020 A 
ATOM     75  C   UNL A   1      42.798  21.197  27.740  1.00  0.00     0.020 A 
ATOM     76  C   UNL A   1      42.767  20.672  26.448  1.00  0.00     0.054 A 
BRANCH  76  77
ATOM     77  S   UNL A   1      42.283  18.946  26.167  1.00  0.00     0.124 S 
ATOM     78  O   UNL A   1      43.175  18.550  25.083  1.00  0.00    -0.237 OA
ATOM     79  O   UNL A   1      42.553  18.333  27.466  1.00  0.00    -0.237 OA
ATOM     80  O   UNL A   1      40.868  19.040  25.813  1.00  0.00    -0.744 OA
ENDBRANCH  76  77
ENDBRANCH  48  71
BRANCH  60  81
ATOM     81  C   UNL A   1      49.756  26.557  26.176  1.00  0.00    -0.014 A 
ATOM     82  C   UNL A   1      50.213  26.829  24.875  1.00  0.00     0.010 A 
ATOM     83  C   UNL A   1      50.630  25.948  27.096  1.00  0.00     0.010 A 
ATOM     84  C   UNL A   1      51.518  26.495  24.500  1.00  0.00     0.020 A 
ATOM     85  C   UNL A   1      51.944  25.639  26.733  1.00  0.00     0.020 A 
ATOM     86  C   UNL A   1      52.378  25.910  25.435  1.00  0.00     0.054 A 
BRANCH  86  87
ATOM     87  S   UNL A   1      54.089  25.563  24.941  1.00  0.00     0.124 S 
ATOM     88  O   UNL A   1      54.123  26.081  23.575  1.00  0.00    -0.237 OA
ATOM     89  O   UNL A   1      54.863  26.321  25.921  1.00  0.00    -0.237 OA
ATOM     90  O   UNL A   1      54.197  24.110  25.057  1.00  0.00    -0.744 OA
ENDBRANCH  86  87
ENDBRANCH  60  81
ENDBRANCH  34  35
ENDBRANCH  27  29
ENDBRANCH  26  27
ENDBRANCH  25  26
ENDBRANCH   1  25
TORSDOF 18
ENDMDL
MODEL 2
REMARK VINA RESULT:     -10.9      5.195      7.018
REMARK SMILES Cc1cc2c(c(C)c1Cl)C=C(C(=O)OCCOCCOC(=O)c1ccc(-c3c4nc(c(-c5ccc(S(=O)(=O)[O-])cc5)c5ccc([nH]5)c(-c5ccc(S(=O)(=O)[O-])cc5)c5nc(c(-c6ccc(S(=O)(=O)[O-])cc6)c6ccc3[nH]6)C=C5)C=C4)cc1)[C@H](C(F)(F)F)O2
REMARK SMILES IDX 18 1 17 2 16 3 15 4 14 5 12 6 13 7 11 8 1 9 2 10 3 11 8 12
REMARK SMILES IDX 4 13 6 14 9 15 5 16 88 17 7 18 10 19 83 20 84 21 85 22 86 23
REMARK SMILES IDX 87 24 19 25 20 26 21 27 22 28 23 29 24 30 82 31 25 32 81 33
REMARK SMILES IDX 26 34 27 35 28 36 75 37 29 38 80 39 74 40 76 41 30 42 79 43
REMARK SMILES IDX 73 44 72 45 31 47 61 48 42 49 60 50 43 51 46 52 59 53 77 54
REMARK SMILES IDX 44 55 45 56 58 58 78 59 47 60 32 61 33 62 41 63 34 64 40 65
REMARK SMILES IDX 35 66 36 67 37 68 38 69 39 70 62 71 63 72 71 73 64 74 70 75
REMARK SMILES IDX 65 76 66 77 67 78 68 79 69 80 48 81 49 82 57 83 50 84 56 85
REMARK SMILES IDX 51 86 52 87 53 88 54 89 55 90
REMARK H PARENT 76 46 46 57
REMARK Flexibility Score: inf
ROOT
ATOM      1  C   UNL A   1      31.807  30.238  25.924  1.00  0.00     0.202 C 
ENDROOT
BRANCH   1   2
ATOM      2  O   UNL A   1      32.227  29.179  25.060  1.00  0.00    -0.374 OA
BRANCH   2   3
ATOM      3  C   UNL A   1      31.416  28.928  23.911  1.00  0.00     0.202 C 
BRANCH   3   4
ATOM      4  C   UNL A   1      32.131  28.325  22.700  1.00  0.00     0.261 C 
BRANCH   4   5
ATOM      5  O   UNL A   1      33.095  27.347  23.128  1.00  0.00    -0.460 OA
BRANCH   5   6
ATOM      6  C   UNL A   1      33.221  26.293  22.299  1.00  0.00     0.338 C 
ATOM      7  O   UNL A   1      33.551  26.339  21.124  1.00  0.00    -0.246 OA
BRANCH   6   8
ATOM      8  C   UNL A   1      33.028  25.027  23.035  1.00  0.00     0.087 C 
ATOM      9  C   UNL A   1      33.710  18.886  24.994  1.00  0.00     0.046 C 
ATOM     10  C   UNL A   1      33.870  20.340  24.641  1.00  0.00    -0.028 A 
ATOM     11  C   UNL A   1      32.729  21.087  24.311  1.00  0.00     0.052 A 
ATOM     12  C   UNL A   1      35.136  20.959  24.595  1.00  0.00     0.047 A 
ATOM     13  C   UNL A   1      32.841  22.417  23.915  1.00  0.00     0.128 A 
ATOM     14  C   UNL A   1      35.269  22.310  24.209  1.00  0.00    -0.021 A 
ATOM     15  Cl  UNL A   1      36.541  20.009  24.984  1.00  0.00    -0.084 Cl
ATOM     16  C   UNL A   1      34.100  23.028  23.854  1.00  0.00     0.022 A 
ATOM     17  O   UNL A   1      31.676  23.023  23.516  1.00  0.00    -0.475 OA
ATOM     18  C   UNL A   1      36.616  22.996  24.140  1.00  0.00     0.047 C 
ATOM     19  C   UNL A   1      34.166  24.372  23.297  1.00  0.00     0.027 C 
ATOM     20  C   UNL A   1      31.672  24.478  23.375  1.00  0.00     0.316 C 
BRANCH  20  21
ATOM     21  C   UNL A   1      31.003  25.082  24.628  1.00  0.00     0.430 C 
ATOM     22  F   UNL A   1      31.859  25.769  25.413  1.00  0.00    -0.167 F 
ATOM     23  F   UNL A   1      30.022  25.952  24.277  1.00  0.00    -0.167 F 
ATOM     24  F   UNL A   1      30.432  24.131  25.407  1.00  0.00    -0.167 F 
ENDBRANCH  20  21
ENDBRANCH   6   8
ENDBRANCH   5   6
ENDBRANCH   4   5
ENDBRANCH   3   4
ENDBRANCH   2   3
ENDBRANCH   1   2
BRANCH   1  25
ATOM     25  C   UNL A   1      32.598  30.434  27.226  1.00  0.00     0.261 C 
BRANCH  25  26
ATOM     26  O   UNL A   1      34.019  30.424  26.992  1.00  0.00    -0.460 OA
BRANCH  26  27
ATOM     27  C   UNL A   1      34.707  31.434  27.577  1.00  0.00     0.338 C 
ATOM     28  O   UNL A   1      34.282  32.545  27.857  1.00  0.00    -0.246 OA
BRANCH  27  29
ATOM     29  C   UNL A   1      36.005  30.924  28.066  1.00  0.00     0.060 A 
ATOM     30  C   UNL A   1      36.083  29.560  28.377  1.00  0.00     0.016 A 
ATOM     31  C   UNL A   1      37.117  31.751  28.233  1.00  0.00     0.016 A 
ATOM     32  C   UNL A   1      37.259  29.026  28.898  1.00  0.00     0.010 A 
ATOM     33  C   UNL A   1      38.294  31.215  28.771  1.00  0.00     0.010 A 
ATOM     34  C   UNL A   1      38.359  29.859  29.139  1.00  0.00    -0.014 A 
BRANCH  34  35
ATOM     35  C   UNL A   1      39.497  29.332  29.934  1.00  0.00     0.031 A 
ATOM     36  C   UNL A   1      39.652  29.787  31.360  1.00  0.00     0.074 A 
ATOM     37  C   UNL A   1      40.331  28.404  29.428  1.00  0.00     0.049 A 
ATOM     38  N   UNL A   1      40.531  29.417  32.256  1.00  0.00    -0.248 NA
ATOM     39  C   UNL A   1      38.684  30.786  31.846  1.00  0.00     0.031 C 
ATOM     40  C   UNL A   1      40.254  27.843  28.079  1.00  0.00     0.029 A 
ATOM     41  N   UNL A   1      41.399  27.758  30.000  1.00  0.00    -0.354 N 
ATOM     42  C   UNL A   1      40.219  30.129  33.407  1.00  0.00     0.074 A 
ATOM     43  C   UNL A   1      39.100  30.989  33.086  1.00  0.00     0.031 C 
ATOM     44  C   UNL A   1      41.225  26.924  27.935  1.00  0.00     0.029 A 
ATOM     45  C   UNL A   1      42.011  26.853  29.166  1.00  0.00     0.049 A 
ATOM     46  H   UNL A   1      41.699  27.928  30.922  1.00  0.00     0.167 HD
ATOM     47  C   UNL A   1      40.797  30.063  34.629  1.00  0.00     0.031 A 
ATOM     48  C   UNL A   1      43.083  26.060  29.369  1.00  0.00     0.031 A 
ATOM     49  C   UNL A   1      41.915  29.217  34.948  1.00  0.00     0.049 A 
ATOM     50  C   UNL A   1      43.776  26.079  30.709  1.00  0.00     0.074 A 
ATOM     51  C   UNL A   1      42.566  29.078  36.161  1.00  0.00     0.029 A 
ATOM     52  N   UNL A   1      42.554  28.376  34.050  1.00  0.00    -0.354 N 
ATOM     53  N   UNL A   1      43.449  26.739  31.796  1.00  0.00    -0.248 NA
ATOM     54  C   UNL A   1      44.980  25.247  30.849  1.00  0.00     0.031 C 
ATOM     55  C   UNL A   1      43.640  28.201  35.980  1.00  0.00     0.029 A 
ATOM     56  C   UNL A   1      43.616  27.742  34.673  1.00  0.00     0.049 A 
ATOM     57  H   UNL A   1      42.292  28.248  33.110  1.00  0.00     0.167 HD
ATOM     58  C   UNL A   1      44.395  26.384  32.753  1.00  0.00     0.074 A 
ATOM     59  C   UNL A   1      45.295  25.439  32.124  1.00  0.00     0.031 C 
ATOM     60  C   UNL A   1      44.508  26.805  34.037  1.00  0.00     0.031 A 
BRANCH  47  61
ATOM     61  C   UNL A   1      40.237  30.941  35.716  1.00  0.00    -0.014 A 
ATOM     62  C   UNL A   1      41.003  31.983  36.271  1.00  0.00     0.010 A 
ATOM     63  C   UNL A   1      38.911  30.761  36.148  1.00  0.00     0.010 A 
ATOM     64  C   UNL A   1      40.461  32.810  37.257  1.00  0.00     0.020 A 
ATOM     65  C   UNL A   1      38.355  31.605  37.114  1.00  0.00     0.020 A 
ATOM     66  C   UNL A   1      39.140  32.617  37.672  1.00  0.00     0.054 A 
BRANCH  66  67
ATOM     67  S   UNL A   1      38.456  33.728  38.930  1.00  0.00     0.124 S 
ATOM     68  O   UNL A   1      38.692  35.040  38.334  1.00  0.00    -0.237 OA
ATOM     69  O   UNL A   1      37.057  33.311  38.997  1.00  0.00    -0.237 OA
ATOM     70  O   UNL A   1      39.248  33.435  40.122  1.00  0.00    -0.744 OA
ENDBRANCH  66  67
ENDBRANCH  47  61
BRANCH  48  71
ATOM     71  C   UNL A   1      43.572  25.177  28.273  1.00  0.00    -0.014 A 
ATOM     72  C   UNL A   1      43.100  23.858  28.150  1.00  0.00     0.010 A 
ATOM     73  C   UNL A   1      44.512  25.654  27.341  1.00  0.00     0.010 A 
ATOM     74  C   UNL A   1      43.562  23.033  27.120  1.00  0.00     0.020 A 
ATOM     75  C   UNL A   1      44.955  24.841  26.293  1.00  0.00     0.020 A 
ATOM     76  C   UNL A   1      44.480  23.533  26.192  1.00  0.00     0.054 A 
BRANCH  76  77
ATOM     77  S   UNL A   1      45.015  22.461  24.829  1.00  0.00     0.124 S 
ATOM     78  O   UNL A   1      45.320  23.428  23.781  1.00  0.00    -0.237 OA
ATOM     79  O   UNL A   1      46.166  21.772  25.409  1.00  0.00    -0.237 OA
ATOM     80  O   UNL A   1      43.851  21.613  24.582  1.00  0.00    -0.744 OA
ENDBRANCH  76  77
ENDBRANCH  48  71
BRANCH  60  81
ATOM     81  C   UNL A   1      45.637  26.254  34.870  1.00  0.00    -0.014 A 
ATOM     82  C   UNL A   1      45.485  25.059  35.593  1.00  0.00     0.010 A 
ATOM     83  C   UNL A   1      46.898  26.881  34.839  1.00  0.00     0.010 A 
ATOM     84  C   UNL A   1      46.571  24.502  36.275  1.00  0.00     0.020 A 
ATOM     85  C   UNL A   1      47.993  26.312  35.496  1.00  0.00     0.020 A 
ATOM     86  C   UNL A   1      47.821  25.127  36.214  1.00  0.00     0.054 A 
BRANCH  86  87
ATOM     87  S   UNL A   1      49.227  24.337  37.044  1.00  0.00     0.124 S 
ATOM     88  O   UNL A   1      50.269  25.353  36.910  1.00  0.00    -0.237 OA
ATOM     89  O   UNL A   1      48.722  24.129  38.398  1.00  0.00    -0.237 OA
ATOM     90  O   UNL A   1      49.447  23.117  36.271  1.00  0.00    -0.744 OA
ENDBRANCH  86  87
ENDBRANCH  60  81
ENDBRANCH  34  35
ENDBRANCH  27  29
ENDBRANCH  26  27
ENDBRANCH  25  26
ENDBRANCH   1  25
TORSDOF 18
ENDMDL
MODEL 3
REMARK VINA RESULT:     -10.8      6.842     12.074
REMARK SMILES Cc1cc2c(c(C)c1Cl)C=C(C(=O)OCCOCCOC(=O)c1ccc(-c3c4nc(c(-c5ccc(S(=O)(=O)[O-])cc5)c5ccc([nH]5)c(-c5ccc(S(=O)(=O)[O-])cc5)c5nc(c(-c6ccc(S(=O)(=O)[O-])cc6)c6ccc3[nH]6)C=C5)C=C4)cc1)[C@H](C(F)(F)F)O2
REMARK SMILES IDX 18 1 17 2 16 3 15 4 14 5 12 6 13 7 11 8 1 9 2 10 3 11 8 12
REMARK SMILES IDX 4 13 6 14 9 15 5 16 88 17 7 18 10 19 83 20 84 21 85 22 86 23
REMARK SMILES IDX 87 24 19 25 20 26 21 27 22 28 23 29 24 30 82 31 25 32 81 33
REMARK SMILES IDX 26 34 27 35 28 36 75 37 29 38 80 39 74 40 76 41 30 42 79 43
REMARK SMILES IDX 73 44 72 45 31 47 61 48 42 49 60 50 43 51 46 52 59 53 77 54
REMARK SMILES IDX 44 55 45 56 58 58 78 59 47 60 32 61 33 62 41 63 34 64 40 65
REMARK SMILES IDX 35 66 36 67 37 68 38 69 39 70 62 71 63 72 71 73 64 74 70 75
REMARK SMILES IDX 65 76 66 77 67 78 68 79 69 80 48 81 49 82 57 83 50 84 56 85
REMARK SMILES IDX 51 86 52 87 53 88 54 89 55 90
REMARK H PARENT 76 46 46 57
REMARK Flexibility Score: inf
ROOT
ATOM      1  C   UNL A   1      38.017  22.370  25.760  1.00  0.00     0.202 C 
ENDROOT
BRANCH   1   2
ATOM      2  O   UNL A   1      37.436  22.028  24.498  1.00  0.00    -0.374 OA
BRANCH   2   3
ATOM      3  C   UNL A   1      36.074  22.407  24.296  1.00  0.00     0.202 C 
BRANCH   3   4
ATOM      4  C   UNL A   1      35.023  21.549  25.003  1.00  0.00     0.261 C 
BRANCH   4   5
ATOM      5  O   UNL A   1      33.753  22.224  25.012  1.00  0.00    -0.460 OA
BRANCH   5   6
ATOM      6  C   UNL A   1      33.723  23.341  25.765  1.00  0.00     0.338 C 
ATOM      7  O   UNL A   1      34.221  23.473  26.874  1.00  0.00    -0.246 OA
BRANCH   6   8
ATOM      8  C   UNL A   1      33.109  24.456  25.018  1.00  0.00     0.087 C 
ATOM      9  C   UNL A   1      29.822  29.875  23.656  1.00  0.00     0.046 C 
ATOM     10  C   UNL A   1      30.778  28.823  24.153  1.00  0.00    -0.028 A 
ATOM     11  C   UNL A   1      30.744  27.547  23.571  1.00  0.00     0.052 A 
ATOM     12  C   UNL A   1      31.675  29.075  25.211  1.00  0.00     0.047 A 
ATOM     13  C   UNL A   1      31.566  26.529  24.046  1.00  0.00     0.128 A 
ATOM     14  C   UNL A   1      32.526  28.059  25.697  1.00  0.00    -0.021 A 
ATOM     15  Cl  UNL A   1      31.685  30.657  25.935  1.00  0.00    -0.084 Cl
ATOM     16  C   UNL A   1      32.447  26.773  25.106  1.00  0.00     0.022 A 
ATOM     17  O   UNL A   1      31.380  25.295  23.474  1.00  0.00    -0.475 OA
ATOM     18  C   UNL A   1      33.490  28.298  26.838  1.00  0.00     0.047 C 
ATOM     19  C   UNL A   1      33.172  25.635  25.650  1.00  0.00     0.027 C 
ATOM     20  C   UNL A   1      32.393  24.269  23.710  1.00  0.00     0.316 C 
BRANCH  20  21
ATOM     21  C   UNL A   1      33.297  24.187  22.461  1.00  0.00     0.430 C 
ATOM     22  F   UNL A   1      32.799  24.849  21.396  1.00  0.00    -0.167 F 
ATOM     23  F   UNL A   1      34.515  24.729  22.714  1.00  0.00    -0.167 F 
ATOM     24  F   UNL A   1      33.504  22.906  22.068  1.00  0.00    -0.167 F 
ENDBRANCH  20  21
ENDBRANCH   6   8
ENDBRANCH   5   6
ENDBRANCH   4   5
ENDBRANCH   3   4
ENDBRANCH   2   3
ENDBRANCH   1   2
BRANCH   1  25
ATOM     25  C   UNL A   1      38.235  23.862  26.048  1.00  0.00     0.261 C 
BRANCH  25  26
ATOM     26  O   UNL A   1      39.420  24.085  26.835  1.00  0.00    -0.460 OA
BRANCH  26  27
ATOM     27  C   UNL A   1      40.119  25.202  26.521  1.00  0.00     0.338 C 
ATOM     28  O   UNL A   1      40.432  25.581  25.402  1.00  0.00    -0.246 OA
BRANCH  27  29
ATOM     29  C   UNL A   1      40.250  26.053  27.723  1.00  0.00     0.060 A 
ATOM     30  C   UNL A   1      39.324  25.851  28.755  1.00  0.00     0.016 A 
ATOM     31  C   UNL A   1      41.238  27.032  27.840  1.00  0.00     0.016 A 
ATOM     32  C   UNL A   1      39.355  26.657  29.891  1.00  0.00     0.010 A 
ATOM     33  C   UNL A   1      41.258  27.852  28.976  1.00  0.00     0.010 A 
ATOM     34  C   UNL A   1      40.295  27.692  29.989  1.00  0.00    -0.014 A 
BRANCH  34  35
ATOM     35  C   UNL A   1      40.142  28.698  31.070  1.00  0.00     0.031 A 
ATOM     36  C   UNL A   1      41.062  28.625  32.259  1.00  0.00     0.074 A 
ATOM     37  C   UNL A   1      39.258  29.708  30.962  1.00  0.00     0.049 A 
ATOM     38  N   UNL A   1      41.148  29.428  33.289  1.00  0.00    -0.248 NA
ATOM     39  C   UNL A   1      42.016  27.503  32.290  1.00  0.00     0.031 C 
ATOM     40  C   UNL A   1      38.349  29.920  29.836  1.00  0.00     0.029 A 
ATOM     41  N   UNL A   1      38.995  30.757  31.809  1.00  0.00    -0.354 N 
ATOM     42  C   UNL A   1      42.166  28.914  34.082  1.00  0.00     0.074 A 
ATOM     43  C   UNL A   1      42.636  27.705  33.442  1.00  0.00     0.031 C 
ATOM     44  C   UNL A   1      37.639  31.041  30.056  1.00  0.00     0.029 A 
ATOM     45  C   UNL A   1      38.019  31.608  31.348  1.00  0.00     0.049 A 
ATOM     46  H   UNL A   1      39.462  30.886  32.666  1.00  0.00     0.167 HD
ATOM     47  C   UNL A   1      42.679  29.412  35.232  1.00  0.00     0.031 A 
ATOM     48  C   UNL A   1      37.489  32.717  31.906  1.00  0.00     0.031 A 
ATOM     49  C   UNL A   1      42.206  30.608  35.876  1.00  0.00     0.049 A 
ATOM     50  C   UNL A   1      38.006  33.195  33.240  1.00  0.00     0.074 A 
ATOM     51  C   UNL A   1      42.668  31.193  37.041  1.00  0.00     0.029 A 
ATOM     52  N   UNL A   1      41.162  31.394  35.416  1.00  0.00    -0.354 N 
ATOM     53  N   UNL A   1      38.990  32.713  33.963  1.00  0.00    -0.248 NA
ATOM     54  C   UNL A   1      37.344  34.367  33.831  1.00  0.00     0.031 C 
ATOM     55  C   UNL A   1      41.859  32.299  37.322  1.00  0.00     0.029 A 
ATOM     56  C   UNL A   1      40.939  32.441  36.295  1.00  0.00     0.049 A 
ATOM     57  H   UNL A   1      40.654  31.234  34.589  1.00  0.00     0.167 HD
ATOM     58  C   UNL A   1      39.076  33.535  35.083  1.00  0.00     0.074 A 
ATOM     59  C   UNL A   1      38.059  34.555  34.934  1.00  0.00     0.031 C 
ATOM     60  C   UNL A   1      39.921  33.450  36.139  1.00  0.00     0.031 A 
BRANCH  47  61
ATOM     61  C   UNL A   1      43.807  28.655  35.879  1.00  0.00    -0.014 A 
ATOM     62  C   UNL A   1      45.147  29.014  35.646  1.00  0.00     0.010 A 
ATOM     63  C   UNL A   1      43.524  27.610  36.777  1.00  0.00     0.010 A 
ATOM     64  C   UNL A   1      46.184  28.322  36.278  1.00  0.00     0.020 A 
ATOM     65  C   UNL A   1      44.557  26.934  37.433  1.00  0.00     0.020 A 
ATOM     66  C   UNL A   1      45.882  27.287  37.169  1.00  0.00     0.054 A 
BRANCH  66  67
ATOM     67  S   UNL A   1      47.250  26.432  37.997  1.00  0.00     0.124 S 
ATOM     68  O   UNL A   1      47.395  27.212  39.223  1.00  0.00    -0.237 OA
ATOM     69  O   UNL A   1      46.720  25.081  38.171  1.00  0.00    -0.237 OA
ATOM     70  O   UNL A   1      48.357  26.547  37.051  1.00  0.00    -0.744 OA
ENDBRANCH  66  67
ENDBRANCH  47  61
BRANCH  48  71
ATOM     71  C   UNL A   1      36.402  33.455  31.204  1.00  0.00    -0.014 A 
ATOM     72  C   UNL A   1      36.579  33.910  29.886  1.00  0.00     0.010 A 
ATOM     73  C   UNL A   1      35.176  33.702  31.851  1.00  0.00     0.010 A 
ATOM     74  C   UNL A   1      35.556  34.602  29.230  1.00  0.00     0.020 A 
ATOM     75  C   UNL A   1      34.141  34.369  31.190  1.00  0.00     0.020 A 
ATOM     76  C   UNL A   1      34.340  34.820  29.884  1.00  0.00     0.054 A 
BRANCH  76  77
ATOM     77  S   UNL A   1      33.007  35.665  28.989  1.00  0.00     0.124 S 
ATOM     78  O   UNL A   1      32.182  36.175  30.078  1.00  0.00    -0.237 OA
ATOM     79  O   UNL A   1      33.738  36.672  28.222  1.00  0.00    -0.237 OA
ATOM     80  O   UNL A   1      32.402  34.602  28.188  1.00  0.00    -0.744 OA
ENDBRANCH  76  77
ENDBRANCH  48  71
BRANCH  60  81
ATOM     81  C   UNL A   1      39.803  34.484  37.230  1.00  0.00    -0.014 A 
ATOM     82  C   UNL A   1      39.054  34.227  38.391  1.00  0.00     0.010 A 
ATOM     83  C   UNL A   1      40.539  35.681  37.141  1.00  0.00     0.010 A 
ATOM     84  C   UNL A   1      39.038  35.149  39.441  1.00  0.00     0.020 A 
ATOM     85  C   UNL A   1      40.548  36.593  38.201  1.00  0.00     0.020 A 
ATOM     86  C   UNL A   1      39.793  36.322  39.343  1.00  0.00     0.054 A 
BRANCH  86  87
ATOM     87  S   UNL A   1      39.815  37.460  40.756  1.00  0.00     0.124 S 
ATOM     88  O   UNL A   1      39.061  36.714  41.760  1.00  0.00    -0.237 OA
ATOM     89  O   UNL A   1      41.243  37.608  41.023  1.00  0.00    -0.237 OA
ATOM     90  O   UNL A   1      39.153  38.660  40.247  1.00  0.00    -0.744 OA
ENDBRANCH  86  87
ENDBRANCH  60  81
ENDBRANCH  34  35
ENDBRANCH  27  29
ENDBRANCH  26  27
ENDBRANCH  25  26
ENDBRANCH   1  25
TORSDOF 18
ENDMDL
