MODEL 1
REMARK VINA RESULT:      -9.1      0.000      0.000
REMARK SMILES C[C@H](/N=C(\Cc1ccccc1)C(=O)OC(C)(C)C)C(=O)OCCOCCOC(=O)c1ccc(-c2c3nc(c(-c4ccc(S(=O)(=O)[O-])cc4)c4ccc([nH]4)c(-c4ccc(S(=O)(=O)[O-])cc4)c4nc(c(-c5ccc(S(=O)(=O)[O-])cc5)c5ccc2[nH]5)C=C4)C=C3)cc1
REMARK SMILES IDX 23 1 22 2 21 3 19 4 20 5 2 6 1 7 3 8 4 9 5 10 6 11 7 12
REMARK SMILES IDX 11 13 8 14 10 15 9 16 12 17 13 18 14 19 15 20 16 21 17 22
REMARK SMILES IDX 18 23 24 24 25 25 26 26 27 27 28 28 29 29 30 30 31 31 89 32
REMARK SMILES IDX 32 33 88 34 33 35 34 36 35 37 82 38 36 39 87 40 81 41 83 42
REMARK SMILES IDX 37 43 86 44 80 45 79 46 38 48 68 49 49 50 67 51 50 52 53 53
REMARK SMILES IDX 66 54 84 55 51 56 52 57 65 59 85 60 54 61 39 62 40 63 48 64
REMARK SMILES IDX 41 65 47 66 42 67 43 68 44 69 45 70 46 71 69 72 70 73 78 74
REMARK SMILES IDX 71 75 77 76 72 77 73 78 74 79 75 80 76 81 55 82 56 83 64 84
REMARK SMILES IDX 57 85 63 86 58 87 59 88 60 89 61 90 62 91
REMARK H PARENT 83 47 53 58
REMARK Flexibility Score: inf
ROOT
ATOM      1  C   UNL A   1      36.167  23.255  24.334  1.00  0.00     0.202 C 
ENDROOT
BRANCH   1   2
ATOM      2  C   UNL A   1      35.081  23.838  23.423  1.00  0.00     0.261 C 
BRANCH   2   3
ATOM      3  O   UNL A   1      33.752  23.541  23.879  1.00  0.00    -0.462 OA
BRANCH   3   4
ATOM      4  C   UNL A   1      32.810  23.567  22.900  1.00  0.00     0.330 C 
ATOM      5  O   UNL A   1      32.564  22.627  22.147  1.00  0.00    -0.250 OA
BRANCH   4   6
ATOM      6  C   UNL A   1      32.033  24.874  22.809  1.00  0.00     0.212 C 
ATOM      7  C   UNL A   1      32.389  25.606  21.529  1.00  0.00     0.046 C 
BRANCH   6   8
ATOM      8  N   UNL A   1      31.957  25.695  24.031  1.00  0.00    -0.267 NA
ATOM      9  C   UNL A   1      30.948  26.292  24.564  1.00  0.00     0.125 C 
BRANCH   9  10
ATOM     10  C   UNL A   1      29.530  26.321  24.047  1.00  0.00     0.099 C 
BRANCH  10  11
ATOM     11  C   UNL A   1      29.157  27.600  23.318  1.00  0.00    -0.042 A 
ATOM     12  C   UNL A   1      30.086  28.359  22.585  1.00  0.00     0.004 A 
ATOM     13  C   UNL A   1      27.843  28.079  23.417  1.00  0.00     0.004 A 
ATOM     14  C   UNL A   1      29.724  29.575  22.005  1.00  0.00     0.000 A 
ATOM     15  C   UNL A   1      27.477  29.286  22.817  1.00  0.00     0.000 A 
ATOM     16  C   UNL A   1      28.419  30.040  22.123  1.00  0.00     0.000 A 
ENDBRANCH  10  11
ENDBRANCH   9  10
BRANCH   9  17
ATOM     17  C   UNL A   1      31.180  26.988  25.935  1.00  0.00     0.353 C 
ATOM     18  O   UNL A   1      31.081  26.399  27.000  1.00  0.00    -0.245 OA
BRANCH  17  19
ATOM     19  O   UNL A   1      31.414  28.301  25.757  1.00  0.00    -0.455 OA
BRANCH  19  20
ATOM     20  C   UNL A   1      32.753  28.858  25.679  1.00  0.00     0.104 C 
ATOM     21  C   UNL A   1      33.766  27.959  26.396  1.00  0.00     0.056 C 
ATOM     22  C   UNL A   1      33.169  29.142  24.233  1.00  0.00     0.056 C 
ATOM     23  C   UNL A   1      32.665  30.193  26.438  1.00  0.00     0.056 C 
ENDBRANCH  19  20
ENDBRANCH  17  19
ENDBRANCH   9  17
ENDBRANCH   6   8
ENDBRANCH   4   6
ENDBRANCH   3   4
ENDBRANCH   2   3
ENDBRANCH   1   2
BRANCH   1  24
ATOM     24  O   UNL A   1      36.768  22.023  23.947  1.00  0.00    -0.374 OA
BRANCH  24  25
ATOM     25  C   UNL A   1      37.165  21.113  24.976  1.00  0.00     0.202 C 
BRANCH  25  26
ATOM     26  C   UNL A   1      38.626  21.136  25.440  1.00  0.00     0.261 C 
BRANCH  26  27
ATOM     27  O   UNL A   1      38.916  22.236  26.321  1.00  0.00    -0.460 OA
BRANCH  27  28
ATOM     28  C   UNL A   1      40.227  22.556  26.424  1.00  0.00     0.338 C 
ATOM     29  O   UNL A   1      41.183  21.908  26.020  1.00  0.00    -0.246 OA
BRANCH  28  30
ATOM     30  C   UNL A   1      40.358  23.929  26.933  1.00  0.00     0.060 A 
ATOM     31  C   UNL A   1      40.245  24.988  26.020  1.00  0.00     0.016 A 
ATOM     32  C   UNL A   1      40.672  24.171  28.271  1.00  0.00     0.016 A 
ATOM     33  C   UNL A   1      40.495  26.294  26.431  1.00  0.00     0.010 A 
ATOM     34  C   UNL A   1      40.934  25.479  28.678  1.00  0.00     0.010 A 
ATOM     35  C   UNL A   1      40.884  26.539  27.753  1.00  0.00    -0.014 A 
BRANCH  35  36
ATOM     36  C   UNL A   1      41.412  27.866  28.146  1.00  0.00     0.031 A 
ATOM     37  C   UNL A   1      42.896  28.094  28.084  1.00  0.00     0.074 A 
ATOM     38  C   UNL A   1      40.590  28.836  28.583  1.00  0.00     0.049 A 
ATOM     39  N   UNL A   1      43.596  29.109  28.517  1.00  0.00    -0.248 NA
ATOM     40  C   UNL A   1      43.695  27.026  27.461  1.00  0.00     0.031 C 
ATOM     41  C   UNL A   1      39.132  28.750  28.635  1.00  0.00     0.029 A 
ATOM     42  N   UNL A   1      40.877  30.075  29.094  1.00  0.00    -0.354 N 
ATOM     43  C   UNL A   1      44.922  28.791  28.245  1.00  0.00     0.074 A 
ATOM     44  C   UNL A   1      44.927  27.483  27.626  1.00  0.00     0.031 C 
ATOM     45  C   UNL A   1      38.651  29.881  29.177  1.00  0.00     0.029 A 
ATOM     46  C   UNL A   1      39.769  30.747  29.550  1.00  0.00     0.049 A 
ATOM     47  H   UNL A   1      41.787  30.448  29.129  1.00  0.00     0.167 HD
ATOM     48  C   UNL A   1      46.035  29.521  28.498  1.00  0.00     0.031 A 
ATOM     49  C   UNL A   1      39.671  31.909  30.226  1.00  0.00     0.031 A 
ATOM     50  C   UNL A   1      46.020  30.812  29.131  1.00  0.00     0.049 A 
ATOM     51  C   UNL A   1      40.921  32.678  30.558  1.00  0.00     0.074 A 
ATOM     52  C   UNL A   1      47.088  31.641  29.423  1.00  0.00     0.029 A 
ATOM     53  N   UNL A   1      44.876  31.456  29.582  1.00  0.00    -0.354 N 
ATOM     54  N   UNL A   1      42.170  32.373  30.291  1.00  0.00    -0.248 NA
ATOM     55  C   UNL A   1      40.751  33.950  31.274  1.00  0.00     0.031 C 
ATOM     56  C   UNL A   1      46.596  32.762  30.099  1.00  0.00     0.029 A 
ATOM     57  C   UNL A   1      45.215  32.661  30.171  1.00  0.00     0.049 A 
ATOM     58  H   UNL A   1      43.960  31.107  29.495  1.00  0.00     0.167 HD
ATOM     59  C   UNL A   1      42.932  33.430  30.778  1.00  0.00     0.074 A 
ATOM     60  C   UNL A   1      42.004  34.381  31.356  1.00  0.00     0.031 C 
ATOM     61  C   UNL A   1      44.276  33.600  30.739  1.00  0.00     0.031 A 
BRANCH  48  62
ATOM     62  C   UNL A   1      47.360  28.902  28.140  1.00  0.00    -0.014 A 
ATOM     63  C   UNL A   1      48.028  28.031  29.019  1.00  0.00     0.010 A 
ATOM     64  C   UNL A   1      47.951  29.207  26.899  1.00  0.00     0.010 A 
ATOM     65  C   UNL A   1      49.289  27.525  28.691  1.00  0.00     0.020 A 
ATOM     66  C   UNL A   1      49.198  28.679  26.555  1.00  0.00     0.020 A 
ATOM     67  C   UNL A   1      49.871  27.861  27.464  1.00  0.00     0.054 A 
BRANCH  67  68
ATOM     68  S   UNL A   1      51.516  27.208  27.069  1.00  0.00     0.124 S 
ATOM     69  O   UNL A   1      52.344  28.409  27.154  1.00  0.00    -0.237 OA
ATOM     70  O   UNL A   1      51.732  26.220  28.124  1.00  0.00    -0.237 OA
ATOM     71  O   UNL A   1      51.356  26.656  25.726  1.00  0.00    -0.744 OA
ENDBRANCH  67  68
ENDBRANCH  48  62
BRANCH  49  72
ATOM     72  C   UNL A   1      38.329  32.392  30.651  1.00  0.00    -0.014 A 
ATOM     73  C   UNL A   1      37.818  32.062  31.917  1.00  0.00     0.010 A 
ATOM     74  C   UNL A   1      37.583  33.236  29.807  1.00  0.00     0.010 A 
ATOM     75  C   UNL A   1      36.587  32.576  32.336  1.00  0.00     0.020 A 
ATOM     76  C   UNL A   1      36.364  33.771  30.233  1.00  0.00     0.020 A 
ATOM     77  C   UNL A   1      35.873  33.436  31.496  1.00  0.00     0.054 A 
BRANCH  77  78
ATOM     78  S   UNL A   1      34.328  34.170  32.101  1.00  0.00     0.124 S 
ATOM     79  O   UNL A   1      34.813  35.329  32.845  1.00  0.00    -0.237 OA
ATOM     80  O   UNL A   1      33.615  34.466  30.861  1.00  0.00    -0.237 OA
ATOM     81  O   UNL A   1      33.738  33.106  32.910  1.00  0.00    -0.744 OA
ENDBRANCH  77  78
ENDBRANCH  49  72
BRANCH  61  82
ATOM     82  C   UNL A   1      44.838  34.884  31.290  1.00  0.00    -0.014 A 
ATOM     83  C   UNL A   1      44.916  36.048  30.506  1.00  0.00     0.010 A 
ATOM     84  C   UNL A   1      45.204  34.945  32.648  1.00  0.00     0.010 A 
ATOM     85  C   UNL A   1      45.364  37.248  31.069  1.00  0.00     0.020 A 
ATOM     86  C   UNL A   1      45.628  36.147  33.219  1.00  0.00     0.020 A 
ATOM     87  C   UNL A   1      45.711  37.291  32.423  1.00  0.00     0.054 A 
BRANCH  87  88
ATOM     88  S   UNL A   1      46.219  38.875  33.147  1.00  0.00     0.124 S 
ATOM     89  O   UNL A   1      45.334  38.978  34.304  1.00  0.00    -0.237 OA
ATOM     90  O   UNL A   1      47.630  38.649  33.453  1.00  0.00    -0.237 OA
ATOM     91  O   UNL A   1      45.966  39.840  32.081  1.00  0.00    -0.744 OA
ENDBRANCH  87  88
ENDBRANCH  61  82
ENDBRANCH  35  36
ENDBRANCH  28  30
ENDBRANCH  27  28
ENDBRANCH  26  27
ENDBRANCH  25  26
ENDBRANCH  24  25
ENDBRANCH   1  24
TORSDOF 23
ENDMDL
MODEL 2
REMARK VINA RESULT:      -9.1      4.828      6.458
REMARK SMILES C[C@H](/N=C(\Cc1ccccc1)C(=O)OC(C)(C)C)C(=O)OCCOCCOC(=O)c1ccc(-c2c3nc(c(-c4ccc(S(=O)(=O)[O-])cc4)c4ccc([nH]4)c(-c4ccc(S(=O)(=O)[O-])cc4)c4nc(c(-c5ccc(S(=O)(=O)[O-])cc5)c5ccc2[nH]5)C=C4)C=C3)cc1
REMARK SMILES IDX 23 1 22 2 21 3 19 4 20 5 2 6 1 7 3 8 4 9 5 10 6 11 7 12
REMARK SMILES IDX 11 13 8 14 10 15 9 16 12 17 13 18 14 19 15 20 16 21 17 22
REMARK SMILES IDX 18 23 24 24 25 25 26 26 27 27 28 28 29 29 30 30 31 31 89 32
REMARK SMILES IDX 32 33 88 34 33 35 34 36 35 37 82 38 36 39 87 40 81 41 83 42
REMARK SMILES IDX 37 43 86 44 80 45 79 46 38 48 68 49 49 50 67 51 50 52 53 53
REMARK SMILES IDX 66 54 84 55 51 56 52 57 65 59 85 60 54 61 39 62 40 63 48 64
REMARK SMILES IDX 41 65 47 66 42 67 43 68 44 69 45 70 46 71 69 72 70 73 78 74
REMARK SMILES IDX 71 75 77 76 72 77 73 78 74 79 75 80 76 81 55 82 56 83 64 84
REMARK SMILES IDX 57 85 63 86 58 87 59 88 60 89 61 90 62 91
REMARK H PARENT 83 47 53 58
REMARK Flexibility Score: inf
ROOT
ATOM      1  C   UNL A   1      40.166  21.432  26.829  1.00  0.00     0.202 C 
ENDROOT
BRANCH   1   2
ATOM      2  C   UNL A   1      38.914  22.174  26.347  1.00  0.00     0.261 C 
BRANCH   2   3
ATOM      3  O   UNL A   1      38.593  21.894  24.976  1.00  0.00    -0.462 OA
BRANCH   3   4
ATOM      4  C   UNL A   1      37.602  20.978  24.814  1.00  0.00     0.330 C 
ATOM      5  O   UNL A   1      37.694  19.793  25.125  1.00  0.00    -0.250 OA
BRANCH   4   6
ATOM      6  C   UNL A   1      36.315  21.540  24.226  1.00  0.00     0.212 C 
ATOM      7  C   UNL A   1      36.622  22.727  23.332  1.00  0.00     0.046 C 
BRANCH   6   8
ATOM      8  N   UNL A   1      35.170  21.693  25.142  1.00  0.00    -0.267 NA
ATOM      9  C   UNL A   1      34.768  22.726  25.798  1.00  0.00     0.125 C 
BRANCH   9  10
ATOM     10  C   UNL A   1      35.400  24.097  25.814  1.00  0.00     0.099 C 
BRANCH  10  11
ATOM     11  C   UNL A   1      34.612  25.156  25.063  1.00  0.00    -0.042 A 
ATOM     12  C   UNL A   1      34.299  26.410  25.616  1.00  0.00     0.004 A 
ATOM     13  C   UNL A   1      34.129  24.860  23.781  1.00  0.00     0.004 A 
ATOM     14  C   UNL A   1      33.497  27.320  24.928  1.00  0.00     0.000 A 
ATOM     15  C   UNL A   1      33.343  25.781  23.084  1.00  0.00     0.000 A 
ATOM     16  C   UNL A   1      33.017  27.005  23.662  1.00  0.00     0.000 A 
ENDBRANCH  10  11
ENDBRANCH   9  10
BRANCH   9  17
ATOM     17  C   UNL A   1      33.440  22.586  26.595  1.00  0.00     0.353 C 
ATOM     18  O   UNL A   1      33.408  22.461  27.809  1.00  0.00    -0.245 OA
BRANCH  17  19
ATOM     19  O   UNL A   1      32.393  22.545  25.751  1.00  0.00    -0.455 OA
BRANCH  19  20
ATOM     20  C   UNL A   1      31.202  23.357  25.934  1.00  0.00     0.104 C 
ATOM     21  C   UNL A   1      30.104  22.568  26.654  1.00  0.00     0.056 C 
ATOM     22  C   UNL A   1      31.515  24.675  26.646  1.00  0.00     0.056 C 
ATOM     23  C   UNL A   1      30.721  23.670  24.507  1.00  0.00     0.056 C 
ENDBRANCH  19  20
ENDBRANCH  17  19
ENDBRANCH   9  17
ENDBRANCH   6   8
ENDBRANCH   4   6
ENDBRANCH   3   4
ENDBRANCH   2   3
ENDBRANCH   1   2
BRANCH   1  24
ATOM     24  O   UNL A   1      41.263  21.324  25.927  1.00  0.00    -0.374 OA
BRANCH  24  25
ATOM     25  C   UNL A   1      42.450  22.068  26.214  1.00  0.00     0.202 C 
BRANCH  25  26
ATOM     26  C   UNL A   1      42.708  23.355  25.422  1.00  0.00     0.261 C 
BRANCH  26  27
ATOM     27  O   UNL A   1      42.992  24.485  26.266  1.00  0.00    -0.460 OA
BRANCH  27  28
ATOM     28  C   UNL A   1      42.113  25.509  26.164  1.00  0.00     0.338 C 
ATOM     29  O   UNL A   1      41.296  25.700  25.273  1.00  0.00    -0.246 OA
BRANCH  28  30
ATOM     30  C   UNL A   1      42.130  26.295  27.407  1.00  0.00     0.060 A 
ATOM     31  C   UNL A   1      41.137  26.042  28.365  1.00  0.00     0.016 A 
ATOM     32  C   UNL A   1      43.055  27.323  27.593  1.00  0.00     0.016 A 
ATOM     33  C   UNL A   1      41.033  26.850  29.493  1.00  0.00     0.010 A 
ATOM     34  C   UNL A   1      42.941  28.140  28.718  1.00  0.00     0.010 A 
ATOM     35  C   UNL A   1      41.908  27.930  29.652  1.00  0.00    -0.014 A 
BRANCH  35  36
ATOM     36  C   UNL A   1      41.654  28.956  30.689  1.00  0.00     0.031 A 
ATOM     37  C   UNL A   1      42.496  28.942  31.934  1.00  0.00     0.074 A 
ATOM     38  C   UNL A   1      40.669  29.858  30.542  1.00  0.00     0.049 A 
ATOM     39  N   UNL A   1      42.360  29.635  33.033  1.00  0.00    -0.248 NA
ATOM     40  C   UNL A   1      43.636  28.010  31.940  1.00  0.00     0.031 C 
ATOM     41  C   UNL A   1      39.825  30.004  29.359  1.00  0.00     0.029 A 
ATOM     42  N   UNL A   1      40.199  30.806  31.415  1.00  0.00    -0.354 N 
ATOM     43  C   UNL A   1      43.380  29.204  33.875  1.00  0.00     0.074 A 
ATOM     44  C   UNL A   1      44.113  28.179  33.163  1.00  0.00     0.031 C 
ATOM     45  C   UNL A   1      38.917  30.968  29.590  1.00  0.00     0.029 A 
ATOM     46  C   UNL A   1      39.090  31.472  30.952  1.00  0.00     0.049 A 
ATOM     47  H   UNL A   1      40.615  30.991  32.288  1.00  0.00     0.167 HD
ATOM     48  C   UNL A   1      43.671  29.619  35.130  1.00  0.00     0.031 A 
ATOM     49  C   UNL A   1      38.285  32.358  31.570  1.00  0.00     0.031 A 
ATOM     50  C   UNL A   1      42.924  30.626  35.835  1.00  0.00     0.049 A 
ATOM     51  C   UNL A   1      38.582  32.763  32.989  1.00  0.00     0.074 A 
ATOM     52  C   UNL A   1      43.142  31.130  37.105  1.00  0.00     0.029 A 
ATOM     53  N   UNL A   1      41.805  31.274  35.332  1.00  0.00    -0.354 N 
ATOM     54  N   UNL A   1      39.552  32.355  33.774  1.00  0.00    -0.248 NA
ATOM     55  C   UNL A   1      37.684  33.750  33.603  1.00  0.00     0.031 C 
ATOM     56  C   UNL A   1      42.121  32.043  37.391  1.00  0.00     0.029 A 
ATOM     57  C   UNL A   1      41.306  32.156  36.275  1.00  0.00     0.049 A 
ATOM     58  H   UNL A   1      41.422  31.128  34.437  1.00  0.00     0.167 HD
ATOM     59  C   UNL A   1      39.401  33.060  34.964  1.00  0.00     0.074 A 
ATOM     60  C   UNL A   1      38.245  33.918  34.795  1.00  0.00     0.031 C 
ATOM     61  C   UNL A   1      40.156  33.008  36.088  1.00  0.00     0.031 A 
BRANCH  48  62
ATOM     62  C   UNL A   1      44.813  28.935  35.834  1.00  0.00    -0.014 A 
ATOM     63  C   UNL A   1      46.131  29.416  35.739  1.00  0.00     0.010 A 
ATOM     64  C   UNL A   1      44.560  27.781  36.600  1.00  0.00     0.010 A 
ATOM     65  C   UNL A   1      47.183  28.722  36.345  1.00  0.00     0.020 A 
ATOM     66  C   UNL A   1      45.604  27.102  37.232  1.00  0.00     0.020 A 
ATOM     67  C   UNL A   1      46.913  27.563  37.080  1.00  0.00     0.054 A 
BRANCH  67  68
ATOM     68  S   UNL A   1      48.295  26.670  37.841  1.00  0.00     0.124 S 
ATOM     69  O   UNL A   1      49.309  26.735  36.790  1.00  0.00    -0.237 OA
ATOM     70  O   UNL A   1      48.576  27.466  39.033  1.00  0.00    -0.237 OA
ATOM     71  O   UNL A   1      47.749  25.339  38.098  1.00  0.00    -0.744 OA
ENDBRANCH  67  68
ENDBRANCH  48  62
BRANCH  49  72
ATOM     72  C   UNL A   1      37.104  32.897  30.844  1.00  0.00    -0.014 A 
ATOM     73  C   UNL A   1      35.812  32.426  31.130  1.00  0.00     0.010 A 
ATOM     74  C   UNL A   1      37.265  33.930  29.901  1.00  0.00     0.010 A 
ATOM     75  C   UNL A   1      34.700  32.986  30.492  1.00  0.00     0.020 A 
ATOM     76  C   UNL A   1      36.155  34.508  29.281  1.00  0.00     0.020 A 
ATOM     77  C   UNL A   1      34.878  34.030  29.580  1.00  0.00     0.054 A 
BRANCH  77  78
ATOM     78  S   UNL A   1      33.414  34.808  28.842  1.00  0.00     0.124 S 
ATOM     79  O   UNL A   1      32.511  34.904  29.984  1.00  0.00    -0.237 OA
ATOM     80  O   UNL A   1      33.948  36.075  28.347  1.00  0.00    -0.237 OA
ATOM     81  O   UNL A   1      33.013  33.864  27.802  1.00  0.00    -0.744 OA
ENDBRANCH  77  78
ENDBRANCH  49  72
BRANCH  61  82
ATOM     82  C   UNL A   1      39.800  33.938  37.218  1.00  0.00    -0.014 A 
ATOM     83  C   UNL A   1      38.909  33.551  38.233  1.00  0.00     0.010 A 
ATOM     84  C   UNL A   1      40.447  35.185  37.310  1.00  0.00     0.010 A 
ATOM     85  C   UNL A   1      38.661  34.403  39.315  1.00  0.00     0.020 A 
ATOM     86  C   UNL A   1      40.221  36.027  38.400  1.00  0.00     0.020 A 
ATOM     87  C   UNL A   1      39.323  35.633  39.394  1.00  0.00     0.054 A 
BRANCH  87  88
ATOM     88  S   UNL A   1      39.040  36.688  40.842  1.00  0.00     0.124 S 
ATOM     89  O   UNL A   1      38.275  37.792  40.270  1.00  0.00    -0.237 OA
ATOM     90  O   UNL A   1      38.296  35.806  41.740  1.00  0.00    -0.237 OA
ATOM     91  O   UNL A   1      40.387  37.030  41.291  1.00  0.00    -0.744 OA
ENDBRANCH  87  88
ENDBRANCH  61  82
ENDBRANCH  35  36
ENDBRANCH  28  30
ENDBRANCH  27  28
ENDBRANCH  26  27
ENDBRANCH  25  26
ENDBRANCH  24  25
ENDBRANCH   1  24
TORSDOF 23
ENDMDL
MODEL 3
REMARK VINA RESULT:      -9.1      3.223     10.032
REMARK SMILES C[C@H](/N=C(\Cc1ccccc1)C(=O)OC(C)(C)C)C(=O)OCCOCCOC(=O)c1ccc(-c2c3nc(c(-c4ccc(S(=O)(=O)[O-])cc4)c4ccc([nH]4)c(-c4ccc(S(=O)(=O)[O-])cc4)c4nc(c(-c5ccc(S(=O)(=O)[O-])cc5)c5ccc2[nH]5)C=C4)C=C3)cc1
REMARK SMILES IDX 23 1 22 2 21 3 19 4 20 5 2 6 1 7 3 8 4 9 5 10 6 11 7 12
REMARK SMILES IDX 11 13 8 14 10 15 9 16 12 17 13 18 14 19 15 20 16 21 17 22
REMARK SMILES IDX 18 23 24 24 25 25 26 26 27 27 28 28 29 29 30 30 31 31 89 32
REMARK SMILES IDX 32 33 88 34 33 35 34 36 35 37 82 38 36 39 87 40 81 41 83 42
REMARK SMILES IDX 37 43 86 44 80 45 79 46 38 48 68 49 49 50 67 51 50 52 53 53
REMARK SMILES IDX 66 54 84 55 51 56 52 57 65 59 85 60 54 61 39 62 40 63 48 64
REMARK SMILES IDX 41 65 47 66 42 67 43 68 44 69 45 70 46 71 69 72 70 73 78 74
REMARK SMILES IDX 71 75 77 76 72 77 73 78 74 79 75 80 76 81 55 82 56 83 64 84
REMARK SMILES IDX 57 85 63 86 58 87 59 88 60 89 61 90 62 91
REMARK H PARENT 83 47 53 58
REMARK Flexibility Score: inf
ROOT
ATOM      1  C   UNL A   1      34.815  33.647  27.939  1.00  0.00     0.202 C 
ENDROOT
BRANCH   1   2
ATOM      2  C   UNL A   1      33.502  32.856  27.934  1.00  0.00     0.261 C 
BRANCH   2   3
ATOM      3  O   UNL A   1      33.708  31.435  27.896  1.00  0.00    -0.462 OA
BRANCH   3   4
ATOM      4  C   UNL A   1      32.850  30.772  27.077  1.00  0.00     0.330 C 
ATOM      5  O   UNL A   1      31.822  31.256  26.609  1.00  0.00    -0.250 OA
BRANCH   4   6
ATOM      6  C   UNL A   1      33.274  29.348  26.741  1.00  0.00     0.212 C 
ATOM      7  C   UNL A   1      34.720  29.125  27.141  1.00  0.00     0.046 C 
BRANCH   6   8
ATOM      8  N   UNL A   1      32.872  28.822  25.424  1.00  0.00    -0.267 NA
ATOM      9  C   UNL A   1      32.090  27.842  25.129  1.00  0.00     0.125 C 
BRANCH   9  10
ATOM     10  C   UNL A   1      31.366  26.932  26.092  1.00  0.00     0.099 C 
BRANCH  10  11
ATOM     11  C   UNL A   1      31.943  25.530  26.180  1.00  0.00    -0.042 A 
ATOM     12  C   UNL A   1      31.144  24.386  26.350  1.00  0.00     0.004 A 
ATOM     13  C   UNL A   1      33.334  25.366  26.140  1.00  0.00     0.004 A 
ATOM     14  C   UNL A   1      31.718  23.126  26.516  1.00  0.00     0.000 A 
ATOM     15  C   UNL A   1      33.907  24.100  26.286  1.00  0.00     0.000 A 
ATOM     16  C   UNL A   1      33.101  22.983  26.486  1.00  0.00     0.000 A 
ENDBRANCH  10  11
ENDBRANCH   9  10
BRANCH   9  17
ATOM     17  C   UNL A   1      31.776  27.615  23.622  1.00  0.00     0.353 C 
ATOM     18  O   UNL A   1      30.774  28.057  23.082  1.00  0.00    -0.245 OA
BRANCH  17  19
ATOM     19  O   UNL A   1      32.708  26.818  23.068  1.00  0.00    -0.455 OA
BRANCH  19  20
ATOM     20  C   UNL A   1      32.375  25.598  22.353  1.00  0.00     0.104 C 
ATOM     21  C   UNL A   1      32.309  25.846  20.843  1.00  0.00     0.056 C 
ATOM     22  C   UNL A   1      33.334  24.456  22.700  1.00  0.00     0.056 C 
ATOM     23  C   UNL A   1      30.967  25.228  22.848  1.00  0.00     0.056 C 
ENDBRANCH  19  20
ENDBRANCH  17  19
ENDBRANCH   9  17
ENDBRANCH   6   8
ENDBRANCH   4   6
ENDBRANCH   3   4
ENDBRANCH   2   3
ENDBRANCH   1   2
BRANCH   1  24
ATOM     24  O   UNL A   1      35.492  33.804  29.183  1.00  0.00    -0.374 OA
BRANCH  24  25
ATOM     25  C   UNL A   1      36.597  32.943  29.464  1.00  0.00     0.202 C 
BRANCH  25  26
ATOM     26  C   UNL A   1      36.301  31.521  29.957  1.00  0.00     0.261 C 
BRANCH  26  27
ATOM     27  O   UNL A   1      37.011  30.513  29.216  1.00  0.00    -0.460 OA
BRANCH  27  28
ATOM     28  C   UNL A   1      37.423  29.451  29.946  1.00  0.00     0.338 C 
ATOM     29  O   UNL A   1      36.786  28.839  30.793  1.00  0.00    -0.246 OA
BRANCH  28  30
ATOM     30  C   UNL A   1      38.723  28.982  29.440  1.00  0.00     0.060 A 
ATOM     31  C   UNL A   1      39.507  28.175  30.276  1.00  0.00     0.016 A 
ATOM     32  C   UNL A   1      39.200  29.399  28.197  1.00  0.00     0.016 A 
ATOM     33  C   UNL A   1      40.798  27.819  29.893  1.00  0.00     0.010 A 
ATOM     34  C   UNL A   1      40.498  29.052  27.821  1.00  0.00     0.010 A 
ATOM     35  C   UNL A   1      41.314  28.294  28.683  1.00  0.00    -0.014 A 
BRANCH  35  36
ATOM     36  C   UNL A   1      42.756  28.160  28.379  1.00  0.00     0.031 A 
ATOM     37  C   UNL A   1      43.654  29.341  28.619  1.00  0.00     0.074 A 
ATOM     38  C   UNL A   1      43.252  27.021  27.864  1.00  0.00     0.049 A 
ATOM     39  N   UNL A   1      44.907  29.510  28.290  1.00  0.00    -0.248 NA
ATOM     40  C   UNL A   1      43.048  30.490  29.313  1.00  0.00     0.031 C 
ATOM     41  C   UNL A   1      42.492  25.794  27.639  1.00  0.00     0.029 A 
ATOM     42  N   UNL A   1      44.513  26.729  27.413  1.00  0.00    -0.354 N 
ATOM     43  C   UNL A   1      45.235  30.794  28.711  1.00  0.00     0.074 A 
ATOM     44  C   UNL A   1      44.043  31.363  29.304  1.00  0.00     0.031 C 
ATOM     45  C   UNL A   1      43.297  24.885  27.064  1.00  0.00     0.029 A 
ATOM     46  C   UNL A   1      44.613  25.484  26.841  1.00  0.00     0.049 A 
ATOM     47  H   UNL A   1      45.273  27.349  27.492  1.00  0.00     0.167 HD
ATOM     48  C   UNL A   1      46.419  31.442  28.604  1.00  0.00     0.031 A 
ATOM     49  C   UNL A   1      45.636  24.908  26.178  1.00  0.00     0.031 A 
ATOM     50  C   UNL A   1      47.592  30.873  27.996  1.00  0.00     0.049 A 
ATOM     51  C   UNL A   1      46.925  25.664  26.010  1.00  0.00     0.074 A 
ATOM     52  C   UNL A   1      48.846  31.438  27.848  1.00  0.00     0.029 A 
ATOM     53  N   UNL A   1      47.650  29.610  27.425  1.00  0.00    -0.354 N 
ATOM     54  N   UNL A   1      47.228  26.875  26.417  1.00  0.00    -0.248 NA
ATOM     55  C   UNL A   1      48.014  24.978  25.301  1.00  0.00     0.031 C 
ATOM     56  C   UNL A   1      49.646  30.537  27.137  1.00  0.00     0.029 A 
ATOM     57  C   UNL A   1      48.911  29.386  26.901  1.00  0.00     0.049 A 
ATOM     58  H   UNL A   1      46.905  28.968  27.397  1.00  0.00     0.167 HD
ATOM     59  C   UNL A   1      48.551  27.084  26.043  1.00  0.00     0.074 A 
ATOM     60  C   UNL A   1      48.991  25.874  25.375  1.00  0.00     0.031 C 
ATOM     61  C   UNL A   1      49.333  28.173  26.243  1.00  0.00     0.031 A 
BRANCH  48  62
ATOM     62  C   UNL A   1      46.475  32.860  29.106  1.00  0.00    -0.014 A 
ATOM     63  C   UNL A   1      45.906  33.922  28.380  1.00  0.00     0.010 A 
ATOM     64  C   UNL A   1      47.120  33.136  30.327  1.00  0.00     0.010 A 
ATOM     65  C   UNL A   1      46.033  35.238  28.834  1.00  0.00     0.020 A 
ATOM     66  C   UNL A   1      47.222  34.446  30.799  1.00  0.00     0.020 A 
ATOM     67  C   UNL A   1      46.700  35.492  30.036  1.00  0.00     0.054 A 
BRANCH  67  68
ATOM     68  S   UNL A   1      46.868  37.209  30.595  1.00  0.00     0.124 S 
ATOM     69  O   UNL A   1      45.847  37.885  29.799  1.00  0.00    -0.237 OA
ATOM     70  O   UNL A   1      46.587  37.112  32.026  1.00  0.00    -0.237 OA
ATOM     71  O   UNL A   1      48.248  37.550  30.256  1.00  0.00    -0.744 OA
ENDBRANCH  67  68
ENDBRANCH  48  62
BRANCH  49  72
ATOM     72  C   UNL A   1      45.457  23.546  25.606  1.00  0.00    -0.014 A 
ATOM     73  C   UNL A   1      45.742  22.405  26.374  1.00  0.00     0.010 A 
ATOM     74  C   UNL A   1      44.943  23.388  24.306  1.00  0.00     0.010 A 
ATOM     75  C   UNL A   1      45.508  21.128  25.854  1.00  0.00     0.020 A 
ATOM     76  C   UNL A   1      44.683  22.115  23.792  1.00  0.00     0.020 A 
ATOM     77  C   UNL A   1      44.969  20.992  24.570  1.00  0.00     0.054 A 
BRANCH  77  78
ATOM     78  S   UNL A   1      44.578  19.330  23.956  1.00  0.00     0.124 S 
ATOM     79  O   UNL A   1      43.382  18.996  24.722  1.00  0.00    -0.237 OA
ATOM     80  O   UNL A   1      44.373  19.563  22.528  1.00  0.00    -0.237 OA
ATOM     81  O   UNL A   1      45.772  18.555  24.285  1.00  0.00    -0.744 OA
ENDBRANCH  77  78
ENDBRANCH  49  72
BRANCH  61  82
ATOM     82  C   UNL A   1      50.766  28.103  25.785  1.00  0.00    -0.014 A 
ATOM     83  C   UNL A   1      51.799  27.726  26.660  1.00  0.00     0.010 A 
ATOM     84  C   UNL A   1      51.064  28.328  24.427  1.00  0.00     0.010 A 
ATOM     85  C   UNL A   1      53.108  27.588  26.186  1.00  0.00     0.020 A 
ATOM     86  C   UNL A   1      52.364  28.168  23.946  1.00  0.00     0.020 A 
ATOM     87  C   UNL A   1      53.381  27.805  24.831  1.00  0.00     0.054 A 
BRANCH  87  88
ATOM     88  S   UNL A   1      55.072  27.549  24.227  1.00  0.00     0.124 S 
ATOM     89  O   UNL A   1      55.291  26.136  24.523  1.00  0.00    -0.237 OA
ATOM     90  O   UNL A   1      54.959  27.883  22.808  1.00  0.00    -0.237 OA
ATOM     91  O   UNL A   1      55.869  28.482  25.018  1.00  0.00    -0.744 OA
ENDBRANCH  87  88
ENDBRANCH  61  82
ENDBRANCH  35  36
ENDBRANCH  28  30
ENDBRANCH  27  28
ENDBRANCH  26  27
ENDBRANCH  25  26
ENDBRANCH  24  25
ENDBRANCH   1  24
TORSDOF 23
ENDMDL
