MODEL 1
REMARK VINA RESULT:      -9.9      0.000      0.000
REMARK SMILES O=C(OCCOCCOC(=O)[C@]1(CCc2cccnc2)C[C@H]2CC[C@@H]1O2)c1ccc(-c2c3nc(c(-c4ccc(S(=O)(=O)[O-])cc4)c4ccc([nH]4)c(-c4ccc(S(=O)(=O)[O-])cc4)c4nc(c(-c5ccc(S(=O)(=O)[O-])cc5)c5ccc2[nH]5)C=C4)C=C3)cc1
REMARK SMILES IDX 6 1 5 2 4 3 3 4 2 5 1 6 27 7 28 8 86 9 29 10 85 11 30 12
REMARK SMILES IDX 31 13 32 14 79 15 33 16 84 17 78 18 80 19 34 20 83 21 77 22
REMARK SMILES IDX 76 23 35 25 65 26 46 27 64 28 47 29 50 30 63 31 81 32 48 33
REMARK SMILES IDX 49 34 62 36 82 37 51 38 36 39 37 40 45 41 38 42 44 43 39 44
REMARK SMILES IDX 40 45 41 46 42 47 43 48 66 49 67 50 75 51 68 52 74 53 69 54
REMARK SMILES IDX 70 55 71 56 72 57 73 58 52 59 53 60 61 61 54 62 60 63 55 64
REMARK SMILES IDX 56 65 57 66 58 67 59 68 7 69 8 70 9 71 10 72 11 73 12 74
REMARK SMILES IDX 21 75 25 76 22 77 24 78 26 79 23 80 13 81 14 82 15 83 16 84
REMARK SMILES IDX 20 85 17 86 19 87 18 88
REMARK H PARENT 80 24 50 35
REMARK Flexibility Score: inf
ROOT
ATOM      1  O   UNL A   1      32.500  27.668  23.923  1.00  0.00    -0.374 OA
ENDROOT
BRANCH   1   2
ATOM      2  C   UNL A   1      32.421  28.436  25.125  1.00  0.00     0.202 C 
BRANCH   2   3
ATOM      3  C   UNL A   1      33.666  28.404  26.014  1.00  0.00     0.261 C 
BRANCH   3   4
ATOM      4  O   UNL A   1      33.471  29.148  27.213  1.00  0.00    -0.460 OA
BRANCH   4   5
ATOM      5  C   UNL A   1      34.314  30.090  27.699  1.00  0.00     0.338 C 
ATOM      6  O   UNL A   1      33.851  31.208  27.931  1.00  0.00    -0.246 OA
BRANCH   5   7
ATOM      7  C   UNL A   1      35.763  29.848  28.020  1.00  0.00     0.060 A 
ATOM      8  C   UNL A   1      36.853  29.994  27.154  1.00  0.00     0.016 A 
ATOM      9  C   UNL A   1      36.038  29.509  29.356  1.00  0.00     0.016 A 
ATOM     10  C   UNL A   1      38.159  29.826  27.579  1.00  0.00     0.010 A 
ATOM     11  C   UNL A   1      37.349  29.325  29.797  1.00  0.00     0.010 A 
ATOM     12  C   UNL A   1      38.407  29.478  28.898  1.00  0.00    -0.014 A 
BRANCH  12  13
ATOM     13  C   UNL A   1      39.778  29.086  29.237  1.00  0.00     0.031 A 
ATOM     14  C   UNL A   1      40.559  30.018  30.106  1.00  0.00     0.074 A 
ATOM     15  C   UNL A   1      40.228  27.869  28.895  1.00  0.00     0.049 A 
ATOM     16  N   UNL A   1      41.784  29.916  30.536  1.00  0.00    -0.248 NA
ATOM     17  C   UNL A   1      39.852  31.230  30.566  1.00  0.00     0.031 C 
ATOM     18  C   UNL A   1      39.452  26.854  28.176  1.00  0.00     0.029 A 
ATOM     19  N   UNL A   1      41.427  27.265  29.140  1.00  0.00    -0.354 N 
ATOM     20  C   UNL A   1      42.010  31.066  31.280  1.00  0.00     0.074 A 
ATOM     21  C   UNL A   1      40.797  31.849  31.253  1.00  0.00     0.031 C 
ATOM     22  C   UNL A   1      40.192  25.738  28.067  1.00  0.00     0.029 A 
ATOM     23  C   UNL A   1      41.509  25.986  28.644  1.00  0.00     0.049 A 
ATOM     24  H   UNL A   1      42.163  27.703  29.624  1.00  0.00     0.167 HD
ATOM     25  C   UNL A   1      43.149  31.438  31.906  1.00  0.00     0.031 A 
ATOM     26  C   UNL A   1      42.552  25.135  28.643  1.00  0.00     0.031 A 
ATOM     27  C   UNL A   1      44.345  30.643  31.874  1.00  0.00     0.049 A 
ATOM     28  C   UNL A   1      43.842  25.615  29.253  1.00  0.00     0.074 A 
ATOM     29  C   UNL A   1      45.592  30.932  32.388  1.00  0.00     0.029 A 
ATOM     30  N   UNL A   1      44.431  29.389  31.277  1.00  0.00    -0.354 N 
ATOM     31  N   UNL A   1      44.086  26.744  29.882  1.00  0.00    -0.248 NA
ATOM     32  C   UNL A   1      45.002  24.725  29.139  1.00  0.00     0.031 C 
ATOM     33  C   UNL A   1      46.450  29.880  32.047  1.00  0.00     0.029 A 
ATOM     34  C   UNL A   1      45.719  28.901  31.387  1.00  0.00     0.049 A 
ATOM     35  H   UNL A   1      43.685  28.919  30.841  1.00  0.00     0.167 HD
ATOM     36  C   UNL A   1      45.424  26.695  30.252  1.00  0.00     0.074 A 
ATOM     37  C   UNL A   1      45.929  25.413  29.791  1.00  0.00     0.031 C 
ATOM     38  C   UNL A   1      46.173  27.618  30.905  1.00  0.00     0.031 A 
BRANCH  25  39
ATOM     39  C   UNL A   1      43.158  32.800  32.544  1.00  0.00    -0.014 A 
ATOM     40  C   UNL A   1      43.548  33.952  31.835  1.00  0.00     0.010 A 
ATOM     41  C   UNL A   1      42.840  32.914  33.910  1.00  0.00     0.010 A 
ATOM     42  C   UNL A   1      43.681  35.177  32.496  1.00  0.00     0.020 A 
ATOM     43  C   UNL A   1      42.941  34.142  34.566  1.00  0.00     0.020 A 
ATOM     44  C   UNL A   1      43.387  35.262  33.861  1.00  0.00     0.054 A 
BRANCH  44  45
ATOM     45  S   UNL A   1      43.597  36.854  34.704  1.00  0.00     0.124 S 
ATOM     46  O   UNL A   1      44.873  37.315  34.161  1.00  0.00    -0.237 OA
ATOM     47  O   UNL A   1      42.423  37.604  34.268  1.00  0.00    -0.237 OA
ATOM     48  O   UNL A   1      43.616  36.498  36.120  1.00  0.00    -0.744 OA
ENDBRANCH  44  45
ENDBRANCH  25  39
BRANCH  26  49
ATOM     49  C   UNL A   1      42.429  23.794  28.005  1.00  0.00    -0.014 A 
ATOM     50  C   UNL A   1      42.664  23.622  26.630  1.00  0.00     0.010 A 
ATOM     51  C   UNL A   1      42.094  22.667  28.780  1.00  0.00     0.010 A 
ATOM     52  C   UNL A   1      42.560  22.355  26.044  1.00  0.00     0.020 A 
ATOM     53  C   UNL A   1      42.021  21.394  28.206  1.00  0.00     0.020 A 
ATOM     54  C   UNL A   1      42.245  21.248  26.836  1.00  0.00     0.054 A 
BRANCH  54  55
ATOM     55  S   UNL A   1      42.172  19.606  26.067  1.00  0.00     0.124 S 
ATOM     56  O   UNL A   1      43.107  19.749  24.956  1.00  0.00    -0.237 OA
ATOM     57  O   UNL A   1      42.607  18.730  27.152  1.00  0.00    -0.237 OA
ATOM     58  O   UNL A   1      40.768  19.466  25.689  1.00  0.00    -0.744 OA
ENDBRANCH  54  55
ENDBRANCH  26  49
BRANCH  38  59
ATOM     59  C   UNL A   1      47.606  27.258  31.189  1.00  0.00    -0.014 A 
ATOM     60  C   UNL A   1      47.977  26.624  32.388  1.00  0.00     0.010 A 
ATOM     61  C   UNL A   1      48.579  27.491  30.200  1.00  0.00     0.010 A 
ATOM     62  C   UNL A   1      49.306  26.257  32.603  1.00  0.00     0.020 A 
ATOM     63  C   UNL A   1      49.901  27.094  30.399  1.00  0.00     0.020 A 
ATOM     64  C   UNL A   1      50.258  26.490  31.606  1.00  0.00     0.054 A 
BRANCH  64  65
ATOM     65  S   UNL A   1      51.966  25.951  31.887  1.00  0.00     0.124 S 
ATOM     66  O   UNL A   1      52.223  26.450  33.235  1.00  0.00    -0.237 OA
ATOM     67  O   UNL A   1      51.866  24.499  31.763  1.00  0.00    -0.237 OA
ATOM     68  O   UNL A   1      52.718  26.612  30.823  1.00  0.00    -0.744 OA
ENDBRANCH  64  65
ENDBRANCH  38  59
ENDBRANCH  12  13
ENDBRANCH   5   7
ENDBRANCH   4   5
ENDBRANCH   3   4
ENDBRANCH   2   3
ENDBRANCH   1   2
BRANCH   1  69
ATOM     69  C   UNL A   1      31.392  27.789  23.026  1.00  0.00     0.202 C 
BRANCH  69  70
ATOM     70  C   UNL A   1      31.247  26.513  22.194  1.00  0.00     0.261 C 
BRANCH  70  71
ATOM     71  O   UNL A   1      31.849  25.466  22.969  1.00  0.00    -0.463 OA
BRANCH  71  72
ATOM     72  C   UNL A   1      32.827  24.699  22.420  1.00  0.00     0.314 C 
ATOM     73  O   UNL A   1      33.337  24.896  21.331  1.00  0.00    -0.252 OA
BRANCH  72  74
ATOM     74  C   UNL A   1      33.258  23.595  23.397  1.00  0.00     0.097 C 
ATOM     75  C   UNL A   1      32.712  23.932  24.803  1.00  0.00     0.053 C 
ATOM     76  C   UNL A   1      34.785  23.775  23.658  1.00  0.00     0.136 C 
ATOM     77  C   UNL A   1      33.961  24.431  25.545  1.00  0.00     0.120 C 
ATOM     78  C   UNL A   1      35.400  22.779  24.639  1.00  0.00     0.036 C 
ATOM     79  O   UNL A   1      34.768  24.972  24.481  1.00  0.00    -0.374 OA
ATOM     80  C   UNL A   1      34.840  23.261  25.975  1.00  0.00     0.035 C 
BRANCH  74  81
ATOM     81  C   UNL A   1      32.893  22.162  22.915  1.00  0.00     0.026 C 
BRANCH  81  82
ATOM     82  C   UNL A   1      32.388  21.054  23.875  1.00  0.00     0.038 C 
BRANCH  82  83
ATOM     83  C   UNL A   1      32.867  19.616  23.854  1.00  0.00    -0.030 A 
ATOM     84  C   UNL A   1      33.987  19.134  24.518  1.00  0.00     0.007 A 
ATOM     85  C   UNL A   1      32.265  18.700  22.987  1.00  0.00     0.114 A 
ATOM     86  C   UNL A   1      34.493  17.855  24.275  1.00  0.00     0.020 A 
ATOM     87  N   UNL A   1      32.704  17.439  22.745  1.00  0.00    -0.264 NA
ATOM     88  C   UNL A   1      33.830  17.053  23.373  1.00  0.00     0.111 A 
ENDBRANCH  82  83
ENDBRANCH  81  82
ENDBRANCH  74  81
ENDBRANCH  72  74
ENDBRANCH  71  72
ENDBRANCH  70  71
ENDBRANCH  69  70
ENDBRANCH   1  69
TORSDOF 20
ENDMDL
MODEL 2
REMARK VINA RESULT:      -9.9      0.514      8.278
REMARK SMILES O=C(OCCOCCOC(=O)[C@]1(CCc2cccnc2)C[C@H]2CC[C@@H]1O2)c1ccc(-c2c3nc(c(-c4ccc(S(=O)(=O)[O-])cc4)c4ccc([nH]4)c(-c4ccc(S(=O)(=O)[O-])cc4)c4nc(c(-c5ccc(S(=O)(=O)[O-])cc5)c5ccc2[nH]5)C=C4)C=C3)cc1
REMARK SMILES IDX 6 1 5 2 4 3 3 4 2 5 1 6 27 7 28 8 86 9 29 10 85 11 30 12
REMARK SMILES IDX 31 13 32 14 79 15 33 16 84 17 78 18 80 19 34 20 83 21 77 22
REMARK SMILES IDX 76 23 35 25 65 26 46 27 64 28 47 29 50 30 63 31 81 32 48 33
REMARK SMILES IDX 49 34 62 36 82 37 51 38 36 39 37 40 45 41 38 42 44 43 39 44
REMARK SMILES IDX 40 45 41 46 42 47 43 48 66 49 67 50 75 51 68 52 74 53 69 54
REMARK SMILES IDX 70 55 71 56 72 57 73 58 52 59 53 60 61 61 54 62 60 63 55 64
REMARK SMILES IDX 56 65 57 66 58 67 59 68 7 69 8 70 9 71 10 72 11 73 12 74
REMARK SMILES IDX 21 75 25 76 22 77 24 78 26 79 23 80 13 81 14 82 15 83 16 84
REMARK SMILES IDX 20 85 17 86 19 87 18 88
REMARK H PARENT 80 24 50 35
REMARK Flexibility Score: inf
ROOT
ATOM      1  O   UNL A   1      32.603  27.817  24.172  1.00  0.00    -0.374 OA
ENDROOT
BRANCH   1   2
ATOM      2  C   UNL A   1      32.470  28.630  25.340  1.00  0.00     0.202 C 
BRANCH   2   3
ATOM      3  C   UNL A   1      33.663  28.613  26.299  1.00  0.00     0.261 C 
BRANCH   3   4
ATOM      4  O   UNL A   1      33.462  29.495  27.398  1.00  0.00    -0.460 OA
BRANCH   4   5
ATOM      5  C   UNL A   1      34.376  30.370  27.881  1.00  0.00     0.338 C 
ATOM      6  O   UNL A   1      34.031  31.545  28.010  1.00  0.00    -0.246 OA
BRANCH   5   7
ATOM      7  C   UNL A   1      35.765  29.992  28.316  1.00  0.00     0.060 A 
ATOM      8  C   UNL A   1      36.153  29.518  29.575  1.00  0.00     0.016 A 
ATOM      9  C   UNL A   1      36.751  30.061  27.318  1.00  0.00     0.016 A 
ATOM     10  C   UNL A   1      37.450  29.116  29.843  1.00  0.00     0.010 A 
ATOM     11  C   UNL A   1      38.066  29.671  27.576  1.00  0.00     0.010 A 
ATOM     12  C   UNL A   1      38.411  29.207  28.847  1.00  0.00    -0.014 A 
BRANCH  12  13
ATOM     13  C   UNL A   1      39.805  28.993  29.246  1.00  0.00     0.031 A 
ATOM     14  C   UNL A   1      40.442  27.705  28.836  1.00  0.00     0.074 A 
ATOM     15  C   UNL A   1      40.495  29.993  29.816  1.00  0.00     0.049 A 
ATOM     16  N   UNL A   1      41.646  27.267  29.072  1.00  0.00    -0.248 NA
ATOM     17  C   UNL A   1      39.606  26.787  28.038  1.00  0.00     0.031 C 
ATOM     18  C   UNL A   1      39.966  31.330  30.100  1.00  0.00     0.029 A 
ATOM     19  N   UNL A   1      41.798  30.053  30.220  1.00  0.00    -0.354 N 
ATOM     20  C   UNL A   1      41.701  26.008  28.489  1.00  0.00     0.074 A 
ATOM     21  C   UNL A   1      40.415  25.754  27.881  1.00  0.00     0.031 C 
ATOM     22  C   UNL A   1      40.952  32.089  30.607  1.00  0.00     0.029 A 
ATOM     23  C   UNL A   1      42.153  31.273  30.745  1.00  0.00     0.049 A 
ATOM     24  H   UNL A   1      42.423  29.297  30.144  1.00  0.00     0.167 HD
ATOM     25  C   UNL A   1      42.734  25.137  28.492  1.00  0.00     0.031 A 
ATOM     26  C   UNL A   1      43.319  31.658  31.297  1.00  0.00     0.031 A 
ATOM     27  C   UNL A   1      43.983  25.421  29.143  1.00  0.00     0.049 A 
ATOM     28  C   UNL A   1      44.421  30.635  31.383  1.00  0.00     0.074 A 
ATOM     29  C   UNL A   1      45.083  24.603  29.299  1.00  0.00     0.029 A 
ATOM     30  N   UNL A   1      44.284  26.632  29.757  1.00  0.00    -0.354 N 
ATOM     31  N   UNL A   1      44.444  29.408  30.909  1.00  0.00    -0.248 NA
ATOM     32  C   UNL A   1      45.641  31.032  32.092  1.00  0.00     0.031 C 
ATOM     33  C   UNL A   1      46.028  25.299  30.063  1.00  0.00     0.029 A 
ATOM     34  C   UNL A   1      45.546  26.577  30.317  1.00  0.00     0.049 A 
ATOM     35  H   UNL A   1      43.687  27.414  29.787  1.00  0.00     0.167 HD
ATOM     36  C   UNL A   1      45.687  28.890  31.251  1.00  0.00     0.074 A 
ATOM     37  C   UNL A   1      46.392  29.948  31.954  1.00  0.00     0.031 C 
ATOM     38  C   UNL A   1      46.203  27.658  31.014  1.00  0.00     0.031 A 
BRANCH  25  39
ATOM     39  C   UNL A   1      42.482  23.785  27.884  1.00  0.00    -0.014 A 
ATOM     40  C   UNL A   1      42.071  22.685  28.661  1.00  0.00     0.010 A 
ATOM     41  C   UNL A   1      42.738  23.595  26.514  1.00  0.00     0.010 A 
ATOM     42  C   UNL A   1      41.984  21.411  28.090  1.00  0.00     0.020 A 
ATOM     43  C   UNL A   1      42.621  22.330  25.934  1.00  0.00     0.020 A 
ATOM     44  C   UNL A   1      42.270  21.240  26.732  1.00  0.00     0.054 A 
BRANCH  44  45
ATOM     45  S   UNL A   1      42.181  19.574  26.022  1.00  0.00     0.124 S 
ATOM     46  O   UNL A   1      43.121  19.671  24.908  1.00  0.00    -0.237 OA
ATOM     47  O   UNL A   1      42.611  18.730  27.133  1.00  0.00    -0.237 OA
ATOM     48  O   UNL A   1      40.778  19.433  25.641  1.00  0.00    -0.744 OA
ENDBRANCH  44  45
ENDBRANCH  25  39
BRANCH  26  49
ATOM     49  C   UNL A   1      43.473  33.035  31.846  1.00  0.00    -0.014 A 
ATOM     50  C   UNL A   1      43.225  33.304  33.204  1.00  0.00     0.010 A 
ATOM     51  C   UNL A   1      43.893  34.089  31.013  1.00  0.00     0.010 A 
ATOM     52  C   UNL A   1      43.388  34.598  33.713  1.00  0.00     0.020 A 
ATOM     53  C   UNL A   1      44.088  35.376  31.524  1.00  0.00     0.020 A 
ATOM     54  C   UNL A   1      43.824  35.625  32.871  1.00  0.00     0.054 A 
BRANCH  54  55
ATOM     55  S   UNL A   1      44.083  37.282  33.565  1.00  0.00     0.124 S 
ATOM     56  O   UNL A   1      44.947  37.002  34.706  1.00  0.00    -0.237 OA
ATOM     57  O   UNL A   1      44.710  37.994  32.454  1.00  0.00    -0.237 OA
ATOM     58  O   UNL A   1      42.732  37.730  33.897  1.00  0.00    -0.744 OA
ENDBRANCH  54  55
ENDBRANCH  26  49
BRANCH  38  59
ATOM     59  C   UNL A   1      47.606  27.402  31.489  1.00  0.00    -0.014 A 
ATOM     60  C   UNL A   1      47.857  26.754  32.712  1.00  0.00     0.010 A 
ATOM     61  C   UNL A   1      48.685  27.752  30.657  1.00  0.00     0.010 A 
ATOM     62  C   UNL A   1      49.169  26.486  33.105  1.00  0.00     0.020 A 
ATOM     63  C   UNL A   1      49.995  27.455  31.033  1.00  0.00     0.020 A 
ATOM     64  C   UNL A   1      50.229  26.834  32.262  1.00  0.00     0.054 A 
BRANCH  64  65
ATOM     65  S   UNL A   1      51.919  26.423  32.770  1.00  0.00     0.124 S 
ATOM     66  O   UNL A   1      51.870  26.666  34.209  1.00  0.00    -0.237 OA
ATOM     67  O   UNL A   1      52.040  25.023  32.373  1.00  0.00    -0.237 OA
ATOM     68  O   UNL A   1      52.747  27.355  32.007  1.00  0.00    -0.744 OA
ENDBRANCH  64  65
ENDBRANCH  38  59
ENDBRANCH  12  13
ENDBRANCH   5   7
ENDBRANCH   4   5
ENDBRANCH   3   4
ENDBRANCH   2   3
ENDBRANCH   1   2
BRANCH   1  69
ATOM     69  C   UNL A   1      31.520  27.873  23.241  1.00  0.00     0.202 C 
BRANCH  69  70
ATOM     70  C   UNL A   1      31.493  26.603  22.388  1.00  0.00     0.261 C 
BRANCH  70  71
ATOM     71  O   UNL A   1      32.134  25.587  23.173  1.00  0.00    -0.463 OA
BRANCH  71  72
ATOM     72  C   UNL A   1      32.898  24.645  22.560  1.00  0.00     0.314 C 
ATOM     73  O   UNL A   1      33.235  24.675  21.390  1.00  0.00    -0.252 OA
BRANCH  72  74
ATOM     74  C   UNL A   1      33.346  23.576  23.568  1.00  0.00     0.097 C 
ATOM     75  C   UNL A   1      32.659  23.850  24.925  1.00  0.00     0.053 C 
ATOM     76  C   UNL A   1      34.824  23.890  23.954  1.00  0.00     0.136 C 
ATOM     77  C   UNL A   1      33.793  24.454  25.768  1.00  0.00     0.120 C 
ATOM     78  C   UNL A   1      35.445  22.945  24.981  1.00  0.00     0.036 C 
ATOM     79  O   UNL A   1      34.631  25.074  24.774  1.00  0.00    -0.374 OA
ATOM     80  C   UNL A   1      34.736  23.364  26.267  1.00  0.00     0.035 C 
BRANCH  74  81
ATOM     81  C   UNL A   1      33.153  22.120  23.057  1.00  0.00     0.026 C 
BRANCH  81  82
ATOM     82  C   UNL A   1      32.542  20.995  23.931  1.00  0.00     0.038 C 
BRANCH  82  83
ATOM     83  C   UNL A   1      32.972  19.542  23.882  1.00  0.00    -0.030 A 
ATOM     84  C   UNL A   1      34.071  19.006  24.539  1.00  0.00     0.007 A 
ATOM     85  C   UNL A   1      32.340  18.665  22.995  1.00  0.00     0.114 A 
ATOM     86  C   UNL A   1      34.533  17.717  24.270  1.00  0.00     0.020 A 
ATOM     87  N   UNL A   1      32.736  17.395  22.728  1.00  0.00    -0.264 NA
ATOM     88  C   UNL A   1      33.846  16.956  23.350  1.00  0.00     0.111 A 
ENDBRANCH  82  83
ENDBRANCH  81  82
ENDBRANCH  74  81
ENDBRANCH  72  74
ENDBRANCH  71  72
ENDBRANCH  70  71
ENDBRANCH  69  70
ENDBRANCH   1  69
TORSDOF 20
ENDMDL
MODEL 3
REMARK VINA RESULT:      -9.8      3.027      9.436
REMARK SMILES O=C(OCCOCCOC(=O)[C@]1(CCc2cccnc2)C[C@H]2CC[C@@H]1O2)c1ccc(-c2c3nc(c(-c4ccc(S(=O)(=O)[O-])cc4)c4ccc([nH]4)c(-c4ccc(S(=O)(=O)[O-])cc4)c4nc(c(-c5ccc(S(=O)(=O)[O-])cc5)c5ccc2[nH]5)C=C4)C=C3)cc1
REMARK SMILES IDX 6 1 5 2 4 3 3 4 2 5 1 6 27 7 28 8 86 9 29 10 85 11 30 12
REMARK SMILES IDX 31 13 32 14 79 15 33 16 84 17 78 18 80 19 34 20 83 21 77 22
REMARK SMILES IDX 76 23 35 25 65 26 46 27 64 28 47 29 50 30 63 31 81 32 48 33
REMARK SMILES IDX 49 34 62 36 82 37 51 38 36 39 37 40 45 41 38 42 44 43 39 44
REMARK SMILES IDX 40 45 41 46 42 47 43 48 66 49 67 50 75 51 68 52 74 53 69 54
REMARK SMILES IDX 70 55 71 56 72 57 73 58 52 59 53 60 61 61 54 62 60 63 55 64
REMARK SMILES IDX 56 65 57 66 58 67 59 68 7 69 8 70 9 71 10 72 11 73 12 74
REMARK SMILES IDX 21 75 25 76 22 77 24 78 26 79 23 80 13 81 14 82 15 83 16 84
REMARK SMILES IDX 20 85 17 86 19 87 18 88
REMARK H PARENT 80 24 50 35
REMARK Flexibility Score: inf
ROOT
ATOM      1  O   UNL A   1      34.502  23.575  25.401  1.00  0.00    -0.374 OA
ENDROOT
BRANCH   1   2
ATOM      2  C   UNL A   1      35.761  23.455  26.067  1.00  0.00     0.202 C 
BRANCH   2   3
ATOM      3  C   UNL A   1      36.995  23.524  25.166  1.00  0.00     0.261 C 
BRANCH   3   4
ATOM      4  O   UNL A   1      37.951  22.528  25.513  1.00  0.00    -0.460 OA
BRANCH   4   5
ATOM      5  C   UNL A   1      39.054  22.727  26.274  1.00  0.00     0.338 C 
ATOM      6  O   UNL A   1      39.749  21.747  26.544  1.00  0.00    -0.246 OA
BRANCH   5   7
ATOM      7  C   UNL A   1      39.512  24.071  26.769  1.00  0.00     0.060 A 
ATOM      8  C   UNL A   1      40.122  25.082  26.016  1.00  0.00     0.016 A 
ATOM      9  C   UNL A   1      39.223  24.352  28.115  1.00  0.00     0.016 A 
ATOM     10  C   UNL A   1      40.426  26.320  26.555  1.00  0.00     0.010 A 
ATOM     11  C   UNL A   1      39.534  25.591  28.676  1.00  0.00     0.010 A 
ATOM     12  C   UNL A   1      40.145  26.570  27.890  1.00  0.00    -0.014 A 
BRANCH  12  13
ATOM     13  C   UNL A   1      40.695  27.800  28.467  1.00  0.00     0.031 A 
ATOM     14  C   UNL A   1      42.183  27.903  28.561  1.00  0.00     0.074 A 
ATOM     15  C   UNL A   1      39.879  28.828  28.745  1.00  0.00     0.049 A 
ATOM     16  N   UNL A   1      42.915  28.869  29.039  1.00  0.00    -0.248 NA
ATOM     17  C   UNL A   1      42.953  26.763  28.028  1.00  0.00     0.031 C 
ATOM     18  C   UNL A   1      38.430  28.838  28.528  1.00  0.00     0.029 A 
ATOM     19  N   UNL A   1      40.156  30.074  29.230  1.00  0.00    -0.354 N 
ATOM     20  C   UNL A   1      44.228  28.437  28.904  1.00  0.00     0.074 A 
ATOM     21  C   UNL A   1      44.195  27.129  28.293  1.00  0.00     0.031 C 
ATOM     22  C   UNL A   1      37.950  30.051  28.852  1.00  0.00     0.029 A 
ATOM     23  C   UNL A   1      39.044  30.871  29.362  1.00  0.00     0.049 A 
ATOM     24  H   UNL A   1      41.064  30.373  29.464  1.00  0.00     0.167 HD
ATOM     25  C   UNL A   1      45.355  29.076  29.288  1.00  0.00     0.031 A 
ATOM     26  C   UNL A   1      38.939  32.114  29.867  1.00  0.00     0.031 A 
ATOM     27  C   UNL A   1      45.335  30.362  29.928  1.00  0.00     0.049 A 
ATOM     28  C   UNL A   1      40.195  32.763  30.385  1.00  0.00     0.074 A 
ATOM     29  C   UNL A   1      46.388  31.089  30.446  1.00  0.00     0.029 A 
ATOM     30  N   UNL A   1      44.181  31.109  30.141  1.00  0.00    -0.354 N 
ATOM     31  N   UNL A   1      41.432  32.318  30.340  1.00  0.00    -0.248 NA
ATOM     32  C   UNL A   1      40.047  34.067  31.040  1.00  0.00     0.031 C 
ATOM     33  C   UNL A   1      45.862  32.248  31.029  1.00  0.00     0.029 A 
ATOM     34  C   UNL A   1      44.491  32.279  30.807  1.00  0.00     0.049 A 
ATOM     35  H   UNL A   1      43.276  30.843  29.859  1.00  0.00     0.167 HD
ATOM     36  C   UNL A   1      42.212  33.292  30.948  1.00  0.00     0.074 A 
ATOM     37  C   UNL A   1      41.306  34.361  31.334  1.00  0.00     0.031 C 
ATOM     38  C   UNL A   1      43.550  33.310  31.174  1.00  0.00     0.031 A 
BRANCH  25  39
ATOM     39  C   UNL A   1      46.648  28.324  29.131  1.00  0.00    -0.014 A 
ATOM     40  C   UNL A   1      47.513  28.548  28.043  1.00  0.00     0.010 A 
ATOM     41  C   UNL A   1      46.965  27.314  30.058  1.00  0.00     0.010 A 
ATOM     42  C   UNL A   1      48.634  27.734  27.852  1.00  0.00     0.020 A 
ATOM     43  C   UNL A   1      48.101  26.520  29.888  1.00  0.00     0.020 A 
ATOM     44  C   UNL A   1      48.914  26.717  28.771  1.00  0.00     0.054 A 
BRANCH  44  45
ATOM     45  S   UNL A   1      50.355  25.654  28.485  1.00  0.00     0.124 S 
ATOM     46  O   UNL A   1      49.730  24.423  28.007  1.00  0.00    -0.237 OA
ATOM     47  O   UNL A   1      51.111  26.402  27.484  1.00  0.00    -0.237 OA
ATOM     48  O   UNL A   1      50.985  25.562  29.799  1.00  0.00    -0.744 OA
ENDBRANCH  44  45
ENDBRANCH  25  39
BRANCH  26  49
ATOM     49  C   UNL A   1      37.610  32.783  29.952  1.00  0.00    -0.014 A 
ATOM     50  C   UNL A   1      36.917  32.863  31.173  1.00  0.00     0.010 A 
ATOM     51  C   UNL A   1      37.034  33.366  28.808  1.00  0.00     0.010 A 
ATOM     52  C   UNL A   1      35.675  33.506  31.245  1.00  0.00     0.020 A 
ATOM     53  C   UNL A   1      35.809  34.038  28.881  1.00  0.00     0.020 A 
ATOM     54  C   UNL A   1      35.132  34.095  30.100  1.00  0.00     0.054 A 
BRANCH  54  55
ATOM     55  S   UNL A   1      33.549  34.974  30.227  1.00  0.00     0.124 S 
ATOM     56  O   UNL A   1      33.954  36.360  30.022  1.00  0.00    -0.237 OA
ATOM     57  O   UNL A   1      32.769  34.375  29.147  1.00  0.00    -0.237 OA
ATOM     58  O   UNL A   1      33.085  34.650  31.574  1.00  0.00    -0.744 OA
ENDBRANCH  54  55
ENDBRANCH  26  49
BRANCH  38  59
ATOM     59  C   UNL A   1      44.113  34.536  31.839  1.00  0.00    -0.014 A 
ATOM     60  C   UNL A   1      44.272  34.603  33.234  1.00  0.00     0.010 A 
ATOM     61  C   UNL A   1      44.560  35.603  31.039  1.00  0.00     0.010 A 
ATOM     62  C   UNL A   1      44.844  35.734  33.820  1.00  0.00     0.020 A 
ATOM     63  C   UNL A   1      45.162  36.719  31.620  1.00  0.00     0.020 A 
ATOM     64  C   UNL A   1      45.289  36.782  33.008  1.00  0.00     0.054 A 
BRANCH  64  65
ATOM     65  S   UNL A   1      46.080  38.214  33.790  1.00  0.00     0.124 S 
ATOM     66  O   UNL A   1      46.543  38.973  32.632  1.00  0.00    -0.237 OA
ATOM     67  O   UNL A   1      44.980  38.817  34.538  1.00  0.00    -0.237 OA
ATOM     68  O   UNL A   1      47.134  37.622  34.611  1.00  0.00    -0.744 OA
ENDBRANCH  64  65
ENDBRANCH  38  59
ENDBRANCH  12  13
ENDBRANCH   5   7
ENDBRANCH   4   5
ENDBRANCH   3   4
ENDBRANCH   2   3
ENDBRANCH   1   2
BRANCH   1  69
ATOM     69  C   UNL A   1      34.284  22.686  24.302  1.00  0.00     0.202 C 
BRANCH  69  70
ATOM     70  C   UNL A   1      32.806  22.689  23.907  1.00  0.00     0.261 C 
BRANCH  70  71
ATOM     71  O   UNL A   1      32.192  23.727  24.685  1.00  0.00    -0.463 OA
BRANCH  71  72
ATOM     72  C   UNL A   1      31.387  24.638  24.078  1.00  0.00     0.314 C 
ATOM     73  O   UNL A   1      30.416  24.363  23.396  1.00  0.00    -0.252 OA
BRANCH  72  74
ATOM     74  C   UNL A   1      31.823  26.066  24.437  1.00  0.00     0.097 C 
ATOM     75  C   UNL A   1      30.809  27.064  23.832  1.00  0.00     0.053 C 
ATOM     76  C   UNL A   1      33.074  26.403  23.570  1.00  0.00     0.136 C 
ATOM     77  C   UNL A   1      31.570  27.635  22.625  1.00  0.00     0.120 C 
ATOM     78  C   UNL A   1      33.643  27.808  23.764  1.00  0.00     0.036 C 
ATOM     79  O   UNL A   1      32.452  26.553  22.266  1.00  0.00    -0.374 OA
ATOM     80  C   UNL A   1      32.593  28.674  23.071  1.00  0.00     0.035 C 
BRANCH  74  81
ATOM     81  C   UNL A   1      32.069  26.277  25.959  1.00  0.00     0.026 C 
BRANCH  81  82
ATOM     82  C   UNL A   1      31.506  27.490  26.743  1.00  0.00     0.038 C 
BRANCH  82  83
ATOM     83  C   UNL A   1      32.305  28.730  27.094  1.00  0.00    -0.030 A 
ATOM     84  C   UNL A   1      31.877  30.038  26.913  1.00  0.00     0.007 A 
ATOM     85  C   UNL A   1      33.641  28.603  27.483  1.00  0.00     0.114 A 
ATOM     86  C   UNL A   1      32.746  31.122  27.049  1.00  0.00     0.020 A 
ATOM     87  N   UNL A   1      34.511  29.629  27.658  1.00  0.00    -0.264 NA
ATOM     88  C   UNL A   1      34.052  30.870  27.406  1.00  0.00     0.111 A 
ENDBRANCH  82  83
ENDBRANCH  81  82
ENDBRANCH  74  81
ENDBRANCH  72  74
ENDBRANCH  71  72
ENDBRANCH  70  71
ENDBRANCH  69  70
ENDBRANCH   1  69
TORSDOF 20
ENDMDL
