MODEL 1
REMARK VINA RESULT:      -9.9      0.000      0.000
REMARK SMILES C[C@@H](C(=O)OCCOCCOC(=O)c1ccc(-c2c3nc(c(-c4ccc(S(=O)(=O)[O-])cc4)c4ccc([nH]4)c(-c4ccc(S(=O)(=O)[O-])cc4)c4nc(c(-c5ccc(S(=O)(=O)[O-])cc5)c5ccc2[nH]5)C=C4)C=C3)cc1)N1C(=O)/C(=C/c2ccc(F)cc2)SC1=S
REMARK SMILES IDX 9 1 8 2 7 3 6 4 5 5 3 6 4 7 2 8 1 9 74 10 75 11 87 12 76 13
REMARK SMILES IDX 77 14 86 15 88 16 78 17 79 18 80 19 85 20 81 21 84 22 82 23
REMARK SMILES IDX 83 24 10 25 11 26 12 27 13 28 14 29 15 30 73 31 16 32 72 33
REMARK SMILES IDX 17 34 18 35 19 36 66 37 20 38 71 39 65 40 67 41 21 42 70 43
REMARK SMILES IDX 64 44 63 45 22 47 52 48 33 49 51 50 34 51 37 52 50 53 68 54
REMARK SMILES IDX 35 55 36 56 49 58 69 59 38 60 23 61 24 62 32 63 25 64 31 65
REMARK SMILES IDX 26 66 27 67 28 68 29 69 30 70 53 71 54 72 62 73 55 74 61 75
REMARK SMILES IDX 56 76 57 77 58 78 59 79 60 80 39 81 40 82 48 83 41 84 47 85
REMARK SMILES IDX 42 86 43 87 44 88 45 89 46 90
REMARK H PARENT 67 46 37 57
REMARK Flexibility Score: inf
ROOT
ATOM      1  C   UNL A   1      38.320  22.800  26.121  1.00  0.00     0.202 C 
ENDROOT
BRANCH   1   2
ATOM      2  O   UNL A   1      37.034  22.299  25.754  1.00  0.00    -0.374 OA
BRANCH   2   3
ATOM      3  C   UNL A   1      36.097  23.221  25.200  1.00  0.00     0.202 C 
BRANCH   3   4
ATOM      4  C   UNL A   1      34.778  22.649  24.668  1.00  0.00     0.261 C 
BRANCH   4   5
ATOM      5  O   UNL A   1      33.636  23.440  25.032  1.00  0.00    -0.462 OA
BRANCH   5   6
ATOM      6  C   UNL A   1      32.792  23.711  23.999  1.00  0.00     0.329 C 
ATOM      7  O   UNL A   1      32.919  23.232  22.877  1.00  0.00    -0.250 OA
BRANCH   6   8
ATOM      8  C   UNL A   1      31.659  24.688  24.390  1.00  0.00     0.199 C 
ATOM      9  C   UNL A   1      30.444  24.592  23.469  1.00  0.00     0.044 C 
BRANCH   8  10
ATOM     10  N   UNL A   1      32.300  26.024  24.557  1.00  0.00    -0.279 N 
ATOM     11  C   UNL A   1      32.252  26.525  25.857  1.00  0.00     0.266 C 
ATOM     12  C   UNL A   1      33.011  26.799  23.661  1.00  0.00     0.149 C 
ATOM     13  O   UNL A   1      31.523  26.128  26.756  1.00  0.00    -0.268 OA
ATOM     14  C   UNL A   1      33.174  27.672  26.016  1.00  0.00     0.081 C 
ATOM     15  S   UNL A   1      33.701  28.207  24.484  1.00  0.00    -0.054 SA
ATOM     16  S   UNL A   1      33.265  26.621  22.023  1.00  0.00    -0.052 S 
ATOM     17  C   UNL A   1      33.492  28.154  27.225  1.00  0.00     0.029 C 
BRANCH  17  18
ATOM     18  C   UNL A   1      34.211  29.406  27.467  1.00  0.00    -0.024 A 
ATOM     19  C   UNL A   1      33.568  30.649  27.465  1.00  0.00     0.011 A 
ATOM     20  C   UNL A   1      35.601  29.341  27.647  1.00  0.00     0.011 A 
ATOM     21  C   UNL A   1      34.318  31.817  27.637  1.00  0.00     0.040 A 
ATOM     22  C   UNL A   1      36.345  30.506  27.818  1.00  0.00     0.040 A 
ATOM     23  C   UNL A   1      35.698  31.734  27.807  1.00  0.00     0.123 A 
ATOM     24  F   UNL A   1      36.416  32.854  27.956  1.00  0.00    -0.207 F 
ENDBRANCH  17  18
ENDBRANCH   8  10
ENDBRANCH   6   8
ENDBRANCH   5   6
ENDBRANCH   4   5
ENDBRANCH   3   4
ENDBRANCH   2   3
ENDBRANCH   1   2
BRANCH   1  25
ATOM     25  C   UNL A   1      38.452  24.313  26.312  1.00  0.00     0.261 C 
BRANCH  25  26
ATOM     26  O   UNL A   1      39.580  24.641  27.145  1.00  0.00    -0.460 OA
BRANCH  26  27
ATOM     27  C   UNL A   1      40.138  25.846  26.888  1.00  0.00     0.338 C 
ATOM     28  O   UNL A   1      40.588  26.235  25.817  1.00  0.00    -0.246 OA
BRANCH  27  29
ATOM     29  C   UNL A   1      39.955  26.749  28.039  1.00  0.00     0.060 A 
ATOM     30  C   UNL A   1      40.677  27.950  28.031  1.00  0.00     0.016 A 
ATOM     31  C   UNL A   1      39.157  26.408  29.134  1.00  0.00     0.016 A 
ATOM     32  C   UNL A   1      40.658  28.784  29.145  1.00  0.00     0.010 A 
ATOM     33  C   UNL A   1      39.147  27.243  30.256  1.00  0.00     0.010 A 
ATOM     34  C   UNL A   1      39.930  28.412  30.282  1.00  0.00    -0.014 A 
BRANCH  34  35
ATOM     35  C   UNL A   1      40.128  29.164  31.544  1.00  0.00     0.031 A 
ATOM     36  C   UNL A   1      39.145  30.245  31.908  1.00  0.00     0.074 A 
ATOM     37  C   UNL A   1      41.136  28.858  32.379  1.00  0.00     0.049 A 
ATOM     38  N   UNL A   1      39.126  31.028  32.955  1.00  0.00    -0.248 NA
ATOM     39  C   UNL A   1      38.037  30.472  30.965  1.00  0.00     0.031 C 
ATOM     40  C   UNL A   1      42.122  27.800  32.162  1.00  0.00     0.029 A 
ATOM     41  N   UNL A   1      41.495  29.413  33.583  1.00  0.00    -0.354 N 
ATOM     42  C   UNL A   1      38.010  31.842  32.798  1.00  0.00     0.074 A 
ATOM     43  C   UNL A   1      37.394  31.479  31.538  1.00  0.00     0.031 C 
ATOM     44  C   UNL A   1      42.981  27.789  33.197  1.00  0.00     0.029 A 
ATOM     45  C   UNL A   1      42.623  28.855  34.131  1.00  0.00     0.049 A 
ATOM     46  H   UNL A   1      40.989  30.141  34.011  1.00  0.00     0.167 HD
ATOM     47  C   UNL A   1      37.534  32.800  33.628  1.00  0.00     0.031 A 
ATOM     48  C   UNL A   1      43.303  29.180  35.249  1.00  0.00     0.031 A 
ATOM     49  C   UNL A   1      38.155  33.172  34.871  1.00  0.00     0.049 A 
ATOM     50  C   UNL A   1      42.798  30.299  36.121  1.00  0.00     0.074 A 
ATOM     51  C   UNL A   1      37.749  34.128  35.785  1.00  0.00     0.029 A 
ATOM     52  N   UNL A   1      39.320  32.609  35.372  1.00  0.00    -0.354 N 
ATOM     53  N   UNL A   1      41.732  31.049  35.966  1.00  0.00    -0.248 NA
ATOM     54  C   UNL A   1      43.583  30.610  37.325  1.00  0.00     0.031 C 
ATOM     55  C   UNL A   1      38.696  34.180  36.813  1.00  0.00     0.029 A 
ATOM     56  C   UNL A   1      39.661  33.215  36.569  1.00  0.00     0.049 A 
ATOM     57  H   UNL A   1      39.829  31.886  34.939  1.00  0.00     0.167 HD
ATOM     58  C   UNL A   1      41.707  31.902  37.064  1.00  0.00     0.074 A 
ATOM     59  C   UNL A   1      42.854  31.568  37.881  1.00  0.00     0.031 C 
ATOM     60  C   UNL A   1      40.810  32.874  37.369  1.00  0.00     0.031 A 
BRANCH  47  61
ATOM     61  C   UNL A   1      36.295  33.538  33.196  1.00  0.00    -0.014 A 
ATOM     62  C   UNL A   1      36.368  34.845  32.677  1.00  0.00     0.010 A 
ATOM     63  C   UNL A   1      35.041  32.908  33.286  1.00  0.00     0.010 A 
ATOM     64  C   UNL A   1      35.206  35.520  32.296  1.00  0.00     0.020 A 
ATOM     65  C   UNL A   1      33.879  33.571  32.883  1.00  0.00     0.020 A 
ATOM     66  C   UNL A   1      33.967  34.881  32.408  1.00  0.00     0.054 A 
BRANCH  66  67
ATOM     67  S   UNL A   1      32.476  35.776  31.895  1.00  0.00     0.124 S 
ATOM     68  O   UNL A   1      32.378  35.413  30.483  1.00  0.00    -0.237 OA
ATOM     69  O   UNL A   1      31.446  35.209  32.761  1.00  0.00    -0.237 OA
ATOM     70  O   UNL A   1      32.804  37.175  32.156  1.00  0.00    -0.744 OA
ENDBRANCH  66  67
ENDBRANCH  47  61
BRANCH  48  71
ATOM     71  C   UNL A   1      44.552  28.448  35.593  1.00  0.00    -0.014 A 
ATOM     72  C   UNL A   1      44.518  27.310  36.417  1.00  0.00     0.010 A 
ATOM     73  C   UNL A   1      45.788  28.886  35.083  1.00  0.00     0.010 A 
ATOM     74  C   UNL A   1      45.698  26.630  36.732  1.00  0.00     0.020 A 
ATOM     75  C   UNL A   1      46.966  28.194  35.374  1.00  0.00     0.020 A 
ATOM     76  C   UNL A   1      46.915  27.075  36.206  1.00  0.00     0.054 A 
BRANCH  76  77
ATOM     77  S   UNL A   1      48.426  26.140  36.576  1.00  0.00     0.124 S 
ATOM     78  O   UNL A   1      49.442  26.915  35.871  1.00  0.00    -0.237 OA
ATOM     79  O   UNL A   1      48.483  26.198  38.034  1.00  0.00    -0.237 OA
ATOM     80  O   UNL A   1      48.150  24.816  36.022  1.00  0.00    -0.744 OA
ENDBRANCH  76  77
ENDBRANCH  48  71
BRANCH  60  81
ATOM     81  C   UNL A   1      41.014  33.629  38.657  1.00  0.00    -0.014 A 
ATOM     82  C   UNL A   1      41.601  34.907  38.668  1.00  0.00     0.010 A 
ATOM     83  C   UNL A   1      40.558  33.072  39.866  1.00  0.00     0.010 A 
ATOM     84  C   UNL A   1      41.754  35.602  39.871  1.00  0.00     0.020 A 
ATOM     85  C   UNL A   1      40.686  33.775  41.067  1.00  0.00     0.020 A 
ATOM     86  C   UNL A   1      41.297  35.031  41.064  1.00  0.00     0.054 A 
BRANCH  86  87
ATOM     87  S   UNL A   1      41.468  35.971  42.605  1.00  0.00     0.124 S 
ATOM     88  O   UNL A   1      40.636  35.199  43.525  1.00  0.00    -0.237 OA
ATOM     89  O   UNL A   1      42.905  35.915  42.859  1.00  0.00    -0.237 OA
ATOM     90  O   UNL A   1      40.953  37.296  42.263  1.00  0.00    -0.744 OA
ENDBRANCH  86  87
ENDBRANCH  60  81
ENDBRANCH  34  35
ENDBRANCH  27  29
ENDBRANCH  26  27
ENDBRANCH  25  26
ENDBRANCH   1  25
TORSDOF 19
ENDMDL
MODEL 2
REMARK VINA RESULT:      -9.3      6.460      8.738
REMARK SMILES C[C@@H](C(=O)OCCOCCOC(=O)c1ccc(-c2c3nc(c(-c4ccc(S(=O)(=O)[O-])cc4)c4ccc([nH]4)c(-c4ccc(S(=O)(=O)[O-])cc4)c4nc(c(-c5ccc(S(=O)(=O)[O-])cc5)c5ccc2[nH]5)C=C4)C=C3)cc1)N1C(=O)/C(=C/c2ccc(F)cc2)SC1=S
REMARK SMILES IDX 9 1 8 2 7 3 6 4 5 5 3 6 4 7 2 8 1 9 74 10 75 11 87 12 76 13
REMARK SMILES IDX 77 14 86 15 88 16 78 17 79 18 80 19 85 20 81 21 84 22 82 23
REMARK SMILES IDX 83 24 10 25 11 26 12 27 13 28 14 29 15 30 73 31 16 32 72 33
REMARK SMILES IDX 17 34 18 35 19 36 66 37 20 38 71 39 65 40 67 41 21 42 70 43
REMARK SMILES IDX 64 44 63 45 22 47 52 48 33 49 51 50 34 51 37 52 50 53 68 54
REMARK SMILES IDX 35 55 36 56 49 58 69 59 38 60 23 61 24 62 32 63 25 64 31 65
REMARK SMILES IDX 26 66 27 67 28 68 29 69 30 70 53 71 54 72 62 73 55 74 61 75
REMARK SMILES IDX 56 76 57 77 58 78 59 79 60 80 39 81 40 82 48 83 41 84 47 85
REMARK SMILES IDX 42 86 43 87 44 88 45 89 46 90
REMARK H PARENT 67 46 37 57
REMARK Flexibility Score: inf
ROOT
ATOM      1  C   UNL A   1      38.836  20.844  25.605  1.00  0.00     0.202 C 
ENDROOT
BRANCH   1   2
ATOM      2  O   UNL A   1      37.818  20.552  24.648  1.00  0.00    -0.374 OA
BRANCH   2   3
ATOM      3  C   UNL A   1      36.466  20.528  25.104  1.00  0.00     0.202 C 
BRANCH   3   4
ATOM      4  C   UNL A   1      35.688  21.848  25.067  1.00  0.00     0.261 C 
BRANCH   4   5
ATOM      5  O   UNL A   1      34.698  21.945  26.103  1.00  0.00    -0.462 OA
BRANCH   5   6
ATOM      6  C   UNL A   1      33.910  23.051  26.021  1.00  0.00     0.329 C 
ATOM      7  O   UNL A   1      34.344  24.198  26.075  1.00  0.00    -0.250 OA
BRANCH   6   8
ATOM      8  C   UNL A   1      32.411  22.710  25.854  1.00  0.00     0.199 C 
ATOM      9  C   UNL A   1      32.159  21.218  25.639  1.00  0.00     0.044 C 
BRANCH   8  10
ATOM     10  N   UNL A   1      31.879  23.657  24.832  1.00  0.00    -0.279 N 
ATOM     11  C   UNL A   1      31.075  24.670  25.354  1.00  0.00     0.266 C 
ATOM     12  C   UNL A   1      32.126  23.751  23.477  1.00  0.00     0.149 C 
ATOM     13  O   UNL A   1      30.561  24.683  26.464  1.00  0.00    -0.268 OA
ATOM     14  C   UNL A   1      30.859  25.740  24.354  1.00  0.00     0.081 C 
ATOM     15  S   UNL A   1      31.359  25.202  22.814  1.00  0.00    -0.054 SA
ATOM     16  S   UNL A   1      32.961  22.741  22.446  1.00  0.00    -0.052 S 
ATOM     17  C   UNL A   1      30.340  26.927  24.697  1.00  0.00     0.029 C 
BRANCH  17  18
ATOM     18  C   UNL A   1      29.891  27.952  23.754  1.00  0.00    -0.024 A 
ATOM     19  C   UNL A   1      28.555  28.064  23.353  1.00  0.00     0.011 A 
ATOM     20  C   UNL A   1      30.858  28.803  23.198  1.00  0.00     0.011 A 
ATOM     21  C   UNL A   1      28.196  29.021  22.399  1.00  0.00     0.040 A 
ATOM     22  C   UNL A   1      30.499  29.754  22.248  1.00  0.00     0.040 A 
ATOM     23  C   UNL A   1      29.171  29.853  21.853  1.00  0.00     0.123 A 
ATOM     24  F   UNL A   1      28.829  30.758  20.928  1.00  0.00    -0.207 F 
ENDBRANCH  17  18
ENDBRANCH   8  10
ENDBRANCH   6   8
ENDBRANCH   5   6
ENDBRANCH   4   5
ENDBRANCH   3   4
ENDBRANCH   2   3
ENDBRANCH   1   2
BRANCH   1  25
ATOM     25  C   UNL A   1      39.695  19.673  26.092  1.00  0.00     0.261 C 
BRANCH  25  26
ATOM     26  O   UNL A   1      40.957  19.624  25.400  1.00  0.00    -0.460 OA
BRANCH  26  27
ATOM     27  C   UNL A   1      42.042  19.699  26.203  1.00  0.00     0.338 C 
ATOM     28  O   UNL A   1      42.825  18.795  26.469  1.00  0.00    -0.246 OA
BRANCH  27  29
ATOM     29  C   UNL A   1      42.302  21.101  26.581  1.00  0.00     0.060 A 
ATOM     30  C   UNL A   1      42.386  22.037  25.542  1.00  0.00     0.016 A 
ATOM     31  C   UNL A   1      42.527  21.487  27.904  1.00  0.00     0.016 A 
ATOM     32  C   UNL A   1      42.763  23.349  25.813  1.00  0.00     0.010 A 
ATOM     33  C   UNL A   1      42.914  22.804  28.174  1.00  0.00     0.010 A 
ATOM     34  C   UNL A   1      43.074  23.729  27.125  1.00  0.00    -0.014 A 
BRANCH  34  35
ATOM     35  C   UNL A   1      43.724  25.039  27.363  1.00  0.00     0.031 A 
ATOM     36  C   UNL A   1      42.888  26.182  27.876  1.00  0.00     0.074 A 
ATOM     37  C   UNL A   1      45.046  25.200  27.175  1.00  0.00     0.049 A 
ATOM     38  N   UNL A   1      43.245  27.411  28.148  1.00  0.00    -0.248 NA
ATOM     39  C   UNL A   1      41.463  25.901  28.112  1.00  0.00     0.031 C 
ATOM     40  C   UNL A   1      45.969  24.157  26.730  1.00  0.00     0.029 A 
ATOM     41  N   UNL A   1      45.840  26.307  27.338  1.00  0.00    -0.354 N 
ATOM     42  C   UNL A   1      42.090  28.050  28.585  1.00  0.00     0.074 A 
ATOM     43  C   UNL A   1      41.015  27.083  28.510  1.00  0.00     0.031 C 
ATOM     44  C   UNL A   1      47.206  24.678  26.647  1.00  0.00     0.029 A 
ATOM     45  C   UNL A   1      47.155  26.094  27.003  1.00  0.00     0.049 A 
ATOM     46  H   UNL A   1      45.499  27.171  27.664  1.00  0.00     0.167 HD
ATOM     47  C   UNL A   1      41.937  29.325  29.016  1.00  0.00     0.031 A 
ATOM     48  C   UNL A   1      48.197  26.950  26.968  1.00  0.00     0.031 A 
ATOM     49  C   UNL A   1      43.001  30.290  29.074  1.00  0.00     0.049 A 
ATOM     50  C   UNL A   1      47.989  28.383  27.381  1.00  0.00     0.074 A 
ATOM     51  C   UNL A   1      42.949  31.606  29.499  1.00  0.00     0.029 A 
ATOM     52  N   UNL A   1      44.311  30.047  28.689  1.00  0.00    -0.354 N 
ATOM     53  N   UNL A   1      46.894  28.969  27.806  1.00  0.00    -0.248 NA
ATOM     54  C   UNL A   1      49.160  29.270  27.319  1.00  0.00     0.031 C 
ATOM     55  C   UNL A   1      44.216  32.174  29.321  1.00  0.00     0.029 A 
ATOM     56  C   UNL A   1      45.071  31.195  28.841  1.00  0.00     0.049 A 
ATOM     57  H   UNL A   1      44.651  29.185  28.355  1.00  0.00     0.167 HD
ATOM     58  C   UNL A   1      47.250  30.284  28.084  1.00  0.00     0.074 A 
ATOM     59  C   UNL A   1      48.664  30.405  27.792  1.00  0.00     0.031 C 
ATOM     60  C   UNL A   1      46.476  31.300  28.543  1.00  0.00     0.031 A 
BRANCH  47  61
ATOM     61  C   UNL A   1      40.554  29.756  29.426  1.00  0.00    -0.014 A 
ATOM     62  C   UNL A   1      39.518  29.877  28.480  1.00  0.00     0.010 A 
ATOM     63  C   UNL A   1      40.279  30.020  30.779  1.00  0.00     0.010 A 
ATOM     64  C   UNL A   1      38.244  30.295  28.877  1.00  0.00     0.020 A 
ATOM     65  C   UNL A   1      39.000  30.413  31.183  1.00  0.00     0.020 A 
ATOM     66  C   UNL A   1      37.995  30.566  30.226  1.00  0.00     0.054 A 
BRANCH  66  67
ATOM     67  S   UNL A   1      36.331  31.094  30.716  1.00  0.00     0.124 S 
ATOM     68  O   UNL A   1      35.987  30.099  31.730  1.00  0.00    -0.237 OA
ATOM     69  O   UNL A   1      36.556  32.447  31.215  1.00  0.00    -0.237 OA
ATOM     70  O   UNL A   1      35.562  31.010  29.477  1.00  0.00    -0.744 OA
ENDBRANCH  66  67
ENDBRANCH  47  61
BRANCH  48  71
ATOM     71  C   UNL A   1      49.527  26.475  26.502  1.00  0.00    -0.014 A 
ATOM     72  C   UNL A   1      49.970  26.736  25.194  1.00  0.00     0.010 A 
ATOM     73  C   UNL A   1      50.367  25.764  27.380  1.00  0.00     0.010 A 
ATOM     74  C   UNL A   1      51.223  26.286  24.769  1.00  0.00     0.020 A 
ATOM     75  C   UNL A   1      51.631  25.336  26.967  1.00  0.00     0.020 A 
ATOM     76  C   UNL A   1      52.048  25.591  25.660  1.00  0.00     0.054 A 
BRANCH  76  77
ATOM     77  S   UNL A   1      53.697  25.072  25.107  1.00  0.00     0.124 S 
ATOM     78  O   UNL A   1      53.691  25.484  23.707  1.00  0.00    -0.237 OA
ATOM     79  O   UNL A   1      54.578  25.833  25.988  1.00  0.00    -0.237 OA
ATOM     80  O   UNL A   1      53.693  23.629  25.336  1.00  0.00    -0.744 OA
ENDBRANCH  76  77
ENDBRANCH  48  71
BRANCH  60  81
ATOM     81  C   UNL A   1      47.146  32.627  28.789  1.00  0.00    -0.014 A 
ATOM     82  C   UNL A   1      47.757  32.918  30.021  1.00  0.00     0.010 A 
ATOM     83  C   UNL A   1      47.214  33.572  27.748  1.00  0.00     0.010 A 
ATOM     84  C   UNL A   1      48.398  34.145  30.218  1.00  0.00     0.020 A 
ATOM     85  C   UNL A   1      47.877  34.788  27.933  1.00  0.00     0.020 A 
ATOM     86  C   UNL A   1      48.453  35.073  29.173  1.00  0.00     0.054 A 
BRANCH  86  87
ATOM     87  S   UNL A   1      49.329  36.639  29.438  1.00  0.00     0.124 S 
ATOM     88  O   UNL A   1      50.649  36.180  29.862  1.00  0.00    -0.237 OA
ATOM     89  O   UNL A   1      49.274  37.266  28.120  1.00  0.00    -0.237 OA
ATOM     90  O   UNL A   1      48.540  37.306  30.472  1.00  0.00    -0.744 OA
ENDBRANCH  86  87
ENDBRANCH  60  81
ENDBRANCH  34  35
ENDBRANCH  27  29
ENDBRANCH  26  27
ENDBRANCH  25  26
ENDBRANCH   1  25
TORSDOF 19
ENDMDL
MODEL 3
REMARK VINA RESULT:      -9.3      2.382      3.133
REMARK SMILES C[C@@H](C(=O)OCCOCCOC(=O)c1ccc(-c2c3nc(c(-c4ccc(S(=O)(=O)[O-])cc4)c4ccc([nH]4)c(-c4ccc(S(=O)(=O)[O-])cc4)c4nc(c(-c5ccc(S(=O)(=O)[O-])cc5)c5ccc2[nH]5)C=C4)C=C3)cc1)N1C(=O)/C(=C/c2ccc(F)cc2)SC1=S
REMARK SMILES IDX 9 1 8 2 7 3 6 4 5 5 3 6 4 7 2 8 1 9 74 10 75 11 87 12 76 13
REMARK SMILES IDX 77 14 86 15 88 16 78 17 79 18 80 19 85 20 81 21 84 22 82 23
REMARK SMILES IDX 83 24 10 25 11 26 12 27 13 28 14 29 15 30 73 31 16 32 72 33
REMARK SMILES IDX 17 34 18 35 19 36 66 37 20 38 71 39 65 40 67 41 21 42 70 43
REMARK SMILES IDX 64 44 63 45 22 47 52 48 33 49 51 50 34 51 37 52 50 53 68 54
REMARK SMILES IDX 35 55 36 56 49 58 69 59 38 60 23 61 24 62 32 63 25 64 31 65
REMARK SMILES IDX 26 66 27 67 28 68 29 69 30 70 53 71 54 72 62 73 55 74 61 75
REMARK SMILES IDX 56 76 57 77 58 78 59 79 60 80 39 81 40 82 48 83 41 84 47 85
REMARK SMILES IDX 42 86 43 87 44 88 45 89 46 90
REMARK H PARENT 67 46 37 57
REMARK Flexibility Score: inf
ROOT
ATOM      1  C   UNL A   1      38.107  22.765  25.829  1.00  0.00     0.202 C 
ENDROOT
BRANCH   1   2
ATOM      2  O   UNL A   1      37.754  21.468  25.346  1.00  0.00    -0.374 OA
BRANCH   2   3
ATOM      3  C   UNL A   1      36.371  21.117  25.342  1.00  0.00     0.202 C 
BRANCH   3   4
ATOM      4  C   UNL A   1      35.489  21.746  24.258  1.00  0.00     0.261 C 
BRANCH   4   5
ATOM      5  O   UNL A   1      34.789  22.914  24.712  1.00  0.00    -0.462 OA
BRANCH   5   6
ATOM      6  C   UNL A   1      33.586  22.654  25.294  1.00  0.00     0.329 C 
ATOM      7  O   UNL A   1      32.776  21.849  24.844  1.00  0.00    -0.250 OA
BRANCH   6   8
ATOM      8  C   UNL A   1      33.350  23.479  26.580  1.00  0.00     0.199 C 
ATOM      9  C   UNL A   1      33.237  22.613  27.834  1.00  0.00     0.044 C 
BRANCH   8  10
ATOM     10  N   UNL A   1      32.224  24.410  26.277  1.00  0.00    -0.279 N 
ATOM     11  C   UNL A   1      32.621  25.635  25.743  1.00  0.00     0.266 C 
ATOM     12  C   UNL A   1      30.858  24.223  26.349  1.00  0.00     0.149 C 
ATOM     13  O   UNL A   1      33.753  26.101  25.771  1.00  0.00    -0.268 OA
ATOM     14  C   UNL A   1      31.466  26.361  25.170  1.00  0.00     0.081 C 
ATOM     15  S   UNL A   1      30.012  25.624  25.674  1.00  0.00    -0.054 SA
ATOM     16  S   UNL A   1      29.959  22.962  26.968  1.00  0.00    -0.052 S 
ATOM     17  C   UNL A   1      31.631  27.432  24.382  1.00  0.00     0.029 C 
BRANCH  17  18
ATOM     18  C   UNL A   1      30.560  28.334  23.955  1.00  0.00    -0.024 A 
ATOM     19  C   UNL A   1      29.489  27.900  23.165  1.00  0.00     0.011 A 
ATOM     20  C   UNL A   1      30.660  29.687  24.310  1.00  0.00     0.011 A 
ATOM     21  C   UNL A   1      28.530  28.822  22.733  1.00  0.00     0.040 A 
ATOM     22  C   UNL A   1      29.704  30.603  23.877  1.00  0.00     0.040 A 
ATOM     23  C   UNL A   1      28.649  30.163  23.089  1.00  0.00     0.123 A 
ATOM     24  F   UNL A   1      27.739  31.046  22.661  1.00  0.00    -0.207 F 
ENDBRANCH  17  18
ENDBRANCH   8  10
ENDBRANCH   6   8
ENDBRANCH   5   6
ENDBRANCH   4   5
ENDBRANCH   3   4
ENDBRANCH   2   3
ENDBRANCH   1   2
BRANCH   1  25
ATOM     25  C   UNL A   1      39.459  22.903  26.537  1.00  0.00     0.261 C 
BRANCH  25  26
ATOM     26  O   UNL A   1      39.999  24.228  26.383  1.00  0.00    -0.460 OA
BRANCH  26  27
ATOM     27  C   UNL A   1      41.084  24.486  27.149  1.00  0.00     0.338 C 
ATOM     28  O   UNL A   1      42.191  23.970  27.054  1.00  0.00    -0.246 OA
BRANCH  27  29
ATOM     29  C   UNL A   1      40.830  25.650  28.017  1.00  0.00     0.060 A 
ATOM     30  C   UNL A   1      41.883  26.558  28.194  1.00  0.00     0.016 A 
ATOM     31  C   UNL A   1      39.624  25.822  28.699  1.00  0.00     0.016 A 
ATOM     32  C   UNL A   1      41.760  27.602  29.105  1.00  0.00     0.010 A 
ATOM     33  C   UNL A   1      39.505  26.868  29.621  1.00  0.00     0.010 A 
ATOM     34  C   UNL A   1      40.587  27.736  29.858  1.00  0.00    -0.014 A 
BRANCH  34  35
ATOM     35  C   UNL A   1      40.567  28.678  31.002  1.00  0.00     0.031 A 
ATOM     36  C   UNL A   1      39.569  29.806  30.998  1.00  0.00     0.074 A 
ATOM     37  C   UNL A   1      41.387  28.506  32.053  1.00  0.00     0.049 A 
ATOM     38  N   UNL A   1      39.377  30.745  31.887  1.00  0.00    -0.248 NA
ATOM     39  C   UNL A   1      38.667  29.882  29.836  1.00  0.00     0.031 C 
ATOM     40  C   UNL A   1      42.362  27.425  32.197  1.00  0.00     0.029 A 
ATOM     41  N   UNL A   1      41.530  29.244  33.202  1.00  0.00    -0.354 N 
ATOM     42  C   UNL A   1      38.338  31.525  31.394  1.00  0.00     0.074 A 
ATOM     43  C   UNL A   1      37.961  30.969  30.112  1.00  0.00     0.031 C 
ATOM     44  C   UNL A   1      43.009  27.576  33.366  1.00  0.00     0.029 A 
ATOM     45  C   UNL A   1      42.515  28.778  34.037  1.00  0.00     0.049 A 
ATOM     46  H   UNL A   1      40.977  30.032  33.407  1.00  0.00     0.167 HD
ATOM     47  C   UNL A   1      37.745  32.604  31.958  1.00  0.00     0.031 A 
ATOM     48  C   UNL A   1      42.982  29.274  35.200  1.00  0.00     0.031 A 
ATOM     49  C   UNL A   1      38.131  33.167  33.224  1.00  0.00     0.049 A 
ATOM     50  C   UNL A   1      42.357  30.519  35.775  1.00  0.00     0.074 A 
ATOM     51  C   UNL A   1      37.590  34.257  33.883  1.00  0.00     0.029 A 
ATOM     52  N   UNL A   1      39.161  32.689  34.021  1.00  0.00    -0.354 N 
ATOM     53  N   UNL A   1      41.365  31.237  35.303  1.00  0.00    -0.248 NA
ATOM     54  C   UNL A   1      42.910  31.015  37.043  1.00  0.00     0.031 C 
ATOM     55  C   UNL A   1      38.327  34.470  35.054  1.00  0.00     0.029 A 
ATOM     56  C   UNL A   1      39.289  33.476  35.153  1.00  0.00     0.049 A 
ATOM     57  H   UNL A   1      39.719  31.905  33.812  1.00  0.00     0.167 HD
ATOM     58  C   UNL A   1      41.160  32.254  36.229  1.00  0.00     0.074 A 
ATOM     59  C   UNL A   1      42.120  32.051  37.294  1.00  0.00     0.031 C 
ATOM     60  C   UNL A   1      40.253  33.264  36.201  1.00  0.00     0.031 A 
BRANCH  47  61
ATOM     61  C   UNL A   1      36.635  33.267  31.187  1.00  0.00    -0.014 A 
ATOM     62  C   UNL A   1      35.306  33.235  31.650  1.00  0.00     0.010 A 
ATOM     63  C   UNL A   1      36.927  33.953  29.995  1.00  0.00     0.010 A 
ATOM     64  C   UNL A   1      34.285  33.841  30.912  1.00  0.00     0.020 A 
ATOM     65  C   UNL A   1      35.914  34.583  29.268  1.00  0.00     0.020 A 
ATOM     66  C   UNL A   1      34.596  34.507  29.722  1.00  0.00     0.054 A 
BRANCH  66  67
ATOM     67  S   UNL A   1      33.255  35.296  28.790  1.00  0.00     0.124 S 
ATOM     68  O   UNL A   1      32.452  35.885  29.861  1.00  0.00    -0.237 OA
ATOM     69  O   UNL A   1      33.967  36.248  27.944  1.00  0.00    -0.237 OA
ATOM     70  O   UNL A   1      32.625  34.186  28.081  1.00  0.00    -0.744 OA
ENDBRANCH  66  67
ENDBRANCH  47  61
BRANCH  48  71
ATOM     71  C   UNL A   1      44.117  28.603  35.888  1.00  0.00    -0.014 A 
ATOM     72  C   UNL A   1      43.891  27.599  36.843  1.00  0.00     0.010 A 
ATOM     73  C   UNL A   1      45.442  28.965  35.576  1.00  0.00     0.010 A 
ATOM     74  C   UNL A   1      44.967  26.975  37.482  1.00  0.00     0.020 A 
ATOM     75  C   UNL A   1      46.520  28.326  36.191  1.00  0.00     0.020 A 
ATOM     76  C   UNL A   1      46.276  27.340  37.149  1.00  0.00     0.054 A 
BRANCH  76  77
ATOM     77  S   UNL A   1      47.659  26.473  37.943  1.00  0.00     0.124 S 
ATOM     78  O   UNL A   1      47.117  25.128  38.108  1.00  0.00    -0.237 OA
ATOM     79  O   UNL A   1      48.725  26.610  36.954  1.00  0.00    -0.237 OA
ATOM     80  O   UNL A   1      47.865  27.223  39.179  1.00  0.00    -0.744 OA
ENDBRANCH  76  77
ENDBRANCH  48  71
BRANCH  60  81
ATOM     81  C   UNL A   1      40.235  34.213  37.371  1.00  0.00    -0.014 A 
ATOM     82  C   UNL A   1      41.065  35.348  37.403  1.00  0.00     0.010 A 
ATOM     83  C   UNL A   1      39.329  33.995  38.427  1.00  0.00     0.010 A 
ATOM     84  C   UNL A   1      41.010  36.231  38.485  1.00  0.00     0.020 A 
ATOM     85  C   UNL A   1      39.253  34.890  39.497  1.00  0.00     0.020 A 
ATOM     86  C   UNL A   1      40.105  35.996  39.526  1.00  0.00     0.054 A 
BRANCH  86  87
ATOM     87  S   UNL A   1      40.023  37.180  40.898  1.00  0.00     0.124 S 
ATOM     88  O   UNL A   1      40.168  36.308  42.061  1.00  0.00    -0.237 OA
ATOM     89  O   UNL A   1      41.155  38.063  40.629  1.00  0.00    -0.237 OA
ATOM     90  O   UNL A   1      38.708  37.799  40.743  1.00  0.00    -0.744 OA
ENDBRANCH  86  87
ENDBRANCH  60  81
ENDBRANCH  34  35
ENDBRANCH  27  29
ENDBRANCH  26  27
ENDBRANCH  25  26
ENDBRANCH   1  25
TORSDOF 19
ENDMDL
