MODEL 1
REMARK VINA RESULT:      -6.5      0.000      0.000
REMARK SMILES CCOc1cc(/C=C(\CC(=O)OCCOCCOC(=O)c2ccc(-c3c4nc(c(-c5ccc(S(=O)(=O)[O-])cc5)c5ccc([nH]5)c(-c5ccc(S(=O)(=O)[O-])cc5)c5nc(c(-c6ccc(S(=O)(=O)[O-])cc6)c6ccc3[nH]6)C=C5)C=C4)cc2)c2nc3ccccc3o2)cc(Br)c1OC
REMARK SMILES IDX 14 1 13 2 12 3 10 4 11 5 9 6 8 7 7 8 6 9 4 10 5 11 93 12
REMARK SMILES IDX 91 13 90 14 92 15 3 16 2 17 1 18 94 19 95 20 81 21 82 22
REMARK SMILES IDX 89 23 83 24 88 25 84 26 87 27 85 28 86 29 15 30 16 31 17 32
REMARK SMILES IDX 18 33 19 34 20 35 21 36 22 37 80 38 23 39 79 40 24 41 25 42
REMARK SMILES IDX 26 43 73 44 27 45 78 46 72 47 74 48 28 49 77 50 71 51 70 52
REMARK SMILES IDX 29 54 59 55 40 56 58 57 41 58 44 59 57 60 75 61 42 62 43 63
REMARK SMILES IDX 56 65 76 66 45 67 30 68 31 69 39 70 32 71 38 72 33 73 34 74
REMARK SMILES IDX 35 75 36 76 37 77 60 78 61 79 69 80 62 81 68 82 63 83 64 84
REMARK SMILES IDX 65 85 66 86 67 87 46 88 47 89 55 90 48 91 54 92 49 93 50 94
REMARK SMILES IDX 51 95 52 96 53 97
REMARK H PARENT 74 53 44 64
REMARK Flexibility Score: inf
ROOT
ATOM      1  C   UNL A   1      39.468  29.279  33.491  1.00  0.00     0.202 C 
ENDROOT
BRANCH   1   2
ATOM      2  C   UNL A   1      40.769  30.066  33.293  1.00  0.00     0.261 C 
BRANCH   2   3
ATOM      3  O   UNL A   1      41.907  29.576  34.028  1.00  0.00    -0.463 OA
BRANCH   3   4
ATOM      4  C   UNL A   1      42.799  28.832  33.311  1.00  0.00     0.310 C 
ATOM      5  O   UNL A   1      43.478  27.923  33.782  1.00  0.00    -0.252 OA
BRANCH   4   6
ATOM      6  C   UNL A   1      42.973  29.278  31.858  1.00  0.00     0.163 C 
BRANCH   6   7
ATOM      7  C   UNL A   1      44.297  29.931  31.489  1.00  0.00     0.026 C 
ATOM      8  C   UNL A   1      44.587  31.242  31.718  1.00  0.00     0.018 C 
BRANCH   8   9
ATOM      9  C   UNL A   1      43.739  32.272  32.404  1.00  0.00    -0.020 A 
ATOM     10  C   UNL A   1      41.745  33.678  32.500  1.00  0.00     0.162 A 
ATOM     11  C   UNL A   1      42.707  32.967  31.777  1.00  0.00     0.058 A 
ATOM     12  C   UNL A   1      41.883  33.912  33.870  1.00  0.00     0.174 A 
ATOM     13  C   UNL A   1      43.030  33.394  34.488  1.00  0.00     0.064 A 
ATOM     14  C   UNL A   1      43.931  32.568  33.760  1.00  0.00     0.028 A 
ATOM     15  Br  UNL A   1      43.462  33.628  36.325  1.00  0.00    -0.047 Br
BRANCH  10  16
ATOM     16  O   UNL A   1      40.687  34.193  31.788  1.00  0.00    -0.490 OA
BRANCH  16  17
ATOM     17  C   UNL A   1      40.700  33.775  30.415  1.00  0.00     0.226 C 
ATOM     18  C   UNL A   1      40.558  34.959  29.469  1.00  0.00     0.049 C 
ENDBRANCH  16  17
ENDBRANCH  10  16
BRANCH  12  19
ATOM     19  O   UNL A   1      40.795  34.509  34.446  1.00  0.00    -0.492 OA
ATOM     20  C   UNL A   1      39.843  33.714  35.132  1.00  0.00     0.278 C 
ENDBRANCH  12  19
ENDBRANCH   8   9
BRANCH   7  21
ATOM     21  C   UNL A   1      45.265  29.040  30.881  1.00  0.00     0.223 A 
ATOM     22  N   UNL A   1      46.526  29.432  30.713  1.00  0.00    -0.210 NA
ATOM     23  O   UNL A   1      45.084  27.718  30.484  1.00  0.00    -0.436 OA
ATOM     24  C   UNL A   1      47.223  28.320  30.364  1.00  0.00     0.110 A 
ATOM     25  C   UNL A   1      46.349  27.268  30.182  1.00  0.00     0.155 A 
ATOM     26  C   UNL A   1      48.606  28.119  30.281  1.00  0.00     0.032 A 
ATOM     27  C   UNL A   1      46.761  25.986  29.835  1.00  0.00     0.049 A 
ATOM     28  C   UNL A   1      49.061  26.828  30.005  1.00  0.00     0.003 A 
ATOM     29  C   UNL A   1      48.153  25.788  29.765  1.00  0.00     0.004 A 
ENDBRANCH   7  21
ENDBRANCH   6   7
ENDBRANCH   4   6
ENDBRANCH   3   4
ENDBRANCH   2   3
ENDBRANCH   1   2
BRANCH   1  30
ATOM     30  O   UNL A   1      38.328  29.932  34.029  1.00  0.00    -0.374 OA
BRANCH  30  31
ATOM     31  C   UNL A   1      37.543  30.765  33.192  1.00  0.00     0.202 C 
BRANCH  31  32
ATOM     32  C   UNL A   1      36.948  30.225  31.884  1.00  0.00     0.261 C 
BRANCH  32  33
ATOM     33  O   UNL A   1      37.670  30.470  30.696  1.00  0.00    -0.460 OA
BRANCH  33  34
ATOM     34  C   UNL A   1      37.347  29.658  29.680  1.00  0.00     0.338 C 
ATOM     35  O   UNL A   1      36.236  29.343  29.276  1.00  0.00    -0.246 OA
BRANCH  34  36
ATOM     36  C   UNL A   1      38.610  29.280  29.063  1.00  0.00     0.060 A 
ATOM     37  C   UNL A   1      39.565  28.677  29.877  1.00  0.00     0.016 A 
ATOM     38  C   UNL A   1      38.835  29.518  27.701  1.00  0.00     0.016 A 
ATOM     39  C   UNL A   1      40.806  28.385  29.340  1.00  0.00     0.010 A 
ATOM     40  C   UNL A   1      40.077  29.211  27.161  1.00  0.00     0.010 A 
ATOM     41  C   UNL A   1      41.077  28.696  27.998  1.00  0.00    -0.014 A 
BRANCH  41  42
ATOM     42  C   UNL A   1      42.475  28.616  27.545  1.00  0.00     0.031 A 
ATOM     43  C   UNL A   1      43.368  29.801  27.769  1.00  0.00     0.074 A 
ATOM     44  C   UNL A   1      42.938  27.454  27.058  1.00  0.00     0.049 A 
ATOM     45  N   UNL A   1      44.658  29.901  27.600  1.00  0.00    -0.248 NA
ATOM     46  C   UNL A   1      42.727  31.035  28.255  1.00  0.00     0.031 C 
ATOM     47  C   UNL A   1      42.129  26.253  26.836  1.00  0.00     0.029 A 
ATOM     48  N   UNL A   1      44.203  27.083  26.697  1.00  0.00    -0.354 N 
ATOM     49  C   UNL A   1      44.984  31.203  27.962  1.00  0.00     0.074 A 
ATOM     50  C   UNL A   1      43.753  31.870  28.318  1.00  0.00     0.031 C 
ATOM     51  C   UNL A   1      42.930  25.263  26.409  1.00  0.00     0.029 A 
ATOM     52  C   UNL A   1      44.294  25.771  26.302  1.00  0.00     0.049 A 
ATOM     53  H   UNL A   1      44.973  27.696  26.719  1.00  0.00     0.167 HD
ATOM     54  C   UNL A   1      46.206  31.780  28.006  1.00  0.00     0.031 A 
ATOM     55  C   UNL A   1      45.369  25.064  25.907  1.00  0.00     0.031 A 
ATOM     56  C   UNL A   1      47.413  31.093  27.630  1.00  0.00     0.049 A 
ATOM     57  C   UNL A   1      46.710  25.741  25.925  1.00  0.00     0.074 A 
ATOM     58  C   UNL A   1      48.711  31.566  27.632  1.00  0.00     0.029 A 
ATOM     59  N   UNL A   1      47.462  29.780  27.179  1.00  0.00    -0.354 N 
ATOM     60  N   UNL A   1      47.011  26.966  26.297  1.00  0.00    -0.248 NA
ATOM     61  C   UNL A   1      47.860  24.940  25.493  1.00  0.00     0.031 C 
ATOM     62  C   UNL A   1      49.539  30.558  27.124  1.00  0.00     0.029 A 
ATOM     63  C   UNL A   1      48.766  29.433  26.873  1.00  0.00     0.049 A 
ATOM     64  H   UNL A   1      46.684  29.184  27.089  1.00  0.00     0.167 HD
ATOM     65  C   UNL A   1      48.389  27.075  26.163  1.00  0.00     0.074 A 
ATOM     66  C   UNL A   1      48.862  25.783  25.700  1.00  0.00     0.031 C 
ATOM     67  C   UNL A   1      49.196  28.141  26.398  1.00  0.00     0.031 A 
BRANCH  54  68
ATOM     68  C   UNL A   1      46.284  33.223  28.432  1.00  0.00    -0.014 A 
ATOM     69  C   UNL A   1      46.563  33.582  29.763  1.00  0.00     0.010 A 
ATOM     70  C   UNL A   1      46.093  34.239  27.478  1.00  0.00     0.010 A 
ATOM     71  C   UNL A   1      46.616  34.929  30.139  1.00  0.00     0.020 A 
ATOM     72  C   UNL A   1      46.172  35.587  27.844  1.00  0.00     0.020 A 
ATOM     73  C   UNL A   1      46.419  35.922  29.176  1.00  0.00     0.054 A 
BRANCH  73  74
ATOM     74  S   UNL A   1      46.518  37.661  29.686  1.00  0.00     0.124 S 
ATOM     75  O   UNL A   1      45.407  38.256  28.948  1.00  0.00    -0.237 OA
ATOM     76  O   UNL A   1      46.339  37.581  31.133  1.00  0.00    -0.237 OA
ATOM     77  O   UNL A   1      47.849  38.076  29.247  1.00  0.00    -0.744 OA
ENDBRANCH  73  74
ENDBRANCH  54  68
BRANCH  55  78
ATOM     78  C   UNL A   1      45.205  23.651  25.470  1.00  0.00    -0.014 A 
ATOM     79  C   UNL A   1      45.705  22.589  26.241  1.00  0.00     0.010 A 
ATOM     80  C   UNL A   1      44.513  23.362  24.278  1.00  0.00     0.010 A 
ATOM     81  C   UNL A   1      45.532  21.266  25.821  1.00  0.00     0.020 A 
ATOM     82  C   UNL A   1      44.313  22.042  23.870  1.00  0.00     0.020 A 
ATOM     83  C   UNL A   1      44.835  21.001  24.638  1.00  0.00     0.054 A 
BRANCH  83  84
ATOM     84  S   UNL A   1      44.582  19.277  24.135  1.00  0.00     0.124 S 
ATOM     85  O   UNL A   1      45.737  18.614  24.734  1.00  0.00    -0.237 OA
ATOM     86  O   UNL A   1      43.288  18.961  24.734  1.00  0.00    -0.237 OA
ATOM     87  O   UNL A   1      44.585  19.343  22.675  1.00  0.00    -0.744 OA
ENDBRANCH  83  84
ENDBRANCH  55  78
BRANCH  67  88
ATOM     88  C   UNL A   1      50.670  27.936  26.181  1.00  0.00    -0.014 A 
ATOM     89  C   UNL A   1      51.512  27.525  27.228  1.00  0.00     0.010 A 
ATOM     90  C   UNL A   1      51.212  28.133  24.897  1.00  0.00     0.010 A 
ATOM     91  C   UNL A   1      52.882  27.370  27.009  1.00  0.00     0.020 A 
ATOM     92  C   UNL A   1      52.575  27.945  24.667  1.00  0.00     0.020 A 
ATOM     93  C   UNL A   1      53.406  27.586  25.730  1.00  0.00     0.054 A 
BRANCH  93  94
ATOM     94  S   UNL A   1      55.186  27.370  25.469  1.00  0.00     0.124 S 
ATOM     95  O   UNL A   1      55.643  26.989  26.802  1.00  0.00    -0.237 OA
ATOM     96  O   UNL A   1      55.235  26.313  24.461  1.00  0.00    -0.237 OA
ATOM     97  O   UNL A   1      55.631  28.683  25.009  1.00  0.00    -0.744 OA
ENDBRANCH  93  94
ENDBRANCH  67  88
ENDBRANCH  41  42
ENDBRANCH  34  36
ENDBRANCH  33  34
ENDBRANCH  32  33
ENDBRANCH  31  32
ENDBRANCH  30  31
ENDBRANCH   1  30
TORSDOF 23
ENDMDL
MODEL 2
REMARK VINA RESULT:      -5.9      4.968     12.420
REMARK SMILES CCOc1cc(/C=C(\CC(=O)OCCOCCOC(=O)c2ccc(-c3c4nc(c(-c5ccc(S(=O)(=O)[O-])cc5)c5ccc([nH]5)c(-c5ccc(S(=O)(=O)[O-])cc5)c5nc(c(-c6ccc(S(=O)(=O)[O-])cc6)c6ccc3[nH]6)C=C5)C=C4)cc2)c2nc3ccccc3o2)cc(Br)c1OC
REMARK SMILES IDX 14 1 13 2 12 3 10 4 11 5 9 6 8 7 7 8 6 9 4 10 5 11 93 12
REMARK SMILES IDX 91 13 90 14 92 15 3 16 2 17 1 18 94 19 95 20 81 21 82 22
REMARK SMILES IDX 89 23 83 24 88 25 84 26 87 27 85 28 86 29 15 30 16 31 17 32
REMARK SMILES IDX 18 33 19 34 20 35 21 36 22 37 80 38 23 39 79 40 24 41 25 42
REMARK SMILES IDX 26 43 73 44 27 45 78 46 72 47 74 48 28 49 77 50 71 51 70 52
REMARK SMILES IDX 29 54 59 55 40 56 58 57 41 58 44 59 57 60 75 61 42 62 43 63
REMARK SMILES IDX 56 65 76 66 45 67 30 68 31 69 39 70 32 71 38 72 33 73 34 74
REMARK SMILES IDX 35 75 36 76 37 77 60 78 61 79 69 80 62 81 68 82 63 83 64 84
REMARK SMILES IDX 65 85 66 86 67 87 46 88 47 89 55 90 48 91 54 92 49 93 50 94
REMARK SMILES IDX 51 95 52 96 53 97
REMARK H PARENT 74 53 44 64
REMARK Flexibility Score: inf
ROOT
ATOM      1  C   UNL A   1      45.017  24.599  25.950  1.00  0.00     0.202 C 
ENDROOT
BRANCH   1   2
ATOM      2  C   UNL A   1      45.147  25.550  27.145  1.00  0.00     0.261 C 
BRANCH   2   3
ATOM      3  O   UNL A   1      45.731  24.977  28.331  1.00  0.00    -0.463 OA
BRANCH   3   4
ATOM      4  C   UNL A   1      47.020  25.343  28.592  1.00  0.00     0.310 C 
ATOM      5  O   UNL A   1      47.908  25.397  27.746  1.00  0.00    -0.252 OA
BRANCH   4   6
ATOM      6  C   UNL A   1      47.320  25.598  30.070  1.00  0.00     0.163 C 
BRANCH   6   7
ATOM      7  C   UNL A   1      46.582  26.750  30.737  1.00  0.00     0.026 C 
ATOM      8  C   UNL A   1      46.134  26.721  32.023  1.00  0.00     0.018 C 
BRANCH   8   9
ATOM      9  C   UNL A   1      46.308  25.632  33.040  1.00  0.00    -0.020 A 
ATOM     10  C   UNL A   1      45.480  23.666  34.227  1.00  0.00     0.162 A 
ATOM     11  C   UNL A   1      45.260  24.857  33.532  1.00  0.00     0.058 A 
ATOM     12  C   UNL A   1      46.757  23.293  34.656  1.00  0.00     0.174 A 
ATOM     13  C   UNL A   1      47.808  24.169  34.349  1.00  0.00     0.064 A 
ATOM     14  C   UNL A   1      47.580  25.312  33.534  1.00  0.00     0.028 A 
ATOM     15  Br  UNL A   1      49.617  23.904  34.872  1.00  0.00    -0.047 Br
BRANCH  10  16
ATOM     16  O   UNL A   1      44.374  22.906  34.528  1.00  0.00    -0.490 OA
BRANCH  16  17
ATOM     17  C   UNL A   1      43.147  23.611  34.283  1.00  0.00     0.226 C 
ATOM     18  C   UNL A   1      42.469  24.022  35.582  1.00  0.00     0.049 C 
ENDBRANCH  16  17
ENDBRANCH  10  16
BRANCH  12  19
ATOM     19  O   UNL A   1      46.816  22.042  35.206  1.00  0.00    -0.492 OA
ATOM     20  C   UNL A   1      47.218  20.944  34.405  1.00  0.00     0.278 C 
ENDBRANCH  12  19
ENDBRANCH   8   9
BRANCH   7  21
ATOM     21  C   UNL A   1      46.400  27.920  29.902  1.00  0.00     0.223 A 
ATOM     22  N   UNL A   1      45.209  28.508  29.819  1.00  0.00    -0.210 NA
ATOM     23  O   UNL A   1      47.364  28.617  29.179  1.00  0.00    -0.436 OA
ATOM     24  C   UNL A   1      45.414  29.689  29.181  1.00  0.00     0.110 A 
ATOM     25  C   UNL A   1      46.723  29.756  28.748  1.00  0.00     0.155 A 
ATOM     26  C   UNL A   1      44.556  30.784  29.025  1.00  0.00     0.032 A 
ATOM     27  C   UNL A   1      47.248  30.853  28.073  1.00  0.00     0.049 A 
ATOM     28  C   UNL A   1      45.070  31.931  28.415  1.00  0.00     0.003 A 
ATOM     29  C   UNL A   1      46.384  31.954  27.930  1.00  0.00     0.004 A 
ENDBRANCH   7  21
ENDBRANCH   6   7
ENDBRANCH   4   6
ENDBRANCH   3   4
ENDBRANCH   2   3
ENDBRANCH   1   2
BRANCH   1  30
ATOM     30  O   UNL A   1      43.731  24.162  25.537  1.00  0.00    -0.374 OA
BRANCH  30  31
ATOM     31  C   UNL A   1      42.993  23.282  26.370  1.00  0.00     0.202 C 
BRANCH  31  32
ATOM     32  C   UNL A   1      41.815  23.798  27.206  1.00  0.00     0.261 C 
BRANCH  32  33
ATOM     33  O   UNL A   1      40.757  24.427  26.515  1.00  0.00    -0.460 OA
BRANCH  33  34
ATOM     34  C   UNL A   1      40.962  25.726  26.259  1.00  0.00     0.338 C 
ATOM     35  O   UNL A   1      41.062  26.286  25.176  1.00  0.00    -0.246 OA
BRANCH  34  36
ATOM     36  C   UNL A   1      40.953  26.388  27.556  1.00  0.00     0.060 A 
ATOM     37  C   UNL A   1      39.879  26.124  28.402  1.00  0.00     0.016 A 
ATOM     38  C   UNL A   1      41.995  27.248  27.922  1.00  0.00     0.016 A 
ATOM     39  C   UNL A   1      39.798  26.802  29.604  1.00  0.00     0.010 A 
ATOM     40  C   UNL A   1      41.919  27.918  29.136  1.00  0.00     0.010 A 
ATOM     41  C   UNL A   1      40.791  27.734  29.947  1.00  0.00    -0.014 A 
BRANCH  41  42
ATOM     42  C   UNL A   1      40.532  28.619  31.095  1.00  0.00     0.031 A 
ATOM     43  C   UNL A   1      41.426  28.512  32.295  1.00  0.00     0.074 A 
ATOM     44  C   UNL A   1      39.588  29.568  30.989  1.00  0.00     0.049 A 
ATOM     45  N   UNL A   1      41.488  29.284  33.345  1.00  0.00    -0.248 NA
ATOM     46  C   UNL A   1      42.383  27.391  32.315  1.00  0.00     0.031 C 
ATOM     47  C   UNL A   1      38.699  29.744  29.839  1.00  0.00     0.029 A 
ATOM     48  N   UNL A   1      39.247  30.580  31.840  1.00  0.00    -0.354 N 
ATOM     49  C   UNL A   1      42.489  28.750  34.146  1.00  0.00     0.074 A 
ATOM     50  C   UNL A   1      42.980  27.562  33.485  1.00  0.00     0.031 C 
ATOM     51  C   UNL A   1      37.933  30.828  30.044  1.00  0.00     0.029 A 
ATOM     52  C   UNL A   1      38.262  31.399  31.346  1.00  0.00     0.049 A 
ATOM     53  H   UNL A   1      39.666  30.710  32.722  1.00  0.00     0.167 HD
ATOM     54  C   UNL A   1      42.964  29.221  35.322  1.00  0.00     0.031 A 
ATOM     55  C   UNL A   1      37.699  32.494  31.890  1.00  0.00     0.031 A 
ATOM     56  C   UNL A   1      42.445  30.398  35.963  1.00  0.00     0.049 A 
ATOM     57  C   UNL A   1      38.217  32.973  33.217  1.00  0.00     0.074 A 
ATOM     58  C   UNL A   1      42.840  30.979  37.153  1.00  0.00     0.029 A 
ATOM     59  N   UNL A   1      41.406  31.173  35.462  1.00  0.00    -0.354 N 
ATOM     60  N   UNL A   1      39.186  32.475  33.953  1.00  0.00    -0.248 NA
ATOM     61  C   UNL A   1      37.585  34.172  33.778  1.00  0.00     0.031 C 
ATOM     62  C   UNL A   1      42.001  32.071  37.401  1.00  0.00     0.029 A 
ATOM     63  C   UNL A   1      41.129  32.213  36.332  1.00  0.00     0.049 A 
ATOM     64  H   UNL A   1      40.936  31.007  34.613  1.00  0.00     0.167 HD
ATOM     65  C   UNL A   1      39.292  33.313  35.056  1.00  0.00     0.074 A 
ATOM     66  C   UNL A   1      38.306  34.362  34.874  1.00  0.00     0.031 C 
ATOM     67  C   UNL A   1      40.126  33.229  36.124  1.00  0.00     0.031 A 
BRANCH  54  68
ATOM     68  C   UNL A   1      44.062  28.440  35.997  1.00  0.00    -0.014 A 
ATOM     69  C   UNL A   1      43.779  27.472  36.978  1.00  0.00     0.010 A 
ATOM     70  C   UNL A   1      45.400  28.663  35.627  1.00  0.00     0.010 A 
ATOM     71  C   UNL A   1      44.815  26.769  37.602  1.00  0.00     0.020 A 
ATOM     72  C   UNL A   1      46.438  27.943  36.228  1.00  0.00     0.020 A 
ATOM     73  C   UNL A   1      46.139  27.010  37.222  1.00  0.00     0.054 A 
BRANCH  73  74
ATOM     74  S   UNL A   1      47.461  26.066  38.029  1.00  0.00     0.124 S 
ATOM     75  O   UNL A   1      46.921  24.710  38.011  1.00  0.00    -0.237 OA
ATOM     76  O   UNL A   1      48.603  26.299  37.148  1.00  0.00    -0.237 OA
ATOM     77  O   UNL A   1      47.566  26.677  39.353  1.00  0.00    -0.744 OA
ENDBRANCH  73  74
ENDBRANCH  54  68
BRANCH  55  78
ATOM     78  C   UNL A   1      36.597  33.192  31.175  1.00  0.00    -0.014 A 
ATOM     79  C   UNL A   1      35.364  33.436  31.802  1.00  0.00     0.010 A 
ATOM     80  C   UNL A   1      36.793  33.645  29.856  1.00  0.00     0.010 A 
ATOM     81  C   UNL A   1      34.342  34.103  31.119  1.00  0.00     0.020 A 
ATOM     82  C   UNL A   1      35.785  34.337  29.181  1.00  0.00     0.020 A 
ATOM     83  C   UNL A   1      34.560  34.551  29.813  1.00  0.00     0.054 A 
BRANCH  83  84
ATOM     84  S   UNL A   1      33.238  35.455  28.962  1.00  0.00     0.124 S 
ATOM     85  O   UNL A   1      32.616  34.402  28.164  1.00  0.00    -0.237 OA
ATOM     86  O   UNL A   1      32.438  35.964  30.074  1.00  0.00    -0.237 OA
ATOM     87  O   UNL A   1      33.956  36.476  28.202  1.00  0.00    -0.744 OA
ENDBRANCH  83  84
ENDBRANCH  55  78
BRANCH  67  88
ATOM     88  C   UNL A   1      40.015  34.317  37.156  1.00  0.00    -0.014 A 
ATOM     89  C   UNL A   1      40.673  35.548  36.993  1.00  0.00     0.010 A 
ATOM     90  C   UNL A   1      39.217  34.109  38.296  1.00  0.00     0.010 A 
ATOM     91  C   UNL A   1      40.580  36.532  37.979  1.00  0.00     0.020 A 
ATOM     92  C   UNL A   1      39.093  35.104  39.267  1.00  0.00     0.020 A 
ATOM     93  C   UNL A   1      39.794  36.301  39.113  1.00  0.00     0.054 A 
BRANCH  93  94
ATOM     94  S   UNL A   1      39.682  37.597  40.374  1.00  0.00     0.124 S 
ATOM     95  O   UNL A   1      38.239  37.699  40.575  1.00  0.00    -0.237 OA
ATOM     96  O   UNL A   1      40.433  37.024  41.489  1.00  0.00    -0.237 OA
ATOM     97  O   UNL A   1      40.307  38.754  39.739  1.00  0.00    -0.744 OA
ENDBRANCH  93  94
ENDBRANCH  67  88
ENDBRANCH  41  42
ENDBRANCH  34  36
ENDBRANCH  33  34
ENDBRANCH  32  33
ENDBRANCH  31  32
ENDBRANCH  30  31
ENDBRANCH   1  30
TORSDOF 23
ENDMDL
MODEL 3
REMARK VINA RESULT:      -5.7      2.461      4.648
REMARK SMILES CCOc1cc(/C=C(\CC(=O)OCCOCCOC(=O)c2ccc(-c3c4nc(c(-c5ccc(S(=O)(=O)[O-])cc5)c5ccc([nH]5)c(-c5ccc(S(=O)(=O)[O-])cc5)c5nc(c(-c6ccc(S(=O)(=O)[O-])cc6)c6ccc3[nH]6)C=C5)C=C4)cc2)c2nc3ccccc3o2)cc(Br)c1OC
REMARK SMILES IDX 14 1 13 2 12 3 10 4 11 5 9 6 8 7 7 8 6 9 4 10 5 11 93 12
REMARK SMILES IDX 91 13 90 14 92 15 3 16 2 17 1 18 94 19 95 20 81 21 82 22
REMARK SMILES IDX 89 23 83 24 88 25 84 26 87 27 85 28 86 29 15 30 16 31 17 32
REMARK SMILES IDX 18 33 19 34 20 35 21 36 22 37 80 38 23 39 79 40 24 41 25 42
REMARK SMILES IDX 26 43 73 44 27 45 78 46 72 47 74 48 28 49 77 50 71 51 70 52
REMARK SMILES IDX 29 54 59 55 40 56 58 57 41 58 44 59 57 60 75 61 42 62 43 63
REMARK SMILES IDX 56 65 76 66 45 67 30 68 31 69 39 70 32 71 38 72 33 73 34 74
REMARK SMILES IDX 35 75 36 76 37 77 60 78 61 79 69 80 62 81 68 82 63 83 64 84
REMARK SMILES IDX 65 85 66 86 67 87 46 88 47 89 55 90 48 91 54 92 49 93 50 94
REMARK SMILES IDX 51 95 52 96 53 97
REMARK H PARENT 74 53 44 64
REMARK Flexibility Score: inf
ROOT
ATOM      1  C   UNL A   1      39.749  29.440  33.365  1.00  0.00     0.202 C 
ENDROOT
BRANCH   1   2
ATOM      2  C   UNL A   1      40.173  30.913  33.389  1.00  0.00     0.261 C 
BRANCH   2   3
ATOM      3  O   UNL A   1      41.455  31.197  32.796  1.00  0.00    -0.463 OA
BRANCH   3   4
ATOM      4  C   UNL A   1      41.499  32.284  31.973  1.00  0.00     0.310 C 
ATOM      5  O   UNL A   1      42.529  32.738  31.480  1.00  0.00    -0.252 OA
BRANCH   4   6
ATOM      6  C   UNL A   1      40.153  32.981  31.771  1.00  0.00     0.163 C 
BRANCH   6   7
ATOM      7  C   UNL A   1      39.767  34.049  32.784  1.00  0.00     0.026 C 
ATOM      8  C   UNL A   1      38.510  34.555  32.911  1.00  0.00     0.018 C 
BRANCH   8   9
ATOM      9  C   UNL A   1      37.271  34.156  32.165  1.00  0.00    -0.020 A 
ATOM     10  C   UNL A   1      34.841  34.105  31.931  1.00  0.00     0.162 A 
ATOM     11  C   UNL A   1      35.993  34.177  32.718  1.00  0.00     0.058 A 
ATOM     12  C   UNL A   1      34.902  33.793  30.570  1.00  0.00     0.174 A 
ATOM     13  C   UNL A   1      36.176  33.561  30.031  1.00  0.00     0.064 A 
ATOM     14  C   UNL A   1      37.341  33.762  30.821  1.00  0.00     0.028 A 
ATOM     15  Br  UNL A   1      36.506  33.070  28.224  1.00  0.00    -0.047 Br
BRANCH  10  16
ATOM     16  O   UNL A   1      33.637  34.292  32.569  1.00  0.00    -0.490 OA
BRANCH  16  17
ATOM     17  C   UNL A   1      33.364  35.680  32.818  1.00  0.00     0.226 C 
ATOM     18  C   UNL A   1      31.950  36.054  32.398  1.00  0.00     0.049 C 
ENDBRANCH  16  17
ENDBRANCH  10  16
BRANCH  12  19
ATOM     19  O   UNL A   1      33.702  33.890  29.922  1.00  0.00    -0.492 OA
ATOM     20  C   UNL A   1      33.588  34.728  28.784  1.00  0.00     0.278 C 
ENDBRANCH  12  19
ENDBRANCH   8   9
BRANCH   7  21
ATOM     21  C   UNL A   1      40.847  34.489  33.644  1.00  0.00     0.223 A 
ATOM     22  N   UNL A   1      41.627  35.504  33.278  1.00  0.00    -0.210 NA
ATOM     23  O   UNL A   1      41.173  34.030  34.917  1.00  0.00    -0.436 OA
ATOM     24  C   UNL A   1      42.359  35.832  34.373  1.00  0.00     0.110 A 
ATOM     25  C   UNL A   1      42.122  34.915  35.376  1.00  0.00     0.155 A 
ATOM     26  C   UNL A   1      43.167  36.950  34.608  1.00  0.00     0.032 A 
ATOM     27  C   UNL A   1      42.713  34.989  36.632  1.00  0.00     0.049 A 
ATOM     28  C   UNL A   1      43.722  37.097  35.882  1.00  0.00     0.003 A 
ATOM     29  C   UNL A   1      43.515  36.122  36.866  1.00  0.00     0.004 A 
ENDBRANCH   7  21
ENDBRANCH   6   7
ENDBRANCH   4   6
ENDBRANCH   3   4
ENDBRANCH   2   3
ENDBRANCH   1   2
BRANCH   1  30
ATOM     30  O   UNL A   1      38.394  29.095  33.610  1.00  0.00    -0.374 OA
BRANCH  30  31
ATOM     31  C   UNL A   1      37.362  29.932  33.113  1.00  0.00     0.202 C 
BRANCH  31  32
ATOM     32  C   UNL A   1      36.808  29.735  31.695  1.00  0.00     0.261 C 
BRANCH  32  33
ATOM     33  O   UNL A   1      37.599  30.199  30.621  1.00  0.00    -0.460 OA
BRANCH  33  34
ATOM     34  C   UNL A   1      37.328  29.613  29.447  1.00  0.00     0.338 C 
ATOM     35  O   UNL A   1      36.250  29.492  28.883  1.00  0.00    -0.246 OA
BRANCH  34  36
ATOM     36  C   UNL A   1      38.618  29.215  28.901  1.00  0.00     0.060 A 
ATOM     37  C   UNL A   1      39.584  28.769  29.799  1.00  0.00     0.016 A 
ATOM     38  C   UNL A   1      38.856  29.282  27.522  1.00  0.00     0.016 A 
ATOM     39  C   UNL A   1      40.845  28.466  29.321  1.00  0.00     0.010 A 
ATOM     40  C   UNL A   1      40.120  28.963  27.042  1.00  0.00     0.010 A 
ATOM     41  C   UNL A   1      41.126  28.610  27.953  1.00  0.00    -0.014 A 
BRANCH  41  42
ATOM     42  C   UNL A   1      42.535  28.534  27.531  1.00  0.00     0.031 A 
ATOM     43  C   UNL A   1      43.425  29.711  27.802  1.00  0.00     0.074 A 
ATOM     44  C   UNL A   1      43.006  27.381  27.030  1.00  0.00     0.049 A 
ATOM     45  N   UNL A   1      44.719  29.811  27.665  1.00  0.00    -0.248 NA
ATOM     46  C   UNL A   1      42.776  30.937  28.299  1.00  0.00     0.031 C 
ATOM     47  C   UNL A   1      42.199  26.188  26.764  1.00  0.00     0.029 A 
ATOM     48  N   UNL A   1      44.278  27.014  26.692  1.00  0.00    -0.354 N 
ATOM     49  C   UNL A   1      45.040  31.103  28.063  1.00  0.00     0.074 A 
ATOM     50  C   UNL A   1      43.803  31.767  28.405  1.00  0.00     0.031 C 
ATOM     51  C   UNL A   1      43.007  25.205  26.334  1.00  0.00     0.029 A 
ATOM     52  C   UNL A   1      44.374  25.711  26.270  1.00  0.00     0.049 A 
ATOM     53  H   UNL A   1      45.049  27.624  26.745  1.00  0.00     0.167 HD
ATOM     54  C   UNL A   1      46.263  31.675  28.148  1.00  0.00     0.031 A 
ATOM     55  C   UNL A   1      45.456  25.008  25.886  1.00  0.00     0.031 A 
ATOM     56  C   UNL A   1      47.476  30.992  27.786  1.00  0.00     0.049 A 
ATOM     57  C   UNL A   1      46.799  25.681  25.950  1.00  0.00     0.074 A 
ATOM     58  C   UNL A   1      48.776  31.460  27.829  1.00  0.00     0.029 A 
ATOM     59  N   UNL A   1      47.532  29.690  27.308  1.00  0.00    -0.354 N 
ATOM     60  N   UNL A   1      47.094  26.896  26.355  1.00  0.00    -0.248 NA
ATOM     61  C   UNL A   1      47.956  24.885  25.528  1.00  0.00     0.031 C 
ATOM     62  C   UNL A   1      49.612  30.461  27.319  1.00  0.00     0.029 A 
ATOM     63  C   UNL A   1      48.842  29.344  27.026  1.00  0.00     0.049 A 
ATOM     64  H   UNL A   1      46.755  29.098  27.187  1.00  0.00     0.167 HD
ATOM     65  C   UNL A   1      48.475  27.003  26.256  1.00  0.00     0.074 A 
ATOM     66  C   UNL A   1      48.955  25.720  25.777  1.00  0.00     0.031 C 
ATOM     67  C   UNL A   1      49.279  28.062  26.533  1.00  0.00     0.031 A 
BRANCH  54  68
ATOM     68  C   UNL A   1      46.335  33.108  28.607  1.00  0.00    -0.014 A 
ATOM     69  C   UNL A   1      46.268  34.177  27.694  1.00  0.00     0.010 A 
ATOM     70  C   UNL A   1      46.450  33.392  29.980  1.00  0.00     0.010 A 
ATOM     71  C   UNL A   1      46.351  35.499  28.142  1.00  0.00     0.020 A 
ATOM     72  C   UNL A   1      46.506  34.713  30.434  1.00  0.00     0.020 A 
ATOM     73  C   UNL A   1      46.470  35.759  29.510  1.00  0.00     0.054 A 
BRANCH  73  74
ATOM     74  S   UNL A   1      46.550  37.484  30.065  1.00  0.00     0.124 S 
ATOM     75  O   UNL A   1      47.963  37.799  29.873  1.00  0.00    -0.237 OA
ATOM     76  O   UNL A   1      45.627  38.157  29.156  1.00  0.00    -0.237 OA
ATOM     77  O   UNL A   1      46.112  37.421  31.459  1.00  0.00    -0.744 OA
ENDBRANCH  73  74
ENDBRANCH  54  68
BRANCH  55  78
ATOM     78  C   UNL A   1      45.298  23.607  25.414  1.00  0.00    -0.014 A 
ATOM     79  C   UNL A   1      45.200  23.307  24.045  1.00  0.00     0.010 A 
ATOM     80  C   UNL A   1      45.275  22.552  26.346  1.00  0.00     0.010 A 
ATOM     81  C   UNL A   1      45.063  21.982  23.618  1.00  0.00     0.020 A 
ATOM     82  C   UNL A   1      45.167  21.226  25.923  1.00  0.00     0.020 A 
ATOM     83  C   UNL A   1      45.049  20.949  24.560  1.00  0.00     0.054 A 
BRANCH  83  84
ATOM     84  S   UNL A   1      44.918  19.235  23.982  1.00  0.00     0.124 S 
ATOM     85  O   UNL A   1      44.104  18.624  25.030  1.00  0.00    -0.237 OA
ATOM     86  O   UNL A   1      44.269  19.389  22.683  1.00  0.00    -0.237 OA
ATOM     87  O   UNL A   1      46.307  18.785  23.927  1.00  0.00    -0.744 OA
ENDBRANCH  83  84
ENDBRANCH  55  78
BRANCH  67  88
ATOM     88  C   UNL A   1      50.757  27.856  26.346  1.00  0.00    -0.014 A 
ATOM     89  C   UNL A   1      51.555  27.318  27.370  1.00  0.00     0.010 A 
ATOM     90  C   UNL A   1      51.349  28.184  25.112  1.00  0.00     0.010 A 
ATOM     91  C   UNL A   1      52.930  27.165  27.184  1.00  0.00     0.020 A 
ATOM     92  C   UNL A   1      52.717  27.998  24.911  1.00  0.00     0.020 A 
ATOM     93  C   UNL A   1      53.504  27.511  25.956  1.00  0.00     0.054 A 
BRANCH  93  94
ATOM     94  S   UNL A   1      55.289  27.294  25.735  1.00  0.00     0.124 S 
ATOM     95  O   UNL A   1      55.442  25.852  25.909  1.00  0.00    -0.237 OA
ATOM     96  O   UNL A   1      55.506  27.790  24.378  1.00  0.00    -0.237 OA
ATOM     97  O   UNL A   1      55.871  28.115  26.794  1.00  0.00    -0.744 OA
ENDBRANCH  93  94
ENDBRANCH  67  88
ENDBRANCH  41  42
ENDBRANCH  34  36
ENDBRANCH  33  34
ENDBRANCH  32  33
ENDBRANCH  31  32
ENDBRANCH  30  31
ENDBRANCH   1  30
TORSDOF 23
ENDMDL
