MODEL 1
REMARK VINA RESULT:      -9.8      0.000      0.000
REMARK SMILES CCc1ccc(N2C(=O)C[C@@H](SC[C@@H](NC(C)=O)C(=O)OCCOCCOC(=O)c3ccc(-c4c5nc(c(-c6ccc(S(=O)(=O)[O-])cc6)c6ccc([nH]6)c(-c6ccc(S(=O)(=O)[O-])cc6)c6nc(c(-c7ccc(S(=O)(=O)[O-])cc7)c7ccc4[nH]7)C=C6)C=C5)cc3)C2=O)cc1
REMARK SMILES IDX 23 1 22 2 21 3 19 4 20 5 14 6 13 7 12 8 11 9 7 10 8 11 90 12
REMARK SMILES IDX 9 13 10 14 91 15 6 16 3 17 4 18 93 19 5 20 92 21 2 22 1 23
REMARK SMILES IDX 15 24 16 25 17 27 18 28 24 29 25 30 26 31 27 32 28 33 29 34
REMARK SMILES IDX 30 35 31 36 89 37 32 38 88 39 33 40 34 41 35 42 82 43 36 44
REMARK SMILES IDX 87 45 81 46 83 47 37 48 86 49 80 50 79 51 38 53 68 54 49 55
REMARK SMILES IDX 67 56 50 57 53 58 66 59 84 60 51 61 52 62 65 64 85 65 54 66
REMARK SMILES IDX 39 67 40 68 48 69 41 70 47 71 42 72 43 73 44 74 45 75 46 76
REMARK SMILES IDX 69 77 70 78 78 79 71 80 77 81 72 82 73 83 74 84 75 85 76 86
REMARK SMILES IDX 55 87 56 88 64 89 57 90 63 91 58 92 59 93 60 94 61 95 62 96
REMARK H PARENT 15 26 83 52 53 63
REMARK Flexibility Score: inf
ROOT
ATOM      1  C   UNL A   1      38.978  22.616  26.147  1.00  0.00     0.202 C 
ENDROOT
BRANCH   1   2
ATOM      2  C   UNL A   1      38.294  21.452  25.427  1.00  0.00     0.261 C 
BRANCH   2   3
ATOM      3  O   UNL A   1      36.873  21.607  25.320  1.00  0.00    -0.462 OA
BRANCH   3   4
ATOM      4  C   UNL A   1      36.183  20.461  25.072  1.00  0.00     0.329 C 
ATOM      5  O   UNL A   1      36.682  19.343  24.963  1.00  0.00    -0.250 OA
BRANCH   4   6
ATOM      6  C   UNL A   1      34.684  20.696  24.842  1.00  0.00     0.202 C 
BRANCH   6   7
ATOM      7  C   UNL A   1      34.300  21.937  24.025  1.00  0.00     0.107 C 
BRANCH   7   8
ATOM      8  S   UNL A   1      33.247  23.080  25.035  1.00  0.00    -0.145 SA
BRANCH   8   9
ATOM      9  C   UNL A   1      33.791  24.746  24.509  1.00  0.00     0.146 C 
ATOM     10  N   UNL A   1      32.305  26.530  24.204  1.00  0.00    -0.250 N 
ATOM     11  C   UNL A   1      32.959  26.785  25.389  1.00  0.00     0.235 C 
ATOM     12  C   UNL A   1      32.814  25.408  23.581  1.00  0.00     0.247 C 
ATOM     13  O   UNL A   1      32.806  27.694  26.195  1.00  0.00    -0.274 OA
ATOM     14  C   UNL A   1      34.005  25.738  25.621  1.00  0.00     0.125 C 
ATOM     15  O   UNL A   1      32.591  24.976  22.456  1.00  0.00    -0.273 OA
BRANCH  10  16
ATOM     16  C   UNL A   1      31.257  27.331  23.658  1.00  0.00     0.052 A 
ATOM     17  C   UNL A   1      29.195  29.000  22.639  1.00  0.00    -0.048 A 
ATOM     18  C   UNL A   1      30.536  29.335  22.457  1.00  0.00     0.006 A 
ATOM     19  C   UNL A   1      28.888  27.806  23.296  1.00  0.00     0.006 A 
ATOM     20  C   UNL A   1      31.548  28.513  22.957  1.00  0.00     0.027 A 
ATOM     21  C   UNL A   1      29.906  26.981  23.794  1.00  0.00     0.027 A 
BRANCH  17  22
ATOM     22  C   UNL A   1      28.107  29.909  22.130  1.00  0.00     0.032 C 
ATOM     23  C   UNL A   1      27.573  30.821  23.218  1.00  0.00     0.009 C 
ENDBRANCH  17  22
ENDBRANCH  10  16
ENDBRANCH   8   9
ENDBRANCH   7   8
ENDBRANCH   6   7
BRANCH   6  24
ATOM     24  N   UNL A   1      34.108  19.437  24.363  1.00  0.00    -0.342 N 
ATOM     25  C   UNL A   1      33.026  18.871  25.001  1.00  0.00     0.217 C 
ATOM     26  H   UNL A   1      34.498  18.991  23.577  1.00  0.00     0.164 HD
ATOM     27  C   UNL A   1      32.421  17.707  24.270  1.00  0.00     0.114 C 
ATOM     28  O   UNL A   1      32.570  19.316  26.046  1.00  0.00    -0.275 OA
ENDBRANCH   6  24
ENDBRANCH   4   6
ENDBRANCH   3   4
ENDBRANCH   2   3
ENDBRANCH   1   2
BRANCH   1  29
ATOM     29  O   UNL A   1      40.285  22.384  26.664  1.00  0.00    -0.374 OA
BRANCH  29  30
ATOM     30  C   UNL A   1      40.515  21.167  27.376  1.00  0.00     0.202 C 
BRANCH  30  31
ATOM     31  C   UNL A   1      41.758  20.348  27.003  1.00  0.00     0.261 C 
BRANCH  31  32
ATOM     32  O   UNL A   1      41.962  20.252  25.579  1.00  0.00    -0.460 OA
BRANCH  32  33
ATOM     33  C   UNL A   1      43.262  20.211  25.199  1.00  0.00     0.338 C 
ATOM     34  O   UNL A   1      43.842  19.272  24.664  1.00  0.00    -0.246 OA
BRANCH  33  35
ATOM     35  C   UNL A   1      43.903  21.526  25.354  1.00  0.00     0.060 A 
ATOM     36  C   UNL A   1      44.884  21.661  26.344  1.00  0.00     0.016 A 
ATOM     37  C   UNL A   1      43.445  22.644  24.653  1.00  0.00     0.016 A 
ATOM     38  C   UNL A   1      45.370  22.923  26.679  1.00  0.00     0.010 A 
ATOM     39  C   UNL A   1      43.929  23.912  24.997  1.00  0.00     0.010 A 
ATOM     40  C   UNL A   1      44.864  24.062  26.039  1.00  0.00    -0.014 A 
BRANCH  40  41
ATOM     41  C   UNL A   1      45.199  25.409  26.568  1.00  0.00     0.031 A 
ATOM     42  C   UNL A   1      46.564  25.986  26.290  1.00  0.00     0.074 A 
ATOM     43  C   UNL A   1      44.286  26.131  27.243  1.00  0.00     0.049 A 
ATOM     44  N   UNL A   1      47.077  27.123  26.685  1.00  0.00    -0.248 NA
ATOM     45  C   UNL A   1      47.465  25.180  25.450  1.00  0.00     0.031 C 
ATOM     46  C   UNL A   1      42.913  25.714  27.522  1.00  0.00     0.029 A 
ATOM     47  N   UNL A   1      44.387  27.370  27.830  1.00  0.00    -0.354 N 
ATOM     48  C   UNL A   1      48.355  27.172  26.139  1.00  0.00     0.074 A 
ATOM     49  C   UNL A   1      48.552  25.937  25.412  1.00  0.00     0.031 C 
ATOM     50  C   UNL A   1      42.304  26.672  28.246  1.00  0.00     0.029 A 
ATOM     51  C   UNL A   1      43.254  27.749  28.510  1.00  0.00     0.049 A 
ATOM     52  H   UNL A   1      45.193  27.931  27.768  1.00  0.00     0.167 HD
ATOM     53  C   UNL A   1      49.276  28.162  26.223  1.00  0.00     0.031 A 
ATOM     54  C   UNL A   1      43.021  28.827  29.285  1.00  0.00     0.031 A 
ATOM     55  C   UNL A   1      49.085  29.385  26.955  1.00  0.00     0.049 A 
ATOM     56  C   UNL A   1      44.100  29.865  29.451  1.00  0.00     0.074 A 
ATOM     57  C   UNL A   1      49.961  30.448  27.099  1.00  0.00     0.029 A 
ATOM     58  N   UNL A   1      47.942  29.710  27.666  1.00  0.00    -0.354 N 
ATOM     59  N   UNL A   1      45.301  29.896  28.924  1.00  0.00    -0.248 NA
ATOM     60  C   UNL A   1      43.786  31.020  30.304  1.00  0.00     0.031 C 
ATOM     61  C   UNL A   1      49.364  31.395  27.937  1.00  0.00     0.029 A 
ATOM     62  C   UNL A   1      48.096  30.946  28.270  1.00  0.00     0.049 A 
ATOM     63  H   UNL A   1      47.138  29.145  27.734  1.00  0.00     0.167 HD
ATOM     64  C   UNL A   1      45.872  31.090  29.355  1.00  0.00     0.074 A 
ATOM     65  C   UNL A   1      44.884  31.754  30.180  1.00  0.00     0.031 C 
ATOM     66  C   UNL A   1      47.101  31.595  29.085  1.00  0.00     0.031 A 
BRANCH  53  67
ATOM     67  C   UNL A   1      50.591  27.955  25.519  1.00  0.00    -0.014 A 
ATOM     68  C   UNL A   1      51.724  27.503  26.219  1.00  0.00     0.010 A 
ATOM     69  C   UNL A   1      50.680  28.155  24.129  1.00  0.00     0.010 A 
ATOM     70  C   UNL A   1      52.929  27.278  25.546  1.00  0.00     0.020 A 
ATOM     71  C   UNL A   1      51.877  27.911  23.449  1.00  0.00     0.020 A 
ATOM     72  C   UNL A   1      52.998  27.485  24.165  1.00  0.00     0.054 A 
BRANCH  72  73
ATOM     73  S   UNL A   1      54.563  27.148  23.311  1.00  0.00     0.124 S 
ATOM     74  O   UNL A   1      55.205  26.203  24.221  1.00  0.00    -0.237 OA
ATOM     75  O   UNL A   1      54.120  26.590  22.037  1.00  0.00    -0.237 OA
ATOM     76  O   UNL A   1      55.200  28.460  23.224  1.00  0.00    -0.744 OA
ENDBRANCH  72  73
ENDBRANCH  53  67
BRANCH  54  77
ATOM     77  C   UNL A   1      41.724  28.967  30.002  1.00  0.00    -0.014 A 
ATOM     78  C   UNL A   1      41.492  28.302  31.218  1.00  0.00     0.010 A 
ATOM     79  C   UNL A   1      40.697  29.752  29.447  1.00  0.00     0.010 A 
ATOM     80  C   UNL A   1      40.249  28.401  31.853  1.00  0.00     0.020 A 
ATOM     81  C   UNL A   1      39.464  29.877  30.091  1.00  0.00     0.020 A 
ATOM     82  C   UNL A   1      39.242  29.187  31.283  1.00  0.00     0.054 A 
BRANCH  82  83
ATOM     83  S   UNL A   1      37.644  29.325  32.132  1.00  0.00     0.124 S 
ATOM     84  O   UNL A   1      36.703  29.241  31.020  1.00  0.00    -0.237 OA
ATOM     85  O   UNL A   1      37.663  28.177  33.033  1.00  0.00    -0.237 OA
ATOM     86  O   UNL A   1      37.721  30.627  32.791  1.00  0.00    -0.744 OA
ENDBRANCH  82  83
ENDBRANCH  54  77
BRANCH  66  87
ATOM     87  C   UNL A   1      47.434  32.951  29.649  1.00  0.00    -0.014 A 
ATOM     88  C   UNL A   1      47.131  34.129  28.945  1.00  0.00     0.010 A 
ATOM     89  C   UNL A   1      48.009  33.045  30.929  1.00  0.00     0.010 A 
ATOM     90  C   UNL A   1      47.427  35.378  29.499  1.00  0.00     0.020 A 
ATOM     91  C   UNL A   1      48.283  34.292  31.498  1.00  0.00     0.020 A 
ATOM     92  C   UNL A   1      48.003  35.451  30.772  1.00  0.00     0.054 A 
BRANCH  92  93
ATOM     93  S   UNL A   1      48.339  37.083  31.488  1.00  0.00     0.124 S 
ATOM     94  O   UNL A   1      48.514  36.765  32.902  1.00  0.00    -0.237 OA
ATOM     95  O   UNL A   1      49.549  37.501  30.784  1.00  0.00    -0.237 OA
ATOM     96  O   UNL A   1      47.141  37.855  31.166  1.00  0.00    -0.744 OA
ENDBRANCH  92  93
ENDBRANCH  66  87
ENDBRANCH  40  41
ENDBRANCH  33  35
ENDBRANCH  32  33
ENDBRANCH  31  32
ENDBRANCH  30  31
ENDBRANCH  29  30
ENDBRANCH   1  29
TORSDOF 23
ENDMDL
MODEL 2
REMARK VINA RESULT:      -9.6      4.442      5.959
REMARK SMILES CCc1ccc(N2C(=O)C[C@@H](SC[C@@H](NC(C)=O)C(=O)OCCOCCOC(=O)c3ccc(-c4c5nc(c(-c6ccc(S(=O)(=O)[O-])cc6)c6ccc([nH]6)c(-c6ccc(S(=O)(=O)[O-])cc6)c6nc(c(-c7ccc(S(=O)(=O)[O-])cc7)c7ccc4[nH]7)C=C6)C=C5)cc3)C2=O)cc1
REMARK SMILES IDX 23 1 22 2 21 3 19 4 20 5 14 6 13 7 12 8 11 9 7 10 8 11 90 12
REMARK SMILES IDX 9 13 10 14 91 15 6 16 3 17 4 18 93 19 5 20 92 21 2 22 1 23
REMARK SMILES IDX 15 24 16 25 17 27 18 28 24 29 25 30 26 31 27 32 28 33 29 34
REMARK SMILES IDX 30 35 31 36 89 37 32 38 88 39 33 40 34 41 35 42 82 43 36 44
REMARK SMILES IDX 87 45 81 46 83 47 37 48 86 49 80 50 79 51 38 53 68 54 49 55
REMARK SMILES IDX 67 56 50 57 53 58 66 59 84 60 51 61 52 62 65 64 85 65 54 66
REMARK SMILES IDX 39 67 40 68 48 69 41 70 47 71 42 72 43 73 44 74 45 75 46 76
REMARK SMILES IDX 69 77 70 78 78 79 71 80 77 81 72 82 73 83 74 84 75 85 76 86
REMARK SMILES IDX 55 87 56 88 64 89 57 90 63 91 58 92 59 93 60 94 61 95 62 96
REMARK H PARENT 15 26 83 52 53 63
REMARK Flexibility Score: inf
ROOT
ATOM      1  C   UNL A   1      38.158  19.072  25.368  1.00  0.00     0.202 C 
ENDROOT
BRANCH   1   2
ATOM      2  C   UNL A   1      37.224  20.011  24.600  1.00  0.00     0.261 C 
BRANCH   2   3
ATOM      3  O   UNL A   1      36.308  20.719  25.445  1.00  0.00    -0.462 OA
BRANCH   3   4
ATOM      4  C   UNL A   1      35.353  21.434  24.793  1.00  0.00     0.329 C 
ATOM      5  O   UNL A   1      35.571  22.303  23.952  1.00  0.00    -0.250 OA
BRANCH   4   6
ATOM      6  C   UNL A   1      33.930  21.121  25.273  1.00  0.00     0.202 C 
BRANCH   6   7
ATOM      7  C   UNL A   1      33.148  22.280  25.907  1.00  0.00     0.107 C 
BRANCH   7   8
ATOM      8  S   UNL A   1      31.342  22.134  25.520  1.00  0.00    -0.145 SA
BRANCH   8   9
ATOM      9  C   UNL A   1      31.012  23.578  24.445  1.00  0.00     0.146 C 
ATOM     10  N   UNL A   1      31.923  25.697  24.850  1.00  0.00    -0.250 N 
ATOM     11  C   UNL A   1      32.635  25.179  23.790  1.00  0.00     0.235 C 
ATOM     12  C   UNL A   1      30.889  24.859  25.218  1.00  0.00     0.247 C 
ATOM     13  O   UNL A   1      33.591  25.641  23.180  1.00  0.00    -0.274 OA
ATOM     14  C   UNL A   1      32.056  23.855  23.396  1.00  0.00     0.125 C 
ATOM     15  O   UNL A   1      29.969  25.060  26.001  1.00  0.00    -0.273 OA
BRANCH  10  16
ATOM     16  C   UNL A   1      32.185  26.952  25.477  1.00  0.00     0.052 A 
ATOM     17  C   UNL A   1      32.754  29.482  26.639  1.00  0.00    -0.048 A 
ATOM     18  C   UNL A   1      31.835  29.369  25.596  1.00  0.00     0.006 A 
ATOM     19  C   UNL A   1      33.357  28.321  27.128  1.00  0.00     0.006 A 
ATOM     20  C   UNL A   1      31.556  28.124  25.027  1.00  0.00     0.027 A 
ATOM     21  C   UNL A   1      33.071  27.073  26.557  1.00  0.00     0.027 A 
BRANCH  17  22
ATOM     22  C   UNL A   1      33.079  30.832  27.224  1.00  0.00     0.032 C 
ATOM     23  C   UNL A   1      34.569  31.013  27.442  1.00  0.00     0.009 C 
ENDBRANCH  17  22
ENDBRANCH  10  16
ENDBRANCH   8   9
ENDBRANCH   7   8
ENDBRANCH   6   7
BRANCH   6  24
ATOM     24  N   UNL A   1      33.237  20.430  24.183  1.00  0.00    -0.342 N 
ATOM     25  C   UNL A   1      33.219  19.054  24.122  1.00  0.00     0.217 C 
ATOM     26  H   UNL A   1      32.780  20.955  23.487  1.00  0.00     0.164 HD
ATOM     27  C   UNL A   1      32.295  18.498  23.076  1.00  0.00     0.114 C 
ATOM     28  O   UNL A   1      33.862  18.352  24.890  1.00  0.00    -0.275 OA
ENDBRANCH   6  24
ENDBRANCH   4   6
ENDBRANCH   3   4
ENDBRANCH   2   3
ENDBRANCH   1   2
BRANCH   1  29
ATOM     29  O   UNL A   1      39.542  19.407  25.392  1.00  0.00    -0.374 OA
BRANCH  29  30
ATOM     30  C   UNL A   1      39.968  20.417  26.308  1.00  0.00     0.202 C 
BRANCH  30  31
ATOM     31  C   UNL A   1      41.276  21.157  25.994  1.00  0.00     0.261 C 
BRANCH  31  32
ATOM     32  O   UNL A   1      41.186  22.578  26.217  1.00  0.00    -0.460 OA
BRANCH  32  33
ATOM     33  C   UNL A   1      39.921  23.062  26.260  1.00  0.00     0.338 C 
ATOM     34  O   UNL A   1      38.894  22.464  25.958  1.00  0.00    -0.246 OA
BRANCH  33  35
ATOM     35  C   UNL A   1      39.881  24.392  26.890  1.00  0.00     0.060 A 
ATOM     36  C   UNL A   1      40.576  25.432  26.259  1.00  0.00     0.016 A 
ATOM     37  C   UNL A   1      39.310  24.582  28.150  1.00  0.00     0.016 A 
ATOM     38  C   UNL A   1      40.752  26.651  26.912  1.00  0.00     0.010 A 
ATOM     39  C   UNL A   1      39.495  25.805  28.807  1.00  0.00     0.010 A 
ATOM     40  C   UNL A   1      40.252  26.831  28.208  1.00  0.00    -0.014 A 
BRANCH  40  41
ATOM     41  C   UNL A   1      40.653  28.029  28.988  1.00  0.00     0.031 A 
ATOM     42  C   UNL A   1      42.006  28.051  29.653  1.00  0.00     0.074 A 
ATOM     43  C   UNL A   1      39.847  29.104  29.064  1.00  0.00     0.049 A 
ATOM     44  N   UNL A   1      42.542  28.976  30.408  1.00  0.00    -0.248 NA
ATOM     45  C   UNL A   1      42.872  26.881  29.429  1.00  0.00     0.031 C 
ATOM     46  C   UNL A   1      38.544  29.234  28.415  1.00  0.00     0.029 A 
ATOM     47  N   UNL A   1      40.007  30.291  29.737  1.00  0.00    -0.354 N 
ATOM     48  C   UNL A   1      43.806  28.504  30.744  1.00  0.00     0.074 A 
ATOM     49  C   UNL A   1      43.946  27.198  30.139  1.00  0.00     0.031 C 
ATOM     50  C   UNL A   1      38.011  30.426  28.739  1.00  0.00     0.029 A 
ATOM     51  C   UNL A   1      38.919  31.126  29.644  1.00  0.00     0.049 A 
ATOM     52  H   UNL A   1      40.823  30.522  30.236  1.00  0.00     0.167 HD
ATOM     53  C   UNL A   1      44.770  29.110  31.480  1.00  0.00     0.031 A 
ATOM     54  C   UNL A   1      38.669  32.305  30.248  1.00  0.00     0.031 A 
ATOM     55  C   UNL A   1      44.627  30.405  32.091  1.00  0.00     0.049 A 
ATOM     56  C   UNL A   1      39.714  32.910  31.148  1.00  0.00     0.074 A 
ATOM     57  C   UNL A   1      45.547  31.101  32.856  1.00  0.00     0.029 A 
ATOM     58  N   UNL A   1      43.493  31.196  32.011  1.00  0.00    -0.354 N 
ATOM     59  N   UNL A   1      40.905  32.452  31.451  1.00  0.00    -0.248 NA
ATOM     60  C   UNL A   1      39.386  34.199  31.774  1.00  0.00     0.031 C 
ATOM     61  C   UNL A   1      44.951  32.295  33.276  1.00  0.00     0.029 A 
ATOM     62  C   UNL A   1      43.680  32.364  32.728  1.00  0.00     0.049 A 
ATOM     63  H   UNL A   1      42.674  30.962  31.516  1.00  0.00     0.167 HD
ATOM     64  C   UNL A   1      41.481  33.414  32.276  1.00  0.00     0.074 A 
ATOM     65  C   UNL A   1      40.511  34.480  32.418  1.00  0.00     0.031 C 
ATOM     66  C   UNL A   1      42.706  33.418  32.857  1.00  0.00     0.031 A 
BRANCH  53  67
ATOM     67  C   UNL A   1      46.064  28.369  31.683  1.00  0.00    -0.014 A 
ATOM     68  C   UNL A   1      46.311  27.654  32.869  1.00  0.00     0.010 A 
ATOM     69  C   UNL A   1      47.020  28.334  30.651  1.00  0.00     0.010 A 
ATOM     70  C   UNL A   1      47.501  26.939  33.029  1.00  0.00     0.020 A 
ATOM     71  C   UNL A   1      48.202  27.602  30.800  1.00  0.00     0.020 A 
ATOM     72  C   UNL A   1      48.440  26.918  31.994  1.00  0.00     0.054 A 
BRANCH  72  73
ATOM     73  S   UNL A   1      49.959  25.950  32.213  1.00  0.00     0.124 S 
ATOM     74  O   UNL A   1      49.816  25.474  33.587  1.00  0.00    -0.237 OA
ATOM     75  O   UNL A   1      49.839  24.926  31.179  1.00  0.00    -0.237 OA
ATOM     76  O   UNL A   1      51.026  26.924  32.000  1.00  0.00    -0.744 OA
ENDBRANCH  72  73
ENDBRANCH  53  67
BRANCH  54  77
ATOM     77  C   UNL A   1      37.355  32.979  30.058  1.00  0.00    -0.014 A 
ATOM     78  C   UNL A   1      36.269  32.706  30.906  1.00  0.00     0.010 A 
ATOM     79  C   UNL A   1      37.179  33.886  28.996  1.00  0.00     0.010 A 
ATOM     80  C   UNL A   1      35.026  33.308  30.682  1.00  0.00     0.020 A 
ATOM     81  C   UNL A   1      35.948  34.511  28.784  1.00  0.00     0.020 A 
ATOM     82  C   UNL A   1      34.874  34.205  29.620  1.00  0.00     0.054 A 
BRANCH  82  83
ATOM     83  S   UNL A   1      33.262  34.997  29.358  1.00  0.00     0.124 S 
ATOM     84  O   UNL A   1      32.684  34.955  30.697  1.00  0.00    -0.237 OA
ATOM     85  O   UNL A   1      33.636  36.323  28.871  1.00  0.00    -0.237 OA
ATOM     86  O   UNL A   1      32.618  34.137  28.369  1.00  0.00    -0.744 OA
ENDBRANCH  82  83
ENDBRANCH  54  77
BRANCH  66  87
ATOM     87  C   UNL A   1      43.088  34.630  33.665  1.00  0.00    -0.014 A 
ATOM     88  C   UNL A   1      42.778  34.723  35.033  1.00  0.00     0.010 A 
ATOM     89  C   UNL A   1      43.816  35.667  33.054  1.00  0.00     0.010 A 
ATOM     90  C   UNL A   1      43.163  35.847  35.769  1.00  0.00     0.020 A 
ATOM     91  C   UNL A   1      44.225  36.781  33.792  1.00  0.00     0.020 A 
ATOM     92  C   UNL A   1      43.883  36.870  35.142  1.00  0.00     0.054 A 
BRANCH  92  93
ATOM     93  S   UNL A   1      44.409  38.300  36.127  1.00  0.00     0.124 S 
ATOM     94  O   UNL A   1      43.917  39.418  35.328  1.00  0.00    -0.237 OA
ATOM     95  O   UNL A   1      43.721  38.085  37.398  1.00  0.00    -0.237 OA
ATOM     96  O   UNL A   1      45.863  38.165  36.183  1.00  0.00    -0.744 OA
ENDBRANCH  92  93
ENDBRANCH  66  87
ENDBRANCH  40  41
ENDBRANCH  33  35
ENDBRANCH  32  33
ENDBRANCH  31  32
ENDBRANCH  30  31
ENDBRANCH  29  30
ENDBRANCH   1  29
TORSDOF 23
ENDMDL
MODEL 3
REMARK VINA RESULT:      -9.5      6.171      8.815
REMARK SMILES CCc1ccc(N2C(=O)C[C@@H](SC[C@@H](NC(C)=O)C(=O)OCCOCCOC(=O)c3ccc(-c4c5nc(c(-c6ccc(S(=O)(=O)[O-])cc6)c6ccc([nH]6)c(-c6ccc(S(=O)(=O)[O-])cc6)c6nc(c(-c7ccc(S(=O)(=O)[O-])cc7)c7ccc4[nH]7)C=C6)C=C5)cc3)C2=O)cc1
REMARK SMILES IDX 23 1 22 2 21 3 19 4 20 5 14 6 13 7 12 8 11 9 7 10 8 11 90 12
REMARK SMILES IDX 9 13 10 14 91 15 6 16 3 17 4 18 93 19 5 20 92 21 2 22 1 23
REMARK SMILES IDX 15 24 16 25 17 27 18 28 24 29 25 30 26 31 27 32 28 33 29 34
REMARK SMILES IDX 30 35 31 36 89 37 32 38 88 39 33 40 34 41 35 42 82 43 36 44
REMARK SMILES IDX 87 45 81 46 83 47 37 48 86 49 80 50 79 51 38 53 68 54 49 55
REMARK SMILES IDX 67 56 50 57 53 58 66 59 84 60 51 61 52 62 65 64 85 65 54 66
REMARK SMILES IDX 39 67 40 68 48 69 41 70 47 71 42 72 43 73 44 74 45 75 46 76
REMARK SMILES IDX 69 77 70 78 78 79 71 80 77 81 72 82 73 83 74 84 75 85 76 86
REMARK SMILES IDX 55 87 56 88 64 89 57 90 63 91 58 92 59 93 60 94 61 95 62 96
REMARK H PARENT 15 26 83 52 53 63
REMARK Flexibility Score: inf
ROOT
ATOM      1  C   UNL A   1      38.194  24.313  26.853  1.00  0.00     0.202 C 
ENDROOT
BRANCH   1   2
ATOM      2  C   UNL A   1      38.045  23.405  25.630  1.00  0.00     0.261 C 
BRANCH   2   3
ATOM      3  O   UNL A   1      36.788  23.560  24.957  1.00  0.00    -0.462 OA
BRANCH   3   4
ATOM      4  C   UNL A   1      36.412  22.507  24.183  1.00  0.00     0.329 C 
ATOM      5  O   UNL A   1      37.148  21.588  23.833  1.00  0.00    -0.250 OA
BRANCH   4   6
ATOM      6  C   UNL A   1      34.962  22.607  23.690  1.00  0.00     0.202 C 
BRANCH   6   7
ATOM      7  C   UNL A   1      33.896  21.903  24.541  1.00  0.00     0.107 C 
BRANCH   7   8
ATOM      8  S   UNL A   1      34.527  21.608  26.258  1.00  0.00    -0.145 SA
BRANCH   8   9
ATOM      9  C   UNL A   1      33.677  22.886  27.255  1.00  0.00     0.146 C 
ATOM     10  N   UNL A   1      31.990  24.260  26.388  1.00  0.00    -0.250 N 
ATOM     11  C   UNL A   1      31.349  23.336  27.184  1.00  0.00     0.235 C 
ATOM     12  C   UNL A   1      33.362  24.123  26.464  1.00  0.00     0.247 C 
ATOM     13  O   UNL A   1      30.154  23.167  27.392  1.00  0.00    -0.274 OA
ATOM     14  C   UNL A   1      32.364  22.467  27.861  1.00  0.00     0.125 C 
ATOM     15  O   UNL A   1      34.241  24.855  26.026  1.00  0.00    -0.273 OA
BRANCH  10  16
ATOM     16  C   UNL A   1      31.338  25.260  25.606  1.00  0.00     0.052 A 
ATOM     17  C   UNL A   1      30.104  27.230  23.971  1.00  0.00    -0.048 A 
ATOM     18  C   UNL A   1      29.980  25.874  23.668  1.00  0.00     0.006 A 
ATOM     19  C   UNL A   1      30.811  27.596  25.119  1.00  0.00     0.006 A 
ATOM     20  C   UNL A   1      30.587  24.907  24.473  1.00  0.00     0.027 A 
ATOM     21  C   UNL A   1      31.415  26.622  25.927  1.00  0.00     0.027 A 
BRANCH  17  22
ATOM     22  C   UNL A   1      29.479  28.270  23.079  1.00  0.00     0.032 C 
ATOM     23  C   UNL A   1      30.010  29.661  23.370  1.00  0.00     0.009 C 
ENDBRANCH  17  22
ENDBRANCH  10  16
ENDBRANCH   8   9
ENDBRANCH   7   8
ENDBRANCH   6   7
BRANCH   6  24
ATOM     24  N   UNL A   1      34.691  24.017  23.398  1.00  0.00    -0.342 N 
ATOM     25  C   UNL A   1      33.808  24.372  22.402  1.00  0.00     0.217 C 
ATOM     26  H   UNL A   1      35.144  24.717  23.920  1.00  0.00     0.164 HD
ATOM     27  C   UNL A   1      33.475  25.836  22.369  1.00  0.00     0.114 C 
ATOM     28  O   UNL A   1      33.304  23.552  21.646  1.00  0.00    -0.275 OA
ENDBRANCH   6  24
ENDBRANCH   4   6
ENDBRANCH   3   4
ENDBRANCH   2   3
ENDBRANCH   1   2
BRANCH   1  29
ATOM     29  O   UNL A   1      39.264  24.028  27.749  1.00  0.00    -0.374 OA
BRANCH  29  30
ATOM     30  C   UNL A   1      40.533  23.689  27.186  1.00  0.00     0.202 C 
BRANCH  30  31
ATOM     31  C   UNL A   1      41.408  24.836  26.664  1.00  0.00     0.261 C 
BRANCH  31  32
ATOM     32  O   UNL A   1      40.640  25.922  26.108  1.00  0.00    -0.460 OA
BRANCH  32  33
ATOM     33  C   UNL A   1      41.272  27.121  26.118  1.00  0.00     0.338 C 
ATOM     34  O   UNL A   1      42.018  27.566  25.253  1.00  0.00    -0.246 OA
BRANCH  33  35
ATOM     35  C   UNL A   1      40.827  27.947  27.252  1.00  0.00     0.060 A 
ATOM     36  C   UNL A   1      41.436  29.196  27.427  1.00  0.00     0.016 A 
ATOM     37  C   UNL A   1      39.948  27.446  28.215  1.00  0.00     0.016 A 
ATOM     38  C   UNL A   1      41.213  29.926  28.593  1.00  0.00     0.010 A 
ATOM     39  C   UNL A   1      39.732  28.177  29.390  1.00  0.00     0.010 A 
ATOM     40  C   UNL A   1      40.394  29.400  29.603  1.00  0.00    -0.014 A 
BRANCH  40  41
ATOM     41  C   UNL A   1      40.360  30.059  30.933  1.00  0.00     0.031 A 
ATOM     42  C   UNL A   1      41.444  29.747  31.934  1.00  0.00     0.074 A 
ATOM     43  C   UNL A   1      39.406  30.960  31.232  1.00  0.00     0.049 A 
ATOM     44  N   UNL A   1      41.586  30.179  33.160  1.00  0.00    -0.248 NA
ATOM     45  C   UNL A   1      42.512  28.836  31.489  1.00  0.00     0.031 C 
ATOM     46  C   UNL A   1      38.340  31.396  30.331  1.00  0.00     0.029 A 
ATOM     47  N   UNL A   1      39.175  31.662  32.390  1.00  0.00    -0.354 N 
ATOM     48  C   UNL A   1      42.759  29.599  33.633  1.00  0.00     0.074 A 
ATOM     49  C   UNL A   1      43.272  28.759  32.573  1.00  0.00     0.031 C 
ATOM     50  C   UNL A   1      37.555  32.277  30.978  1.00  0.00     0.029 A 
ATOM     51  C   UNL A   1      38.041  32.438  32.345  1.00  0.00     0.049 A 
ATOM     52  H   UNL A   1      39.766  31.615  33.175  1.00  0.00     0.167 HD
ATOM     53  C   UNL A   1      43.362  29.762  34.835  1.00  0.00     0.031 A 
ATOM     54  C   UNL A   1      37.445  33.168  33.309  1.00  0.00     0.031 A 
ATOM     55  C   UNL A   1      42.846  30.589  35.893  1.00  0.00     0.049 A 
ATOM     56  C   UNL A   1      38.077  33.249  34.673  1.00  0.00     0.074 A 
ATOM     57  C   UNL A   1      43.385  30.816  37.148  1.00  0.00     0.029 A 
ATOM     58  N   UNL A   1      41.672  31.321  35.823  1.00  0.00    -0.354 N 
ATOM     59  N   UNL A   1      39.188  32.697  35.100  1.00  0.00    -0.248 NA
ATOM     60  C   UNL A   1      37.383  34.064  35.680  1.00  0.00     0.031 C 
ATOM     61  C   UNL A   1      42.512  31.651  37.854  1.00  0.00     0.029 A 
ATOM     62  C   UNL A   1      41.457  31.984  37.019  1.00  0.00     0.049 A 
ATOM     63  H   UNL A   1      41.077  31.363  35.040  1.00  0.00     0.167 HD
ATOM     64  C   UNL A   1      39.342  33.127  36.415  1.00  0.00     0.074 A 
ATOM     65  C   UNL A   1      38.216  33.988  36.710  1.00  0.00     0.031 C 
ATOM     66  C   UNL A   1      40.333  32.841  37.296  1.00  0.00     0.031 A 
BRANCH  53  67
ATOM     67  C   UNL A   1      44.644  29.013  35.081  1.00  0.00    -0.014 A 
ATOM     68  C   UNL A   1      44.631  27.709  35.611  1.00  0.00     0.010 A 
ATOM     69  C   UNL A   1      45.874  29.593  34.722  1.00  0.00     0.010 A 
ATOM     70  C   UNL A   1      45.827  27.010  35.799  1.00  0.00     0.020 A 
ATOM     71  C   UNL A   1      47.071  28.889  34.889  1.00  0.00     0.020 A 
ATOM     72  C   UNL A   1      47.040  27.606  35.438  1.00  0.00     0.054 A 
BRANCH  72  73
ATOM     73  S   UNL A   1      48.573  26.661  35.656  1.00  0.00     0.124 S 
ATOM     74  O   UNL A   1      49.315  27.504  36.591  1.00  0.00    -0.237 OA
ATOM     75  O   UNL A   1      48.095  25.393  36.200  1.00  0.00    -0.237 OA
ATOM     76  O   UNL A   1      49.130  26.586  34.308  1.00  0.00    -0.744 OA
ENDBRANCH  72  73
ENDBRANCH  53  67
BRANCH  54  77
ATOM     77  C   UNL A   1      36.151  33.853  33.036  1.00  0.00    -0.014 A 
ATOM     78  C   UNL A   1      36.112  35.200  32.638  1.00  0.00     0.010 A 
ATOM     79  C   UNL A   1      34.940  33.156  33.203  1.00  0.00     0.010 A 
ATOM     80  C   UNL A   1      34.886  35.844  32.438  1.00  0.00     0.020 A 
ATOM     81  C   UNL A   1      33.714  33.786  32.977  1.00  0.00     0.020 A 
ATOM     82  C   UNL A   1      33.695  35.132  32.610  1.00  0.00     0.054 A 
BRANCH  82  83
ATOM     83  S   UNL A   1      32.114  35.975  32.321  1.00  0.00     0.124 S 
ATOM     84  O   UNL A   1      31.150  34.940  32.680  1.00  0.00    -0.237 OA
ATOM     85  O   UNL A   1      32.190  37.113  33.233  1.00  0.00    -0.237 OA
ATOM     86  O   UNL A   1      32.166  36.318  30.902  1.00  0.00    -0.744 OA
ENDBRANCH  82  83
ENDBRANCH  54  77
BRANCH  66  87
ATOM     87  C   UNL A   1      40.269  33.498  38.649  1.00  0.00    -0.014 A 
ATOM     88  C   UNL A   1      40.028  34.877  38.781  1.00  0.00     0.010 A 
ATOM     89  C   UNL A   1      40.398  32.710  39.807  1.00  0.00     0.010 A 
ATOM     90  C   UNL A   1      39.949  35.461  40.048  1.00  0.00     0.020 A 
ATOM     91  C   UNL A   1      40.294  33.286  41.076  1.00  0.00     0.020 A 
ATOM     92  C   UNL A   1      40.084  34.661  41.189  1.00  0.00     0.054 A 
BRANCH  92  93
ATOM     93  S   UNL A   1      39.936  35.435  42.823  1.00  0.00     0.124 S 
ATOM     94  O   UNL A   1      39.543  36.798  42.480  1.00  0.00    -0.237 OA
ATOM     95  O   UNL A   1      38.904  34.627  43.468  1.00  0.00    -0.237 OA
ATOM     96  O   UNL A   1      41.274  35.296  43.393  1.00  0.00    -0.744 OA
ENDBRANCH  92  93
ENDBRANCH  66  87
ENDBRANCH  40  41
ENDBRANCH  33  35
ENDBRANCH  32  33
ENDBRANCH  31  32
ENDBRANCH  30  31
ENDBRANCH  29  30
ENDBRANCH   1  29
TORSDOF 23
ENDMDL
