MODEL 1
REMARK VINA RESULT:     -11.5      0.000      0.000
REMARK SMILES NC(=O)c1c(-c2ccc(Cl)cc2)csc1NC(=O)[C@H]1[C@@H](C(=O)OCCOCCOC(=O)c2ccc(-c3c4nc(c(-c5ccc(S(=O)(=O)[O-])cc5)c5ccc([nH]5)c(-c5ccc(S(=O)(=O)[O-])cc5)c5nc(c(-c6ccc(S(=O)(=O)[O-])cc6)c6ccc3[nH]6)C=C5)C=C4)cc2)[C@@H]2CC[C@H]1O2
REMARK SMILES IDX 26 1 25 2 24 3 23 4 21 5 22 6 20 7 19 8 95 9 92 10 94 11
REMARK SMILES IDX 96 12 93 13 17 14 16 15 18 17 15 18 4 19 5 20 13 21 14 22
REMARK SMILES IDX 2 23 1 24 3 27 6 28 7 29 12 30 8 31 11 32 9 33 10 34 27 35
REMARK SMILES IDX 28 36 29 37 30 38 31 39 32 40 33 41 91 42 34 43 90 44 35 45
REMARK SMILES IDX 36 46 37 47 84 48 38 49 89 50 83 51 85 52 39 53 88 54 82 55
REMARK SMILES IDX 81 56 40 58 70 59 51 60 69 61 52 62 55 63 68 64 86 65 53 66
REMARK SMILES IDX 54 67 67 69 87 70 56 71 41 72 42 73 50 74 43 75 49 76 44 77
REMARK SMILES IDX 45 78 46 79 47 80 48 81 71 82 72 83 80 84 73 85 79 86 74 87
REMARK SMILES IDX 75 88 76 89 77 90 78 91 57 92 58 93 66 94 59 95 65 96 60 97
REMARK SMILES IDX 61 98 62 99 63 100 64 101
REMARK H PARENT 16 16 1 25 1 26 85 57 55 68
REMARK Flexibility Score: inf
ROOT
ATOM      1  O   UNL A   1      33.366  31.732  27.512  1.00  0.00    -0.374 OA
ENDROOT
BRANCH   1   2
ATOM      2  C   UNL A   1      33.670  30.487  26.878  1.00  0.00     0.202 C 
BRANCH   2   3
ATOM      3  C   UNL A   1      32.864  29.303  27.411  1.00  0.00     0.261 C 
BRANCH   3   4
ATOM      4  O   UNL A   1      31.686  29.106  26.606  1.00  0.00    -0.463 OA
BRANCH   4   5
ATOM      5  C   UNL A   1      31.270  27.834  26.458  1.00  0.00     0.312 C 
ATOM      6  O   UNL A   1      31.143  27.035  27.383  1.00  0.00    -0.252 OA
BRANCH   5   7
ATOM      7  C   UNL A   1      30.972  27.419  25.033  1.00  0.00     0.143 C 
ATOM      8  C   UNL A   1      31.998  26.839  24.035  1.00  0.00     0.124 C 
ATOM      9  C   UNL A   1      31.911  27.874  22.889  1.00  0.00     0.132 C 
ATOM     10  C   UNL A   1      30.486  28.683  24.302  1.00  0.00     0.133 C 
ATOM     11  C   UNL A   1      30.586  27.724  22.134  1.00  0.00     0.035 C 
ATOM     12  O   UNL A   1      31.674  29.107  23.601  1.00  0.00    -0.373 OA
ATOM     13  C   UNL A   1      29.583  28.304  23.130  1.00  0.00     0.036 C 
BRANCH   8  14
ATOM     14  C   UNL A   1      33.450  26.626  24.432  1.00  0.00     0.231 C 
ATOM     15  N   UNL A   1      33.960  25.430  24.832  1.00  0.00    -0.317 N 
ATOM     16  H   UNL A   1      34.932  25.468  24.985  1.00  0.00     0.170 HD
ATOM     17  O   UNL A   1      34.261  27.555  24.342  1.00  0.00    -0.274 OA
BRANCH  15  18
ATOM     18  C   UNL A   1      33.436  24.173  25.075  1.00  0.00     0.108 A 
ATOM     19  C   UNL A   1      33.411  23.125  24.157  1.00  0.00     0.082 A 
ATOM     20  C   UNL A   1      33.089  21.885  24.821  1.00  0.00     0.007 A 
ATOM     21  C   UNL A   1      32.657  22.099  26.115  1.00  0.00     0.076 A 
ATOM     22  S   UNL A   1      32.722  23.739  26.544  1.00  0.00    -0.125 S 
BRANCH  19  23
ATOM     23  C   UNL A   1      33.783  23.327  22.760  1.00  0.00     0.252 C 
ATOM     24  N   UNL A   1      32.778  23.260  21.846  1.00  0.00    -0.365 N 
ATOM     25  H   UNL A   1      32.974  23.388  20.889  1.00  0.00     0.159 HD
ATOM     26  H   UNL A   1      31.856  23.083  22.139  1.00  0.00     0.159 HD
ATOM     27  O   UNL A   1      34.926  23.617  22.425  1.00  0.00    -0.269 OA
ENDBRANCH  19  23
BRANCH  20  28
ATOM     28  C   UNL A   1      33.360  20.520  24.392  1.00  0.00    -0.017 A 
ATOM     29  C   UNL A   1      32.395  19.760  23.723  1.00  0.00     0.010 A 
ATOM     30  C   UNL A   1      34.560  19.919  24.801  1.00  0.00     0.010 A 
ATOM     31  C   UNL A   1      32.605  18.392  23.522  1.00  0.00     0.021 A 
ATOM     32  C   UNL A   1      34.763  18.555  24.601  1.00  0.00     0.021 A 
ATOM     33  C   UNL A   1      33.773  17.791  23.990  1.00  0.00     0.041 A 
ATOM     34  Cl  UNL A   1      33.984  16.090  23.902  1.00  0.00    -0.084 Cl
ENDBRANCH  20  28
ENDBRANCH  15  18
ENDBRANCH   8  14
ENDBRANCH   5   7
ENDBRANCH   4   5
ENDBRANCH   3   4
ENDBRANCH   2   3
ENDBRANCH   1   2
BRANCH   1  35
ATOM     35  C   UNL A   1      34.355  32.212  28.429  1.00  0.00     0.202 C 
BRANCH  35  36
ATOM     36  C   UNL A   1      34.908  31.154  29.392  1.00  0.00     0.261 C 
BRANCH  36  37
ATOM     37  O   UNL A   1      36.045  31.646  30.125  1.00  0.00    -0.460 OA
BRANCH  37  38
ATOM     38  C   UNL A   1      36.592  30.779  31.012  1.00  0.00     0.338 C 
ATOM     39  O   UNL A   1      36.031  30.207  31.924  1.00  0.00    -0.246 OA
BRANCH  38  40
ATOM     40  C   UNL A   1      37.983  30.470  30.601  1.00  0.00     0.060 A 
ATOM     41  C   UNL A   1      38.230  30.304  29.233  1.00  0.00     0.016 A 
ATOM     42  C   UNL A   1      39.020  30.324  31.524  1.00  0.00     0.016 A 
ATOM     43  C   UNL A   1      39.507  29.960  28.783  1.00  0.00     0.010 A 
ATOM     44  C   UNL A   1      40.298  29.971  31.070  1.00  0.00     0.010 A 
ATOM     45  C   UNL A   1      40.549  29.768  29.700  1.00  0.00    -0.014 A 
BRANCH  45  46
ATOM     46  C   UNL A   1      41.862  29.242  29.242  1.00  0.00     0.031 A 
ATOM     47  C   UNL A   1      43.031  30.187  29.143  1.00  0.00     0.074 A 
ATOM     48  C   UNL A   1      42.030  27.943  28.924  1.00  0.00     0.049 A 
ATOM     49  N   UNL A   1      44.256  29.946  28.748  1.00  0.00    -0.248 NA
ATOM     50  C   UNL A   1      42.793  31.582  29.549  1.00  0.00     0.031 C 
ATOM     51  C   UNL A   1      41.002  26.905  29.004  1.00  0.00     0.029 A 
ATOM     52  N   UNL A   1      43.133  27.278  28.442  1.00  0.00    -0.354 N 
ATOM     53  C   UNL A   1      44.936  31.152  28.870  1.00  0.00     0.074 A 
ATOM     54  C   UNL A   1      43.978  32.135  29.329  1.00  0.00     0.031 C 
ATOM     55  C   UNL A   1      41.508  25.751  28.533  1.00  0.00     0.029 A 
ATOM     56  C   UNL A   1      42.891  25.963  28.125  1.00  0.00     0.049 A 
ATOM     57  H   UNL A   1      44.014  27.705  28.334  1.00  0.00     0.167 HD
ATOM     58  C   UNL A   1      46.245  31.416  28.647  1.00  0.00     0.031 A 
ATOM     59  C   UNL A   1      43.685  25.037  27.552  1.00  0.00     0.031 A 
ATOM     60  C   UNL A   1      47.206  30.449  28.190  1.00  0.00     0.049 A 
ATOM     61  C   UNL A   1      45.114  25.381  27.224  1.00  0.00     0.074 A 
ATOM     62  C   UNL A   1      48.565  30.618  27.990  1.00  0.00     0.029 A 
ATOM     63  N   UNL A   1      46.912  29.140  27.852  1.00  0.00    -0.354 N 
ATOM     64  N   UNL A   1      45.750  26.512  27.401  1.00  0.00    -0.248 NA
ATOM     65  C   UNL A   1      45.936  24.311  26.637  1.00  0.00     0.031 C 
ATOM     66  C   UNL A   1      49.083  29.424  27.479  1.00  0.00     0.029 A 
ATOM     67  C   UNL A   1      48.057  28.498  27.411  1.00  0.00     0.049 A 
ATOM     68  H   UNL A   1      46.021  28.725  27.916  1.00  0.00     0.167 HD
ATOM     69  C   UNL A   1      47.055  26.280  26.979  1.00  0.00     0.074 A 
ATOM     70  C   UNL A   1      47.118  24.902  26.541  1.00  0.00     0.031 C 
ATOM     71  C   UNL A   1      48.109  27.130  26.967  1.00  0.00     0.031 A 
BRANCH  58  72
ATOM     72  C   UNL A   1      46.722  32.821  28.892  1.00  0.00    -0.014 A 
ATOM     73  C   UNL A   1      46.678  33.785  27.870  1.00  0.00     0.010 A 
ATOM     74  C   UNL A   1      47.153  33.198  30.176  1.00  0.00     0.010 A 
ATOM     75  C   UNL A   1      47.079  35.099  28.122  1.00  0.00     0.020 A 
ATOM     76  C   UNL A   1      47.533  34.517  30.438  1.00  0.00     0.020 A 
ATOM     77  C   UNL A   1      47.503  35.457  29.405  1.00  0.00     0.054 A 
BRANCH  77  78
ATOM     78  S   UNL A   1      47.969  37.181  29.717  1.00  0.00     0.124 S 
ATOM     79  O   UNL A   1      47.590  37.347  31.118  1.00  0.00    -0.237 OA
ATOM     80  O   UNL A   1      49.406  37.179  29.451  1.00  0.00    -0.237 OA
ATOM     81  O   UNL A   1      47.164  37.937  28.761  1.00  0.00    -0.744 OA
ENDBRANCH  77  78
ENDBRANCH  58  72
BRANCH  59  82
ATOM     82  C   UNL A   1      43.158  23.695  27.183  1.00  0.00    -0.014 A 
ATOM     83  C   UNL A   1      42.718  22.793  28.167  1.00  0.00     0.010 A 
ATOM     84  C   UNL A   1      43.214  23.278  25.841  1.00  0.00     0.010 A 
ATOM     85  C   UNL A   1      42.400  21.473  27.824  1.00  0.00     0.020 A 
ATOM     86  C   UNL A   1      42.884  21.966  25.495  1.00  0.00     0.020 A 
ATOM     87  C   UNL A   1      42.506  21.064  26.492  1.00  0.00     0.054 A 
BRANCH  87  88
ATOM     88  S   UNL A   1      42.134  19.349  26.022  1.00  0.00     0.124 S 
ATOM     89  O   UNL A   1      42.550  18.617  27.214  1.00  0.00    -0.237 OA
ATOM     90  O   UNL A   1      40.697  19.368  25.766  1.00  0.00    -0.237 OA
ATOM     91  O   UNL A   1      42.974  19.152  24.841  1.00  0.00    -0.744 OA
ENDBRANCH  87  88
ENDBRANCH  59  82
BRANCH  71  92
ATOM     92  C   UNL A   1      49.429  26.588  26.493  1.00  0.00    -0.014 A 
ATOM     93  C   UNL A   1      49.848  26.752  25.162  1.00  0.00     0.010 A 
ATOM     94  C   UNL A   1      50.279  25.936  27.405  1.00  0.00     0.010 A 
ATOM     95  C   UNL A   1      51.081  26.246  24.742  1.00  0.00     0.020 A 
ATOM     96  C   UNL A   1      51.523  25.451  26.997  1.00  0.00     0.020 A 
ATOM     97  C   UNL A   1      51.910  25.596  25.663  1.00  0.00     0.054 A 
BRANCH  97  98
ATOM     98  S   UNL A   1      53.523  24.981  25.106  1.00  0.00     0.124 S 
ATOM     99  O   UNL A   1      53.609  25.531  23.756  1.00  0.00    -0.237 OA
ATOM    100  O   UNL A   1      54.443  25.563  26.081  1.00  0.00    -0.237 OA
ATOM    101  O   UNL A   1      53.384  23.529  25.180  1.00  0.00    -0.744 OA
ENDBRANCH  97  98
ENDBRANCH  71  92
ENDBRANCH  45  46
ENDBRANCH  38  40
ENDBRANCH  37  38
ENDBRANCH  36  37
ENDBRANCH  35  36
ENDBRANCH   1  35
TORSDOF 21
ENDMDL
MODEL 2
REMARK VINA RESULT:     -11.3      2.779      9.340
REMARK SMILES NC(=O)c1c(-c2ccc(Cl)cc2)csc1NC(=O)[C@H]1[C@@H](C(=O)OCCOCCOC(=O)c2ccc(-c3c4nc(c(-c5ccc(S(=O)(=O)[O-])cc5)c5ccc([nH]5)c(-c5ccc(S(=O)(=O)[O-])cc5)c5nc(c(-c6ccc(S(=O)(=O)[O-])cc6)c6ccc3[nH]6)C=C5)C=C4)cc2)[C@@H]2CC[C@H]1O2
REMARK SMILES IDX 26 1 25 2 24 3 23 4 21 5 22 6 20 7 19 8 95 9 92 10 94 11
REMARK SMILES IDX 96 12 93 13 17 14 16 15 18 17 15 18 4 19 5 20 13 21 14 22
REMARK SMILES IDX 2 23 1 24 3 27 6 28 7 29 12 30 8 31 11 32 9 33 10 34 27 35
REMARK SMILES IDX 28 36 29 37 30 38 31 39 32 40 33 41 91 42 34 43 90 44 35 45
REMARK SMILES IDX 36 46 37 47 84 48 38 49 89 50 83 51 85 52 39 53 88 54 82 55
REMARK SMILES IDX 81 56 40 58 70 59 51 60 69 61 52 62 55 63 68 64 86 65 53 66
REMARK SMILES IDX 54 67 67 69 87 70 56 71 41 72 42 73 50 74 43 75 49 76 44 77
REMARK SMILES IDX 45 78 46 79 47 80 48 81 71 82 72 83 80 84 73 85 79 86 74 87
REMARK SMILES IDX 75 88 76 89 77 90 78 91 57 92 58 93 66 94 59 95 65 96 60 97
REMARK SMILES IDX 61 98 62 99 63 100 64 101
REMARK H PARENT 16 16 1 25 1 26 85 57 55 68
REMARK Flexibility Score: inf
ROOT
ATOM      1  O   UNL A   1      39.233  22.070  26.213  1.00  0.00    -0.374 OA
ENDROOT
BRANCH   1   2
ATOM      2  C   UNL A   1      38.301  23.139  26.393  1.00  0.00     0.202 C 
BRANCH   2   3
ATOM      3  C   UNL A   1      37.206  23.197  25.328  1.00  0.00     0.261 C 
BRANCH   3   4
ATOM      4  O   UNL A   1      36.126  24.038  25.777  1.00  0.00    -0.463 OA
BRANCH   4   5
ATOM      5  C   UNL A   1      35.010  23.406  26.191  1.00  0.00     0.312 C 
ATOM      6  O   UNL A   1      34.848  22.960  27.324  1.00  0.00    -0.252 OA
BRANCH   5   7
ATOM      7  C   UNL A   1      33.933  23.255  25.139  1.00  0.00     0.143 C 
ATOM      8  C   UNL A   1      32.465  23.712  25.287  1.00  0.00     0.124 C 
ATOM      9  C   UNL A   1      31.717  22.375  25.075  1.00  0.00     0.132 C 
ATOM     10  C   UNL A   1      33.779  21.745  24.884  1.00  0.00     0.133 C 
ATOM     11  C   UNL A   1      31.790  21.948  23.606  1.00  0.00     0.035 C 
ATOM     12  O   UNL A   1      32.617  21.418  25.675  1.00  0.00    -0.373 OA
ATOM     13  C   UNL A   1      33.244  21.496  23.475  1.00  0.00     0.036 C 
BRANCH   8  14
ATOM     14  C   UNL A   1      31.973  24.386  26.557  1.00  0.00     0.231 C 
ATOM     15  N   UNL A   1      31.676  25.710  26.649  1.00  0.00    -0.317 N 
ATOM     16  H   UNL A   1      31.310  25.954  27.529  1.00  0.00     0.170 HD
ATOM     17  O   UNL A   1      31.761  23.714  27.574  1.00  0.00    -0.274 OA
BRANCH  15  18
ATOM     18  C   UNL A   1      31.766  26.795  25.796  1.00  0.00     0.108 A 
ATOM     19  C   UNL A   1      30.841  27.112  24.803  1.00  0.00     0.082 A 
ATOM     20  C   UNL A   1      31.066  28.452  24.318  1.00  0.00     0.007 A 
ATOM     21  C   UNL A   1      32.263  28.965  24.778  1.00  0.00     0.076 A 
ATOM     22  S   UNL A   1      33.048  27.895  25.834  1.00  0.00    -0.125 S 
BRANCH  19  23
ATOM     23  C   UNL A   1      29.762  26.197  24.447  1.00  0.00     0.252 C 
ATOM     24  N   UNL A   1      30.032  25.282  23.477  1.00  0.00    -0.365 N 
ATOM     25  H   UNL A   1      29.339  24.641  23.198  1.00  0.00     0.159 HD
ATOM     26  H   UNL A   1      30.920  25.263  23.052  1.00  0.00     0.159 HD
ATOM     27  O   UNL A   1      28.688  26.193  25.039  1.00  0.00    -0.269 OA
ENDBRANCH  19  23
BRANCH  20  28
ATOM     28  C   UNL A   1      30.141  29.346  23.634  1.00  0.00    -0.017 A 
ATOM     29  C   UNL A   1      29.685  29.072  22.340  1.00  0.00     0.010 A 
ATOM     30  C   UNL A   1      29.833  30.575  24.236  1.00  0.00     0.010 A 
ATOM     31  C   UNL A   1      28.979  30.049  21.631  1.00  0.00     0.021 A 
ATOM     32  C   UNL A   1      29.133  31.547  23.524  1.00  0.00     0.021 A 
ATOM     33  C   UNL A   1      28.734  31.291  22.215  1.00  0.00     0.041 A 
ATOM     34  Cl  UNL A   1      28.015  32.562  21.313  1.00  0.00    -0.084 Cl
ENDBRANCH  20  28
ENDBRANCH  15  18
ENDBRANCH   8  14
ENDBRANCH   5   7
ENDBRANCH   4   5
ENDBRANCH   3   4
ENDBRANCH   2   3
ENDBRANCH   1   2
BRANCH   1  35
ATOM     35  C   UNL A   1      38.700  20.886  25.610  1.00  0.00     0.202 C 
BRANCH  35  36
ATOM     36  C   UNL A   1      39.439  19.591  25.969  1.00  0.00     0.261 C 
BRANCH  36  37
ATOM     37  O   UNL A   1      40.759  19.558  25.399  1.00  0.00    -0.460 OA
BRANCH  37  38
ATOM     38  C   UNL A   1      41.781  19.488  26.287  1.00  0.00     0.338 C 
ATOM     39  O   UNL A   1      42.264  18.487  26.775  1.00  0.00    -0.246 OA
BRANCH  38  40
ATOM     40  C   UNL A   1      42.375  20.836  26.458  1.00  0.00     0.060 A 
ATOM     41  C   UNL A   1      42.538  21.307  27.766  1.00  0.00     0.016 A 
ATOM     42  C   UNL A   1      42.747  21.632  25.374  1.00  0.00     0.016 A 
ATOM     43  C   UNL A   1      43.043  22.590  27.996  1.00  0.00     0.010 A 
ATOM     44  C   UNL A   1      43.245  22.921  25.607  1.00  0.00     0.010 A 
ATOM     45  C   UNL A   1      43.380  23.418  26.917  1.00  0.00    -0.014 A 
BRANCH  45  46
ATOM     46  C   UNL A   1      43.759  24.837  27.152  1.00  0.00     0.031 A 
ATOM     47  C   UNL A   1      45.200  25.244  26.983  1.00  0.00     0.074 A 
ATOM     48  C   UNL A   1      42.844  25.763  27.502  1.00  0.00     0.049 A 
ATOM     49  N   UNL A   1      45.751  26.419  27.157  1.00  0.00    -0.248 NA
ATOM     50  C   UNL A   1      46.140  24.195  26.554  1.00  0.00     0.031 C 
ATOM     51  C   UNL A   1      41.411  25.526  27.669  1.00  0.00     0.029 A 
ATOM     52  N   UNL A   1      42.995  27.095  27.806  1.00  0.00    -0.354 N 
ATOM     53  C   UNL A   1      47.096  26.254  26.848  1.00  0.00     0.074 A 
ATOM     54  C   UNL A   1      47.288  24.857  26.522  1.00  0.00     0.031 C 
ATOM     55  C   UNL A   1      40.826  26.658  28.099  1.00  0.00     0.029 A 
ATOM     56  C   UNL A   1      41.837  27.700  28.232  1.00  0.00     0.049 A 
ATOM     57  H   UNL A   1      43.853  27.571  27.727  1.00  0.00     0.167 HD
ATOM     58  C   UNL A   1      48.080  27.183  26.811  1.00  0.00     0.031 A 
ATOM     59  C   UNL A   1      41.616  28.946  28.698  1.00  0.00     0.031 A 
ATOM     60  C   UNL A   1      47.901  28.573  27.133  1.00  0.00     0.049 A 
ATOM     61  C   UNL A   1      42.748  29.938  28.737  1.00  0.00     0.074 A 
ATOM     62  C   UNL A   1      48.833  29.596  27.069  1.00  0.00     0.029 A 
ATOM     63  N   UNL A   1      46.722  29.135  27.589  1.00  0.00    -0.354 N 
ATOM     64  N   UNL A   1      43.999  29.774  28.386  1.00  0.00    -0.248 NA
ATOM     65  C   UNL A   1      42.427  31.291  29.218  1.00  0.00     0.031 C 
ATOM     66  C   UNL A   1      48.229  30.766  27.538  1.00  0.00     0.029 A 
ATOM     67  C   UNL A   1      46.909  30.483  27.844  1.00  0.00     0.049 A 
ATOM     68  H   UNL A   1      45.874  28.649  27.713  1.00  0.00     0.167 HD
ATOM     69  C   UNL A   1      44.606  31.012  28.571  1.00  0.00     0.074 A 
ATOM     70  C   UNL A   1      43.587  31.914  29.062  1.00  0.00     0.031 C 
ATOM     71  C   UNL A   1      45.892  31.370  28.343  1.00  0.00     0.031 A 
BRANCH  58  72
ATOM     72  C   UNL A   1      49.454  26.725  26.407  1.00  0.00    -0.014 A 
ATOM     73  C   UNL A   1      50.324  26.144  27.347  1.00  0.00     0.010 A 
ATOM     74  C   UNL A   1      49.851  26.812  25.062  1.00  0.00     0.010 A 
ATOM     75  C   UNL A   1      51.580  25.678  26.951  1.00  0.00     0.020 A 
ATOM     76  C   UNL A   1      51.099  26.326  24.658  1.00  0.00     0.020 A 
ATOM     77  C   UNL A   1      51.959  25.772  25.608  1.00  0.00     0.054 A 
BRANCH  77  78
ATOM     78  S   UNL A   1      53.574  25.113  25.113  1.00  0.00     0.124 S 
ATOM     79  O   UNL A   1      53.700  25.619  23.750  1.00  0.00    -0.237 OA
ATOM     80  O   UNL A   1      54.479  25.711  26.092  1.00  0.00    -0.237 OA
ATOM     81  O   UNL A   1      53.408  23.666  25.227  1.00  0.00    -0.744 OA
ENDBRANCH  77  78
ENDBRANCH  58  72
BRANCH  59  82
ATOM     82  C   UNL A   1      40.283  29.342  29.229  1.00  0.00    -0.014 A 
ATOM     83  C   UNL A   1      39.289  29.856  28.380  1.00  0.00     0.010 A 
ATOM     84  C   UNL A   1      40.059  29.316  30.617  1.00  0.00     0.010 A 
ATOM     85  C   UNL A   1      38.112  30.395  28.915  1.00  0.00     0.020 A 
ATOM     86  C   UNL A   1      38.882  29.841  31.152  1.00  0.00     0.020 A 
ATOM     87  C   UNL A   1      37.927  30.403  30.300  1.00  0.00     0.054 A 
BRANCH  87  88
ATOM     88  S   UNL A   1      36.428  31.126  31.026  1.00  0.00     0.124 S 
ATOM     89  O   UNL A   1      36.027  30.092  31.975  1.00  0.00    -0.237 OA
ATOM     90  O   UNL A   1      36.900  32.374  31.618  1.00  0.00    -0.237 OA
ATOM     91  O   UNL A   1      35.553  31.282  29.864  1.00  0.00    -0.744 OA
ENDBRANCH  87  88
ENDBRANCH  59  82
BRANCH  71  92
ATOM     92  C   UNL A   1      46.264  32.806  28.592  1.00  0.00    -0.014 A 
ATOM     93  C   UNL A   1      46.774  33.220  29.835  1.00  0.00     0.010 A 
ATOM     94  C   UNL A   1      46.134  33.747  27.555  1.00  0.00     0.010 A 
ATOM     95  C   UNL A   1      47.119  34.558  30.046  1.00  0.00     0.020 A 
ATOM     96  C   UNL A   1      46.502  35.079  27.753  1.00  0.00     0.020 A 
ATOM     97  C   UNL A   1      46.978  35.480  29.003  1.00  0.00     0.054 A 
BRANCH  97  98
ATOM     98  S   UNL A   1      47.469  37.203  29.286  1.00  0.00     0.124 S 
ATOM     99  O   UNL A   1      48.397  37.440  28.183  1.00  0.00    -0.237 OA
ATOM    100  O   UNL A   1      46.197  37.918  29.202  1.00  0.00    -0.237 OA
ATOM    101  O   UNL A   1      48.074  37.177  30.616  1.00  0.00    -0.744 OA
ENDBRANCH  97  98
ENDBRANCH  71  92
ENDBRANCH  45  46
ENDBRANCH  38  40
ENDBRANCH  37  38
ENDBRANCH  36  37
ENDBRANCH  35  36
ENDBRANCH   1  35
TORSDOF 21
ENDMDL
MODEL 3
REMARK VINA RESULT:     -11.3      5.594      8.458
REMARK SMILES NC(=O)c1c(-c2ccc(Cl)cc2)csc1NC(=O)[C@H]1[C@@H](C(=O)OCCOCCOC(=O)c2ccc(-c3c4nc(c(-c5ccc(S(=O)(=O)[O-])cc5)c5ccc([nH]5)c(-c5ccc(S(=O)(=O)[O-])cc5)c5nc(c(-c6ccc(S(=O)(=O)[O-])cc6)c6ccc3[nH]6)C=C5)C=C4)cc2)[C@@H]2CC[C@H]1O2
REMARK SMILES IDX 26 1 25 2 24 3 23 4 21 5 22 6 20 7 19 8 95 9 92 10 94 11
REMARK SMILES IDX 96 12 93 13 17 14 16 15 18 17 15 18 4 19 5 20 13 21 14 22
REMARK SMILES IDX 2 23 1 24 3 27 6 28 7 29 12 30 8 31 11 32 9 33 10 34 27 35
REMARK SMILES IDX 28 36 29 37 30 38 31 39 32 40 33 41 91 42 34 43 90 44 35 45
REMARK SMILES IDX 36 46 37 47 84 48 38 49 89 50 83 51 85 52 39 53 88 54 82 55
REMARK SMILES IDX 81 56 40 58 70 59 51 60 69 61 52 62 55 63 68 64 86 65 53 66
REMARK SMILES IDX 54 67 67 69 87 70 56 71 41 72 42 73 50 74 43 75 49 76 44 77
REMARK SMILES IDX 45 78 46 79 47 80 48 81 71 82 72 83 80 84 73 85 79 86 74 87
REMARK SMILES IDX 75 88 76 89 77 90 78 91 57 92 58 93 66 94 59 95 65 96 60 97
REMARK SMILES IDX 61 98 62 99 63 100 64 101
REMARK H PARENT 16 16 1 25 1 26 85 57 55 68
REMARK Flexibility Score: inf
ROOT
ATOM      1  O   UNL A   1      33.392  30.524  27.534  1.00  0.00    -0.374 OA
ENDROOT
BRANCH   1   2
ATOM      2  C   UNL A   1      34.088  29.486  26.840  1.00  0.00     0.202 C 
BRANCH   2   3
ATOM      3  C   UNL A   1      33.221  28.274  26.499  1.00  0.00     0.261 C 
BRANCH   3   4
ATOM      4  O   UNL A   1      34.053  27.175  26.082  1.00  0.00    -0.463 OA
BRANCH   4   5
ATOM      5  C   UNL A   1      33.448  25.976  25.975  1.00  0.00     0.312 C 
ATOM      6  O   UNL A   1      32.369  25.697  26.493  1.00  0.00    -0.252 OA
BRANCH   5   7
ATOM      7  C   UNL A   1      34.207  24.946  25.168  1.00  0.00     0.143 C 
ATOM      8  C   UNL A   1      33.599  23.671  24.542  1.00  0.00     0.124 C 
ATOM      9  C   UNL A   1      34.453  22.574  25.220  1.00  0.00     0.132 C 
ATOM     10  C   UNL A   1      35.287  24.368  26.100  1.00  0.00     0.133 C 
ATOM     11  C   UNL A   1      35.877  22.580  24.655  1.00  0.00     0.035 C 
ATOM     12  O   UNL A   1      34.686  23.129  26.533  1.00  0.00    -0.373 OA
ATOM     13  C   UNL A   1      36.466  23.842  25.284  1.00  0.00     0.036 C 
BRANCH   8  14
ATOM     14  C   UNL A   1      32.122  23.347  24.693  1.00  0.00     0.231 C 
ATOM     15  N   UNL A   1      31.127  24.027  24.065  1.00  0.00    -0.317 N 
ATOM     16  H   UNL A   1      30.240  23.634  24.229  1.00  0.00     0.170 HD
ATOM     17  O   UNL A   1      31.766  22.375  25.371  1.00  0.00    -0.274 OA
BRANCH  15  18
ATOM     18  C   UNL A   1      31.066  25.142  23.247  1.00  0.00     0.108 A 
ATOM     19  C   UNL A   1      30.182  26.206  23.408  1.00  0.00     0.082 A 
ATOM     20  C   UNL A   1      30.589  27.324  22.592  1.00  0.00     0.007 A 
ATOM     21  C   UNL A   1      31.582  26.967  21.701  1.00  0.00     0.076 A 
ATOM     22  S   UNL A   1      32.069  25.355  21.904  1.00  0.00    -0.125 S 
BRANCH  19  23
ATOM     23  C   UNL A   1      29.088  26.149  24.373  1.00  0.00     0.252 C 
ATOM     24  N   UNL A   1      27.834  26.345  23.886  1.00  0.00    -0.365 N 
ATOM     25  H   UNL A   1      27.059  26.318  24.494  1.00  0.00     0.159 HD
ATOM     26  H   UNL A   1      27.699  26.516  22.926  1.00  0.00     0.159 HD
ATOM     27  O   UNL A   1      29.272  25.863  25.551  1.00  0.00    -0.269 OA
ENDBRANCH  19  23
BRANCH  20  28
ATOM     28  C   UNL A   1      30.258  28.734  22.740  1.00  0.00    -0.017 A 
ATOM     29  C   UNL A   1      30.431  29.401  23.958  1.00  0.00     0.010 A 
ATOM     30  C   UNL A   1      29.613  29.383  21.676  1.00  0.00     0.010 A 
ATOM     31  C   UNL A   1      29.903  30.685  24.128  1.00  0.00     0.021 A 
ATOM     32  C   UNL A   1      29.085  30.660  21.852  1.00  0.00     0.021 A 
ATOM     33  C   UNL A   1      29.207  31.294  23.085  1.00  0.00     0.041 A 
ATOM     34  Cl  UNL A   1      28.410  32.797  23.318  1.00  0.00    -0.084 Cl
ENDBRANCH  20  28
ENDBRANCH  15  18
ENDBRANCH   8  14
ENDBRANCH   5   7
ENDBRANCH   4   5
ENDBRANCH   3   4
ENDBRANCH   2   3
ENDBRANCH   1   2
BRANCH   1  35
ATOM     35  C   UNL A   1      32.323  31.139  26.806  1.00  0.00     0.202 C 
BRANCH  35  36
ATOM     36  C   UNL A   1      31.977  32.565  27.252  1.00  0.00     0.261 C 
BRANCH  36  37
ATOM     37  O   UNL A   1      33.142  33.409  27.285  1.00  0.00    -0.460 OA
BRANCH  37  38
ATOM     38  C   UNL A   1      33.261  34.204  28.376  1.00  0.00     0.338 C 
ATOM     39  O   UNL A   1      32.511  35.092  28.725  1.00  0.00    -0.246 OA
BRANCH  38  40
ATOM     40  C   UNL A   1      34.376  33.714  29.221  1.00  0.00     0.060 A 
ATOM     41  C   UNL A   1      35.671  34.129  28.885  1.00  0.00     0.016 A 
ATOM     42  C   UNL A   1      34.174  32.854  30.302  1.00  0.00     0.016 A 
ATOM     43  C   UNL A   1      36.771  33.661  29.608  1.00  0.00     0.010 A 
ATOM     44  C   UNL A   1      35.280  32.380  31.020  1.00  0.00     0.010 A 
ATOM     45  C   UNL A   1      36.588  32.764  30.668  1.00  0.00    -0.014 A 
BRANCH  45  46
ATOM     46  C   UNL A   1      37.764  32.138  31.330  1.00  0.00     0.031 A 
ATOM     47  C   UNL A   1      38.241  32.695  32.646  1.00  0.00     0.074 A 
ATOM     48  C   UNL A   1      38.400  31.081  30.786  1.00  0.00     0.049 A 
ATOM     49  N   UNL A   1      39.256  32.316  33.382  1.00  0.00    -0.248 NA
ATOM     50  C   UNL A   1      37.474  33.817  33.210  1.00  0.00     0.031 C 
ATOM     51  C   UNL A   1      38.032  30.413  29.538  1.00  0.00     0.029 A 
ATOM     52  N   UNL A   1      39.517  30.399  31.208  1.00  0.00    -0.354 N 
ATOM     53  C   UNL A   1      39.240  33.143  34.499  1.00  0.00     0.074 A 
ATOM     54  C   UNL A   1      38.147  34.075  34.322  1.00  0.00     0.031 C 
ATOM     55  C   UNL A   1      38.938  29.456  29.269  1.00  0.00     0.029 A 
ATOM     56  C   UNL A   1      39.944  29.437  30.324  1.00  0.00     0.049 A 
ATOM     57  H   UNL A   1      39.968  30.582  32.063  1.00  0.00     0.167 HD
ATOM     58  C   UNL A   1      40.044  33.116  35.588  1.00  0.00     0.031 A 
ATOM     59  C   UNL A   1      41.034  28.645  30.347  1.00  0.00     0.031 A 
ATOM     60  C   UNL A   1      41.133  32.196  35.776  1.00  0.00     0.049 A 
ATOM     61  C   UNL A   1      41.969  28.698  31.526  1.00  0.00     0.074 A 
ATOM     62  C   UNL A   1      41.965  32.062  36.874  1.00  0.00     0.029 A 
ATOM     63  N   UNL A   1      41.549  31.262  34.843  1.00  0.00    -0.354 N 
ATOM     64  N   UNL A   1      41.902  29.449  32.596  1.00  0.00    -0.248 NA
ATOM     65  C   UNL A   1      43.116  27.776  31.505  1.00  0.00     0.031 C 
ATOM     66  C   UNL A   1      42.919  31.083  36.583  1.00  0.00     0.029 A 
ATOM     67  C   UNL A   1      42.648  30.572  35.326  1.00  0.00     0.049 A 
ATOM     68  H   UNL A   1      41.127  31.110  33.967  1.00  0.00     0.167 HD
ATOM     69  C   UNL A   1      42.977  29.067  33.391  1.00  0.00     0.074 A 
ATOM     70  C   UNL A   1      43.677  28.018  32.681  1.00  0.00     0.031 C 
ATOM     71  C   UNL A   1      43.345  29.538  34.607  1.00  0.00     0.031 A 
BRANCH  58  72
ATOM     72  C   UNL A   1      39.778  34.122  36.674  1.00  0.00    -0.014 A 
ATOM     73  C   UNL A   1      39.022  33.774  37.808  1.00  0.00     0.010 A 
ATOM     74  C   UNL A   1      40.348  35.404  36.593  1.00  0.00     0.010 A 
ATOM     75  C   UNL A   1      38.822  34.701  38.833  1.00  0.00     0.020 A 
ATOM     76  C   UNL A   1      40.168  36.327  37.627  1.00  0.00     0.020 A 
ATOM     77  C   UNL A   1      39.397  35.972  38.736  1.00  0.00     0.054 A 
BRANCH  77  78
ATOM     78  S   UNL A   1      39.163  37.138  40.105  1.00  0.00     0.124 S 
ATOM     79  O   UNL A   1      38.411  38.211  39.462  1.00  0.00    -0.237 OA
ATOM     80  O   UNL A   1      38.418  36.344  41.079  1.00  0.00    -0.237 OA
ATOM     81  O   UNL A   1      40.526  37.484  40.502  1.00  0.00    -0.744 OA
ENDBRANCH  77  78
ENDBRANCH  58  72
BRANCH  59  82
ATOM     82  C   UNL A   1      41.363  27.757  29.198  1.00  0.00    -0.014 A 
ATOM     83  C   UNL A   1      40.815  26.467  29.100  1.00  0.00     0.010 A 
ATOM     84  C   UNL A   1      42.329  28.169  28.264  1.00  0.00     0.010 A 
ATOM     85  C   UNL A   1      41.273  25.578  28.119  1.00  0.00     0.020 A 
ATOM     86  C   UNL A   1      42.778  27.289  27.277  1.00  0.00     0.020 A 
ATOM     87  C   UNL A   1      42.267  25.990  27.228  1.00  0.00     0.054 A 
BRANCH  87  88
ATOM     88  S   UNL A   1      42.906  24.848  25.967  1.00  0.00     0.124 S 
ATOM     89  O   UNL A   1      44.280  24.646  26.417  1.00  0.00    -0.237 OA
ATOM     90  O   UNL A   1      42.030  23.687  26.080  1.00  0.00    -0.237 OA
ATOM     91  O   UNL A   1      42.759  25.620  24.733  1.00  0.00    -0.744 OA
ENDBRANCH  87  88
ENDBRANCH  59  82
BRANCH  71  92
ATOM     92  C   UNL A   1      44.540  28.901  35.262  1.00  0.00    -0.014 A 
ATOM     93  C   UNL A   1      44.405  27.755  36.065  1.00  0.00     0.010 A 
ATOM     94  C   UNL A   1      45.822  29.436  35.040  1.00  0.00     0.010 A 
ATOM     95  C   UNL A   1      45.528  27.174  36.660  1.00  0.00     0.020 A 
ATOM     96  C   UNL A   1      46.949  28.844  35.612  1.00  0.00     0.020 A 
ATOM     97  C   UNL A   1      46.793  27.724  36.432  1.00  0.00     0.054 A 
BRANCH  97  98
ATOM     98  S   UNL A   1      48.241  26.931  37.182  1.00  0.00     0.124 S 
ATOM     99  O   UNL A   1      48.893  28.056  37.847  1.00  0.00    -0.237 OA
ATOM    100  O   UNL A   1      47.641  25.938  38.071  1.00  0.00    -0.237 OA
ATOM    101  O   UNL A   1      48.965  26.378  36.039  1.00  0.00    -0.744 OA
ENDBRANCH  97  98
ENDBRANCH  71  92
ENDBRANCH  45  46
ENDBRANCH  38  40
ENDBRANCH  37  38
ENDBRANCH  36  37
ENDBRANCH  35  36
ENDBRANCH   1  35
TORSDOF 21
ENDMDL
