MODEL 1
REMARK VINA RESULT:     -10.8      0.000      0.000
REMARK SMILES CC1=C[C@H](C(=O)N/N=C/c2ccc(C(=O)OCCOCCOC(=O)c3ccc(-c4c5nc(c(-c6ccc(S(=O)(=O)[O-])cc6)c6ccc([nH]6)c(-c6ccc(S(=O)(=O)[O-])cc6)c6nc(c(-c7ccc(S(=O)(=O)[O-])cc7)c7ccc4[nH]7)C=C6)C=C5)cc3)cc2)N=N1
REMARK SMILES IDX 19 1 18 2 17 3 16 4 14 5 15 6 13 7 10 8 11 9 86 10 12 11
REMARK SMILES IDX 85 12 9 13 8 14 7 15 5 16 6 17 4 19 1 20 2 21 3 22 88 23
REMARK SMILES IDX 87 24 20 25 21 26 22 27 23 28 24 29 25 30 26 31 84 32 27 33
REMARK SMILES IDX 83 34 28 35 29 36 30 37 77 38 31 39 82 40 76 41 78 42 32 43
REMARK SMILES IDX 81 44 75 45 74 46 33 48 63 49 44 50 62 51 45 52 48 53 61 54
REMARK SMILES IDX 79 55 46 56 47 57 60 59 80 60 49 61 34 62 35 63 43 64 36 65
REMARK SMILES IDX 42 66 37 67 38 68 39 69 40 70 41 71 64 72 65 73 73 74 66 75
REMARK SMILES IDX 72 76 67 77 68 78 69 79 70 80 71 81 50 82 51 83 59 84 52 85
REMARK SMILES IDX 58 86 53 87 54 88 55 89 56 90 57 91
REMARK H PARENT 7 18 78 47 48 58
REMARK Flexibility Score: inf
ROOT
ATOM      1  O   UNL A   1      43.977  20.597  24.876  1.00  0.00    -0.374 OA
ENDROOT
BRANCH   1   2
ATOM      2  C   UNL A   1      43.531  19.426  25.556  1.00  0.00     0.202 C 
BRANCH   2   3
ATOM      3  C   UNL A   1      42.063  19.309  25.970  1.00  0.00     0.261 C 
BRANCH   3   4
ATOM      4  O   UNL A   1      41.291  20.492  25.704  1.00  0.00    -0.460 OA
BRANCH   4   5
ATOM      5  C   UNL A   1      41.033  21.212  26.819  1.00  0.00     0.338 C 
ATOM      6  O   UNL A   1      41.760  21.317  27.798  1.00  0.00    -0.246 OA
BRANCH   5   7
ATOM      7  C   UNL A   1      39.805  22.027  26.705  1.00  0.00     0.060 A 
ATOM      8  C   UNL A   1      37.545  23.501  26.002  1.00  0.00    -0.005 A 
ATOM      9  C   UNL A   1      37.663  22.167  25.608  1.00  0.00     0.010 A 
ATOM     10  C   UNL A   1      38.521  24.084  26.818  1.00  0.00     0.010 A 
ATOM     11  C   UNL A   1      38.778  21.431  25.967  1.00  0.00     0.016 A 
ATOM     12  C   UNL A   1      39.664  23.341  27.173  1.00  0.00     0.016 A 
BRANCH   8  13
ATOM     13  C   UNL A   1      36.406  24.222  25.408  1.00  0.00     0.141 C 
ATOM     14  N   UNL A   1      35.538  23.723  24.592  1.00  0.00    -0.181 NA
BRANCH  14  15
ATOM     15  N   UNL A   1      34.545  24.586  24.213  1.00  0.00    -0.245 N 
ATOM     16  C   UNL A   1      33.329  24.872  24.783  1.00  0.00     0.270 C 
ATOM     17  O   UNL A   1      32.551  25.571  24.108  1.00  0.00    -0.270 OA
ATOM     18  H   UNL A   1      34.737  25.089  23.389  1.00  0.00     0.193 HD
BRANCH  16  19
ATOM     19  C   UNL A   1      32.849  24.359  26.147  1.00  0.00     0.244 C 
ATOM     20  C   UNL A   1      29.589  22.910  27.141  1.00  0.00     0.068 C 
ATOM     21  C   UNL A   1      30.981  23.324  26.819  1.00  0.00     0.058 C 
ATOM     22  C   UNL A   1      31.399  24.529  26.424  1.00  0.00     0.037 C 
ATOM     23  N   UNL A   1      31.984  22.387  26.785  1.00  0.00    -0.160 NA
ATOM     24  N   UNL A   1      33.053  22.905  26.347  1.00  0.00    -0.171 NA
ENDBRANCH  16  19
ENDBRANCH  14  15
ENDBRANCH   8  13
ENDBRANCH   5   7
ENDBRANCH   4   5
ENDBRANCH   3   4
ENDBRANCH   2   3
ENDBRANCH   1   2
BRANCH   1  25
ATOM     25  C   UNL A   1      45.353  20.965  24.876  1.00  0.00     0.202 C 
BRANCH  25  26
ATOM     26  C   UNL A   1      45.770  22.282  25.515  1.00  0.00     0.261 C 
BRANCH  26  27
ATOM     27  O   UNL A   1      44.680  22.908  26.167  1.00  0.00    -0.460 OA
BRANCH  27  28
ATOM     28  C   UNL A   1      44.156  23.947  25.474  1.00  0.00     0.338 C 
ATOM     29  O   UNL A   1      44.567  24.419  24.433  1.00  0.00    -0.246 OA
BRANCH  28  30
ATOM     30  C   UNL A   1      43.047  24.510  26.250  1.00  0.00     0.060 A 
ATOM     31  C   UNL A   1      42.295  25.482  25.591  1.00  0.00     0.016 A 
ATOM     32  C   UNL A   1      43.092  24.405  27.646  1.00  0.00     0.016 A 
ATOM     33  C   UNL A   1      41.874  26.560  26.329  1.00  0.00     0.010 A 
ATOM     34  C   UNL A   1      42.687  25.488  28.375  1.00  0.00     0.010 A 
ATOM     35  C   UNL A   1      42.203  26.596  27.687  1.00  0.00    -0.014 A 
BRANCH  35  36
ATOM     36  C   UNL A   1      41.944  27.807  28.424  1.00  0.00     0.031 A 
ATOM     37  C   UNL A   1      43.058  28.756  28.265  1.00  0.00     0.074 A 
ATOM     38  C   UNL A   1      40.775  28.049  29.044  1.00  0.00     0.049 A 
ATOM     39  N   UNL A   1      44.066  28.910  29.057  1.00  0.00    -0.248 NA
ATOM     40  C   UNL A   1      43.233  29.371  26.936  1.00  0.00     0.031 C 
ATOM     41  C   UNL A   1      39.522  27.289  28.960  1.00  0.00     0.029 A 
ATOM     42  N   UNL A   1      40.432  29.106  29.823  1.00  0.00    -0.354 N 
ATOM     43  C   UNL A   1      44.850  29.869  28.430  1.00  0.00     0.074 A 
ATOM     44  C   UNL A   1      44.474  29.844  27.042  1.00  0.00     0.031 C 
ATOM     45  C   UNL A   1      38.509  28.044  29.454  1.00  0.00     0.029 A 
ATOM     46  C   UNL A   1      39.064  29.260  30.024  1.00  0.00     0.049 A 
ATOM     47  H   UNL A   1      41.098  29.716  30.214  1.00  0.00     0.167 HD
ATOM     48  C   UNL A   1      45.415  30.880  29.146  1.00  0.00     0.031 A 
ATOM     49  C   UNL A   1      38.463  30.349  30.571  1.00  0.00     0.031 A 
ATOM     50  C   UNL A   1      45.318  30.623  30.560  1.00  0.00     0.049 A 
ATOM     51  C   UNL A   1      39.508  31.071  31.339  1.00  0.00     0.074 A 
ATOM     52  C   UNL A   1      45.919  29.776  31.465  1.00  0.00     0.029 A 
ATOM     53  N   UNL A   1      44.133  31.046  31.112  1.00  0.00    -0.354 N 
ATOM     54  N   UNL A   1      40.108  30.559  32.379  1.00  0.00    -0.248 NA
ATOM     55  C   UNL A   1      40.195  32.198  30.720  1.00  0.00     0.031 C 
ATOM     56  C   UNL A   1      44.951  29.547  32.487  1.00  0.00     0.029 A 
ATOM     57  C   UNL A   1      43.810  30.304  32.216  1.00  0.00     0.049 A 
ATOM     58  H   UNL A   1      43.588  31.787  30.761  1.00  0.00     0.167 HD
ATOM     59  C   UNL A   1      41.416  31.007  32.288  1.00  0.00     0.074 A 
ATOM     60  C   UNL A   1      41.372  32.125  31.351  1.00  0.00     0.031 C 
ATOM     61  C   UNL A   1      42.455  30.242  32.734  1.00  0.00     0.031 A 
BRANCH  48  62
ATOM     62  C   UNL A   1      45.551  32.292  28.618  1.00  0.00    -0.014 A 
ATOM     63  C   UNL A   1      46.595  33.098  29.108  1.00  0.00     0.010 A 
ATOM     64  C   UNL A   1      44.552  32.944  27.862  1.00  0.00     0.010 A 
ATOM     65  C   UNL A   1      46.619  34.482  28.877  1.00  0.00     0.020 A 
ATOM     66  C   UNL A   1      44.584  34.311  27.593  1.00  0.00     0.020 A 
ATOM     67  C   UNL A   1      45.609  35.078  28.122  1.00  0.00     0.054 A 
BRANCH  67  68
ATOM     68  S   UNL A   1      45.611  36.867  27.872  1.00  0.00     0.124 S 
ATOM     69  O   UNL A   1      47.031  37.145  27.680  1.00  0.00    -0.237 OA
ATOM     70  O   UNL A   1      44.767  37.011  26.689  1.00  0.00    -0.237 OA
ATOM     71  O   UNL A   1      45.032  37.386  29.109  1.00  0.00    -0.744 OA
ENDBRANCH  67  68
ENDBRANCH  48  62
BRANCH  49  72
ATOM     72  C   UNL A   1      37.185  30.995  30.165  1.00  0.00    -0.014 A 
ATOM     73  C   UNL A   1      36.295  31.529  31.119  1.00  0.00     0.010 A 
ATOM     74  C   UNL A   1      36.989  31.361  28.817  1.00  0.00     0.010 A 
ATOM     75  C   UNL A   1      35.287  32.439  30.745  1.00  0.00     0.020 A 
ATOM     76  C   UNL A   1      35.987  32.266  28.438  1.00  0.00     0.020 A 
ATOM     77  C   UNL A   1      35.153  32.818  29.407  1.00  0.00     0.054 A 
BRANCH  77  78
ATOM     78  S   UNL A   1      33.964  34.121  28.954  1.00  0.00     0.124 S 
ATOM     79  O   UNL A   1      33.110  33.440  27.985  1.00  0.00    -0.237 OA
ATOM     80  O   UNL A   1      33.336  34.439  30.234  1.00  0.00    -0.237 OA
ATOM     81  O   UNL A   1      34.807  35.179  28.401  1.00  0.00    -0.744 OA
ENDBRANCH  77  78
ENDBRANCH  49  72
BRANCH  61  82
ATOM     82  C   UNL A   1      42.159  29.174  33.757  1.00  0.00    -0.014 A 
ATOM     83  C   UNL A   1      41.727  27.868  33.461  1.00  0.00     0.010 A 
ATOM     84  C   UNL A   1      42.448  29.502  35.093  1.00  0.00     0.010 A 
ATOM     85  C   UNL A   1      41.579  26.919  34.487  1.00  0.00     0.020 A 
ATOM     86  C   UNL A   1      42.321  28.561  36.112  1.00  0.00     0.020 A 
ATOM     87  C   UNL A   1      41.879  27.274  35.808  1.00  0.00     0.054 A 
BRANCH  87  88
ATOM     88  S   UNL A   1      41.729  26.043  37.133  1.00  0.00     0.124 S 
ATOM     89  O   UNL A   1      42.776  26.451  38.066  1.00  0.00    -0.237 OA
ATOM     90  O   UNL A   1      40.359  26.234  37.601  1.00  0.00    -0.237 OA
ATOM     91  O   UNL A   1      41.970  24.769  36.454  1.00  0.00    -0.744 OA
ENDBRANCH  87  88
ENDBRANCH  61  82
ENDBRANCH  35  36
ENDBRANCH  28  30
ENDBRANCH  27  28
ENDBRANCH  26  27
ENDBRANCH  25  26
ENDBRANCH   1  25
TORSDOF 20
ENDMDL
MODEL 2
REMARK VINA RESULT:     -10.8      2.626      4.041
REMARK SMILES CC1=C[C@H](C(=O)N/N=C/c2ccc(C(=O)OCCOCCOC(=O)c3ccc(-c4c5nc(c(-c6ccc(S(=O)(=O)[O-])cc6)c6ccc([nH]6)c(-c6ccc(S(=O)(=O)[O-])cc6)c6nc(c(-c7ccc(S(=O)(=O)[O-])cc7)c7ccc4[nH]7)C=C6)C=C5)cc3)cc2)N=N1
REMARK SMILES IDX 19 1 18 2 17 3 16 4 14 5 15 6 13 7 10 8 11 9 86 10 12 11
REMARK SMILES IDX 85 12 9 13 8 14 7 15 5 16 6 17 4 19 1 20 2 21 3 22 88 23
REMARK SMILES IDX 87 24 20 25 21 26 22 27 23 28 24 29 25 30 26 31 84 32 27 33
REMARK SMILES IDX 83 34 28 35 29 36 30 37 77 38 31 39 82 40 76 41 78 42 32 43
REMARK SMILES IDX 81 44 75 45 74 46 33 48 63 49 44 50 62 51 45 52 48 53 61 54
REMARK SMILES IDX 79 55 46 56 47 57 60 59 80 60 49 61 34 62 35 63 43 64 36 65
REMARK SMILES IDX 42 66 37 67 38 68 39 69 40 70 41 71 64 72 65 73 73 74 66 75
REMARK SMILES IDX 72 76 67 77 68 78 69 79 70 80 71 81 50 82 51 83 59 84 52 85
REMARK SMILES IDX 58 86 53 87 54 88 55 89 56 90 57 91
REMARK H PARENT 7 18 78 47 48 58
REMARK Flexibility Score: inf
ROOT
ATOM      1  O   UNL A   1      41.154  21.888  26.692  1.00  0.00    -0.374 OA
ENDROOT
BRANCH   1   2
ATOM      2  C   UNL A   1      39.756  22.100  26.879  1.00  0.00     0.202 C 
BRANCH   2   3
ATOM      3  C   UNL A   1      38.790  21.815  25.728  1.00  0.00     0.261 C 
BRANCH   3   4
ATOM      4  O   UNL A   1      37.495  22.416  25.897  1.00  0.00    -0.460 OA
BRANCH   4   5
ATOM      5  C   UNL A   1      36.770  22.433  24.757  1.00  0.00     0.338 C 
ATOM      6  O   UNL A   1      37.090  21.930  23.688  1.00  0.00    -0.246 OA
BRANCH   5   7
ATOM      7  C   UNL A   1      35.422  23.009  24.941  1.00  0.00     0.060 A 
ATOM      8  C   UNL A   1      32.829  24.023  24.799  1.00  0.00    -0.005 A 
ATOM      9  C   UNL A   1      33.094  22.717  24.384  1.00  0.00     0.010 A 
ATOM     10  C   UNL A   1      33.843  24.805  25.361  1.00  0.00     0.010 A 
ATOM     11  C   UNL A   1      34.378  22.208  24.466  1.00  0.00     0.016 A 
ATOM     12  C   UNL A   1      35.155  24.294  25.433  1.00  0.00     0.016 A 
BRANCH   8  13
ATOM     13  C   UNL A   1      31.469  24.503  24.495  1.00  0.00     0.141 C 
ATOM     14  N   UNL A   1      30.745  25.254  25.257  1.00  0.00    -0.181 NA
BRANCH  14  15
ATOM     15  N   UNL A   1      29.530  25.601  24.731  1.00  0.00    -0.245 N 
ATOM     16  C   UNL A   1      29.149  26.675  23.964  1.00  0.00     0.270 C 
ATOM     17  O   UNL A   1      27.927  26.824  23.787  1.00  0.00    -0.270 OA
ATOM     18  H   UNL A   1      28.802  24.972  24.939  1.00  0.00     0.193 HD
BRANCH  16  19
ATOM     19  C   UNL A   1      30.104  27.714  23.361  1.00  0.00     0.244 C 
ATOM     20  C   UNL A   1      33.604  28.538  24.249  1.00  0.00     0.068 C 
ATOM     21  C   UNL A   1      32.268  28.180  23.704  1.00  0.00     0.058 C 
ATOM     22  C   UNL A   1      31.083  28.312  24.306  1.00  0.00     0.037 C 
ATOM     23  N   UNL A   1      32.171  27.525  22.500  1.00  0.00    -0.160 NA
ATOM     24  N   UNL A   1      30.973  27.178  22.286  1.00  0.00    -0.171 NA
ENDBRANCH  16  19
ENDBRANCH  14  15
ENDBRANCH   8  13
ENDBRANCH   5   7
ENDBRANCH   4   5
ENDBRANCH   3   4
ENDBRANCH   2   3
ENDBRANCH   1   2
BRANCH   1  25
ATOM     25  C   UNL A   1      41.777  20.683  27.127  1.00  0.00     0.202 C 
BRANCH  25  26
ATOM     26  C   UNL A   1      42.555  19.845  26.122  1.00  0.00     0.261 C 
BRANCH  26  27
ATOM     27  O   UNL A   1      43.068  20.642  25.071  1.00  0.00    -0.460 OA
BRANCH  27  28
ATOM     28  C   UNL A   1      44.412  20.799  25.113  1.00  0.00     0.338 C 
ATOM     29  O   UNL A   1      45.250  19.933  25.269  1.00  0.00    -0.246 OA
BRANCH  28  30
ATOM     30  C   UNL A   1      44.714  22.232  25.052  1.00  0.00     0.060 A 
ATOM     31  C   UNL A   1      45.709  22.667  25.928  1.00  0.00     0.016 A 
ATOM     32  C   UNL A   1      43.749  23.093  24.516  1.00  0.00     0.016 A 
ATOM     33  C   UNL A   1      45.522  23.881  26.540  1.00  0.00     0.010 A 
ATOM     34  C   UNL A   1      43.556  24.294  25.140  1.00  0.00     0.010 A 
ATOM     35  C   UNL A   1      44.369  24.606  26.225  1.00  0.00    -0.014 A 
BRANCH  35  36
ATOM     36  C   UNL A   1      44.062  25.779  27.003  1.00  0.00     0.031 A 
ATOM     37  C   UNL A   1      45.079  26.822  26.788  1.00  0.00     0.074 A 
ATOM     38  C   UNL A   1      42.924  25.912  27.708  1.00  0.00     0.049 A 
ATOM     39  N   UNL A   1      46.125  27.048  27.511  1.00  0.00    -0.248 NA
ATOM     40  C   UNL A   1      45.108  27.468  25.462  1.00  0.00     0.031 C 
ATOM     41  C   UNL A   1      41.736  25.050  27.695  1.00  0.00     0.029 A 
ATOM     42  N   UNL A   1      42.550  26.924  28.530  1.00  0.00    -0.354 N 
ATOM     43  C   UNL A   1      46.780  28.079  26.852  1.00  0.00     0.074 A 
ATOM     44  C   UNL A   1      46.310  28.043  25.493  1.00  0.00     0.031 C 
ATOM     45  C   UNL A   1      40.701  25.709  28.273  1.00  0.00     0.029 A 
ATOM     46  C   UNL A   1      41.192  26.959  28.828  1.00  0.00     0.049 A 
ATOM     47  H   UNL A   1      43.189  27.582  28.887  1.00  0.00     0.167 HD
ATOM     48  C   UNL A   1      47.308  29.124  27.548  1.00  0.00     0.031 A 
ATOM     49  C   UNL A   1      40.542  27.985  29.438  1.00  0.00     0.031 A 
ATOM     50  C   UNL A   1      47.332  28.838  28.959  1.00  0.00     0.049 A 
ATOM     51  C   UNL A   1      41.574  28.781  30.147  1.00  0.00     0.074 A 
ATOM     52  C   UNL A   1      48.064  28.032  29.803  1.00  0.00     0.029 A 
ATOM     53  N   UNL A   1      46.158  29.152  29.601  1.00  0.00    -0.354 N 
ATOM     54  N   UNL A   1      42.288  28.306  31.132  1.00  0.00    -0.248 NA
ATOM     55  C   UNL A   1      42.120  29.971  29.506  1.00  0.00     0.031 C 
ATOM     56  C   UNL A   1      47.193  27.707  30.884  1.00  0.00     0.029 A 
ATOM     57  C   UNL A   1      45.977  28.368  30.709  1.00  0.00     0.049 A 
ATOM     58  H   UNL A   1      45.529  29.849  29.303  1.00  0.00     0.167 HD
ATOM     59  C   UNL A   1      43.544  28.865  30.960  1.00  0.00     0.074 A 
ATOM     60  C   UNL A   1      43.340  29.989  30.052  1.00  0.00     0.031 C 
ATOM     61  C   UNL A   1      44.671  28.184  31.318  1.00  0.00     0.031 A 
BRANCH  48  62
ATOM     62  C   UNL A   1      47.287  30.550  27.041  1.00  0.00    -0.014 A 
ATOM     63  C   UNL A   1      48.470  31.310  27.116  1.00  0.00     0.010 A 
ATOM     64  C   UNL A   1      46.103  31.255  26.736  1.00  0.00     0.010 A 
ATOM     65  C   UNL A   1      48.458  32.700  26.926  1.00  0.00     0.020 A 
ATOM     66  C   UNL A   1      46.082  32.630  26.508  1.00  0.00     0.020 A 
ATOM     67  C   UNL A   1      47.260  33.349  26.625  1.00  0.00     0.054 A 
BRANCH  67  68
ATOM     68  S   UNL A   1      47.237  35.146  26.435  1.00  0.00     0.124 S 
ATOM     69  O   UNL A   1      46.087  35.344  25.558  1.00  0.00    -0.237 OA
ATOM     70  O   UNL A   1      47.072  35.596  27.814  1.00  0.00    -0.237 OA
ATOM     71  O   UNL A   1      48.538  35.445  25.841  1.00  0.00    -0.744 OA
ENDBRANCH  67  68
ENDBRANCH  48  62
BRANCH  49  72
ATOM     72  C   UNL A   1      39.189  28.526  29.135  1.00  0.00    -0.014 A 
ATOM     73  C   UNL A   1      38.265  28.813  30.159  1.00  0.00     0.010 A 
ATOM     74  C   UNL A   1      38.922  29.051  27.853  1.00  0.00     0.010 A 
ATOM     75  C   UNL A   1      37.149  29.641  29.924  1.00  0.00     0.020 A 
ATOM     76  C   UNL A   1      37.814  29.877  27.612  1.00  0.00     0.020 A 
ATOM     77  C   UNL A   1      36.943  30.185  28.655  1.00  0.00     0.054 A 
BRANCH  77  78
ATOM     78  S   UNL A   1      35.601  31.390  28.397  1.00  0.00     0.124 S 
ATOM     79  O   UNL A   1      36.320  32.548  27.873  1.00  0.00    -0.237 OA
ATOM     80  O   UNL A   1      34.733  30.702  27.446  1.00  0.00    -0.237 OA
ATOM     81  O   UNL A   1      35.036  31.566  29.734  1.00  0.00    -0.744 OA
ENDBRANCH  77  78
ENDBRANCH  49  72
BRANCH  61  82
ATOM     82  C   UNL A   1      44.539  27.080  32.336  1.00  0.00    -0.014 A 
ATOM     83  C   UNL A   1      44.365  27.272  33.720  1.00  0.00     0.010 A 
ATOM     84  C   UNL A   1      44.483  25.773  31.825  1.00  0.00     0.010 A 
ATOM     85  C   UNL A   1      44.150  26.172  34.567  1.00  0.00     0.020 A 
ATOM     86  C   UNL A   1      44.251  24.679  32.657  1.00  0.00     0.020 A 
ATOM     87  C   UNL A   1      44.094  24.881  34.027  1.00  0.00     0.054 A 
BRANCH  87  88
ATOM     88  S   UNL A   1      43.777  23.459  35.111  1.00  0.00     0.124 S 
ATOM     89  O   UNL A   1      42.337  23.550  35.341  1.00  0.00    -0.237 OA
ATOM     90  O   UNL A   1      44.215  22.327  34.297  1.00  0.00    -0.237 OA
ATOM     91  O   UNL A   1      44.607  23.724  36.285  1.00  0.00    -0.744 OA
ENDBRANCH  87  88
ENDBRANCH  61  82
ENDBRANCH  35  36
ENDBRANCH  28  30
ENDBRANCH  27  28
ENDBRANCH  26  27
ENDBRANCH  25  26
ENDBRANCH   1  25
TORSDOF 20
ENDMDL
MODEL 3
REMARK VINA RESULT:     -10.4      2.032      3.722
REMARK SMILES CC1=C[C@H](C(=O)N/N=C/c2ccc(C(=O)OCCOCCOC(=O)c3ccc(-c4c5nc(c(-c6ccc(S(=O)(=O)[O-])cc6)c6ccc([nH]6)c(-c6ccc(S(=O)(=O)[O-])cc6)c6nc(c(-c7ccc(S(=O)(=O)[O-])cc7)c7ccc4[nH]7)C=C6)C=C5)cc3)cc2)N=N1
REMARK SMILES IDX 19 1 18 2 17 3 16 4 14 5 15 6 13 7 10 8 11 9 86 10 12 11
REMARK SMILES IDX 85 12 9 13 8 14 7 15 5 16 6 17 4 19 1 20 2 21 3 22 88 23
REMARK SMILES IDX 87 24 20 25 21 26 22 27 23 28 24 29 25 30 26 31 84 32 27 33
REMARK SMILES IDX 83 34 28 35 29 36 30 37 77 38 31 39 82 40 76 41 78 42 32 43
REMARK SMILES IDX 81 44 75 45 74 46 33 48 63 49 44 50 62 51 45 52 48 53 61 54
REMARK SMILES IDX 79 55 46 56 47 57 60 59 80 60 49 61 34 62 35 63 43 64 36 65
REMARK SMILES IDX 42 66 37 67 38 68 39 69 40 70 41 71 64 72 65 73 73 74 66 75
REMARK SMILES IDX 72 76 67 77 68 78 69 79 70 80 71 81 50 82 51 83 59 84 52 85
REMARK SMILES IDX 58 86 53 87 54 88 55 89 56 90 57 91
REMARK H PARENT 7 18 78 47 48 58
REMARK Flexibility Score: inf
ROOT
ATOM      1  O   UNL A   1      37.785  21.352  25.099  1.00  0.00    -0.374 OA
ENDROOT
BRANCH   1   2
ATOM      2  C   UNL A   1      36.454  21.576  25.560  1.00  0.00     0.202 C 
BRANCH   2   3
ATOM      3  C   UNL A   1      35.325  20.667  25.070  1.00  0.00     0.261 C 
BRANCH   3   4
ATOM      4  O   UNL A   1      34.136  20.737  25.875  1.00  0.00    -0.460 OA
BRANCH   4   5
ATOM      5  C   UNL A   1      33.014  20.909  25.141  1.00  0.00     0.338 C 
ATOM      6  O   UNL A   1      32.460  20.060  24.456  1.00  0.00    -0.246 OA
BRANCH   5   7
ATOM      7  C   UNL A   1      32.386  22.230  25.352  1.00  0.00     0.060 A 
ATOM      8  C   UNL A   1      31.668  24.891  25.773  1.00  0.00    -0.005 A 
ATOM      9  C   UNL A   1      32.457  24.543  24.676  1.00  0.00     0.010 A 
ATOM     10  C   UNL A   1      31.165  23.900  26.623  1.00  0.00     0.010 A 
ATOM     11  C   UNL A   1      32.804  23.222  24.459  1.00  0.00     0.016 A 
ATOM     12  C   UNL A   1      31.529  22.554  26.412  1.00  0.00     0.016 A 
BRANCH   8  13
ATOM     13  C   UNL A   1      31.520  26.340  25.993  1.00  0.00     0.141 C 
ATOM     14  N   UNL A   1      32.453  27.224  25.863  1.00  0.00    -0.181 NA
BRANCH  14  15
ATOM     15  N   UNL A   1      32.055  28.515  26.082  1.00  0.00    -0.245 N 
ATOM     16  C   UNL A   1      31.544  29.461  25.228  1.00  0.00     0.270 C 
ATOM     17  O   UNL A   1      31.446  30.617  25.677  1.00  0.00    -0.270 OA
ATOM     18  H   UNL A   1      32.152  28.818  27.014  1.00  0.00     0.193 HD
BRANCH  16  19
ATOM     19  C   UNL A   1      31.141  29.210  23.769  1.00  0.00     0.244 C 
ATOM     20  C   UNL A   1      31.772  26.284  21.587  1.00  0.00     0.068 C 
ATOM     21  C   UNL A   1      31.322  27.433  22.419  1.00  0.00     0.058 C 
ATOM     22  C   UNL A   1      32.083  28.378  22.975  1.00  0.00     0.037 C 
ATOM     23  N   UNL A   1      30.006  27.532  22.798  1.00  0.00    -0.160 NA
ATOM     24  N   UNL A   1      29.857  28.484  23.618  1.00  0.00    -0.171 NA
ENDBRANCH  16  19
ENDBRANCH  14  15
ENDBRANCH   8  13
ENDBRANCH   5   7
ENDBRANCH   4   5
ENDBRANCH   3   4
ENDBRANCH   2   3
ENDBRANCH   1   2
BRANCH   1  25
ATOM     25  C   UNL A   1      38.903  21.577  25.953  1.00  0.00     0.202 C 
BRANCH  25  26
ATOM     26  C   UNL A   1      39.277  23.004  26.327  1.00  0.00     0.261 C 
BRANCH  26  27
ATOM     27  O   UNL A   1      40.526  23.053  26.994  1.00  0.00    -0.460 OA
BRANCH  27  28
ATOM     28  C   UNL A   1      41.586  23.129  26.156  1.00  0.00     0.338 C 
ATOM     29  O   UNL A   1      42.069  22.231  25.495  1.00  0.00    -0.246 OA
BRANCH  28  30
ATOM     30  C   UNL A   1      42.158  24.476  26.254  1.00  0.00     0.060 A 
ATOM     31  C   UNL A   1      42.963  24.699  27.370  1.00  0.00     0.016 A 
ATOM     32  C   UNL A   1      41.540  25.514  25.546  1.00  0.00     0.016 A 
ATOM     33  C   UNL A   1      42.860  25.922  27.986  1.00  0.00     0.010 A 
ATOM     34  C   UNL A   1      41.425  26.724  26.171  1.00  0.00     0.010 A 
ATOM     35  C   UNL A   1      41.982  26.862  27.439  1.00  0.00    -0.014 A 
BRANCH  35  36
ATOM     36  C   UNL A   1      41.715  28.066  28.183  1.00  0.00     0.031 A 
ATOM     37  C   UNL A   1      42.815  29.031  28.014  1.00  0.00     0.074 A 
ATOM     38  C   UNL A   1      40.550  28.291  28.817  1.00  0.00     0.049 A 
ATOM     39  N   UNL A   1      43.830  29.195  28.795  1.00  0.00    -0.248 NA
ATOM     40  C   UNL A   1      42.967  29.652  26.685  1.00  0.00     0.031 C 
ATOM     41  C   UNL A   1      39.306  27.515  28.744  1.00  0.00     0.029 A 
ATOM     42  N   UNL A   1      40.202  29.341  29.604  1.00  0.00    -0.354 N 
ATOM     43  C   UNL A   1      44.594  30.166  28.163  1.00  0.00     0.074 A 
ATOM     44  C   UNL A   1      44.203  30.140  26.779  1.00  0.00     0.031 C 
ATOM     45  C   UNL A   1      38.289  28.255  29.252  1.00  0.00     0.029 A 
ATOM     46  C   UNL A   1      38.835  29.477  29.820  1.00  0.00     0.049 A 
ATOM     47  H   UNL A   1      40.865  29.958  29.989  1.00  0.00     0.167 HD
ATOM     48  C   UNL A   1      45.154  31.182  28.876  1.00  0.00     0.031 A 
ATOM     49  C   UNL A   1      38.226  30.555  30.378  1.00  0.00     0.031 A 
ATOM     50  C   UNL A   1      45.076  30.919  30.290  1.00  0.00     0.049 A 
ATOM     51  C   UNL A   1      39.270  31.289  31.136  1.00  0.00     0.074 A 
ATOM     52  C   UNL A   1      45.698  30.078  31.185  1.00  0.00     0.029 A 
ATOM     53  N   UNL A   1      43.892  31.325  30.857  1.00  0.00    -0.354 N 
ATOM     54  N   UNL A   1      39.889  30.781  32.168  1.00  0.00    -0.248 NA
ATOM     55  C   UNL A   1      39.935  32.426  30.514  1.00  0.00     0.031 C 
ATOM     56  C   UNL A   1      44.746  29.832  32.217  1.00  0.00     0.029 A 
ATOM     57  C   UNL A   1      43.592  30.575  31.962  1.00  0.00     0.049 A 
ATOM     58  H   UNL A   1      43.334  32.060  30.514  1.00  0.00     0.167 HD
ATOM     59  C   UNL A   1      41.190  31.247  32.063  1.00  0.00     0.074 A 
ATOM     60  C   UNL A   1      41.120  32.367  31.131  1.00  0.00     0.031 C 
ATOM     61  C   UNL A   1      42.243  30.494  32.495  1.00  0.00     0.031 A 
BRANCH  48  62
ATOM     62  C   UNL A   1      45.265  32.597  28.351  1.00  0.00    -0.014 A 
ATOM     63  C   UNL A   1      46.540  33.191  28.275  1.00  0.00     0.010 A 
ATOM     64  C   UNL A   1      44.158  33.456  28.176  1.00  0.00     0.010 A 
ATOM     65  C   UNL A   1      46.691  34.569  28.064  1.00  0.00     0.020 A 
ATOM     66  C   UNL A   1      44.295  34.821  27.928  1.00  0.00     0.020 A 
ATOM     67  C   UNL A   1      45.564  35.374  27.894  1.00  0.00     0.054 A 
BRANCH  67  68
ATOM     68  S   UNL A   1      45.760  37.158  27.678  1.00  0.00     0.124 S 
ATOM     69  O   UNL A   1      46.519  37.527  28.869  1.00  0.00    -0.237 OA
ATOM     70  O   UNL A   1      46.482  37.234  26.412  1.00  0.00    -0.237 OA
ATOM     71  O   UNL A   1      44.385  37.650  27.633  1.00  0.00    -0.744 OA
ENDBRANCH  67  68
ENDBRANCH  48  62
BRANCH  49  72
ATOM     72  C   UNL A   1      36.936  31.186  29.989  1.00  0.00    -0.014 A 
ATOM     73  C   UNL A   1      36.059  31.724  30.953  1.00  0.00     0.010 A 
ATOM     74  C   UNL A   1      36.711  31.535  28.641  1.00  0.00     0.010 A 
ATOM     75  C   UNL A   1      35.036  32.621  30.588  1.00  0.00     0.020 A 
ATOM     76  C   UNL A   1      35.694  32.427  28.271  1.00  0.00     0.020 A 
ATOM     77  C   UNL A   1      34.874  32.983  29.249  1.00  0.00     0.054 A 
BRANCH  77  78
ATOM     78  S   UNL A   1      33.665  34.271  28.804  1.00  0.00     0.124 S 
ATOM     79  O   UNL A   1      33.097  34.626  30.101  1.00  0.00    -0.237 OA
ATOM     80  O   UNL A   1      34.502  35.292  28.180  1.00  0.00    -0.237 OA
ATOM     81  O   UNL A   1      32.749  33.584  27.895  1.00  0.00    -0.744 OA
ENDBRANCH  77  78
ENDBRANCH  49  72
BRANCH  61  82
ATOM     82  C   UNL A   1      41.974  29.419  33.517  1.00  0.00    -0.014 A 
ATOM     83  C   UNL A   1      41.741  28.062  33.223  1.00  0.00     0.010 A 
ATOM     84  C   UNL A   1      42.073  29.809  34.864  1.00  0.00     0.010 A 
ATOM     85  C   UNL A   1      41.602  27.124  34.260  1.00  0.00     0.020 A 
ATOM     86  C   UNL A   1      41.954  28.881  35.896  1.00  0.00     0.020 A 
ATOM     87  C   UNL A   1      41.711  27.542  35.592  1.00  0.00     0.054 A 
BRANCH  87  88
ATOM     88  S   UNL A   1      41.572  26.329  36.936  1.00  0.00     0.124 S 
ATOM     89  O   UNL A   1      40.377  26.779  37.646  1.00  0.00    -0.237 OA
ATOM     90  O   UNL A   1      41.441  25.064  36.219  1.00  0.00    -0.237 OA
ATOM     91  O   UNL A   1      42.825  26.485  37.676  1.00  0.00    -0.744 OA
ENDBRANCH  87  88
ENDBRANCH  61  82
ENDBRANCH  35  36
ENDBRANCH  28  30
ENDBRANCH  27  28
ENDBRANCH  26  27
ENDBRANCH  25  26
ENDBRANCH   1  25
TORSDOF 20
ENDMDL
