MODEL 1
REMARK VINA RESULT:      -9.1      0.000      0.000
REMARK SMILES N#Cc1ccc(-c2ccc(F)c(C(=O)OCCOCCOC(=O)c3ccc(-c4c5nc(c(-c6ccc(S(=O)(=O)[O-])cc6)c6ccc([nH]6)c(-c6ccc(S(=O)(=O)[O-])cc6)c6nc(c(-c7ccc(S(=O)(=O)[O-])cc7)c7ccc4[nH]7)C=C6)C=C5)cc3)c2)cc1
REMARK SMILES IDX 19 1 18 2 17 3 16 4 15 5 13 6 14 7 12 8 7 9 8 10 84 11 9 12
REMARK SMILES IDX 10 13 11 14 6 15 3 16 4 17 86 18 5 19 85 20 2 21 1 22 20 23
REMARK SMILES IDX 21 24 22 25 23 26 24 27 25 28 83 29 26 30 82 31 27 32 28 33
REMARK SMILES IDX 29 34 76 35 30 36 81 37 75 38 77 39 31 40 80 41 74 42 73 43
REMARK SMILES IDX 32 45 62 46 43 47 61 48 44 49 47 50 60 51 78 52 45 53 46 54
REMARK SMILES IDX 59 56 79 57 48 58 33 59 34 60 42 61 35 62 41 63 36 64 37 65
REMARK SMILES IDX 38 66 39 67 40 68 63 69 64 70 72 71 65 72 71 73 66 74 67 75
REMARK SMILES IDX 68 76 69 77 70 78 49 79 50 80 58 81 51 82 57 83 52 84 53 85
REMARK SMILES IDX 54 86 55 87 56 88
REMARK H PARENT 77 44 47 55
REMARK Flexibility Score: inf
ROOT
ATOM      1  C   UNL A   1      33.686  34.692  28.619  1.00  0.00     0.202 C 
ENDROOT
BRANCH   1   2
ATOM      2  O   UNL A   1      32.532  35.314  29.177  1.00  0.00    -0.374 OA
BRANCH   2   3
ATOM      3  C   UNL A   1      32.601  35.795  30.518  1.00  0.00     0.202 C 
BRANCH   3   4
ATOM      4  C   UNL A   1      33.928  35.677  31.275  1.00  0.00     0.261 C 
BRANCH   4   5
ATOM      5  O   UNL A   1      33.827  34.804  32.407  1.00  0.00    -0.460 OA
BRANCH   5   6
ATOM      6  C   UNL A   1      34.616  33.705  32.351  1.00  0.00     0.341 C 
ATOM      7  O   UNL A   1      34.376  32.663  31.761  1.00  0.00    -0.246 OA
BRANCH   6   8
ATOM      8  C   UNL A   1      35.947  33.988  32.917  1.00  0.00     0.096 A 
ATOM      9  C   UNL A   1      38.300  34.443  32.452  1.00  0.00    -0.017 A 
ATOM     10  C   UNL A   1      38.539  34.474  33.834  1.00  0.00     0.012 A 
ATOM     11  C   UNL A   1      36.993  34.207  32.007  1.00  0.00     0.027 A 
ATOM     12  C   UNL A   1      37.493  34.284  34.743  1.00  0.00     0.041 A 
ATOM     13  C   UNL A   1      36.200  34.042  34.282  1.00  0.00     0.137 A 
ATOM     14  F   UNL A   1      35.229  33.840  35.182  1.00  0.00    -0.206 F 
BRANCH   9  15
ATOM     15  C   UNL A   1      39.388  34.577  31.479  1.00  0.00    -0.018 A 
ATOM     16  C   UNL A   1      41.505  34.689  29.624  1.00  0.00     0.052 A 
ATOM     17  C   UNL A   1      40.186  34.877  29.198  1.00  0.00     0.020 A 
ATOM     18  C   UNL A   1      41.767  34.454  30.975  1.00  0.00     0.020 A 
ATOM     19  C   UNL A   1      39.135  34.818  30.121  1.00  0.00     0.010 A 
ATOM     20  C   UNL A   1      40.717  34.401  31.894  1.00  0.00     0.010 A 
BRANCH  16  21
ATOM     21  C   UNL A   1      42.586  34.724  28.680  1.00  0.00     0.099 C 
ATOM     22  N   UNL A   1      43.458  34.761  27.920  1.00  0.00    -0.192 NA
ENDBRANCH  16  21
ENDBRANCH   9  15
ENDBRANCH   6   8
ENDBRANCH   5   6
ENDBRANCH   4   5
ENDBRANCH   3   4
ENDBRANCH   2   3
ENDBRANCH   1   2
BRANCH   1  23
ATOM     23  C   UNL A   1      33.562  33.298  27.987  1.00  0.00     0.261 C 
BRANCH  23  24
ATOM     24  O   UNL A   1      34.360  32.291  28.627  1.00  0.00    -0.460 OA
BRANCH  24  25
ATOM     25  C   UNL A   1      34.567  31.183  27.869  1.00  0.00     0.338 C 
ATOM     26  O   UNL A   1      33.944  30.843  26.879  1.00  0.00    -0.246 OA
BRANCH  25  27
ATOM     27  C   UNL A   1      35.803  30.506  28.302  1.00  0.00     0.060 A 
ATOM     28  C   UNL A   1      35.744  29.702  29.448  1.00  0.00     0.016 A 
ATOM     29  C   UNL A   1      37.015  30.724  27.648  1.00  0.00     0.016 A 
ATOM     30  C   UNL A   1      36.909  29.146  29.970  1.00  0.00     0.010 A 
ATOM     31  C   UNL A   1      38.184  30.170  28.177  1.00  0.00     0.010 A 
ATOM     32  C   UNL A   1      38.142  29.408  29.361  1.00  0.00    -0.014 A 
BRANCH  32  33
ATOM     33  C   UNL A   1      39.401  28.987  30.023  1.00  0.00     0.031 A 
ATOM     34  C   UNL A   1      39.844  29.692  31.277  1.00  0.00     0.074 A 
ATOM     35  C   UNL A   1      40.136  27.980  29.515  1.00  0.00     0.049 A 
ATOM     36  N   UNL A   1      40.931  29.517  31.985  1.00  0.00    -0.248 NA
ATOM     37  C   UNL A   1      38.948  30.735  31.803  1.00  0.00     0.031 C 
ATOM     38  C   UNL A   1      39.788  27.192  28.331  1.00  0.00     0.029 A 
ATOM     39  N   UNL A   1      41.333  27.452  29.929  1.00  0.00    -0.354 N 
ATOM     40  C   UNL A   1      40.863  30.442  33.020  1.00  0.00     0.074 A 
ATOM     41  C   UNL A   1      39.639  31.192  32.838  1.00  0.00     0.031 C 
ATOM     42  C   UNL A   1      40.751  26.279  28.117  1.00  0.00     0.029 A 
ATOM     43  C   UNL A   1      41.804  26.448  29.115  1.00  0.00     0.049 A 
ATOM     44  H   UNL A   1      41.809  27.762  30.734  1.00  0.00     0.167 HD
ATOM     45  C   UNL A   1      41.742  30.648  34.029  1.00  0.00     0.031 A 
ATOM     46  C   UNL A   1      42.964  25.762  29.156  1.00  0.00     0.031 A 
ATOM     47  C   UNL A   1      42.959  29.899  34.201  1.00  0.00     0.049 A 
ATOM     48  C   UNL A   1      43.957  26.065  30.248  1.00  0.00     0.074 A 
ATOM     49  C   UNL A   1      43.895  30.005  35.216  1.00  0.00     0.029 A 
ATOM     50  N   UNL A   1      43.418  28.917  33.336  1.00  0.00    -0.354 N 
ATOM     51  N   UNL A   1      43.858  26.912  31.246  1.00  0.00    -0.248 NA
ATOM     52  C   UNL A   1      45.220  25.311  30.224  1.00  0.00     0.031 C 
ATOM     53  C   UNL A   1      44.960  29.150  34.918  1.00  0.00     0.029 A 
ATOM     54  C   UNL A   1      44.646  28.442  33.769  1.00  0.00     0.049 A 
ATOM     55  H   UNL A   1      42.942  28.605  32.533  1.00  0.00     0.167 HD
ATOM     56  C   UNL A   1      45.025  26.761  31.988  1.00  0.00     0.074 A 
ATOM     57  C   UNL A   1      45.807  25.733  31.335  1.00  0.00     0.031 C 
ATOM     58  C   UNL A   1      45.414  27.413  33.113  1.00  0.00     0.031 A 
BRANCH  45  59
ATOM     59  C   UNL A   1      41.452  31.760  35.007  1.00  0.00    -0.014 A 
ATOM     60  C   UNL A   1      41.986  33.050  34.840  1.00  0.00     0.010 A 
ATOM     61  C   UNL A   1      40.568  31.521  36.076  1.00  0.00     0.010 A 
ATOM     62  C   UNL A   1      41.663  34.071  35.739  1.00  0.00     0.020 A 
ATOM     63  C   UNL A   1      40.217  32.546  36.958  1.00  0.00     0.020 A 
ATOM     64  C   UNL A   1      40.776  33.813  36.791  1.00  0.00     0.054 A 
BRANCH  64  65
ATOM     65  S   UNL A   1      40.342  35.169  37.914  1.00  0.00     0.124 S 
ATOM     66  O   UNL A   1      40.277  36.308  37.003  1.00  0.00    -0.237 OA
ATOM     67  O   UNL A   1      39.061  34.729  38.462  1.00  0.00    -0.237 OA
ATOM     68  O   UNL A   1      41.448  35.199  38.869  1.00  0.00    -0.744 OA
ENDBRANCH  64  65
ENDBRANCH  45  59
BRANCH  46  69
ATOM     69  C   UNL A   1      43.266  24.733  28.121  1.00  0.00    -0.014 A 
ATOM     70  C   UNL A   1      42.926  23.385  28.329  1.00  0.00     0.010 A 
ATOM     71  C   UNL A   1      43.923  25.093  26.929  1.00  0.00     0.010 A 
ATOM     72  C   UNL A   1      43.267  22.413  27.384  1.00  0.00     0.020 A 
ATOM     73  C   UNL A   1      44.232  24.130  25.964  1.00  0.00     0.020 A 
ATOM     74  C   UNL A   1      43.915  22.793  26.206  1.00  0.00     0.054 A 
BRANCH  74  75
ATOM     75  S   UNL A   1      44.321  21.517  24.983  1.00  0.00     0.124 S 
ATOM     76  O   UNL A   1      44.152  22.236  23.725  1.00  0.00    -0.237 OA
ATOM     77  O   UNL A   1      45.696  21.172  25.336  1.00  0.00    -0.237 OA
ATOM     78  O   UNL A   1      43.337  20.468  25.242  1.00  0.00    -0.744 OA
ENDBRANCH  74  75
ENDBRANCH  46  69
BRANCH  58  79
ATOM     79  C   UNL A   1      46.719  27.000  33.746  1.00  0.00    -0.014 A 
ATOM     80  C   UNL A   1      46.788  25.957  34.687  1.00  0.00     0.010 A 
ATOM     81  C   UNL A   1      47.910  27.636  33.346  1.00  0.00     0.010 A 
ATOM     82  C   UNL A   1      48.016  25.585  35.242  1.00  0.00     0.020 A 
ATOM     83  C   UNL A   1      49.143  27.242  33.869  1.00  0.00     0.020 A 
ATOM     84  C   UNL A   1      49.187  26.227  34.826  1.00  0.00     0.054 A 
BRANCH  84  85
ATOM     85  S   UNL A   1      50.770  25.694  35.528  1.00  0.00     0.124 S 
ATOM     86  O   UNL A   1      51.590  25.513  34.334  1.00  0.00    -0.237 OA
ATOM     87  O   UNL A   1      51.138  26.824  36.378  1.00  0.00    -0.237 OA
ATOM     88  O   UNL A   1      50.437  24.465  36.246  1.00  0.00    -0.744 OA
ENDBRANCH  84  85
ENDBRANCH  58  79
ENDBRANCH  32  33
ENDBRANCH  25  27
ENDBRANCH  24  25
ENDBRANCH  23  24
ENDBRANCH   1  23
TORSDOF 19
ENDMDL
MODEL 2
REMARK VINA RESULT:      -9.0      2.385      3.550
REMARK SMILES N#Cc1ccc(-c2ccc(F)c(C(=O)OCCOCCOC(=O)c3ccc(-c4c5nc(c(-c6ccc(S(=O)(=O)[O-])cc6)c6ccc([nH]6)c(-c6ccc(S(=O)(=O)[O-])cc6)c6nc(c(-c7ccc(S(=O)(=O)[O-])cc7)c7ccc4[nH]7)C=C6)C=C5)cc3)c2)cc1
REMARK SMILES IDX 19 1 18 2 17 3 16 4 15 5 13 6 14 7 12 8 7 9 8 10 84 11 9 12
REMARK SMILES IDX 10 13 11 14 6 15 3 16 4 17 86 18 5 19 85 20 2 21 1 22 20 23
REMARK SMILES IDX 21 24 22 25 23 26 24 27 25 28 83 29 26 30 82 31 27 32 28 33
REMARK SMILES IDX 29 34 76 35 30 36 81 37 75 38 77 39 31 40 80 41 74 42 73 43
REMARK SMILES IDX 32 45 62 46 43 47 61 48 44 49 47 50 60 51 78 52 45 53 46 54
REMARK SMILES IDX 59 56 79 57 48 58 33 59 34 60 42 61 35 62 41 63 36 64 37 65
REMARK SMILES IDX 38 66 39 67 40 68 63 69 64 70 72 71 65 72 71 73 66 74 67 75
REMARK SMILES IDX 68 76 69 77 70 78 49 79 50 80 58 81 51 82 57 83 52 84 53 85
REMARK SMILES IDX 54 86 55 87 56 88
REMARK H PARENT 77 44 47 55
REMARK Flexibility Score: inf
ROOT
ATOM      1  C   UNL A   1      33.229  33.587  28.090  1.00  0.00     0.202 C 
ENDROOT
BRANCH   1   2
ATOM      2  O   UNL A   1      34.043  34.425  28.906  1.00  0.00    -0.374 OA
BRANCH   2   3
ATOM      3  C   UNL A   1      33.405  35.279  29.854  1.00  0.00     0.202 C 
BRANCH   3   4
ATOM      4  C   UNL A   1      33.778  35.145  31.333  1.00  0.00     0.261 C 
BRANCH   4   5
ATOM      5  O   UNL A   1      35.016  34.446  31.517  1.00  0.00    -0.460 OA
BRANCH   5   6
ATOM      6  C   UNL A   1      34.904  33.238  32.117  1.00  0.00     0.341 C 
ATOM      7  O   UNL A   1      34.263  32.279  31.715  1.00  0.00    -0.246 OA
BRANCH   6   8
ATOM      8  C   UNL A   1      35.851  33.123  33.241  1.00  0.00     0.096 A 
ATOM      9  C   UNL A   1      37.862  32.041  34.102  1.00  0.00    -0.017 A 
ATOM     10  C   UNL A   1      37.696  32.748  35.302  1.00  0.00     0.012 A 
ATOM     11  C   UNL A   1      36.934  32.246  33.073  1.00  0.00     0.027 A 
ATOM     12  C   UNL A   1      36.633  33.644  35.461  1.00  0.00     0.041 A 
ATOM     13  C   UNL A   1      35.714  33.829  34.430  1.00  0.00     0.137 A 
ATOM     14  F   UNL A   1      34.695  34.676  34.627  1.00  0.00    -0.206 F 
BRANCH   9  15
ATOM     15  C   UNL A   1      38.930  31.051  33.934  1.00  0.00    -0.018 A 
ATOM     16  C   UNL A   1      40.981  29.178  33.466  1.00  0.00     0.052 A 
ATOM     17  C   UNL A   1      41.257  30.366  34.148  1.00  0.00     0.020 A 
ATOM     18  C   UNL A   1      39.681  28.920  33.025  1.00  0.00     0.020 A 
ATOM     19  C   UNL A   1      40.238  31.298  34.378  1.00  0.00     0.010 A 
ATOM     20  C   UNL A   1      38.665  29.850  33.260  1.00  0.00     0.010 A 
BRANCH  16  21
ATOM     21  C   UNL A   1      42.025  28.228  33.207  1.00  0.00     0.099 C 
ATOM     22  N   UNL A   1      42.864  27.457  33.001  1.00  0.00    -0.192 NA
ENDBRANCH  16  21
ENDBRANCH   9  15
ENDBRANCH   6   8
ENDBRANCH   5   6
ENDBRANCH   4   5
ENDBRANCH   3   4
ENDBRANCH   2   3
ENDBRANCH   1   2
BRANCH   1  23
ATOM     23  C   UNL A   1      33.845  32.344  27.432  1.00  0.00     0.261 C 
BRANCH  23  24
ATOM     24  O   UNL A   1      33.634  31.127  28.164  1.00  0.00    -0.460 OA
BRANCH  24  25
ATOM     25  C   UNL A   1      34.244  30.042  27.623  1.00  0.00     0.338 C 
ATOM     26  O   UNL A   1      33.802  29.304  26.761  1.00  0.00    -0.246 OA
BRANCH  25  27
ATOM     27  C   UNL A   1      35.639  29.966  28.095  1.00  0.00     0.060 A 
ATOM     28  C   UNL A   1      36.661  30.101  27.145  1.00  0.00     0.016 A 
ATOM     29  C   UNL A   1      35.938  29.682  29.427  1.00  0.00     0.016 A 
ATOM     30  C   UNL A   1      37.988  29.908  27.518  1.00  0.00     0.010 A 
ATOM     31  C   UNL A   1      37.271  29.483  29.797  1.00  0.00     0.010 A 
ATOM     32  C   UNL A   1      38.300  29.559  28.838  1.00  0.00    -0.014 A 
BRANCH  32  33
ATOM     33  C   UNL A   1      39.683  29.160  29.193  1.00  0.00     0.031 A 
ATOM     34  C   UNL A   1      40.581  30.151  29.884  1.00  0.00     0.074 A 
ATOM     35  C   UNL A   1      40.131  27.923  28.909  1.00  0.00     0.049 A 
ATOM     36  N   UNL A   1      41.835  30.026  30.237  1.00  0.00    -0.248 NA
ATOM     37  C   UNL A   1      39.991  31.458  30.218  1.00  0.00     0.031 C 
ATOM     38  C   UNL A   1      39.343  26.861  28.282  1.00  0.00     0.029 A 
ATOM     39  N   UNL A   1      41.363  27.352  29.107  1.00  0.00    -0.354 N 
ATOM     40  C   UNL A   1      42.191  31.243  30.808  1.00  0.00     0.074 A 
ATOM     41  C   UNL A   1      41.028  32.101  30.737  1.00  0.00     0.031 C 
ATOM     42  C   UNL A   1      40.111  25.767  28.150  1.00  0.00     0.029 A 
ATOM     43  C   UNL A   1      41.456  26.063  28.635  1.00  0.00     0.049 A 
ATOM     44  H   UNL A   1      42.110  27.821  29.546  1.00  0.00     0.167 HD
ATOM     45  C   UNL A   1      43.380  31.609  31.343  1.00  0.00     0.031 A 
ATOM     46  C   UNL A   1      42.513  25.228  28.578  1.00  0.00     0.031 A 
ATOM     47  C   UNL A   1      44.533  30.749  31.408  1.00  0.00     0.049 A 
ATOM     48  C   UNL A   1      43.844  25.691  29.114  1.00  0.00     0.074 A 
ATOM     49  C   UNL A   1      45.771  31.016  31.968  1.00  0.00     0.029 A 
ATOM     50  N   UNL A   1      44.599  29.466  30.887  1.00  0.00    -0.354 N 
ATOM     51  N   UNL A   1      44.154  26.828  29.692  1.00  0.00    -0.248 NA
ATOM     52  C   UNL A   1      44.970  24.753  28.995  1.00  0.00     0.031 C 
ATOM     53  C   UNL A   1      46.609  29.928  31.709  1.00  0.00     0.029 A 
ATOM     54  C   UNL A   1      45.869  28.945  31.071  1.00  0.00     0.049 A 
ATOM     55  H   UNL A   1      43.852  28.995  30.450  1.00  0.00     0.167 HD
ATOM     56  C   UNL A   1      45.496  26.723  30.042  1.00  0.00     0.074 A 
ATOM     57  C   UNL A   1      45.935  25.407  29.625  1.00  0.00     0.031 C 
ATOM     58  C   UNL A   1      46.294  27.631  30.657  1.00  0.00     0.031 A 
BRANCH  45  59
ATOM     59  C   UNL A   1      43.520  33.019  31.861  1.00  0.00    -0.014 A 
ATOM     60  C   UNL A   1      43.272  33.342  33.208  1.00  0.00     0.010 A 
ATOM     61  C   UNL A   1      43.978  34.027  30.993  1.00  0.00     0.010 A 
ATOM     62  C   UNL A   1      43.453  34.650  33.667  1.00  0.00     0.020 A 
ATOM     63  C   UNL A   1      44.192  35.329  31.455  1.00  0.00     0.020 A 
ATOM     64  C   UNL A   1      43.917  35.635  32.788  1.00  0.00     0.054 A 
BRANCH  64  65
ATOM     65  S   UNL A   1      44.184  37.312  33.423  1.00  0.00     0.124 S 
ATOM     66  O   UNL A   1      45.463  37.173  34.116  1.00  0.00    -0.237 OA
ATOM     67  O   UNL A   1      44.215  38.113  32.202  1.00  0.00    -0.237 OA
ATOM     68  O   UNL A   1      43.031  37.545  34.289  1.00  0.00    -0.744 OA
ENDBRANCH  64  65
ENDBRANCH  45  59
BRANCH  46  69
ATOM     69  C   UNL A   1      42.370  23.872  27.975  1.00  0.00    -0.014 A 
ATOM     70  C   UNL A   1      42.293  22.729  28.790  1.00  0.00     0.010 A 
ATOM     71  C   UNL A   1      42.337  23.716  26.577  1.00  0.00     0.010 A 
ATOM     72  C   UNL A   1      42.221  21.455  28.219  1.00  0.00     0.020 A 
ATOM     73  C   UNL A   1      42.226  22.446  26.003  1.00  0.00     0.020 A 
ATOM     74  C   UNL A   1      42.186  21.322  26.829  1.00  0.00     0.054 A 
BRANCH  74  75
ATOM     75  S   UNL A   1      42.064  19.660  26.114  1.00  0.00     0.124 S 
ATOM     76  O   UNL A   1      40.654  19.590  25.745  1.00  0.00    -0.237 OA
ATOM     77  O   UNL A   1      43.008  19.729  25.001  1.00  0.00    -0.237 OA
ATOM     78  O   UNL A   1      42.468  18.784  27.212  1.00  0.00    -0.744 OA
ENDBRANCH  74  75
ENDBRANCH  46  69
BRANCH  58  79
ATOM     79  C   UNL A   1      47.712  27.221  30.969  1.00  0.00    -0.014 A 
ATOM     80  C   UNL A   1      48.088  26.773  32.248  1.00  0.00     0.010 A 
ATOM     81  C   UNL A   1      48.674  27.233  29.941  1.00  0.00     0.010 A 
ATOM     82  C   UNL A   1      49.406  26.381  32.501  1.00  0.00     0.020 A 
ATOM     83  C   UNL A   1      49.982  26.807  30.180  1.00  0.00     0.020 A 
ATOM     84  C   UNL A   1      50.344  26.397  31.463  1.00  0.00     0.054 A 
BRANCH  84  85
ATOM     85  S   UNL A   1      52.034  25.841  31.809  1.00  0.00     0.124 S 
ATOM     86  O   UNL A   1      51.862  24.397  31.936  1.00  0.00    -0.237 OA
ATOM     87  O   UNL A   1      52.764  26.285  30.623  1.00  0.00    -0.237 OA
ATOM     88  O   UNL A   1      52.384  26.537  33.045  1.00  0.00    -0.744 OA
ENDBRANCH  84  85
ENDBRANCH  58  79
ENDBRANCH  32  33
ENDBRANCH  25  27
ENDBRANCH  24  25
ENDBRANCH  23  24
ENDBRANCH   1  23
TORSDOF 19
ENDMDL
MODEL 3
REMARK VINA RESULT:      -9.0      5.642     12.670
REMARK SMILES N#Cc1ccc(-c2ccc(F)c(C(=O)OCCOCCOC(=O)c3ccc(-c4c5nc(c(-c6ccc(S(=O)(=O)[O-])cc6)c6ccc([nH]6)c(-c6ccc(S(=O)(=O)[O-])cc6)c6nc(c(-c7ccc(S(=O)(=O)[O-])cc7)c7ccc4[nH]7)C=C6)C=C5)cc3)c2)cc1
REMARK SMILES IDX 19 1 18 2 17 3 16 4 15 5 13 6 14 7 12 8 7 9 8 10 84 11 9 12
REMARK SMILES IDX 10 13 11 14 6 15 3 16 4 17 86 18 5 19 85 20 2 21 1 22 20 23
REMARK SMILES IDX 21 24 22 25 23 26 24 27 25 28 83 29 26 30 82 31 27 32 28 33
REMARK SMILES IDX 29 34 76 35 30 36 81 37 75 38 77 39 31 40 80 41 74 42 73 43
REMARK SMILES IDX 32 45 62 46 43 47 61 48 44 49 47 50 60 51 78 52 45 53 46 54
REMARK SMILES IDX 59 56 79 57 48 58 33 59 34 60 42 61 35 62 41 63 36 64 37 65
REMARK SMILES IDX 38 66 39 67 40 68 63 69 64 70 72 71 65 72 71 73 66 74 67 75
REMARK SMILES IDX 68 76 69 77 70 78 49 79 50 80 58 81 51 82 57 83 52 84 53 85
REMARK SMILES IDX 54 86 55 87 56 88
REMARK H PARENT 77 44 47 55
REMARK Flexibility Score: inf
ROOT
ATOM      1  C   UNL A   1      40.712  21.425  26.316  1.00  0.00     0.202 C 
ENDROOT
BRANCH   1   2
ATOM      2  O   UNL A   1      39.322  21.549  26.602  1.00  0.00    -0.374 OA
BRANCH   2   3
ATOM      3  C   UNL A   1      38.423  21.780  25.519  1.00  0.00     0.202 C 
BRANCH   3   4
ATOM      4  C   UNL A   1      37.696  23.125  25.440  1.00  0.00     0.261 C 
BRANCH   4   5
ATOM      5  O   UNL A   1      36.580  23.085  24.541  1.00  0.00    -0.460 OA
BRANCH   5   6
ATOM      6  C   UNL A   1      35.375  23.296  25.119  1.00  0.00     0.341 C 
ATOM      7  O   UNL A   1      35.112  24.120  25.982  1.00  0.00    -0.246 OA
BRANCH   6   8
ATOM      8  C   UNL A   1      34.319  22.546  24.415  1.00  0.00     0.096 A 
ATOM      9  C   UNL A   1      33.213  20.391  24.111  1.00  0.00    -0.017 A 
ATOM     10  C   UNL A   1      32.405  20.975  23.124  1.00  0.00     0.012 A 
ATOM     11  C   UNL A   1      34.163  21.194  24.756  1.00  0.00     0.027 A 
ATOM     12  C   UNL A   1      32.540  22.330  22.802  1.00  0.00     0.041 A 
ATOM     13  C   UNL A   1      33.496  23.112  23.448  1.00  0.00     0.137 A 
ATOM     14  F   UNL A   1      33.613  24.398  23.096  1.00  0.00    -0.206 F 
BRANCH   9  15
ATOM     15  C   UNL A   1      33.135  18.961  24.423  1.00  0.00    -0.018 A 
ATOM     16  C   UNL A   1      33.131  16.209  25.026  1.00  0.00     0.052 A 
ATOM     17  C   UNL A   1      32.685  17.137  25.973  1.00  0.00     0.020 A 
ATOM     18  C   UNL A   1      33.570  16.654  23.777  1.00  0.00     0.020 A 
ATOM     19  C   UNL A   1      32.690  18.504  25.673  1.00  0.00     0.010 A 
ATOM     20  C   UNL A   1      33.569  18.019  23.479  1.00  0.00     0.010 A 
BRANCH  16  21
ATOM     21  C   UNL A   1      33.151  14.808  25.334  1.00  0.00     0.099 C 
ATOM     22  N   UNL A   1      33.167  13.679  25.590  1.00  0.00    -0.192 NA
ENDBRANCH  16  21
ENDBRANCH   9  15
ENDBRANCH   6   8
ENDBRANCH   5   6
ENDBRANCH   4   5
ENDBRANCH   3   4
ENDBRANCH   2   3
ENDBRANCH   1   2
BRANCH   1  23
ATOM     23  C   UNL A   1      41.597  22.680  26.308  1.00  0.00     0.261 C 
BRANCH  23  24
ATOM     24  O   UNL A   1      40.920  23.878  26.717  1.00  0.00    -0.460 OA
BRANCH  24  25
ATOM     25  C   UNL A   1      41.599  25.020  26.440  1.00  0.00     0.338 C 
ATOM     26  O   UNL A   1      42.319  25.233  25.480  1.00  0.00    -0.246 OA
BRANCH  25  27
ATOM     27  C   UNL A   1      41.201  26.079  27.385  1.00  0.00     0.060 A 
ATOM     28  C   UNL A   1      41.959  27.258  27.407  1.00  0.00     0.016 A 
ATOM     29  C   UNL A   1      40.160  25.887  28.292  1.00  0.00     0.016 A 
ATOM     30  C   UNL A   1      41.705  28.233  28.368  1.00  0.00     0.010 A 
ATOM     31  C   UNL A   1      39.910  26.864  29.259  1.00  0.00     0.010 A 
ATOM     32  C   UNL A   1      40.704  28.026  29.325  1.00  0.00    -0.014 A 
BRANCH  32  33
ATOM     33  C   UNL A   1      40.563  28.964  30.465  1.00  0.00     0.031 A 
ATOM     34  C   UNL A   1      41.452  28.798  31.669  1.00  0.00     0.074 A 
ATOM     35  C   UNL A   1      39.657  29.958  30.424  1.00  0.00     0.049 A 
ATOM     36  N   UNL A   1      41.462  29.473  32.789  1.00  0.00    -0.248 NA
ATOM     37  C   UNL A   1      42.461  27.728  31.604  1.00  0.00     0.031 C 
ATOM     38  C   UNL A   1      38.770  30.248  29.296  1.00  0.00     0.029 A 
ATOM     39  N   UNL A   1      39.329  30.908  31.359  1.00  0.00    -0.354 N 
ATOM     40  C   UNL A   1      42.454  28.895  33.572  1.00  0.00     0.074 A 
ATOM     41  C   UNL A   1      43.012  27.800  32.808  1.00  0.00     0.031 C 
ATOM     42  C   UNL A   1      38.001  31.305  29.606  1.00  0.00     0.029 A 
ATOM     43  C   UNL A   1      38.304  31.736  30.968  1.00  0.00     0.049 A 
ATOM     44  H   UNL A   1      39.786  30.987  32.228  1.00  0.00     0.167 HD
ATOM     45  C   UNL A   1      42.863  29.245  34.815  1.00  0.00     0.031 A 
ATOM     46  C   UNL A   1      37.666  32.715  31.641  1.00  0.00     0.031 A 
ATOM     47  C   UNL A   1      42.300  30.334  35.569  1.00  0.00     0.049 A 
ATOM     48  C   UNL A   1      38.092  33.033  33.052  1.00  0.00     0.074 A 
ATOM     49  C   UNL A   1      42.674  30.794  36.821  1.00  0.00     0.029 A 
ATOM     50  N   UNL A   1      41.240  31.126  35.154  1.00  0.00    -0.354 N 
ATOM     51  N   UNL A   1      39.063  32.506  33.762  1.00  0.00    -0.248 NA
ATOM     52  C   UNL A   1      37.340  34.085  33.751  1.00  0.00     0.031 C 
ATOM     53  C   UNL A   1      41.785  31.804  37.197  1.00  0.00     0.029 A 
ATOM     54  C   UNL A   1      40.916  32.040  36.143  1.00  0.00     0.049 A 
ATOM     55  H   UNL A   1      40.784  31.049  34.285  1.00  0.00     0.167 HD
ATOM     56  C   UNL A   1      39.063  33.193  34.972  1.00  0.00     0.074 A 
ATOM     57  C   UNL A   1      38.007  34.180  34.893  1.00  0.00     0.031 C 
ATOM     58  C   UNL A   1      39.866  33.023  36.052  1.00  0.00     0.031 A 
BRANCH  45  59
ATOM     59  C   UNL A   1      43.940  28.415  35.468  1.00  0.00    -0.014 A 
ATOM     60  C   UNL A   1      43.635  27.278  36.237  1.00  0.00     0.010 A 
ATOM     61  C   UNL A   1      45.290  28.744  35.244  1.00  0.00     0.010 A 
ATOM     62  C   UNL A   1      44.659  26.505  36.793  1.00  0.00     0.020 A 
ATOM     63  C   UNL A   1      46.317  27.955  35.770  1.00  0.00     0.020 A 
ATOM     64  C   UNL A   1      45.994  26.846  36.552  1.00  0.00     0.054 A 
BRANCH  64  65
ATOM     65  S   UNL A   1      47.299  25.798  37.249  1.00  0.00     0.124 S 
ATOM     66  O   UNL A   1      46.946  25.778  38.666  1.00  0.00    -0.237 OA
ATOM     67  O   UNL A   1      47.109  24.537  36.537  1.00  0.00    -0.237 OA
ATOM     68  O   UNL A   1      48.532  26.513  36.925  1.00  0.00    -0.744 OA
ENDBRANCH  64  65
ENDBRANCH  45  59
BRANCH  46  69
ATOM     69  C   UNL A   1      36.541  33.457  31.005  1.00  0.00    -0.014 A 
ATOM     70  C   UNL A   1      35.281  33.520  31.626  1.00  0.00     0.010 A 
ATOM     71  C   UNL A   1      36.717  34.082  29.756  1.00  0.00     0.010 A 
ATOM     72  C   UNL A   1      34.212  34.164  30.996  1.00  0.00     0.020 A 
ATOM     73  C   UNL A   1      35.661  34.760  29.141  1.00  0.00     0.020 A 
ATOM     74  C   UNL A   1      34.409  34.782  29.759  1.00  0.00     0.054 A 
BRANCH  74  75
ATOM     75  S   UNL A   1      33.013  35.635  28.976  1.00  0.00     0.124 S 
ATOM     76  O   UNL A   1      32.264  36.115  30.132  1.00  0.00    -0.237 OA
ATOM     77  O   UNL A   1      33.681  36.663  28.182  1.00  0.00    -0.237 OA
ATOM     78  O   UNL A   1      32.361  34.583  28.200  1.00  0.00    -0.744 OA
ENDBRANCH  74  75
ENDBRANCH  46  69
BRANCH  58  79
ATOM     79  C   UNL A   1      39.677  33.959  37.220  1.00  0.00    -0.014 A 
ATOM     80  C   UNL A   1      38.930  33.588  38.352  1.00  0.00     0.010 A 
ATOM     81  C   UNL A   1      40.310  35.217  37.204  1.00  0.00     0.010 A 
ATOM     82  C   UNL A   1      38.788  34.471  39.427  1.00  0.00     0.020 A 
ATOM     83  C   UNL A   1      40.203  36.086  38.291  1.00  0.00     0.020 A 
ATOM     84  C   UNL A   1      39.430  35.713  39.391  1.00  0.00     0.054 A 
BRANCH  84  85
ATOM     85  S   UNL A   1      39.267  36.820  40.818  1.00  0.00     0.124 S 
ATOM     86  O   UNL A   1      38.467  36.017  41.738  1.00  0.00    -0.237 OA
ATOM     87  O   UNL A   1      40.657  37.033  41.215  1.00  0.00    -0.237 OA
ATOM     88  O   UNL A   1      38.595  37.996  40.271  1.00  0.00    -0.744 OA
ENDBRANCH  84  85
ENDBRANCH  58  79
ENDBRANCH  32  33
ENDBRANCH  25  27
ENDBRANCH  24  25
ENDBRANCH  23  24
ENDBRANCH   1  23
TORSDOF 19
ENDMDL
