MODEL 1
REMARK VINA RESULT:      -9.0      0.000      0.000
REMARK SMILES CCN1C(=O)/C(=C/c2ccccc2O[C@H](C)C(=O)OCCOCCOC(=O)c2ccc(-c3c4nc(c(-c5ccc(S(=O)(=O)[O-])cc5)c5ccc([nH]5)c(-c5ccc(S(=O)(=O)[O-])cc5)c5nc(c(-c6ccc(S(=O)(=O)[O-])cc6)c6ccc3[nH]6)C=C5)C=C4)cc2)S/C1=[NH+]\c1ccc(C)cc1O
REMARK SMILES IDX 21 1 20 2 19 3 17 4 18 5 15 6 16 7 14 8 13 9 8 10 9 11 10 12
REMARK SMILES IDX 12 13 11 14 7 15 3 16 4 17 89 18 5 19 6 20 88 21 90 22 2 24
REMARK SMILES IDX 1 25 91 26 92 27 97 28 93 29 96 30 94 31 95 32 98 33 22 35
REMARK SMILES IDX 23 36 24 37 25 38 26 39 27 40 28 41 29 42 87 43 30 44 86 45
REMARK SMILES IDX 31 46 32 47 33 48 80 49 34 50 85 51 79 52 81 53 35 54 84 55
REMARK SMILES IDX 78 56 77 57 36 59 66 60 47 61 65 62 48 63 51 64 64 65 82 66
REMARK SMILES IDX 49 67 50 68 63 70 83 71 52 72 37 73 38 74 46 75 39 76 45 77
REMARK SMILES IDX 40 78 41 79 42 80 43 81 44 82 67 83 68 84 76 85 69 86 75 87
REMARK SMILES IDX 70 88 71 89 72 90 73 91 74 92 53 93 54 94 62 95 55 96 61 97
REMARK SMILES IDX 56 98 57 99 58 100 59 101 60 102
REMARK H PARENT 90 23 98 34 81 58 51 69
REMARK Flexibility Score: inf
ROOT
ATOM      1  C   UNL A   1      35.285  29.711  27.408  1.00  0.00     0.202 C 
ENDROOT
BRANCH   1   2
ATOM      2  C   UNL A   1      34.318  28.582  27.045  1.00  0.00     0.261 C 
BRANCH   2   3
ATOM      3  O   UNL A   1      32.970  28.943  27.393  1.00  0.00    -0.461 OA
BRANCH   3   4
ATOM      4  C   UNL A   1      32.016  27.974  27.309  1.00  0.00     0.347 C 
ATOM      5  O   UNL A   1      30.985  27.934  27.971  1.00  0.00    -0.248 OA
BRANCH   4   6
ATOM      6  C   UNL A   1      32.354  26.969  26.210  1.00  0.00     0.279 C 
ATOM      7  C   UNL A   1      32.082  25.552  26.710  1.00  0.00     0.066 C 
BRANCH   6   8
ATOM      8  O   UNL A   1      31.580  27.344  25.066  1.00  0.00    -0.478 OA
BRANCH   8   9
ATOM      9  C   UNL A   1      32.321  27.631  23.953  1.00  0.00     0.127 A 
ATOM     10  C   UNL A   1      32.597  26.654  22.989  1.00  0.00     0.018 A 
ATOM     11  C   UNL A   1      33.502  26.961  21.960  1.00  0.00     0.012 A 
ATOM     12  C   UNL A   1      34.118  28.214  21.901  1.00  0.00     0.001 A 
ATOM     13  C   UNL A   1      32.961  28.874  23.906  1.00  0.00     0.047 A 
ATOM     14  C   UNL A   1      33.844  29.173  22.872  1.00  0.00     0.004 A 
BRANCH  10  15
ATOM     15  C   UNL A   1      32.037  25.295  23.031  1.00  0.00     0.036 C 
ATOM     16  N   UNL A   1      32.820  21.953  24.168  1.00  0.00    -0.186 N 
ATOM     17  C   UNL A   1      31.973  22.886  23.598  1.00  0.00     0.348 C 
ATOM     18  C   UNL A   1      34.058  22.403  24.556  1.00  0.00     0.324 C 
ATOM     19  O   UNL A   1      30.806  22.697  23.284  1.00  0.00    -0.240 OA
ATOM     20  C   UNL A   1      32.662  24.200  23.485  1.00  0.00     0.110 C 
ATOM     21  S   UNL A   1      34.266  24.071  24.083  1.00  0.00     0.007 SA
ATOM     22  N   UNL A   1      34.882  21.668  25.229  1.00  0.00    -0.231 N 
ATOM     23  H   UNL A   1      34.606  20.756  25.479  1.00  0.00     0.313 HD
BRANCH  16  24
ATOM     24  C   UNL A   1      32.345  20.598  24.419  1.00  0.00     0.244 C 
ATOM     25  C   UNL A   1      32.407  19.720  23.176  1.00  0.00     0.055 C 
ENDBRANCH  16  24
BRANCH  22  26
ATOM     26  C   UNL A   1      36.161  22.117  25.616  1.00  0.00     0.167 A 
ATOM     27  C   UNL A   1      36.287  23.418  26.111  1.00  0.00     0.056 A 
ATOM     28  C   UNL A   1      37.338  21.375  25.423  1.00  0.00     0.162 A 
ATOM     29  C   UNL A   1      37.541  23.946  26.442  1.00  0.00     0.008 A 
ATOM     30  C   UNL A   1      38.588  21.878  25.782  1.00  0.00     0.054 A 
ATOM     31  C   UNL A   1      38.700  23.173  26.295  1.00  0.00    -0.047 A 
ATOM     32  C   UNL A   1      40.044  23.752  26.622  1.00  0.00     0.044 C 
BRANCH  28  33
ATOM     33  O   UNL A   1      37.320  20.133  24.845  1.00  0.00    -0.504 OA
ATOM     34  H   UNL A   1      37.697  19.402  25.294  1.00  0.00     0.293 HD
ENDBRANCH  28  33
ENDBRANCH  22  26
ENDBRANCH  10  15
ENDBRANCH   8   9
ENDBRANCH   6   8
ENDBRANCH   4   6
ENDBRANCH   3   4
ENDBRANCH   2   3
ENDBRANCH   1   2
BRANCH   1  35
ATOM     35  O   UNL A   1      34.757  31.036  27.297  1.00  0.00    -0.374 OA
BRANCH  35  36
ATOM     36  C   UNL A   1      34.991  31.914  28.395  1.00  0.00     0.202 C 
BRANCH  36  37
ATOM     37  C   UNL A   1      35.734  31.315  29.595  1.00  0.00     0.261 C 
BRANCH  37  38
ATOM     38  O   UNL A   1      36.415  32.316  30.372  1.00  0.00    -0.460 OA
BRANCH  38  39
ATOM     39  C   UNL A   1      35.751  32.708  31.484  1.00  0.00     0.338 C 
ATOM     40  O   UNL A   1      34.536  32.767  31.634  1.00  0.00    -0.246 OA
BRANCH  39  41
ATOM     41  C   UNL A   1      36.690  32.915  32.601  1.00  0.00     0.060 A 
ATOM     42  C   UNL A   1      37.925  33.503  32.300  1.00  0.00     0.016 A 
ATOM     43  C   UNL A   1      36.414  32.469  33.895  1.00  0.00     0.016 A 
ATOM     44  C   UNL A   1      38.911  33.598  33.280  1.00  0.00     0.010 A 
ATOM     45  C   UNL A   1      37.408  32.559  34.877  1.00  0.00     0.010 A 
ATOM     46  C   UNL A   1      38.674  33.088  34.562  1.00  0.00    -0.014 A 
BRANCH  46  47
ATOM     47  C   UNL A   1      39.802  32.973  35.519  1.00  0.00     0.031 A 
ATOM     48  C   UNL A   1      40.711  31.776  35.434  1.00  0.00     0.074 A 
ATOM     49  C   UNL A   1      40.039  33.938  36.425  1.00  0.00     0.049 A 
ATOM     50  N   UNL A   1      41.743  31.467  36.176  1.00  0.00    -0.248 NA
ATOM     51  C   UNL A   1      40.418  30.799  34.373  1.00  0.00     0.031 C 
ATOM     52  C   UNL A   1      39.259  35.167  36.576  1.00  0.00     0.029 A 
ATOM     53  N   UNL A   1      41.007  34.033  37.393  1.00  0.00    -0.354 N 
ATOM     54  C   UNL A   1      42.216  30.257  35.680  1.00  0.00     0.074 A 
ATOM     55  C   UNL A   1      41.344  29.876  34.589  1.00  0.00     0.031 C 
ATOM     56  C   UNL A   1      39.777  35.890  37.584  1.00  0.00     0.029 A 
ATOM     57  C   UNL A   1      40.902  35.161  38.170  1.00  0.00     0.049 A 
ATOM     58  H   UNL A   1      41.711  33.356  37.518  1.00  0.00     0.167 HD
ATOM     59  C   UNL A   1      43.281  29.529  36.092  1.00  0.00     0.031 A 
ATOM     60  C   UNL A   1      41.616  35.554  39.244  1.00  0.00     0.031 A 
ATOM     61  C   UNL A   1      44.143  29.906  37.181  1.00  0.00     0.049 A 
ATOM     62  C   UNL A   1      42.756  34.696  39.726  1.00  0.00     0.074 A 
ATOM     63  C   UNL A   1      45.259  29.244  37.662  1.00  0.00     0.029 A 
ATOM     64  N   UNL A   1      43.981  31.039  37.963  1.00  0.00    -0.354 N 
ATOM     65  N   UNL A   1      43.205  33.567  39.231  1.00  0.00    -0.248 NA
ATOM     66  C   UNL A   1      43.492  35.170  40.908  1.00  0.00     0.031 C 
ATOM     67  C   UNL A   1      45.740  29.949  38.770  1.00  0.00     0.029 A 
ATOM     68  C   UNL A   1      44.959  31.081  38.942  1.00  0.00     0.049 A 
ATOM     69  H   UNL A   1      43.274  31.714  37.842  1.00  0.00     0.167 HD
ATOM     70  C   UNL A   1      44.290  33.209  40.026  1.00  0.00     0.074 A 
ATOM     71  C   UNL A   1      44.437  34.246  41.025  1.00  0.00     0.031 C 
ATOM     72  C   UNL A   1      45.095  32.121  39.931  1.00  0.00     0.031 A 
BRANCH  59  73
ATOM     73  C   UNL A   1      43.553  28.230  35.384  1.00  0.00    -0.014 A 
ATOM     74  C   UNL A   1      42.843  27.059  35.706  1.00  0.00     0.010 A 
ATOM     75  C   UNL A   1      44.508  28.189  34.351  1.00  0.00     0.010 A 
ATOM     76  C   UNL A   1      43.110  25.862  35.033  1.00  0.00     0.020 A 
ATOM     77  C   UNL A   1      44.760  27.002  33.659  1.00  0.00     0.020 A 
ATOM     78  C   UNL A   1      44.070  25.841  34.016  1.00  0.00     0.054 A 
BRANCH  78  79
ATOM     79  S   UNL A   1      44.382  24.282  33.144  1.00  0.00     0.124 S 
ATOM     80  O   UNL A   1      45.756  23.984  33.544  1.00  0.00    -0.237 OA
ATOM     81  O   UNL A   1      43.361  23.395  33.697  1.00  0.00    -0.237 OA
ATOM     82  O   UNL A   1      44.205  24.629  31.737  1.00  0.00    -0.744 OA
ENDBRANCH  78  79
ENDBRANCH  59  73
BRANCH  60  83
ATOM     83  C   UNL A   1      41.256  36.812  39.953  1.00  0.00    -0.014 A 
ATOM     84  C   UNL A   1      41.794  38.045  39.550  1.00  0.00     0.010 A 
ATOM     85  C   UNL A   1      40.358  36.778  41.037  1.00  0.00     0.010 A 
ATOM     86  C   UNL A   1      41.451  39.222  40.226  1.00  0.00     0.020 A 
ATOM     87  C   UNL A   1      39.993  37.954  41.697  1.00  0.00     0.020 A 
ATOM     88  C   UNL A   1      40.550  39.168  41.293  1.00  0.00     0.054 A 
BRANCH  88  89
ATOM     89  S   UNL A   1      40.076  40.713  42.119  1.00  0.00     0.124 S 
ATOM     90  O   UNL A   1      39.645  41.538  40.996  1.00  0.00    -0.237 OA
ATOM     91  O   UNL A   1      39.018  40.275  43.026  1.00  0.00    -0.237 OA
ATOM     92  O   UNL A   1      41.310  41.142  42.775  1.00  0.00    -0.744 OA
ENDBRANCH  88  89
ENDBRANCH  60  83
BRANCH  72  93
ATOM     93  C   UNL A   1      46.232  32.005  40.912  1.00  0.00    -0.014 A 
ATOM     94  C   UNL A   1      46.081  31.310  42.125  1.00  0.00     0.010 A 
ATOM     95  C   UNL A   1      47.489  32.542  40.580  1.00  0.00     0.010 A 
ATOM     96  C   UNL A   1      47.164  31.174  42.999  1.00  0.00     0.020 A 
ATOM     97  C   UNL A   1      48.580  32.386  41.440  1.00  0.00     0.020 A 
ATOM     98  C   UNL A   1      48.407  31.713  42.650  1.00  0.00     0.054 A 
BRANCH  98  99
ATOM     99  S   UNL A   1      49.810  31.478  43.777  1.00  0.00     0.124 S 
ATOM    100  O   UNL A   1      50.604  32.678  43.529  1.00  0.00    -0.237 OA
ATOM    101  O   UNL A   1      49.162  31.412  45.086  1.00  0.00    -0.237 OA
ATOM    102  O   UNL A   1      50.413  30.227  43.323  1.00  0.00    -0.744 OA
ENDBRANCH  98  99
ENDBRANCH  72  93
ENDBRANCH  46  47
ENDBRANCH  39  41
ENDBRANCH  38  39
ENDBRANCH  37  38
ENDBRANCH  36  37
ENDBRANCH  35  36
ENDBRANCH   1  35
TORSDOF 23
ENDMDL
MODEL 2
REMARK VINA RESULT:      -9.0      7.020     12.130
REMARK SMILES CCN1C(=O)/C(=C/c2ccccc2O[C@H](C)C(=O)OCCOCCOC(=O)c2ccc(-c3c4nc(c(-c5ccc(S(=O)(=O)[O-])cc5)c5ccc([nH]5)c(-c5ccc(S(=O)(=O)[O-])cc5)c5nc(c(-c6ccc(S(=O)(=O)[O-])cc6)c6ccc3[nH]6)C=C5)C=C4)cc2)S/C1=[NH+]\c1ccc(C)cc1O
REMARK SMILES IDX 21 1 20 2 19 3 17 4 18 5 15 6 16 7 14 8 13 9 8 10 9 11 10 12
REMARK SMILES IDX 12 13 11 14 7 15 3 16 4 17 89 18 5 19 6 20 88 21 90 22 2 24
REMARK SMILES IDX 1 25 91 26 92 27 97 28 93 29 96 30 94 31 95 32 98 33 22 35
REMARK SMILES IDX 23 36 24 37 25 38 26 39 27 40 28 41 29 42 87 43 30 44 86 45
REMARK SMILES IDX 31 46 32 47 33 48 80 49 34 50 85 51 79 52 81 53 35 54 84 55
REMARK SMILES IDX 78 56 77 57 36 59 66 60 47 61 65 62 48 63 51 64 64 65 82 66
REMARK SMILES IDX 49 67 50 68 63 70 83 71 52 72 37 73 38 74 46 75 39 76 45 77
REMARK SMILES IDX 40 78 41 79 42 80 43 81 44 82 67 83 68 84 76 85 69 86 75 87
REMARK SMILES IDX 70 88 71 89 72 90 73 91 74 92 53 93 54 94 62 95 55 96 61 97
REMARK SMILES IDX 56 98 57 99 58 100 59 101 60 102
REMARK H PARENT 90 23 98 34 81 58 51 69
REMARK Flexibility Score: inf
ROOT
ATOM      1  C   UNL A   1      39.093  32.149  31.367  1.00  0.00     0.202 C 
ENDROOT
BRANCH   1   2
ATOM      2  C   UNL A   1      39.764  30.780  31.499  1.00  0.00     0.261 C 
BRANCH   2   3
ATOM      3  O   UNL A   1      39.444  29.952  30.367  1.00  0.00    -0.461 OA
BRANCH   3   4
ATOM      4  C   UNL A   1      39.360  28.607  30.574  1.00  0.00     0.347 C 
ATOM      5  O   UNL A   1      38.630  28.059  31.392  1.00  0.00    -0.248 OA
BRANCH   4   6
ATOM      6  C   UNL A   1      40.241  27.847  29.585  1.00  0.00     0.279 C 
ATOM      7  C   UNL A   1      39.362  27.130  28.562  1.00  0.00     0.066 C 
BRANCH   6   8
ATOM      8  O   UNL A   1      41.135  28.809  29.015  1.00  0.00    -0.478 OA
BRANCH   8   9
ATOM      9  C   UNL A   1      41.578  28.494  27.761  1.00  0.00     0.127 A 
ATOM     10  C   UNL A   1      42.665  27.632  27.567  1.00  0.00     0.018 A 
ATOM     11  C   UNL A   1      43.182  27.483  26.270  1.00  0.00     0.012 A 
ATOM     12  C   UNL A   1      42.627  28.184  25.195  1.00  0.00     0.001 A 
ATOM     13  C   UNL A   1      41.045  29.215  26.686  1.00  0.00     0.047 A 
ATOM     14  C   UNL A   1      41.556  29.046  25.403  1.00  0.00     0.004 A 
BRANCH  10  15
ATOM     15  C   UNL A   1      43.338  26.919  28.663  1.00  0.00     0.036 C 
ATOM     16  N   UNL A   1      43.775  23.596  30.020  1.00  0.00    -0.186 N 
ATOM     17  C   UNL A   1      44.033  24.955  29.999  1.00  0.00     0.348 C 
ATOM     18  C   UNL A   1      42.902  23.122  29.071  1.00  0.00     0.324 C 
ATOM     19  O   UNL A   1      44.851  25.539  30.695  1.00  0.00    -0.240 OA
ATOM     20  C   UNL A   1      43.221  25.613  28.940  1.00  0.00     0.110 C 
ATOM     21  S   UNL A   1      42.242  24.448  28.147  1.00  0.00     0.007 SA
ATOM     22  N   UNL A   1      42.691  21.858  28.895  1.00  0.00    -0.231 N 
ATOM     23  H   UNL A   1      43.182  21.215  29.456  1.00  0.00     0.313 HD
BRANCH  16  24
ATOM     24  C   UNL A   1      44.490  22.734  30.952  1.00  0.00     0.244 C 
ATOM     25  C   UNL A   1      44.315  23.170  32.401  1.00  0.00     0.055 C 
ENDBRANCH  16  24
BRANCH  22  26
ATOM     26  C   UNL A   1      41.785  21.365  27.934  1.00  0.00     0.167 A 
ATOM     27  C   UNL A   1      40.760  22.206  27.494  1.00  0.00     0.056 A 
ATOM     28  C   UNL A   1      41.780  20.035  27.480  1.00  0.00     0.162 A 
ATOM     29  C   UNL A   1      39.786  21.748  26.597  1.00  0.00     0.008 A 
ATOM     30  C   UNL A   1      40.837  19.580  26.560  1.00  0.00     0.054 A 
ATOM     31  C   UNL A   1      39.827  20.436  26.111  1.00  0.00    -0.047 A 
ATOM     32  C   UNL A   1      38.766  19.940  25.175  1.00  0.00     0.044 C 
BRANCH  28  33
ATOM     33  O   UNL A   1      42.684  19.114  27.939  1.00  0.00    -0.504 OA
ATOM     34  H   UNL A   1      43.330  19.365  28.569  1.00  0.00     0.293 HD
ENDBRANCH  28  33
ENDBRANCH  22  26
ENDBRANCH  10  15
ENDBRANCH   8   9
ENDBRANCH   6   8
ENDBRANCH   4   6
ENDBRANCH   3   4
ENDBRANCH   2   3
ENDBRANCH   1   2
BRANCH   1  35
ATOM     35  O   UNL A   1      38.999  32.909  32.576  1.00  0.00    -0.374 OA
BRANCH  35  36
ATOM     36  C   UNL A   1      37.840  32.698  33.378  1.00  0.00     0.202 C 
BRANCH  36  37
ATOM     37  C   UNL A   1      38.036  31.848  34.640  1.00  0.00     0.261 C 
BRANCH  37  38
ATOM     38  O   UNL A   1      39.423  31.574  34.905  1.00  0.00    -0.460 OA
BRANCH  38  39
ATOM     39  C   UNL A   1      39.645  30.431  35.595  1.00  0.00     0.338 C 
ATOM     40  O   UNL A   1      38.914  29.928  36.441  1.00  0.00    -0.246 OA
BRANCH  39  41
ATOM     41  C   UNL A   1      40.841  29.741  35.082  1.00  0.00     0.060 A 
ATOM     42  C   UNL A   1      42.088  30.285  35.416  1.00  0.00     0.016 A 
ATOM     43  C   UNL A   1      40.754  28.641  34.227  1.00  0.00     0.016 A 
ATOM     44  C   UNL A   1      43.251  29.768  34.850  1.00  0.00     0.010 A 
ATOM     45  C   UNL A   1      41.923  28.126  33.653  1.00  0.00     0.010 A 
ATOM     46  C   UNL A   1      43.172  28.713  33.932  1.00  0.00    -0.014 A 
BRANCH  46  47
ATOM     47  C   UNL A   1      44.377  28.332  33.155  1.00  0.00     0.031 A 
ATOM     48  C   UNL A   1      44.662  29.038  31.857  1.00  0.00     0.074 A 
ATOM     49  C   UNL A   1      45.229  27.398  33.618  1.00  0.00     0.049 A 
ATOM     50  N   UNL A   1      45.645  28.856  31.015  1.00  0.00    -0.248 NA
ATOM     51  C   UNL A   1      43.713  30.090  31.458  1.00  0.00     0.031 C 
ATOM     52  C   UNL A   1      45.088  26.677  34.883  1.00  0.00     0.029 A 
ATOM     53  N   UNL A   1      46.383  26.897  33.071  1.00  0.00    -0.354 N 
ATOM     54  C   UNL A   1      45.429  29.759  29.980  1.00  0.00     0.074 A 
ATOM     55  C   UNL A   1      44.209  30.473  30.289  1.00  0.00     0.031 C 
ATOM     56  C   UNL A   1      46.115  25.819  35.011  1.00  0.00     0.029 A 
ATOM     57  C   UNL A   1      46.966  25.907  33.824  1.00  0.00     0.049 A 
ATOM     58  H   UNL A   1      46.759  27.218  32.219  1.00  0.00     0.167 HD
ATOM     59  C   UNL A   1      46.180  29.978  28.874  1.00  0.00     0.031 A 
ATOM     60  C   UNL A   1      48.049  25.143  33.579  1.00  0.00     0.031 A 
ATOM     61  C   UNL A   1      47.389  29.263  28.565  1.00  0.00     0.049 A 
ATOM     62  C   UNL A   1      48.832  25.359  32.310  1.00  0.00     0.074 A 
ATOM     63  C   UNL A   1      48.230  29.426  27.478  1.00  0.00     0.029 A 
ATOM     64  N   UNL A   1      47.926  28.245  29.338  1.00  0.00    -0.354 N 
ATOM     65  N   UNL A   1      48.627  26.234  31.354  1.00  0.00    -0.248 NA
ATOM     66  C   UNL A   1      49.997  24.489  32.091  1.00  0.00     0.031 C 
ATOM     67  C   UNL A   1      49.246  28.468  27.565  1.00  0.00     0.029 A 
ATOM     68  C   UNL A   1      49.071  27.749  28.737  1.00  0.00     0.049 A 
ATOM     69  H   UNL A   1      47.549  27.920  30.188  1.00  0.00     0.167 HD
ATOM     70  C   UNL A   1      49.652  26.036  30.433  1.00  0.00     0.074 A 
ATOM     71  C   UNL A   1      50.480  24.968  30.952  1.00  0.00     0.031 C 
ATOM     72  C   UNL A   1      49.887  26.685  29.265  1.00  0.00     0.031 A 
BRANCH  59  73
ATOM     73  C   UNL A   1      45.692  31.012  27.895  1.00  0.00    -0.014 A 
ATOM     74  C   UNL A   1      44.651  30.731  26.992  1.00  0.00     0.010 A 
ATOM     75  C   UNL A   1      46.260  32.300  27.906  1.00  0.00     0.010 A 
ATOM     76  C   UNL A   1      44.212  31.708  26.093  1.00  0.00     0.020 A 
ATOM     77  C   UNL A   1      45.807  33.286  27.027  1.00  0.00     0.020 A 
ATOM     78  C   UNL A   1      44.796  32.978  26.113  1.00  0.00     0.054 A 
BRANCH  78  79
ATOM     79  S   UNL A   1      44.194  34.233  24.951  1.00  0.00     0.124 S 
ATOM     80  O   UNL A   1      45.210  35.275  25.080  1.00  0.00    -0.237 OA
ATOM     81  O   UNL A   1      44.188  33.516  23.679  1.00  0.00    -0.237 OA
ATOM     82  O   UNL A   1      42.875  34.583  25.471  1.00  0.00    -0.744 OA
ENDBRANCH  78  79
ENDBRANCH  59  73
BRANCH  60  83
ATOM     83  C   UNL A   1      48.443  24.083  34.547  1.00  0.00    -0.014 A 
ATOM     84  C   UNL A   1      49.422  24.328  35.524  1.00  0.00     0.010 A 
ATOM     85  C   UNL A   1      47.827  22.818  34.496  1.00  0.00     0.010 A 
ATOM     86  C   UNL A   1      49.787  23.323  36.427  1.00  0.00     0.020 A 
ATOM     87  C   UNL A   1      48.170  21.821  35.413  1.00  0.00     0.020 A 
ATOM     88  C   UNL A   1      49.156  22.078  36.367  1.00  0.00     0.054 A 
BRANCH  88  89
ATOM     89  S   UNL A   1      49.605  20.808  37.584  1.00  0.00     0.124 S 
ATOM     90  O   UNL A   1      50.851  20.286  37.033  1.00  0.00    -0.237 OA
ATOM     91  O   UNL A   1      49.732  21.583  38.816  1.00  0.00    -0.237 OA
ATOM     92  O   UNL A   1      48.471  19.887  37.550  1.00  0.00    -0.744 OA
ENDBRANCH  88  89
ENDBRANCH  60  83
BRANCH  72  93
ATOM     93  C   UNL A   1      51.108  26.287  28.477  1.00  0.00    -0.014 A 
ATOM     94  C   UNL A   1      51.008  25.450  27.352  1.00  0.00     0.010 A 
ATOM     95  C   UNL A   1      52.363  26.816  28.830  1.00  0.00     0.010 A 
ATOM     96  C   UNL A   1      52.148  25.132  26.607  1.00  0.00     0.020 A 
ATOM     97  C   UNL A   1      53.499  26.520  28.073  1.00  0.00     0.020 A 
ATOM     98  C   UNL A   1      53.386  25.670  26.973  1.00  0.00     0.054 A 
BRANCH  98  99
ATOM     99  S   UNL A   1      54.841  25.284  25.959  1.00  0.00     0.124 S 
ATOM    100  O   UNL A   1      54.311  25.411  24.605  1.00  0.00    -0.237 OA
ATOM    101  O   UNL A   1      55.795  26.317  26.360  1.00  0.00    -0.237 OA
ATOM    102  O   UNL A   1      55.196  23.926  26.365  1.00  0.00    -0.744 OA
ENDBRANCH  98  99
ENDBRANCH  72  93
ENDBRANCH  46  47
ENDBRANCH  39  41
ENDBRANCH  38  39
ENDBRANCH  37  38
ENDBRANCH  36  37
ENDBRANCH  35  36
ENDBRANCH   1  35
TORSDOF 23
ENDMDL
MODEL 3
REMARK VINA RESULT:      -8.7      5.062     10.315
REMARK SMILES CCN1C(=O)/C(=C/c2ccccc2O[C@H](C)C(=O)OCCOCCOC(=O)c2ccc(-c3c4nc(c(-c5ccc(S(=O)(=O)[O-])cc5)c5ccc([nH]5)c(-c5ccc(S(=O)(=O)[O-])cc5)c5nc(c(-c6ccc(S(=O)(=O)[O-])cc6)c6ccc3[nH]6)C=C5)C=C4)cc2)S/C1=[NH+]\c1ccc(C)cc1O
REMARK SMILES IDX 21 1 20 2 19 3 17 4 18 5 15 6 16 7 14 8 13 9 8 10 9 11 10 12
REMARK SMILES IDX 12 13 11 14 7 15 3 16 4 17 89 18 5 19 6 20 88 21 90 22 2 24
REMARK SMILES IDX 1 25 91 26 92 27 97 28 93 29 96 30 94 31 95 32 98 33 22 35
REMARK SMILES IDX 23 36 24 37 25 38 26 39 27 40 28 41 29 42 87 43 30 44 86 45
REMARK SMILES IDX 31 46 32 47 33 48 80 49 34 50 85 51 79 52 81 53 35 54 84 55
REMARK SMILES IDX 78 56 77 57 36 59 66 60 47 61 65 62 48 63 51 64 64 65 82 66
REMARK SMILES IDX 49 67 50 68 63 70 83 71 52 72 37 73 38 74 46 75 39 76 45 77
REMARK SMILES IDX 40 78 41 79 42 80 43 81 44 82 67 83 68 84 76 85 69 86 75 87
REMARK SMILES IDX 70 88 71 89 72 90 73 91 74 92 53 93 54 94 62 95 55 96 61 97
REMARK SMILES IDX 56 98 57 99 58 100 59 101 60 102
REMARK H PARENT 90 23 98 34 81 58 51 69
REMARK Flexibility Score: inf
ROOT
ATOM      1  C   UNL A   1      35.201  29.632  27.315  1.00  0.00     0.202 C 
ENDROOT
BRANCH   1   2
ATOM      2  C   UNL A   1      34.245  28.456  27.103  1.00  0.00     0.261 C 
BRANCH   2   3
ATOM      3  O   UNL A   1      32.885  28.865  27.330  1.00  0.00    -0.461 OA
BRANCH   3   4
ATOM      4  C   UNL A   1      31.917  27.910  27.247  1.00  0.00     0.347 C 
ATOM      5  O   UNL A   1      30.875  27.897  27.893  1.00  0.00    -0.248 OA
BRANCH   4   6
ATOM      6  C   UNL A   1      32.254  26.884  26.168  1.00  0.00     0.279 C 
ATOM      7  C   UNL A   1      31.971  25.478  26.691  1.00  0.00     0.066 C 
BRANCH   6   8
ATOM      8  O   UNL A   1      31.490  27.243  25.012  1.00  0.00    -0.478 OA
BRANCH   8   9
ATOM      9  C   UNL A   1      32.240  27.553  23.912  1.00  0.00     0.127 A 
ATOM     10  C   UNL A   1      32.560  26.585  22.952  1.00  0.00     0.018 A 
ATOM     11  C   UNL A   1      33.473  26.920  21.938  1.00  0.00     0.012 A 
ATOM     12  C   UNL A   1      34.055  28.190  21.892  1.00  0.00     0.001 A 
ATOM     13  C   UNL A   1      32.846  28.814  23.877  1.00  0.00     0.047 A 
ATOM     14  C   UNL A   1      33.737  29.139  22.858  1.00  0.00     0.004 A 
BRANCH  10  15
ATOM     15  C   UNL A   1      32.038  25.211  22.983  1.00  0.00     0.036 C 
ATOM     16  N   UNL A   1      32.901  21.889  24.119  1.00  0.00    -0.186 N 
ATOM     17  C   UNL A   1      32.035  22.800  23.542  1.00  0.00     0.348 C 
ATOM     18  C   UNL A   1      34.121  22.372  24.524  1.00  0.00     0.324 C 
ATOM     19  O   UNL A   1      30.878  22.579  23.213  1.00  0.00    -0.240 OA
ATOM     20  C   UNL A   1      32.688  24.133  23.441  1.00  0.00     0.110 C 
ATOM     21  S   UNL A   1      34.288  24.046  24.058  1.00  0.00     0.007 SA
ATOM     22  N   UNL A   1      34.957  21.658  25.204  1.00  0.00    -0.231 N 
ATOM     23  H   UNL A   1      34.703  20.738  25.449  1.00  0.00     0.313 HD
BRANCH  16  24
ATOM     24  C   UNL A   1      32.461  20.520  24.361  1.00  0.00     0.244 C 
ATOM     25  C   UNL A   1      32.427  19.687  23.086  1.00  0.00     0.055 C 
ENDBRANCH  16  24
BRANCH  22  26
ATOM     26  C   UNL A   1      36.218  22.141  25.609  1.00  0.00     0.167 A 
ATOM     27  C   UNL A   1      36.301  23.442  26.113  1.00  0.00     0.056 A 
ATOM     28  C   UNL A   1      37.418  21.435  25.425  1.00  0.00     0.162 A 
ATOM     29  C   UNL A   1      37.535  24.005  26.461  1.00  0.00     0.008 A 
ATOM     30  C   UNL A   1      38.649  21.972  25.801  1.00  0.00     0.054 A 
ATOM     31  C   UNL A   1      38.717  23.267  26.323  1.00  0.00    -0.047 A 
ATOM     32  C   UNL A   1      40.040  23.882  26.668  1.00  0.00     0.044 C 
BRANCH  28  33
ATOM     33  O   UNL A   1      37.442  20.196  24.840  1.00  0.00    -0.504 OA
ATOM     34  H   UNL A   1      37.835  19.474  25.288  1.00  0.00     0.293 HD
ENDBRANCH  28  33
ENDBRANCH  22  26
ENDBRANCH  10  15
ENDBRANCH   8   9
ENDBRANCH   6   8
ENDBRANCH   4   6
ENDBRANCH   3   4
ENDBRANCH   2   3
ENDBRANCH   1   2
BRANCH   1  35
ATOM     35  O   UNL A   1      34.582  30.881  27.634  1.00  0.00    -0.374 OA
BRANCH  35  36
ATOM     36  C   UNL A   1      35.131  31.609  28.729  1.00  0.00     0.202 C 
BRANCH  36  37
ATOM     37  C   UNL A   1      36.227  30.899  29.533  1.00  0.00     0.261 C 
BRANCH  37  38
ATOM     38  O   UNL A   1      37.345  31.760  29.811  1.00  0.00    -0.460 OA
BRANCH  38  39
ATOM     39  C   UNL A   1      37.636  31.891  31.127  1.00  0.00     0.338 C 
ATOM     40  O   UNL A   1      36.848  32.127  32.036  1.00  0.00    -0.246 OA
BRANCH  39  41
ATOM     41  C   UNL A   1      39.046  31.546  31.382  1.00  0.00     0.060 A 
ATOM     42  C   UNL A   1      40.007  32.100  30.528  1.00  0.00     0.016 A 
ATOM     43  C   UNL A   1      39.420  30.637  32.374  1.00  0.00     0.016 A 
ATOM     44  C   UNL A   1      41.339  31.705  30.624  1.00  0.00     0.010 A 
ATOM     45  C   UNL A   1      40.758  30.236  32.466  1.00  0.00     0.010 A 
ATOM     46  C   UNL A   1      41.716  30.739  31.565  1.00  0.00    -0.014 A 
BRANCH  46  47
ATOM     47  C   UNL A   1      43.076  30.150  31.499  1.00  0.00     0.031 A 
ATOM     48  C   UNL A   1      44.198  30.822  32.244  1.00  0.00     0.074 A 
ATOM     49  C   UNL A   1      43.301  29.011  30.820  1.00  0.00     0.049 A 
ATOM     50  N   UNL A   1      45.461  30.490  32.312  1.00  0.00    -0.248 NA
ATOM     51  C   UNL A   1      43.850  32.028  33.013  1.00  0.00     0.031 C 
ATOM     52  C   UNL A   1      42.288  28.241  30.099  1.00  0.00     0.029 A 
ATOM     53  N   UNL A   1      44.463  28.305  30.628  1.00  0.00    -0.354 N 
ATOM     54  C   UNL A   1      46.061  31.449  33.120  1.00  0.00     0.074 A 
ATOM     55  C   UNL A   1      45.029  32.389  33.499  1.00  0.00     0.031 C 
ATOM     56  C   UNL A   1      42.875  27.171  29.534  1.00  0.00     0.029 A 
ATOM     57  C   UNL A   1      44.309  27.198  29.827  1.00  0.00     0.049 A 
ATOM     58  H   UNL A   1      45.324  28.566  31.026  1.00  0.00     0.167 HD
ATOM     59  C   UNL A   1      47.354  31.537  33.515  1.00  0.00     0.031 A 
ATOM     60  C   UNL A   1      45.220  26.319  29.365  1.00  0.00     0.031 A 
ATOM     61  C   UNL A   1      48.380  30.605  33.131  1.00  0.00     0.049 A 
ATOM     62  C   UNL A   1      46.664  26.475  29.764  1.00  0.00     0.074 A 
ATOM     63  C   UNL A   1      49.716  30.599  33.495  1.00  0.00     0.029 A 
ATOM     64  N   UNL A   1      48.189  29.518  32.292  1.00  0.00    -0.354 N 
ATOM     65  N   UNL A   1      47.210  27.374  30.547  1.00  0.00    -0.248 NA
ATOM     66  C   UNL A   1      47.614  25.493  29.220  1.00  0.00     0.031 C 
ATOM     67  C   UNL A   1      50.344  29.541  32.831  1.00  0.00     0.029 A 
ATOM     68  C   UNL A   1      49.388  28.851  32.102  1.00  0.00     0.049 A 
ATOM     69  H   UNL A   1      47.329  29.259  31.889  1.00  0.00     0.167 HD
ATOM     70  C   UNL A   1      48.563  27.050  30.611  1.00  0.00     0.074 A 
ATOM     71  C   UNL A   1      48.748  25.868  29.797  1.00  0.00     0.031 C 
ATOM     72  C   UNL A   1      49.559  27.674  31.288  1.00  0.00     0.031 A 
BRANCH  59  73
ATOM     73  C   UNL A   1      47.739  32.707  34.379  1.00  0.00    -0.014 A 
ATOM     74  C   UNL A   1      48.153  33.928  33.817  1.00  0.00     0.010 A 
ATOM     75  C   UNL A   1      47.648  32.594  35.779  1.00  0.00     0.010 A 
ATOM     76  C   UNL A   1      48.504  35.003  34.640  1.00  0.00     0.020 A 
ATOM     77  C   UNL A   1      47.974  33.674  36.605  1.00  0.00     0.020 A 
ATOM     78  C   UNL A   1      48.416  34.867  36.028  1.00  0.00     0.054 A 
BRANCH  78  79
ATOM     79  S   UNL A   1      48.857  36.283  37.073  1.00  0.00     0.124 S 
ATOM     80  O   UNL A   1      48.688  35.731  38.415  1.00  0.00    -0.237 OA
ATOM     81  O   UNL A   1      50.235  36.559  36.675  1.00  0.00    -0.237 OA
ATOM     82  O   UNL A   1      47.887  37.308  36.695  1.00  0.00    -0.744 OA
ENDBRANCH  78  79
ENDBRANCH  59  73
BRANCH  60  83
ATOM     83  C   UNL A   1      44.795  25.224  28.451  1.00  0.00    -0.014 A 
ATOM     84  C   UNL A   1      44.451  23.959  28.954  1.00  0.00     0.010 A 
ATOM     85  C   UNL A   1      44.726  25.451  27.063  1.00  0.00     0.010 A 
ATOM     86  C   UNL A   1      44.056  22.935  28.085  1.00  0.00     0.020 A 
ATOM     87  C   UNL A   1      44.306  24.440  26.195  1.00  0.00     0.020 A 
ATOM     88  C   UNL A   1      43.984  23.184  26.712  1.00  0.00     0.054 A 
BRANCH  88  89
ATOM     89  S   UNL A   1      43.415  21.859  25.609  1.00  0.00     0.124 S 
ATOM     90  O   UNL A   1      42.291  21.305  26.355  1.00  0.00    -0.237 OA
ATOM     91  O   UNL A   1      43.068  22.589  24.391  1.00  0.00    -0.237 OA
ATOM     92  O   UNL A   1      44.582  20.987  25.493  1.00  0.00    -0.744 OA
ENDBRANCH  88  89
ENDBRANCH  60  83
BRANCH  72  93
ATOM     93  C   UNL A   1      50.939  27.076  31.209  1.00  0.00    -0.014 A 
ATOM     94  C   UNL A   1      51.849  27.471  30.214  1.00  0.00     0.010 A 
ATOM     95  C   UNL A   1      51.352  26.157  32.191  1.00  0.00     0.010 A 
ATOM     96  C   UNL A   1      53.141  26.938  30.188  1.00  0.00     0.020 A 
ATOM     97  C   UNL A   1      52.651  25.641  32.183  1.00  0.00     0.020 A 
ATOM     98  C   UNL A   1      53.534  26.027  31.174  1.00  0.00     0.054 A 
BRANCH  98  99
ATOM     99  S   UNL A   1      55.233  25.390  31.150  1.00  0.00     0.124 S 
ATOM    100  O   UNL A   1      55.070  24.065  31.742  1.00  0.00    -0.237 OA
ATOM    101  O   UNL A   1      55.561  25.406  29.726  1.00  0.00    -0.237 OA
ATOM    102  O   UNL A   1      55.975  26.349  31.965  1.00  0.00    -0.744 OA
ENDBRANCH  98  99
ENDBRANCH  72  93
ENDBRANCH  46  47
ENDBRANCH  39  41
ENDBRANCH  38  39
ENDBRANCH  37  38
ENDBRANCH  36  37
ENDBRANCH  35  36
ENDBRANCH   1  35
TORSDOF 23
ENDMDL
