MODEL 1
REMARK VINA RESULT:     -11.6      0.000      0.000
REMARK SMILES Cc1ccc(C(=O)OCCOCCOC(=O)c2ccc(-c3c4nc(c(-c5ccc(S(=O)(=O)[O-])cc5)c5ccc([nH]5)c(-c5ccc(S(=O)(=O)[O-])cc5)c5nc(c(-c6ccc(S(=O)(=O)[O-])cc6)c6ccc3[nH]6)C=C5)C=C4)cc2)c(Oc2cccc(F)c2C(N)=O)c1
REMARK SMILES IDX 11 1 10 2 9 3 8 4 6 5 7 6 5 7 1 8 2 9 3 10 89 11 4 12 77 13
REMARK SMILES IDX 78 14 79 15 80 16 85 17 81 18 83 19 82 20 84 21 86 22 87 23
REMARK SMILES IDX 88 24 12 27 13 28 14 29 15 30 16 31 17 32 18 33 76 34 19 35
REMARK SMILES IDX 75 36 20 37 21 38 22 39 69 40 23 41 74 42 68 43 70 44 24 45
REMARK SMILES IDX 73 46 67 47 66 48 25 50 55 51 36 52 54 53 37 54 40 55 53 56
REMARK SMILES IDX 71 57 38 58 39 59 52 61 72 62 41 63 26 64 27 65 35 66 28 67
REMARK SMILES IDX 34 68 29 69 30 70 31 71 32 72 33 73 56 74 57 75 65 76 58 77
REMARK SMILES IDX 64 78 59 79 60 80 61 81 62 82 63 83 42 84 43 85 51 86 44 87
REMARK SMILES IDX 50 88 45 89 46 90 47 91 48 92 49 93
REMARK H PARENT 87 25 87 26 70 49 40 60
REMARK Flexibility Score: inf
ROOT
ATOM      1  O   UNL A   1      32.153  26.800  25.465  1.00  0.00    -0.374 OA
ENDROOT
BRANCH   1   2
ATOM      2  C   UNL A   1      30.802  26.619  25.872  1.00  0.00     0.202 C 
BRANCH   2   3
ATOM      3  C   UNL A   1      30.645  25.142  25.974  1.00  0.00     0.261 C 
BRANCH   3   4
ATOM      4  O   UNL A   1      31.916  24.496  25.766  1.00  0.00    -0.460 OA
BRANCH   4   5
ATOM      5  C   UNL A   1      32.473  23.660  26.685  1.00  0.00     0.342 C 
ATOM      6  O   UNL A   1      31.995  23.230  27.709  1.00  0.00    -0.246 OA
BRANCH   5   7
ATOM      7  C   UNL A   1      33.767  23.193  26.120  1.00  0.00     0.102 A 
ATOM      8  C   UNL A   1      37.729  21.784  25.295  1.00  0.00     0.044 C 
ATOM      9  C   UNL A   1      36.335  22.288  25.509  1.00  0.00    -0.047 A 
ATOM     10  C   UNL A   1      36.124  23.630  25.855  1.00  0.00     0.004 A 
ATOM     11  C   UNL A   1      35.241  21.419  25.385  1.00  0.00     0.051 A 
ATOM     12  C   UNL A   1      34.842  24.086  26.154  1.00  0.00     0.020 A 
ATOM     13  C   UNL A   1      33.957  21.867  25.689  1.00  0.00     0.142 A 
BRANCH  13  14
ATOM     14  O   UNL A   1      32.820  21.113  25.548  1.00  0.00    -0.455 OA
BRANCH  14  15
ATOM     15  C   UNL A   1      32.549  20.366  24.437  1.00  0.00     0.143 A 
ATOM     16  C   UNL A   1      32.672  18.989  24.684  1.00  0.00     0.048 A 
ATOM     17  C   UNL A   1      32.319  20.832  23.134  1.00  0.00     0.117 A 
ATOM     18  C   UNL A   1      32.510  18.063  23.661  1.00  0.00     0.007 A 
ATOM     19  C   UNL A   1      32.143  19.883  22.119  1.00  0.00     0.139 A 
ATOM     20  C   UNL A   1      32.233  18.514  22.377  1.00  0.00     0.040 A 
ATOM     21  F   UNL A   1      31.922  20.255  20.850  1.00  0.00    -0.206 F 
BRANCH  17  22
ATOM     22  C   UNL A   1      32.271  22.256  22.732  1.00  0.00     0.255 C 
ATOM     23  N   UNL A   1      31.223  22.997  23.185  1.00  0.00    -0.365 N 
ATOM     24  O   UNL A   1      33.138  22.764  22.032  1.00  0.00    -0.269 OA
ATOM     25  H   UNL A   1      30.533  22.579  23.748  1.00  0.00     0.159 HD
ATOM     26  H   UNL A   1      31.156  23.951  22.950  1.00  0.00     0.159 HD
ENDBRANCH  17  22
ENDBRANCH  14  15
ENDBRANCH  13  14
ENDBRANCH   5   7
ENDBRANCH   4   5
ENDBRANCH   3   4
ENDBRANCH   2   3
ENDBRANCH   1   2
BRANCH   1  27
ATOM     27  C   UNL A   1      32.443  28.024  24.838  1.00  0.00     0.202 C 
BRANCH  27  28
ATOM     28  C   UNL A   1      33.840  28.548  25.177  1.00  0.00     0.261 C 
BRANCH  28  29
ATOM     29  O   UNL A   1      34.144  28.321  26.572  1.00  0.00    -0.460 OA
BRANCH  29  30
ATOM     30  C   UNL A   1      34.091  29.412  27.397  1.00  0.00     0.338 C 
ATOM     31  O   UNL A   1      33.066  30.017  27.651  1.00  0.00    -0.246 OA
BRANCH  30  32
ATOM     32  C   UNL A   1      35.446  29.721  27.949  1.00  0.00     0.060 A 
ATOM     33  C   UNL A   1      36.537  30.035  27.114  1.00  0.00     0.016 A 
ATOM     34  C   UNL A   1      35.666  29.490  29.301  1.00  0.00     0.016 A 
ATOM     35  C   UNL A   1      37.855  29.979  27.608  1.00  0.00     0.010 A 
ATOM     36  C   UNL A   1      36.958  29.330  29.751  1.00  0.00     0.010 A 
ATOM     37  C   UNL A   1      38.068  29.555  28.916  1.00  0.00    -0.014 A 
BRANCH  37  38
ATOM     38  C   UNL A   1      39.350  29.240  29.567  1.00  0.00     0.031 A 
ATOM     39  C   UNL A   1      39.976  27.940  29.204  1.00  0.00     0.074 A 
ATOM     40  C   UNL A   1      40.108  30.226  30.115  1.00  0.00     0.049 A 
ATOM     41  N   UNL A   1      41.081  27.504  29.691  1.00  0.00    -0.248 NA
ATOM     42  C   UNL A   1      39.392  26.996  28.244  1.00  0.00     0.031 C 
ATOM     43  C   UNL A   1      41.570  30.312  30.186  1.00  0.00     0.029 A 
ATOM     44  N   UNL A   1      39.721  31.418  30.734  1.00  0.00    -0.354 N 
ATOM     45  C   UNL A   1      41.546  26.532  28.835  1.00  0.00     0.074 A 
ATOM     46  C   UNL A   1      40.402  26.142  28.055  1.00  0.00     0.031 C 
ATOM     47  C   UNL A   1      41.929  31.289  31.042  1.00  0.00     0.029 A 
ATOM     48  C   UNL A   1      40.710  31.792  31.652  1.00  0.00     0.049 A 
ATOM     49  H   UNL A   1      38.888  31.913  30.553  1.00  0.00     0.167 HD
ATOM     50  C   UNL A   1      42.890  26.314  28.776  1.00  0.00     0.031 A 
ATOM     51  C   UNL A   1      40.410  31.897  32.974  1.00  0.00     0.031 A 
ATOM     52  C   UNL A   1      43.585  27.088  29.817  1.00  0.00     0.049 A 
ATOM     53  C   UNL A   1      41.178  30.815  33.677  1.00  0.00     0.074 A 
ATOM     54  C   UNL A   1      44.432  28.183  29.785  1.00  0.00     0.029 A 
ATOM     55  N   UNL A   1      43.168  26.957  31.142  1.00  0.00    -0.354 N 
ATOM     56  N   UNL A   1      41.538  29.715  33.069  1.00  0.00    -0.248 NA
ATOM     57  C   UNL A   1      41.756  30.938  35.011  1.00  0.00     0.031 C 
ATOM     58  C   UNL A   1      44.421  28.776  31.084  1.00  0.00     0.029 A 
ATOM     59  C   UNL A   1      43.588  28.029  31.906  1.00  0.00     0.049 A 
ATOM     60  H   UNL A   1      42.641  26.200  31.487  1.00  0.00     0.167 HD
ATOM     61  C   UNL A   1      42.501  29.100  33.801  1.00  0.00     0.074 A 
ATOM     62  C   UNL A   1      42.542  29.845  35.051  1.00  0.00     0.031 C 
ATOM     63  C   UNL A   1      43.273  28.083  33.330  1.00  0.00     0.031 A 
BRANCH  50  64
ATOM     64  C   UNL A   1      43.611  25.599  27.646  1.00  0.00    -0.014 A 
ATOM     65  C   UNL A   1      43.718  24.192  27.682  1.00  0.00     0.010 A 
ATOM     66  C   UNL A   1      44.251  26.228  26.558  1.00  0.00     0.010 A 
ATOM     67  C   UNL A   1      44.430  23.466  26.712  1.00  0.00     0.020 A 
ATOM     68  C   UNL A   1      44.957  25.517  25.572  1.00  0.00     0.020 A 
ATOM     69  C   UNL A   1      45.045  24.134  25.658  1.00  0.00     0.054 A 
BRANCH  69  70
ATOM     70  S   UNL A   1      45.940  23.181  24.404  1.00  0.00     0.124 S 
ATOM     71  O   UNL A   1      46.928  24.144  23.924  1.00  0.00    -0.237 OA
ATOM     72  O   UNL A   1      46.472  22.063  25.178  1.00  0.00    -0.237 OA
ATOM     73  O   UNL A   1      44.906  22.824  23.434  1.00  0.00    -0.744 OA
ENDBRANCH  69  70
ENDBRANCH  50  64
BRANCH  51  74
ATOM     74  C   UNL A   1      39.013  32.407  33.194  1.00  0.00    -0.014 A 
ATOM     75  C   UNL A   1      38.729  33.697  32.675  1.00  0.00     0.010 A 
ATOM     76  C   UNL A   1      37.935  31.518  33.364  1.00  0.00     0.010 A 
ATOM     77  C   UNL A   1      37.460  34.018  32.170  1.00  0.00     0.020 A 
ATOM     78  C   UNL A   1      36.658  31.838  32.855  1.00  0.00     0.020 A 
ATOM     79  C   UNL A   1      36.446  33.061  32.209  1.00  0.00     0.054 A 
BRANCH  79  80
ATOM     80  S   UNL A   1      34.963  33.333  31.178  1.00  0.00     0.124 S 
ATOM     81  O   UNL A   1      33.929  32.629  31.927  1.00  0.00    -0.237 OA
ATOM     82  O   UNL A   1      34.847  34.792  31.167  1.00  0.00    -0.237 OA
ATOM     83  O   UNL A   1      35.329  32.741  29.895  1.00  0.00    -0.744 OA
ENDBRANCH  79  80
ENDBRANCH  51  74
BRANCH  63  84
ATOM     84  C   UNL A   1      43.857  27.050  34.239  1.00  0.00    -0.014 A 
ATOM     85  C   UNL A   1      43.074  26.338  35.161  1.00  0.00     0.010 A 
ATOM     86  C   UNL A   1      45.187  26.624  34.034  1.00  0.00     0.010 A 
ATOM     87  C   UNL A   1      43.621  25.304  35.915  1.00  0.00     0.020 A 
ATOM     88  C   UNL A   1      45.724  25.550  34.737  1.00  0.00     0.020 A 
ATOM     89  C   UNL A   1      44.945  24.924  35.703  1.00  0.00     0.054 A 
BRANCH  89  90
ATOM     90  S   UNL A   1      45.629  23.581  36.691  1.00  0.00     0.124 S 
ATOM     91  O   UNL A   1      45.089  22.410  36.004  1.00  0.00    -0.237 OA
ATOM     92  O   UNL A   1      47.071  23.781  36.552  1.00  0.00    -0.237 OA
ATOM     93  O   UNL A   1      45.096  23.827  38.028  1.00  0.00    -0.744 OA
ENDBRANCH  89  90
ENDBRANCH  63  84
ENDBRANCH  37  38
ENDBRANCH  30  32
ENDBRANCH  29  30
ENDBRANCH  28  29
ENDBRANCH  27  28
ENDBRANCH   1  27
TORSDOF 20
ENDMDL
MODEL 2
REMARK VINA RESULT:     -11.1      1.419      2.328
REMARK SMILES Cc1ccc(C(=O)OCCOCCOC(=O)c2ccc(-c3c4nc(c(-c5ccc(S(=O)(=O)[O-])cc5)c5ccc([nH]5)c(-c5ccc(S(=O)(=O)[O-])cc5)c5nc(c(-c6ccc(S(=O)(=O)[O-])cc6)c6ccc3[nH]6)C=C5)C=C4)cc2)c(Oc2cccc(F)c2C(N)=O)c1
REMARK SMILES IDX 11 1 10 2 9 3 8 4 6 5 7 6 5 7 1 8 2 9 3 10 89 11 4 12 77 13
REMARK SMILES IDX 78 14 79 15 80 16 85 17 81 18 83 19 82 20 84 21 86 22 87 23
REMARK SMILES IDX 88 24 12 27 13 28 14 29 15 30 16 31 17 32 18 33 76 34 19 35
REMARK SMILES IDX 75 36 20 37 21 38 22 39 69 40 23 41 74 42 68 43 70 44 24 45
REMARK SMILES IDX 73 46 67 47 66 48 25 50 55 51 36 52 54 53 37 54 40 55 53 56
REMARK SMILES IDX 71 57 38 58 39 59 52 61 72 62 41 63 26 64 27 65 35 66 28 67
REMARK SMILES IDX 34 68 29 69 30 70 31 71 32 72 33 73 56 74 57 75 65 76 58 77
REMARK SMILES IDX 64 78 59 79 60 80 61 81 62 82 63 83 42 84 43 85 51 86 44 87
REMARK SMILES IDX 50 88 45 89 46 90 47 91 48 92 49 93
REMARK H PARENT 87 25 87 26 70 49 40 60
REMARK Flexibility Score: inf
ROOT
ATOM      1  O   UNL A   1      32.252  28.424  22.842  1.00  0.00    -0.374 OA
ENDROOT
BRANCH   1   2
ATOM      2  C   UNL A   1      31.628  27.357  22.138  1.00  0.00     0.202 C 
BRANCH   2   3
ATOM      3  C   UNL A   1      32.708  26.345  21.975  1.00  0.00     0.261 C 
BRANCH   3   4
ATOM      4  O   UNL A   1      32.417  25.180  22.770  1.00  0.00    -0.460 OA
BRANCH   4   5
ATOM      5  C   UNL A   1      33.261  24.720  23.735  1.00  0.00     0.342 C 
ATOM      6  O   UNL A   1      34.451  24.896  23.849  1.00  0.00    -0.246 OA
BRANCH   5   7
ATOM      7  C   UNL A   1      32.419  24.076  24.778  1.00  0.00     0.102 A 
ATOM      8  C   UNL A   1      29.354  22.532  27.344  1.00  0.00     0.044 C 
ATOM      9  C   UNL A   1      30.477  23.048  26.498  1.00  0.00    -0.047 A 
ATOM     10  C   UNL A   1      30.851  24.397  26.582  1.00  0.00     0.004 A 
ATOM     11  C   UNL A   1      31.143  22.194  25.606  1.00  0.00     0.051 A 
ATOM     12  C   UNL A   1      31.825  24.911  25.730  1.00  0.00     0.020 A 
ATOM     13  C   UNL A   1      32.114  22.704  24.747  1.00  0.00     0.142 A 
BRANCH  13  14
ATOM     14  O   UNL A   1      32.857  21.943  23.880  1.00  0.00    -0.455 OA
BRANCH  14  15
ATOM     15  C   UNL A   1      33.825  21.069  24.289  1.00  0.00     0.143 A 
ATOM     16  C   UNL A   1      35.049  21.714  24.527  1.00  0.00     0.048 A 
ATOM     17  C   UNL A   1      33.739  19.671  24.345  1.00  0.00     0.117 A 
ATOM     18  C   UNL A   1      36.181  20.988  24.879  1.00  0.00     0.007 A 
ATOM     19  C   UNL A   1      34.886  18.958  24.716  1.00  0.00     0.139 A 
ATOM     20  C   UNL A   1      36.093  19.606  24.985  1.00  0.00     0.040 A 
ATOM     21  F   UNL A   1      34.879  17.618  24.789  1.00  0.00    -0.206 F 
BRANCH  17  22
ATOM     22  C   UNL A   1      32.535  18.875  24.017  1.00  0.00     0.255 C 
ATOM     23  N   UNL A   1      32.084  18.927  22.734  1.00  0.00    -0.365 N 
ATOM     24  O   UNL A   1      31.964  18.184  24.852  1.00  0.00    -0.269 OA
ATOM     25  H   UNL A   1      32.551  19.485  22.071  1.00  0.00     0.159 HD
ATOM     26  H   UNL A   1      31.292  18.405  22.469  1.00  0.00     0.159 HD
ENDBRANCH  17  22
ENDBRANCH  14  15
ENDBRANCH  13  14
ENDBRANCH   5   7
ENDBRANCH   4   5
ENDBRANCH   3   4
ENDBRANCH   2   3
ENDBRANCH   1   2
BRANCH   1  27
ATOM     27  C   UNL A   1      32.273  28.301  24.241  1.00  0.00     0.202 C 
BRANCH  27  28
ATOM     28  C   UNL A   1      32.935  29.496  24.932  1.00  0.00     0.261 C 
BRANCH  28  29
ATOM     29  O   UNL A   1      34.012  29.054  25.789  1.00  0.00    -0.460 OA
BRANCH  29  30
ATOM     30  C   UNL A   1      33.904  29.362  27.119  1.00  0.00     0.338 C 
ATOM     31  O   UNL A   1      32.855  29.331  27.734  1.00  0.00    -0.246 OA
BRANCH  30  32
ATOM     32  C   UNL A   1      35.243  29.702  27.691  1.00  0.00     0.060 A 
ATOM     33  C   UNL A   1      36.347  30.012  26.873  1.00  0.00     0.016 A 
ATOM     34  C   UNL A   1      35.438  29.504  29.052  1.00  0.00     0.016 A 
ATOM     35  C   UNL A   1      37.655  29.985  27.395  1.00  0.00     0.010 A 
ATOM     36  C   UNL A   1      36.722  29.372  29.532  1.00  0.00     0.010 A 
ATOM     37  C   UNL A   1      37.846  29.594  28.716  1.00  0.00    -0.014 A 
BRANCH  37  38
ATOM     38  C   UNL A   1      39.118  29.311  29.400  1.00  0.00     0.031 A 
ATOM     39  C   UNL A   1      39.765  28.009  29.085  1.00  0.00     0.074 A 
ATOM     40  C   UNL A   1      39.855  30.320  29.935  1.00  0.00     0.049 A 
ATOM     41  N   UNL A   1      40.865  27.599  29.606  1.00  0.00    -0.248 NA
ATOM     42  C   UNL A   1      39.210  27.032  28.141  1.00  0.00     0.031 C 
ATOM     43  C   UNL A   1      41.314  30.425  30.033  1.00  0.00     0.029 A 
ATOM     44  N   UNL A   1      39.442  31.524  30.513  1.00  0.00    -0.354 N 
ATOM     45  C   UNL A   1      41.357  26.609  28.786  1.00  0.00     0.074 A 
ATOM     46  C   UNL A   1      40.233  26.185  27.995  1.00  0.00     0.031 C 
ATOM     47  C   UNL A   1      41.645  31.429  30.868  1.00  0.00     0.029 A 
ATOM     48  C   UNL A   1      40.409  31.935  31.440  1.00  0.00     0.049 A 
ATOM     49  H   UNL A   1      38.608  32.005  30.303  1.00  0.00     0.167 HD
ATOM     50  C   UNL A   1      42.705  26.404  28.760  1.00  0.00     0.031 A 
ATOM     51  C   UNL A   1      40.082  32.072  32.753  1.00  0.00     0.031 A 
ATOM     52  C   UNL A   1      43.370  27.214  29.792  1.00  0.00     0.049 A 
ATOM     53  C   UNL A   1      40.847  31.019  33.500  1.00  0.00     0.074 A 
ATOM     54  C   UNL A   1      44.206  28.318  29.747  1.00  0.00     0.029 A 
ATOM     55  N   UNL A   1      42.928  27.116  31.112  1.00  0.00    -0.354 N 
ATOM     56  N   UNL A   1      41.232  29.907  32.929  1.00  0.00    -0.248 NA
ATOM     57  C   UNL A   1      41.398  31.185  34.841  1.00  0.00     0.031 C 
ATOM     58  C   UNL A   1      44.163  28.946  31.028  1.00  0.00     0.029 A 
ATOM     59  C   UNL A   1      43.321  28.212  31.854  1.00  0.00     0.049 A 
ATOM     60  H   UNL A   1      42.403  26.362  31.468  1.00  0.00     0.167 HD
ATOM     61  C   UNL A   1      42.186  29.323  33.697  1.00  0.00     0.074 A 
ATOM     62  C   UNL A   1      42.195  30.102  34.927  1.00  0.00     0.031 C 
ATOM     63  C   UNL A   1      42.978  28.302  33.270  1.00  0.00     0.031 A 
BRANCH  50  64
ATOM     64  C   UNL A   1      43.455  25.667  27.664  1.00  0.00    -0.014 A 
ATOM     65  C   UNL A   1      44.007  24.399  27.945  1.00  0.00     0.010 A 
ATOM     66  C   UNL A   1      43.709  26.166  26.369  1.00  0.00     0.010 A 
ATOM     67  C   UNL A   1      44.775  23.687  27.007  1.00  0.00     0.020 A 
ATOM     68  C   UNL A   1      44.464  25.462  25.415  1.00  0.00     0.020 A 
ATOM     69  C   UNL A   1      44.998  24.223  25.742  1.00  0.00     0.054 A 
BRANCH  69  70
ATOM     70  S   UNL A   1      45.970  23.284  24.538  1.00  0.00     0.124 S 
ATOM     71  O   UNL A   1      46.983  24.253  24.128  1.00  0.00    -0.237 OA
ATOM     72  O   UNL A   1      46.457  22.160  25.334  1.00  0.00    -0.237 OA
ATOM     73  O   UNL A   1      44.999  22.932  23.503  1.00  0.00    -0.744 OA
ENDBRANCH  69  70
ENDBRANCH  50  64
BRANCH  51  74
ATOM     74  C   UNL A   1      38.675  32.572  32.931  1.00  0.00    -0.014 A 
ATOM     75  C   UNL A   1      38.423  33.898  32.492  1.00  0.00     0.010 A 
ATOM     76  C   UNL A   1      37.588  31.679  32.976  1.00  0.00     0.010 A 
ATOM     77  C   UNL A   1      37.184  34.261  31.942  1.00  0.00     0.020 A 
ATOM     78  C   UNL A   1      36.343  32.042  32.422  1.00  0.00     0.020 A 
ATOM     79  C   UNL A   1      36.169  33.310  31.855  1.00  0.00     0.054 A 
BRANCH  79  80
ATOM     80  S   UNL A   1      34.745  33.663  30.766  1.00  0.00     0.124 S 
ATOM     81  O   UNL A   1      34.347  32.330  30.331  1.00  0.00    -0.237 OA
ATOM     82  O   UNL A   1      33.811  34.334  31.672  1.00  0.00    -0.237 OA
ATOM     83  O   UNL A   1      35.315  34.522  29.732  1.00  0.00    -0.744 OA
ENDBRANCH  79  80
ENDBRANCH  51  74
BRANCH  63  84
ATOM     84  C   UNL A   1      43.555  27.301  34.218  1.00  0.00    -0.014 A 
ATOM     85  C   UNL A   1      42.751  26.400  34.934  1.00  0.00     0.010 A 
ATOM     86  C   UNL A   1      44.953  27.107  34.250  1.00  0.00     0.010 A 
ATOM     87  C   UNL A   1      43.320  25.406  35.724  1.00  0.00     0.020 A 
ATOM     88  C   UNL A   1      45.528  26.076  34.986  1.00  0.00     0.020 A 
ATOM     89  C   UNL A   1      44.705  25.257  35.750  1.00  0.00     0.054 A 
BRANCH  89  90
ATOM     90  S   UNL A   1      45.417  23.960  36.778  1.00  0.00     0.124 S 
ATOM     91  O   UNL A   1      44.831  24.267  38.081  1.00  0.00    -0.237 OA
ATOM     92  O   UNL A   1      44.927  22.739  36.141  1.00  0.00    -0.237 OA
ATOM     93  O   UNL A   1      46.856  24.181  36.669  1.00  0.00    -0.744 OA
ENDBRANCH  89  90
ENDBRANCH  63  84
ENDBRANCH  37  38
ENDBRANCH  30  32
ENDBRANCH  29  30
ENDBRANCH  28  29
ENDBRANCH  27  28
ENDBRANCH   1  27
TORSDOF 20
ENDMDL
MODEL 3
REMARK VINA RESULT:     -11.1      2.191      3.200
REMARK SMILES Cc1ccc(C(=O)OCCOCCOC(=O)c2ccc(-c3c4nc(c(-c5ccc(S(=O)(=O)[O-])cc5)c5ccc([nH]5)c(-c5ccc(S(=O)(=O)[O-])cc5)c5nc(c(-c6ccc(S(=O)(=O)[O-])cc6)c6ccc3[nH]6)C=C5)C=C4)cc2)c(Oc2cccc(F)c2C(N)=O)c1
REMARK SMILES IDX 11 1 10 2 9 3 8 4 6 5 7 6 5 7 1 8 2 9 3 10 89 11 4 12 77 13
REMARK SMILES IDX 78 14 79 15 80 16 85 17 81 18 83 19 82 20 84 21 86 22 87 23
REMARK SMILES IDX 88 24 12 27 13 28 14 29 15 30 16 31 17 32 18 33 76 34 19 35
REMARK SMILES IDX 75 36 20 37 21 38 22 39 69 40 23 41 74 42 68 43 70 44 24 45
REMARK SMILES IDX 73 46 67 47 66 48 25 50 55 51 36 52 54 53 37 54 40 55 53 56
REMARK SMILES IDX 71 57 38 58 39 59 52 61 72 62 41 63 26 64 27 65 35 66 28 67
REMARK SMILES IDX 34 68 29 69 30 70 31 71 32 72 33 73 56 74 57 75 65 76 58 77
REMARK SMILES IDX 64 78 59 79 60 80 61 81 62 82 63 83 42 84 43 85 51 86 44 87
REMARK SMILES IDX 50 88 45 89 46 90 47 91 48 92 49 93
REMARK H PARENT 87 25 87 26 70 49 40 60
REMARK Flexibility Score: inf
ROOT
ATOM      1  O   UNL A   1      31.444  29.256  26.402  1.00  0.00    -0.374 OA
ENDROOT
BRANCH   1   2
ATOM      2  C   UNL A   1      31.901  28.412  27.452  1.00  0.00     0.202 C 
BRANCH   2   3
ATOM      3  C   UNL A   1      32.364  27.180  26.756  1.00  0.00     0.261 C 
BRANCH   3   4
ATOM      4  O   UNL A   1      31.308  26.201  26.731  1.00  0.00    -0.460 OA
BRANCH   4   5
ATOM      5  C   UNL A   1      31.539  24.879  26.502  1.00  0.00     0.342 C 
ATOM      6  O   UNL A   1      31.371  23.939  27.244  1.00  0.00    -0.246 OA
BRANCH   5   7
ATOM      7  C   UNL A   1      31.884  24.741  25.062  1.00  0.00     0.102 A 
ATOM      8  C   UNL A   1      32.888  25.181  20.919  1.00  0.00     0.044 C 
ATOM      9  C   UNL A   1      32.530  24.952  22.356  1.00  0.00    -0.047 A 
ATOM     10  C   UNL A   1      31.206  25.133  22.781  1.00  0.00     0.004 A 
ATOM     11  C   UNL A   1      33.515  24.578  23.281  1.00  0.00     0.051 A 
ATOM     12  C   UNL A   1      30.879  25.020  24.131  1.00  0.00     0.020 A 
ATOM     13  C   UNL A   1      33.197  24.471  24.633  1.00  0.00     0.142 A 
BRANCH  13  14
ATOM     14  O   UNL A   1      34.074  24.061  25.605  1.00  0.00    -0.455 OA
BRANCH  14  15
ATOM     15  C   UNL A   1      34.943  23.020  25.440  1.00  0.00     0.143 A 
ATOM     16  C   UNL A   1      36.276  23.454  25.363  1.00  0.00     0.048 A 
ATOM     17  C   UNL A   1      34.624  21.674  25.212  1.00  0.00     0.117 A 
ATOM     18  C   UNL A   1      37.306  22.553  25.121  1.00  0.00     0.007 A 
ATOM     19  C   UNL A   1      35.676  20.779  24.984  1.00  0.00     0.139 A 
ATOM     20  C   UNL A   1      37.004  21.210  24.942  1.00  0.00     0.040 A 
ATOM     21  F   UNL A   1      35.446  19.477  24.756  1.00  0.00    -0.206 F 
BRANCH  17  22
ATOM     22  C   UNL A   1      33.252  21.117  25.165  1.00  0.00     0.255 C 
ATOM     23  N   UNL A   1      32.495  21.232  26.290  1.00  0.00    -0.365 N 
ATOM     24  O   UNL A   1      32.800  20.583  24.160  1.00  0.00    -0.269 OA
ATOM     25  H   UNL A   1      32.867  21.664  27.092  1.00  0.00     0.159 HD
ATOM     26  H   UNL A   1      31.573  20.884  26.300  1.00  0.00     0.159 HD
ENDBRANCH  17  22
ENDBRANCH  14  15
ENDBRANCH  13  14
ENDBRANCH   5   7
ENDBRANCH   4   5
ENDBRANCH   3   4
ENDBRANCH   2   3
ENDBRANCH   1   2
BRANCH   1  27
ATOM     27  C   UNL A   1      32.134  30.471  26.253  1.00  0.00     0.202 C 
BRANCH  27  28
ATOM     28  C   UNL A   1      33.144  30.721  27.375  1.00  0.00     0.261 C 
BRANCH  28  29
ATOM     29  O   UNL A   1      34.495  30.680  26.862  1.00  0.00    -0.460 OA
BRANCH  29  30
ATOM     30  C   UNL A   1      35.464  31.254  27.639  1.00  0.00     0.338 C 
ATOM     31  O   UNL A   1      35.519  32.446  27.877  1.00  0.00    -0.246 OA
BRANCH  30  32
ATOM     32  C   UNL A   1      36.403  30.215  28.163  1.00  0.00     0.060 A 
ATOM     33  C   UNL A   1      36.274  29.681  29.460  1.00  0.00     0.016 A 
ATOM     34  C   UNL A   1      37.542  29.932  27.419  1.00  0.00     0.016 A 
ATOM     35  C   UNL A   1      37.343  28.982  30.056  1.00  0.00     0.010 A 
ATOM     36  C   UNL A   1      38.620  29.346  28.043  1.00  0.00     0.010 A 
ATOM     37  C   UNL A   1      38.547  28.877  29.367  1.00  0.00    -0.014 A 
BRANCH  37  38
ATOM     38  C   UNL A   1      39.834  28.370  29.870  1.00  0.00     0.031 A 
ATOM     39  C   UNL A   1      40.237  27.013  29.412  1.00  0.00     0.074 A 
ATOM     40  C   UNL A   1      40.771  29.225  30.357  1.00  0.00     0.049 A 
ATOM     41  N   UNL A   1      41.317  26.416  29.768  1.00  0.00    -0.248 NA
ATOM     42  C   UNL A   1      39.435  26.191  28.498  1.00  0.00     0.031 C 
ATOM     43  C   UNL A   1      42.230  29.113  30.275  1.00  0.00     0.029 A 
ATOM     44  N   UNL A   1      40.615  30.433  31.042  1.00  0.00    -0.354 N 
ATOM     45  C   UNL A   1      41.555  25.424  28.844  1.00  0.00     0.074 A 
ATOM     46  C   UNL A   1      40.295  25.219  28.182  1.00  0.00     0.031 C 
ATOM     47  C   UNL A   1      42.805  30.001  31.110  1.00  0.00     0.029 A 
ATOM     48  C   UNL A   1      41.734  30.638  31.858  1.00  0.00     0.049 A 
ATOM     49  H   UNL A   1      39.843  31.041  30.962  1.00  0.00     0.167 HD
ATOM     50  C   UNL A   1      42.844  25.031  28.638  1.00  0.00     0.031 A 
ATOM     51  C   UNL A   1      41.588  30.732  33.207  1.00  0.00     0.031 A 
ATOM     52  C   UNL A   1      43.740  25.667  29.617  1.00  0.00     0.049 A 
ATOM     53  C   UNL A   1      42.269  29.532  33.798  1.00  0.00     0.074 A 
ATOM     54  C   UNL A   1      44.720  26.640  29.521  1.00  0.00     0.029 A 
ATOM     55  N   UNL A   1      43.447  25.543  30.975  1.00  0.00    -0.354 N 
ATOM     56  N   UNL A   1      42.413  28.418  33.129  1.00  0.00    -0.248 NA
ATOM     57  C   UNL A   1      42.993  29.527  35.065  1.00  0.00     0.031 C 
ATOM     58  C   UNL A   1      44.923  27.180  30.827  1.00  0.00     0.029 A 
ATOM     59  C   UNL A   1      44.085  26.519  31.716  1.00  0.00     0.049 A 
ATOM     60  H   UNL A   1      42.860  24.849  31.357  1.00  0.00     0.167 HD
ATOM     61  C   UNL A   1      43.353  27.653  33.740  1.00  0.00     0.074 A 
ATOM     62  C   UNL A   1      43.623  28.338  34.996  1.00  0.00     0.031 C 
ATOM     63  C   UNL A   1      43.928  26.561  33.166  1.00  0.00     0.031 A 
BRANCH  50  64
ATOM     64  C   UNL A   1      43.341  24.270  27.421  1.00  0.00    -0.014 A 
ATOM     65  C   UNL A   1      43.207  22.866  27.388  1.00  0.00     0.010 A 
ATOM     66  C   UNL A   1      43.995  24.844  26.310  1.00  0.00     0.010 A 
ATOM     67  C   UNL A   1      43.705  22.086  26.331  1.00  0.00     0.020 A 
ATOM     68  C   UNL A   1      44.489  24.080  25.238  1.00  0.00     0.020 A 
ATOM     69  C   UNL A   1      44.344  22.700  25.257  1.00  0.00     0.054 A 
BRANCH  69  70
ATOM     70  S   UNL A   1      44.961  21.682  23.892  1.00  0.00     0.124 S 
ATOM     71  O   UNL A   1      44.593  20.333  24.315  1.00  0.00    -0.237 OA
ATOM     72  O   UNL A   1      44.224  22.209  22.747  1.00  0.00    -0.237 OA
ATOM     73  O   UNL A   1      46.398  21.952  23.877  1.00  0.00    -0.744 OA
ENDBRANCH  69  70
ENDBRANCH  50  64
BRANCH  51  74
ATOM     74  C   UNL A   1      40.303  31.414  33.586  1.00  0.00    -0.014 A 
ATOM     75  C   UNL A   1      39.286  30.580  34.120  1.00  0.00     0.010 A 
ATOM     76  C   UNL A   1      40.282  32.778  33.935  1.00  0.00     0.010 A 
ATOM     77  C   UNL A   1      38.404  31.045  35.106  1.00  0.00     0.020 A 
ATOM     78  C   UNL A   1      39.397  33.247  34.929  1.00  0.00     0.020 A 
ATOM     79  C   UNL A   1      38.505  32.364  35.548  1.00  0.00     0.054 A 
BRANCH  79  80
ATOM     80  S   UNL A   1      37.662  32.820  37.104  1.00  0.00     0.124 S 
ATOM     81  O   UNL A   1      37.546  31.536  37.784  1.00  0.00    -0.237 OA
ATOM     82  O   UNL A   1      38.601  33.768  37.707  1.00  0.00    -0.237 OA
ATOM     83  O   UNL A   1      36.408  33.411  36.648  1.00  0.00    -0.744 OA
ENDBRANCH  79  80
ENDBRANCH  51  74
BRANCH  63  84
ATOM     84  C   UNL A   1      44.456  25.426  33.982  1.00  0.00    -0.014 A 
ATOM     85  C   UNL A   1      43.608  24.524  34.644  1.00  0.00     0.010 A 
ATOM     86  C   UNL A   1      45.832  25.120  33.929  1.00  0.00     0.010 A 
ATOM     87  C   UNL A   1      44.122  23.412  35.304  1.00  0.00     0.020 A 
ATOM     88  C   UNL A   1      46.348  23.977  34.532  1.00  0.00     0.020 A 
ATOM     89  C   UNL A   1      45.490  23.152  35.250  1.00  0.00     0.054 A 
BRANCH  89  90
ATOM     90  S   UNL A   1      46.131  21.705  36.111  1.00  0.00     0.124 S 
ATOM     91  O   UNL A   1      45.480  20.620  35.381  1.00  0.00    -0.237 OA
ATOM     92  O   UNL A   1      47.574  21.822  35.907  1.00  0.00    -0.237 OA
ATOM     93  O   UNL A   1      45.683  21.894  37.488  1.00  0.00    -0.744 OA
ENDBRANCH  89  90
ENDBRANCH  63  84
ENDBRANCH  37  38
ENDBRANCH  30  32
ENDBRANCH  29  30
ENDBRANCH  28  29
ENDBRANCH  27  28
ENDBRANCH   1  27
TORSDOF 20
ENDMDL
