MODEL 1
REMARK VINA RESULT:      -8.1      0.000      0.000
REMARK SMILES Cc1cc(C(=O)N[C@@H]2C(=O)N3C(C(=O)OCCOCCOC(=O)c4ccc(-c5c6nc(c(-c7ccc(S(=O)(=O)[O-])cc7)c7ccc([nH]7)c(-c7ccc(S(=O)(=O)[O-])cc7)c7nc(c(-c8ccc(S(=O)(=O)[O-])cc8)c8ccc5[nH]8)C=C7)C=C6)cc4)=C(CSc4nnc(C)s4)CS[C@H]23)n(C)n1
REMARK SMILES IDX 18 1 17 2 16 3 15 4 13 5 14 6 12 7 8 8 9 9 95 10 10 11 11 12
REMARK SMILES IDX 94 13 93 14 84 15 7 16 5 17 6 18 4 20 1 21 2 22 3 23 98 24
REMARK SMILES IDX 96 25 97 26 85 27 86 28 87 29 88 30 92 31 89 32 90 33 91 34
REMARK SMILES IDX 19 35 20 36 21 37 22 38 23 39 24 40 25 41 83 42 26 43 82 44
REMARK SMILES IDX 27 45 28 46 29 47 76 48 30 49 81 50 75 51 77 52 31 53 80 54
REMARK SMILES IDX 74 55 73 56 32 58 62 59 43 60 61 61 44 62 47 63 60 64 78 65
REMARK SMILES IDX 45 66 46 67 59 69 79 70 48 71 33 72 34 73 42 74 35 75 41 76
REMARK SMILES IDX 36 77 37 78 38 79 39 80 40 81 63 82 64 83 72 84 65 85 71 86
REMARK SMILES IDX 66 87 67 88 68 89 69 90 70 91 49 92 50 93 58 94 51 95 57 96
REMARK SMILES IDX 52 97 53 98 54 99 55 100 56 101
REMARK H PARENT 7 19 77 57 47 68
REMARK Flexibility Score: inf
ROOT
ATOM      1  O   UNL A   1      50.044  39.179  32.696  1.00  0.00    -0.374 OA
ENDROOT
BRANCH   1   2
ATOM      2  C   UNL A   1      48.743  39.131  33.279  1.00  0.00     0.202 C 
BRANCH   2   3
ATOM      3  C   UNL A   1      47.610  39.851  32.551  1.00  0.00     0.261 C 
BRANCH   3   4
ATOM      4  O   UNL A   1      47.092  40.918  33.363  1.00  0.00    -0.459 OA
BRANCH   4   5
ATOM      5  C   UNL A   1      45.769  40.850  33.612  1.00  0.00     0.355 C 
ATOM      6  O   UNL A   1      45.219  40.034  34.344  1.00  0.00    -0.244 OA
BRANCH   5   7
ATOM      7  C   UNL A   1      44.975  41.916  32.920  1.00  0.00     0.132 C 
ATOM      8  C   UNL A   1      43.936  41.162  29.763  1.00  0.00     0.206 C 
ATOM      9  C   UNL A   1      43.850  40.473  31.159  1.00  0.00     0.253 C 
ATOM     10  C   UNL A   1      44.429  42.397  30.577  1.00  0.00     0.181 C 
ATOM     11  O   UNL A   1      43.397  39.451  31.609  1.00  0.00    -0.272 OA
ATOM     12  N   UNL A   1      44.498  41.526  31.707  1.00  0.00    -0.289 N 
ATOM     13  S   UNL A   1      43.248  43.690  31.017  1.00  0.00    -0.129 SA
ATOM     14  C   UNL A   1      44.316  44.299  32.351  1.00  0.00     0.106 C 
ATOM     15  C   UNL A   1      44.849  43.216  33.295  1.00  0.00    -0.019 C 
BRANCH   8  16
ATOM     16  N   UNL A   1      42.739  41.319  28.903  1.00  0.00    -0.336 N 
ATOM     17  C   UNL A   1      42.171  40.366  28.072  1.00  0.00     0.270 C 
ATOM     18  O   UNL A   1      41.162  40.681  27.445  1.00  0.00    -0.268 OA
ATOM     19  H   UNL A   1      42.297  42.199  28.924  1.00  0.00     0.164 HD
BRANCH  17  20
ATOM     20  C   UNL A   1      42.831  39.081  27.932  1.00  0.00     0.126 A 
ATOM     21  C   UNL A   1      44.034  35.898  29.234  1.00  0.00     0.069 C 
ATOM     22  C   UNL A   1      43.711  37.106  28.437  1.00  0.00     0.060 A 
ATOM     23  C   UNL A   1      42.493  37.817  28.394  1.00  0.00     0.059 A 
ATOM     24  N   UNL A   1      44.644  37.722  27.711  1.00  0.00    -0.178 NA
ATOM     25  N   UNL A   1      44.045  38.868  27.314  1.00  0.00    -0.263 N 
ATOM     26  C   UNL A   1      44.745  39.688  26.355  1.00  0.00     0.174 C 
ENDBRANCH  17  20
ENDBRANCH   8  16
BRANCH  15  27
ATOM     27  C   UNL A   1      45.294  43.806  34.612  1.00  0.00     0.111 C 
BRANCH  27  28
ATOM     28  S   UNL A   1      46.857  44.719  34.603  1.00  0.00    -0.089 SA
BRANCH  28  29
ATOM     29  C   UNL A   1      46.858  45.845  35.938  1.00  0.00     0.174 A 
ATOM     30  N   UNL A   1      46.164  46.956  35.985  1.00  0.00    -0.132 NA
ATOM     31  S   UNL A   1      47.701  45.530  37.401  1.00  0.00    -0.091 S 
ATOM     32  N   UNL A   1      46.152  47.536  37.239  1.00  0.00    -0.143 NA
ATOM     33  C   UNL A   1      46.832  46.823  38.109  1.00  0.00     0.115 A 
ATOM     34  C   UNL A   1      46.851  47.045  39.577  1.00  0.00     0.081 C 
ENDBRANCH  28  29
ENDBRANCH  27  28
ENDBRANCH  15  27
ENDBRANCH   5   7
ENDBRANCH   4   5
ENDBRANCH   3   4
ENDBRANCH   2   3
ENDBRANCH   1   2
BRANCH   1  35
ATOM     35  C   UNL A   1      50.321  38.317  31.594  1.00  0.00     0.202 C 
BRANCH  35  36
ATOM     36  C   UNL A   1      49.595  36.967  31.519  1.00  0.00     0.261 C 
BRANCH  36  37
ATOM     37  O   UNL A   1      49.714  36.305  30.252  1.00  0.00    -0.460 OA
BRANCH  37  38
ATOM     38  C   UNL A   1      48.690  36.537  29.390  1.00  0.00     0.338 C 
ATOM     39  O   UNL A   1      48.460  37.557  28.767  1.00  0.00    -0.246 OA
BRANCH  38  40
ATOM     40  C   UNL A   1      47.943  35.281  29.195  1.00  0.00     0.060 A 
ATOM     41  C   UNL A   1      47.798  34.399  30.269  1.00  0.00     0.016 A 
ATOM     42  C   UNL A   1      47.429  34.956  27.943  1.00  0.00     0.016 A 
ATOM     43  C   UNL A   1      47.151  33.177  30.081  1.00  0.00     0.010 A 
ATOM     44  C   UNL A   1      46.735  33.762  27.766  1.00  0.00     0.010 A 
ATOM     45  C   UNL A   1      46.638  32.839  28.820  1.00  0.00    -0.014 A 
BRANCH  45  46
ATOM     46  C   UNL A   1      46.160  31.461  28.543  1.00  0.00     0.031 A 
ATOM     47  C   UNL A   1      44.719  31.121  28.829  1.00  0.00     0.074 A 
ATOM     48  C   UNL A   1      46.991  30.527  28.044  1.00  0.00     0.049 A 
ATOM     49  N   UNL A   1      44.097  29.977  28.712  1.00  0.00    -0.248 NA
ATOM     50  C   UNL A   1      43.868  32.214  29.334  1.00  0.00     0.031 C 
ATOM     51  C   UNL A   1      48.400  30.734  27.714  1.00  0.00     0.029 A 
ATOM     52  N   UNL A   1      46.763  29.210  27.730  1.00  0.00    -0.354 N 
ATOM     53  C   UNL A   1      42.797  30.206  29.148  1.00  0.00     0.074 A 
ATOM     54  C   UNL A   1      42.732  31.583  29.582  1.00  0.00     0.031 C 
ATOM     55  C   UNL A   1      48.909  29.587  27.232  1.00  0.00     0.029 A 
ATOM     56  C   UNL A   1      47.876  28.555  27.257  1.00  0.00     0.049 A 
ATOM     57  H   UNL A   1      45.886  28.775  27.834  1.00  0.00     0.167 HD
ATOM     58  C   UNL A   1      41.743  29.356  29.169  1.00  0.00     0.031 A 
ATOM     59  C   UNL A   1      48.044  27.266  26.900  1.00  0.00     0.031 A 
ATOM     60  C   UNL A   1      41.811  27.989  28.728  1.00  0.00     0.049 A 
ATOM     61  C   UNL A   1      46.871  26.323  26.975  1.00  0.00     0.074 A 
ATOM     62  C   UNL A   1      40.794  27.053  28.669  1.00  0.00     0.029 A 
ATOM     63  N   UNL A   1      42.962  27.361  28.273  1.00  0.00    -0.354 N 
ATOM     64  N   UNL A   1      45.638  26.569  27.349  1.00  0.00    -0.248 NA
ATOM     65  C   UNL A   1      47.112  24.932  26.568  1.00  0.00     0.031 C 
ATOM     66  C   UNL A   1      41.344  25.840  28.243  1.00  0.00     0.029 A 
ATOM     67  C   UNL A   1      42.686  26.040  27.962  1.00  0.00     0.049 A 
ATOM     68  H   UNL A   1      43.843  27.790  28.184  1.00  0.00     0.167 HD
ATOM     69  C   UNL A   1      44.949  25.370  27.195  1.00  0.00     0.074 A 
ATOM     70  C   UNL A   1      45.900  24.407  26.679  1.00  0.00     0.031 C 
ATOM     71  C   UNL A   1      43.646  25.092  27.451  1.00  0.00     0.031 A 
BRANCH  58  72
ATOM     72  C   UNL A   1      40.436  29.876  29.708  1.00  0.00    -0.014 A 
ATOM     73  C   UNL A   1      39.425  30.351  28.852  1.00  0.00     0.010 A 
ATOM     74  C   UNL A   1      40.203  29.866  31.096  1.00  0.00     0.010 A 
ATOM     75  C   UNL A   1      38.227  30.848  29.375  1.00  0.00     0.020 A 
ATOM     76  C   UNL A   1      38.993  30.330  31.621  1.00  0.00     0.020 A 
ATOM     77  C   UNL A   1      38.020  30.836  30.757  1.00  0.00     0.054 A 
BRANCH  77  78
ATOM     78  S   UNL A   1      36.450  31.471  31.405  1.00  0.00     0.124 S 
ATOM     79  O   UNL A   1      35.941  30.319  32.145  1.00  0.00    -0.237 OA
ATOM     80  O   UNL A   1      36.878  32.604  32.222  1.00  0.00    -0.237 OA
ATOM     81  O   UNL A   1      35.695  31.823  30.204  1.00  0.00    -0.744 OA
ENDBRANCH  77  78
ENDBRANCH  58  72
BRANCH  59  82
ATOM     82  C   UNL A   1      49.379  26.794  26.436  1.00  0.00    -0.014 A 
ATOM     83  C   UNL A   1      50.202  26.027  27.280  1.00  0.00     0.010 A 
ATOM     84  C   UNL A   1      49.830  27.099  25.138  1.00  0.00     0.010 A 
ATOM     85  C   UNL A   1      51.453  25.583  26.839  1.00  0.00     0.020 A 
ATOM     86  C   UNL A   1      51.065  26.630  24.683  1.00  0.00     0.020 A 
ATOM     87  C   UNL A   1      51.872  25.881  25.540  1.00  0.00     0.054 A 
BRANCH  87  88
ATOM     88  S   UNL A   1      53.469  25.238  24.968  1.00  0.00     0.124 S 
ATOM     89  O   UNL A   1      54.415  26.053  25.723  1.00  0.00    -0.237 OA
ATOM     90  O   UNL A   1      53.396  23.831  25.355  1.00  0.00    -0.237 OA
ATOM     91  O   UNL A   1      53.440  25.482  23.528  1.00  0.00    -0.744 OA
ENDBRANCH  87  88
ENDBRANCH  59  82
BRANCH  71  92
ATOM     92  C   UNL A   1      43.155  23.702  27.144  1.00  0.00    -0.014 A 
ATOM     93  C   UNL A   1      42.845  23.304  25.831  1.00  0.00     0.010 A 
ATOM     94  C   UNL A   1      43.064  22.757  28.185  1.00  0.00     0.010 A 
ATOM     95  C   UNL A   1      42.422  21.999  25.570  1.00  0.00     0.020 A 
ATOM     96  C   UNL A   1      42.673  21.442  27.921  1.00  0.00     0.020 A 
ATOM     97  C   UNL A   1      42.342  21.075  26.617  1.00  0.00     0.054 A 
BRANCH  97  98
ATOM     98  S   UNL A   1      41.834  19.374  26.241  1.00  0.00     0.124 S 
ATOM     99  O   UNL A   1      42.256  18.659  27.443  1.00  0.00    -0.237 OA
ATOM    100  O   UNL A   1      40.391  19.504  26.060  1.00  0.00    -0.237 OA
ATOM    101  O   UNL A   1      42.581  19.049  25.028  1.00  0.00    -0.744 OA
ENDBRANCH  97  98
ENDBRANCH  71  92
ENDBRANCH  45  46
ENDBRANCH  38  40
ENDBRANCH  37  38
ENDBRANCH  36  37
ENDBRANCH  35  36
ENDBRANCH   1  35
TORSDOF 22
ENDMDL
MODEL 2
REMARK VINA RESULT:      -8.1      6.309     14.391
REMARK SMILES Cc1cc(C(=O)N[C@@H]2C(=O)N3C(C(=O)OCCOCCOC(=O)c4ccc(-c5c6nc(c(-c7ccc(S(=O)(=O)[O-])cc7)c7ccc([nH]7)c(-c7ccc(S(=O)(=O)[O-])cc7)c7nc(c(-c8ccc(S(=O)(=O)[O-])cc8)c8ccc5[nH]8)C=C7)C=C6)cc4)=C(CSc4nnc(C)s4)CS[C@H]23)n(C)n1
REMARK SMILES IDX 18 1 17 2 16 3 15 4 13 5 14 6 12 7 8 8 9 9 95 10 10 11 11 12
REMARK SMILES IDX 94 13 93 14 84 15 7 16 5 17 6 18 4 20 1 21 2 22 3 23 98 24
REMARK SMILES IDX 96 25 97 26 85 27 86 28 87 29 88 30 92 31 89 32 90 33 91 34
REMARK SMILES IDX 19 35 20 36 21 37 22 38 23 39 24 40 25 41 83 42 26 43 82 44
REMARK SMILES IDX 27 45 28 46 29 47 76 48 30 49 81 50 75 51 77 52 31 53 80 54
REMARK SMILES IDX 74 55 73 56 32 58 62 59 43 60 61 61 44 62 47 63 60 64 78 65
REMARK SMILES IDX 45 66 46 67 59 69 79 70 48 71 33 72 34 73 42 74 35 75 41 76
REMARK SMILES IDX 36 77 37 78 38 79 39 80 40 81 63 82 64 83 72 84 65 85 71 86
REMARK SMILES IDX 66 87 67 88 68 89 69 90 70 91 49 92 50 93 58 94 51 95 57 96
REMARK SMILES IDX 52 97 53 98 54 99 55 100 56 101
REMARK H PARENT 7 19 77 57 47 68
REMARK Flexibility Score: inf
ROOT
ATOM      1  O   UNL A   1      46.632  24.063  24.811  1.00  0.00    -0.374 OA
ENDROOT
BRANCH   1   2
ATOM      2  C   UNL A   1      46.879  24.076  26.216  1.00  0.00     0.202 C 
BRANCH   2   3
ATOM      3  C   UNL A   1      47.280  25.403  26.855  1.00  0.00     0.261 C 
BRANCH   3   4
ATOM      4  O   UNL A   1      48.664  25.689  26.590  1.00  0.00    -0.459 OA
BRANCH   4   5
ATOM      5  C   UNL A   1      49.365  26.133  27.652  1.00  0.00     0.355 C 
ATOM      6  O   UNL A   1      49.821  25.435  28.551  1.00  0.00    -0.244 OA
BRANCH   5   7
ATOM      7  C   UNL A   1      49.588  27.615  27.643  1.00  0.00     0.132 C 
ATOM      8  C   UNL A   1      46.920  29.512  28.590  1.00  0.00     0.206 C 
ATOM      9  C   UNL A   1      47.693  28.297  29.188  1.00  0.00     0.253 C 
ATOM     10  C   UNL A   1      48.109  29.571  27.583  1.00  0.00     0.181 C 
ATOM     11  O   UNL A   1      47.622  27.610  30.176  1.00  0.00    -0.272 OA
ATOM     12  N   UNL A   1      48.530  28.319  28.126  1.00  0.00    -0.289 N 
ATOM     13  S   UNL A   1      49.464  30.725  27.886  1.00  0.00    -0.129 SA
ATOM     14  C   UNL A   1      50.584  29.793  26.806  1.00  0.00     0.106 C 
ATOM     15  C   UNL A   1      50.621  28.283  27.065  1.00  0.00    -0.019 C 
BRANCH   8  16
ATOM     16  N   UNL A   1      46.626  30.717  29.401  1.00  0.00    -0.336 N 
ATOM     17  C   UNL A   1      45.502  31.524  29.327  1.00  0.00     0.270 C 
ATOM     18  O   UNL A   1      45.429  32.477  30.100  1.00  0.00    -0.268 OA
ATOM     19  H   UNL A   1      47.305  30.973  30.066  1.00  0.00     0.164 HD
BRANCH  17  20
ATOM     20  C   UNL A   1      44.511  31.247  28.304  1.00  0.00     0.126 A 
ATOM     21  C   UNL A   1      42.504  28.993  26.262  1.00  0.00     0.069 C 
ATOM     22  C   UNL A   1      43.200  30.140  26.895  1.00  0.00     0.060 A 
ATOM     23  C   UNL A   1      43.450  30.353  28.267  1.00  0.00     0.059 A 
ATOM     24  N   UNL A   1      43.770  31.091  26.157  1.00  0.00    -0.178 NA
ATOM     25  N   UNL A   1      44.469  31.825  27.053  1.00  0.00    -0.263 N 
ATOM     26  C   UNL A   1      45.070  33.052  26.586  1.00  0.00     0.174 C 
ENDBRANCH  17  20
ENDBRANCH   8  16
BRANCH  15  27
ATOM     27  C   UNL A   1      51.879  27.661  26.508  1.00  0.00     0.111 C 
BRANCH  27  28
ATOM     28  S   UNL A   1      52.779  28.625  25.269  1.00  0.00    -0.089 SA
BRANCH  28  29
ATOM     29  C   UNL A   1      51.969  28.458  23.730  1.00  0.00     0.174 A 
ATOM     30  N   UNL A   1      51.210  29.373  23.176  1.00  0.00    -0.132 NA
ATOM     31  S   UNL A   1      52.198  27.089  22.719  1.00  0.00    -0.091 S 
ATOM     32  N   UNL A   1      50.893  29.093  21.862  1.00  0.00    -0.143 NA
ATOM     33  C   UNL A   1      51.446  27.970  21.459  1.00  0.00     0.115 A 
ATOM     34  C   UNL A   1      51.481  27.483  20.057  1.00  0.00     0.081 C 
ENDBRANCH  28  29
ENDBRANCH  27  28
ENDBRANCH  15  27
ENDBRANCH   5   7
ENDBRANCH   4   5
ENDBRANCH   3   4
ENDBRANCH   2   3
ENDBRANCH   1   2
BRANCH   1  35
ATOM     35  C   UNL A   1      46.339  22.814  24.189  1.00  0.00     0.202 C 
BRANCH  35  36
ATOM     36  C   UNL A   1      44.899  22.284  24.250  1.00  0.00     0.261 C 
BRANCH  36  37
ATOM     37  O   UNL A   1      44.459  21.929  25.568  1.00  0.00    -0.460 OA
BRANCH  37  38
ATOM     38  C   UNL A   1      43.118  22.026  25.765  1.00  0.00     0.338 C 
ATOM     39  O   UNL A   1      42.253  21.262  25.378  1.00  0.00    -0.246 OA
BRANCH  38  40
ATOM     40  C   UNL A   1      42.855  23.156  26.675  1.00  0.00     0.060 A 
ATOM     41  C   UNL A   1      43.366  24.418  26.362  1.00  0.00     0.016 A 
ATOM     42  C   UNL A   1      42.147  22.956  27.857  1.00  0.00     0.016 A 
ATOM     43  C   UNL A   1      43.181  25.481  27.247  1.00  0.00     0.010 A 
ATOM     44  C   UNL A   1      41.914  24.028  28.716  1.00  0.00     0.010 A 
ATOM     45  C   UNL A   1      42.476  25.286  28.444  1.00  0.00    -0.014 A 
BRANCH  45  46
ATOM     46  C   UNL A   1      42.470  26.331  29.497  1.00  0.00     0.031 A 
ATOM     47  C   UNL A   1      43.552  26.309  30.547  1.00  0.00     0.074 A 
ATOM     48  C   UNL A   1      41.521  27.286  29.521  1.00  0.00     0.049 A 
ATOM     49  N   UNL A   1      43.717  27.088  31.585  1.00  0.00    -0.248 NA
ATOM     50  C   UNL A   1      44.574  25.255  30.423  1.00  0.00     0.031 C 
ATOM     51  C   UNL A   1      40.431  27.422  28.556  1.00  0.00     0.029 A 
ATOM     52  N   UNL A   1      41.325  28.323  30.397  1.00  0.00    -0.354 N 
ATOM     53  C   UNL A   1      44.841  26.605  32.245  1.00  0.00     0.074 A 
ATOM     54  C   UNL A   1      45.288  25.436  31.522  1.00  0.00     0.031 C 
ATOM     55  C   UNL A   1      39.686  28.491  28.887  1.00  0.00     0.029 A 
ATOM     56  C   UNL A   1      40.221  29.090  30.107  1.00  0.00     0.049 A 
ATOM     57  H   UNL A   1      41.918  28.502  31.162  1.00  0.00     0.167 HD
ATOM     58  C   UNL A   1      45.462  27.099  33.342  1.00  0.00     0.031 A 
ATOM     59  C   UNL A   1      39.694  30.145  30.761  1.00  0.00     0.031 A 
ATOM     60  C   UNL A   1      45.019  28.268  34.053  1.00  0.00     0.049 A 
ATOM     61  C   UNL A   1      40.372  30.650  32.008  1.00  0.00     0.074 A 
ATOM     62  C   UNL A   1      45.596  28.877  35.152  1.00  0.00     0.029 A 
ATOM     63  N   UNL A   1      43.885  29.004  33.736  1.00  0.00    -0.354 N 
ATOM     64  N   UNL A   1      41.460  30.208  32.593  1.00  0.00    -0.248 NA
ATOM     65  C   UNL A   1      39.756  31.806  32.675  1.00  0.00     0.031 C 
ATOM     66  C   UNL A   1      44.777  29.940  35.541  1.00  0.00     0.029 A 
ATOM     67  C   UNL A   1      43.730  30.042  34.639  1.00  0.00     0.049 A 
ATOM     68  H   UNL A   1      43.282  28.816  32.981  1.00  0.00     0.167 HD
ATOM     69  C   UNL A   1      41.675  31.049  33.679  1.00  0.00     0.074 A 
ATOM     70  C   UNL A   1      40.613  32.034  33.660  1.00  0.00     0.031 C 
ATOM     71  C   UNL A   1      42.665  31.014  34.607  1.00  0.00     0.031 A 
BRANCH  58  72
ATOM     72  C   UNL A   1      46.673  26.361  33.852  1.00  0.00    -0.014 A 
ATOM     73  C   UNL A   1      46.555  25.304  34.774  1.00  0.00     0.010 A 
ATOM     74  C   UNL A   1      47.952  26.712  33.381  1.00  0.00     0.010 A 
ATOM     75  C   UNL A   1      47.693  24.645  35.249  1.00  0.00     0.020 A 
ATOM     76  C   UNL A   1      49.090  26.034  33.827  1.00  0.00     0.020 A 
ATOM     77  C   UNL A   1      48.954  25.016  34.773  1.00  0.00     0.054 A 
BRANCH  77  78
ATOM     78  S   UNL A   1      50.410  24.133  35.394  1.00  0.00     0.124 S 
ATOM     79  O   UNL A   1      51.348  24.279  34.284  1.00  0.00    -0.237 OA
ATOM     80  O   UNL A   1      50.745  24.881  36.603  1.00  0.00    -0.237 OA
ATOM     81  O   UNL A   1      49.923  22.774  35.621  1.00  0.00    -0.744 OA
ENDBRANCH  77  78
ENDBRANCH  58  72
BRANCH  59  82
ATOM     82  C   UNL A   1      38.457  30.794  30.244  1.00  0.00    -0.014 A 
ATOM     83  C   UNL A   1      38.530  31.962  29.465  1.00  0.00     0.010 A 
ATOM     84  C   UNL A   1      37.194  30.236  30.519  1.00  0.00     0.010 A 
ATOM     85  C   UNL A   1      37.365  32.565  28.979  1.00  0.00     0.020 A 
ATOM     86  C   UNL A   1      36.030  30.818  30.009  1.00  0.00     0.020 A 
ATOM     87  C   UNL A   1      36.123  31.984  29.249  1.00  0.00     0.054 A 
BRANCH  87  88
ATOM     88  S   UNL A   1      34.631  32.747  28.552  1.00  0.00     0.124 S 
ATOM     89  O   UNL A   1      35.193  33.706  27.606  1.00  0.00    -0.237 OA
ATOM     90  O   UNL A   1      33.942  31.604  27.961  1.00  0.00    -0.237 OA
ATOM     91  O   UNL A   1      33.970  33.330  29.717  1.00  0.00    -0.744 OA
ENDBRANCH  87  88
ENDBRANCH  59  82
BRANCH  71  92
ATOM     92  C   UNL A   1      42.674  32.091  35.660  1.00  0.00    -0.014 A 
ATOM     93  C   UNL A   1      43.314  33.324  35.444  1.00  0.00     0.010 A 
ATOM     94  C   UNL A   1      41.972  31.885  36.864  1.00  0.00     0.010 A 
ATOM     95  C   UNL A   1      43.280  34.318  36.425  1.00  0.00     0.020 A 
ATOM     96  C   UNL A   1      41.908  32.889  37.833  1.00  0.00     0.020 A 
ATOM     97  C   UNL A   1      42.575  34.095  37.613  1.00  0.00     0.054 A 
BRANCH  97  98
ATOM     98  S   UNL A   1      42.509  35.421  38.849  1.00  0.00     0.124 S 
ATOM     99  O   UNL A   1      43.282  34.849  39.949  1.00  0.00    -0.237 OA
ATOM    100  O   UNL A   1      43.139  36.539  38.152  1.00  0.00    -0.237 OA
ATOM    101  O   UNL A   1      41.080  35.583  39.109  1.00  0.00    -0.744 OA
ENDBRANCH  97  98
ENDBRANCH  71  92
ENDBRANCH  45  46
ENDBRANCH  38  40
ENDBRANCH  37  38
ENDBRANCH  36  37
ENDBRANCH  35  36
ENDBRANCH   1  35
TORSDOF 22
ENDMDL
MODEL 3
REMARK VINA RESULT:      -7.8      5.437     17.460
REMARK SMILES Cc1cc(C(=O)N[C@@H]2C(=O)N3C(C(=O)OCCOCCOC(=O)c4ccc(-c5c6nc(c(-c7ccc(S(=O)(=O)[O-])cc7)c7ccc([nH]7)c(-c7ccc(S(=O)(=O)[O-])cc7)c7nc(c(-c8ccc(S(=O)(=O)[O-])cc8)c8ccc5[nH]8)C=C7)C=C6)cc4)=C(CSc4nnc(C)s4)CS[C@H]23)n(C)n1
REMARK SMILES IDX 18 1 17 2 16 3 15 4 13 5 14 6 12 7 8 8 9 9 95 10 10 11 11 12
REMARK SMILES IDX 94 13 93 14 84 15 7 16 5 17 6 18 4 20 1 21 2 22 3 23 98 24
REMARK SMILES IDX 96 25 97 26 85 27 86 28 87 29 88 30 92 31 89 32 90 33 91 34
REMARK SMILES IDX 19 35 20 36 21 37 22 38 23 39 24 40 25 41 83 42 26 43 82 44
REMARK SMILES IDX 27 45 28 46 29 47 76 48 30 49 81 50 75 51 77 52 31 53 80 54
REMARK SMILES IDX 74 55 73 56 32 58 62 59 43 60 61 61 44 62 47 63 60 64 78 65
REMARK SMILES IDX 45 66 46 67 59 69 79 70 48 71 33 72 34 73 42 74 35 75 41 76
REMARK SMILES IDX 36 77 37 78 38 79 39 80 40 81 63 82 64 83 72 84 65 85 71 86
REMARK SMILES IDX 66 87 67 88 68 89 69 90 70 91 49 92 50 93 58 94 51 95 57 96
REMARK SMILES IDX 52 97 53 98 54 99 55 100 56 101
REMARK H PARENT 7 19 77 57 47 68
REMARK Flexibility Score: inf
ROOT
ATOM      1  O   UNL A   1      39.450  29.426  29.435  1.00  0.00    -0.374 OA
ENDROOT
BRANCH   1   2
ATOM      2  C   UNL A   1      39.527  28.049  29.069  1.00  0.00     0.202 C 
BRANCH   2   3
ATOM      3  C   UNL A   1      40.910  27.463  28.792  1.00  0.00     0.261 C 
BRANCH   3   4
ATOM      4  O   UNL A   1      40.797  26.101  28.347  1.00  0.00    -0.459 OA
BRANCH   4   5
ATOM      5  C   UNL A   1      41.086  25.904  27.045  1.00  0.00     0.355 C 
ATOM      6  O   UNL A   1      40.683  26.587  26.110  1.00  0.00    -0.244 OA
BRANCH   5   7
ATOM      7  C   UNL A   1      42.009  24.747  26.807  1.00  0.00     0.132 C 
ATOM      8  C   UNL A   1      45.052  25.538  25.491  1.00  0.00     0.206 C 
ATOM      9  C   UNL A   1      44.203  26.022  26.706  1.00  0.00     0.253 C 
ATOM     10  C   UNL A   1      43.993  24.397  25.406  1.00  0.00     0.181 C 
ATOM     11  O   UNL A   1      44.316  26.831  27.592  1.00  0.00    -0.272 OA
ATOM     12  N   UNL A   1      43.243  25.126  26.380  1.00  0.00    -0.289 N 
ATOM     13  S   UNL A   1      44.359  22.797  26.156  1.00  0.00    -0.129 SA
ATOM     14  C   UNL A   1      42.602  22.351  26.217  1.00  0.00     0.106 C 
ATOM     15  C   UNL A   1      41.684  23.427  26.809  1.00  0.00    -0.019 C 
BRANCH   8  16
ATOM     16  N   UNL A   1      46.477  25.163  25.645  1.00  0.00    -0.336 N 
ATOM     17  C   UNL A   1      47.558  26.017  25.801  1.00  0.00     0.270 C 
ATOM     18  O   UNL A   1      48.672  25.514  25.931  1.00  0.00    -0.268 OA
ATOM     19  H   UNL A   1      46.680  24.200  25.633  1.00  0.00     0.164 HD
BRANCH  17  20
ATOM     20  C   UNL A   1      47.330  27.449  25.735  1.00  0.00     0.126 A 
ATOM     21  C   UNL A   1      45.693  30.523  26.807  1.00  0.00     0.069 C 
ATOM     22  C   UNL A   1      46.479  29.461  26.133  1.00  0.00     0.060 A 
ATOM     23  C   UNL A   1      47.206  28.409  26.729  1.00  0.00     0.059 A 
ATOM     24  N   UNL A   1      46.490  29.349  24.805  1.00  0.00    -0.178 NA
ATOM     25  N   UNL A   1      47.119  28.173  24.581  1.00  0.00    -0.263 N 
ATOM     26  C   UNL A   1      47.446  27.842  23.215  1.00  0.00     0.174 C 
ENDBRANCH  17  20
ENDBRANCH   8  16
BRANCH  15  27
ATOM     27  C   UNL A   1      40.376  22.836  27.277  1.00  0.00     0.111 C 
BRANCH  27  28
ATOM     28  S   UNL A   1      39.653  21.544  26.237  1.00  0.00    -0.089 SA
BRANCH  28  29
ATOM     29  C   UNL A   1      38.071  22.064  25.711  1.00  0.00     0.174 A 
ATOM     30  N   UNL A   1      37.135  21.273  25.245  1.00  0.00    -0.132 NA
ATOM     31  S   UNL A   1      37.540  23.690  25.874  1.00  0.00    -0.091 S 
ATOM     32  N   UNL A   1      35.906  21.892  25.133  1.00  0.00    -0.143 NA
ATOM     33  C   UNL A   1      35.954  23.141  25.540  1.00  0.00     0.115 A 
ATOM     34  C   UNL A   1      34.779  24.024  25.748  1.00  0.00     0.081 C 
ENDBRANCH  28  29
ENDBRANCH  27  28
ENDBRANCH  15  27
ENDBRANCH   5   7
ENDBRANCH   4   5
ENDBRANCH   3   4
ENDBRANCH   2   3
ENDBRANCH   1   2
BRANCH   1  35
ATOM     35  C   UNL A   1      38.165  29.980  29.705  1.00  0.00     0.202 C 
BRANCH  35  36
ATOM     36  C   UNL A   1      37.122  29.104  30.414  1.00  0.00     0.261 C 
BRANCH  36  37
ATOM     37  O   UNL A   1      36.749  29.571  31.717  1.00  0.00    -0.460 OA
BRANCH  37  38
ATOM     38  C   UNL A   1      37.511  29.090  32.734  1.00  0.00     0.338 C 
ATOM     39  O   UNL A   1      37.641  27.930  33.080  1.00  0.00    -0.246 OA
BRANCH  38  40
ATOM     40  C   UNL A   1      38.304  30.198  33.295  1.00  0.00     0.060 A 
ATOM     41  C   UNL A   1      37.758  31.483  33.324  1.00  0.00     0.016 A 
ATOM     42  C   UNL A   1      39.602  29.974  33.747  1.00  0.00     0.016 A 
ATOM     43  C   UNL A   1      38.524  32.553  33.790  1.00  0.00     0.010 A 
ATOM     44  C   UNL A   1      40.348  31.030  34.265  1.00  0.00     0.010 A 
ATOM     45  C   UNL A   1      39.834  32.337  34.240  1.00  0.00    -0.014 A 
BRANCH  45  46
ATOM     46  C   UNL A   1      40.737  33.482  34.517  1.00  0.00     0.031 A 
ATOM     47  C   UNL A   1      41.641  33.976  33.416  1.00  0.00     0.074 A 
ATOM     48  C   UNL A   1      40.753  34.075  35.725  1.00  0.00     0.049 A 
ATOM     49  N   UNL A   1      42.542  34.924  33.445  1.00  0.00    -0.248 NA
ATOM     50  C   UNL A   1      41.530  33.297  32.113  1.00  0.00     0.031 C 
ATOM     51  C   UNL A   1      39.919  33.699  36.866  1.00  0.00     0.029 A 
ATOM     52  N   UNL A   1      41.506  35.123  36.192  1.00  0.00    -0.354 N 
ATOM     53  C   UNL A   1      43.117  34.938  32.179  1.00  0.00     0.074 A 
ATOM     54  C   UNL A   1      42.501  33.872  31.422  1.00  0.00     0.031 C 
ATOM     55  C   UNL A   1      40.198  34.514  37.898  1.00  0.00     0.029 A 
ATOM     56  C   UNL A   1      41.257  35.441  37.506  1.00  0.00     0.049 A 
ATOM     57  H   UNL A   1      42.163  35.603  35.638  1.00  0.00     0.167 HD
ATOM     58  C   UNL A   1      44.057  35.775  31.680  1.00  0.00     0.031 A 
ATOM     59  C   UNL A   1      41.828  36.364  38.305  1.00  0.00     0.031 A 
ATOM     60  C   UNL A   1      44.660  36.840  32.435  1.00  0.00     0.049 A 
ATOM     61  C   UNL A   1      42.907  37.254  37.746  1.00  0.00     0.074 A 
ATOM     62  C   UNL A   1      45.593  37.770  32.014  1.00  0.00     0.029 A 
ATOM     63  N   UNL A   1      44.392  37.115  33.768  1.00  0.00    -0.354 N 
ATOM     64  N   UNL A   1      43.407  37.282  36.533  1.00  0.00    -0.248 NA
ATOM     65  C   UNL A   1      43.490  38.245  38.661  1.00  0.00     0.031 C 
ATOM     66  C   UNL A   1      45.939  38.565  33.111  1.00  0.00     0.029 A 
ATOM     67  C   UNL A   1      45.165  38.181  34.195  1.00  0.00     0.049 A 
ATOM     68  H   UNL A   1      43.747  36.625  34.328  1.00  0.00     0.167 HD
ATOM     69  C   UNL A   1      44.342  38.312  36.532  1.00  0.00     0.074 A 
ATOM     70  C   UNL A   1      44.326  38.891  37.860  1.00  0.00     0.031 C 
ATOM     71  C   UNL A   1      45.139  38.744  35.522  1.00  0.00     0.031 A 
BRANCH  58  72
ATOM     72  C   UNL A   1      44.507  35.553  30.258  1.00  0.00    -0.014 A 
ATOM     73  C   UNL A   1      43.858  36.177  29.177  1.00  0.00     0.010 A 
ATOM     74  C   UNL A   1      45.616  34.726  30.001  1.00  0.00     0.010 A 
ATOM     75  C   UNL A   1      44.279  35.941  27.865  1.00  0.00     0.020 A 
ATOM     76  C   UNL A   1      46.062  34.515  28.693  1.00  0.00     0.020 A 
ATOM     77  C   UNL A   1      45.378  35.110  27.632  1.00  0.00     0.054 A 
BRANCH  77  78
ATOM     78  S   UNL A   1      45.912  34.836  25.920  1.00  0.00     0.124 S 
ATOM     79  O   UNL A   1      44.637  34.637  25.235  1.00  0.00    -0.237 OA
ATOM     80  O   UNL A   1      46.610  36.079  25.602  1.00  0.00    -0.237 OA
ATOM     81  O   UNL A   1      46.763  33.651  26.007  1.00  0.00    -0.744 OA
ENDBRANCH  77  78
ENDBRANCH  58  72
BRANCH  59  82
ATOM     82  C   UNL A   1      41.387  36.492  39.722  1.00  0.00    -0.014 A 
ATOM     83  C   UNL A   1      42.091  35.848  40.755  1.00  0.00     0.010 A 
ATOM     84  C   UNL A   1      40.263  37.274  40.049  1.00  0.00     0.010 A 
ATOM     85  C   UNL A   1      41.676  35.974  42.085  1.00  0.00     0.020 A 
ATOM     86  C   UNL A   1      39.864  37.429  41.379  1.00  0.00     0.020 A 
ATOM     87  C   UNL A   1      40.568  36.770  42.388  1.00  0.00     0.054 A 
BRANCH  87  88
ATOM     88  S   UNL A   1      40.088  36.973  44.126  1.00  0.00     0.124 S 
ATOM     89  O   UNL A   1      40.967  36.021  44.798  1.00  0.00    -0.237 OA
ATOM     90  O   UNL A   1      40.379  38.384  44.368  1.00  0.00    -0.237 OA
ATOM     91  O   UNL A   1      38.668  36.628  44.131  1.00  0.00    -0.744 OA
ENDBRANCH  87  88
ENDBRANCH  59  82
BRANCH  71  92
ATOM     92  C   UNL A   1      46.035  39.923  35.795  1.00  0.00    -0.014 A 
ATOM     93  C   UNL A   1      47.360  39.753  36.235  1.00  0.00     0.010 A 
ATOM     94  C   UNL A   1      45.559  41.225  35.545  1.00  0.00     0.010 A 
ATOM     95  C   UNL A   1      48.181  40.863  36.451  1.00  0.00     0.020 A 
ATOM     96  C   UNL A   1      46.387  42.335  35.728  1.00  0.00     0.020 A 
ATOM     97  C   UNL A   1      47.689  42.147  36.193  1.00  0.00     0.054 A 
BRANCH  97  98
ATOM     98  S   UNL A   1      48.792  43.568  36.437  1.00  0.00     0.124 S 
ATOM     99  O   UNL A   1      48.417  44.437  35.325  1.00  0.00    -0.237 OA
ATOM    100  O   UNL A   1      48.410  44.043  37.764  1.00  0.00    -0.237 OA
ATOM    101  O   UNL A   1      50.130  42.987  36.351  1.00  0.00    -0.744 OA
ENDBRANCH  97  98
ENDBRANCH  71  92
ENDBRANCH  45  46
ENDBRANCH  38  40
ENDBRANCH  37  38
ENDBRANCH  36  37
ENDBRANCH  35  36
ENDBRANCH   1  35
TORSDOF 22
ENDMDL
