MODEL 1
REMARK VINA RESULT:      -9.8      0.000      0.000
REMARK SMILES C[N@H+]1CCO[C@@H](CNS(=O)(=O)N2CCC(C(=O)OCCOCCOC(=O)c3ccc(-c4c5nc(c(-c6ccc(S(=O)(=O)[O-])cc6)c6ccc([nH]6)c(-c6ccc(S(=O)(=O)[O-])cc6)c6nc(c(-c7ccc(S(=O)(=O)[O-])cc7)c7ccc4[nH]7)C=C6)C=C5)cc3)CC2)C1
REMARK SMILES IDX 20 1 19 2 18 3 16 4 17 5 15 6 12 7 13 8 88 9 14 10 87 11
REMARK SMILES IDX 9 12 10 13 11 14 8 15 7 17 6 18 1 19 2 20 3 21 89 22 4 24
REMARK SMILES IDX 5 25 21 26 22 27 23 28 24 29 25 30 26 31 27 32 28 33 86 34
REMARK SMILES IDX 29 35 85 36 30 37 31 38 32 39 79 40 33 41 84 42 78 43 80 44
REMARK SMILES IDX 34 45 83 46 77 47 76 48 35 50 65 51 46 52 64 53 47 54 50 55
REMARK SMILES IDX 63 56 81 57 48 58 49 59 62 61 82 62 51 63 36 64 37 65 45 66
REMARK SMILES IDX 38 67 44 68 39 69 40 70 41 71 42 72 43 73 66 74 67 75 75 76
REMARK SMILES IDX 68 77 74 78 69 79 70 80 71 81 72 82 73 83 52 84 53 85 61 86
REMARK SMILES IDX 54 87 60 88 55 89 56 90 57 91 58 92 59 93
REMARK H PARENT 8 16 2 23 80 49 50 60
REMARK Flexibility Score: inf
ROOT
ATOM      1  C   UNL A   1      34.160  31.363  27.851  1.00  0.00     0.202 C 
ENDROOT
BRANCH   1   2
ATOM      2  C   UNL A   1      34.921  30.034  27.882  1.00  0.00     0.261 C 
BRANCH   2   3
ATOM      3  O   UNL A   1      34.085  28.896  27.636  1.00  0.00    -0.463 OA
BRANCH   3   4
ATOM      4  C   UNL A   1      34.090  28.411  26.364  1.00  0.00     0.309 C 
ATOM      5  O   UNL A   1      34.688  28.916  25.423  1.00  0.00    -0.252 OA
BRANCH   4   6
ATOM      6  C   UNL A   1      33.197  27.185  26.204  1.00  0.00     0.102 C 
ATOM      7  N   UNL A   1      31.100  26.389  24.460  1.00  0.00    -0.189 NA
ATOM      8  C   UNL A   1      32.388  25.767  24.196  1.00  0.00     0.104 C 
ATOM      9  C   UNL A   1      30.775  26.437  25.889  1.00  0.00     0.104 C 
ATOM     10  C   UNL A   1      33.483  26.649  24.793  1.00  0.00     0.032 C 
ATOM     11  C   UNL A   1      31.709  27.451  26.528  1.00  0.00     0.032 C 
BRANCH   7  12
ATOM     12  S   UNL A   1      30.122  27.196  23.389  1.00  0.00     0.279 S 
ATOM     13  O   UNL A   1      28.763  26.810  23.678  1.00  0.00    -0.195 OA
ATOM     14  O   UNL A   1      30.668  27.015  22.064  1.00  0.00    -0.195 OA
BRANCH  12  15
ATOM     15  N   UNL A   1      30.246  28.837  23.749  1.00  0.00    -0.199 NA
ATOM     16  H   UNL A   1      29.695  29.014  24.590  1.00  0.00     0.142 HD
BRANCH  15  17
ATOM     17  C   UNL A   1      29.782  29.770  22.706  1.00  0.00     0.138 C 
BRANCH  17  18
ATOM     18  C   UNL A   1      28.281  29.949  22.476  1.00  0.00     0.188 C 
ATOM     19  C   UNL A   1      29.197  32.954  23.278  1.00  0.00     0.332 C 
ATOM     20  N   UNL A   1      27.941  32.457  22.738  1.00  0.00    -0.333 N 
ATOM     21  C   UNL A   1      27.848  32.531  21.270  1.00  0.00     0.290 C 
ATOM     22  C   UNL A   1      27.584  31.109  23.202  1.00  0.00     0.295 C 
ATOM     23  H   UNL A   1      27.252  33.105  23.121  1.00  0.00     0.348 HD
ATOM     24  C   UNL A   1      28.492  31.345  20.530  1.00  0.00     0.222 C 
ATOM     25  O   UNL A   1      28.058  30.074  21.043  1.00  0.00    -0.365 OA
ENDBRANCH  17  18
ENDBRANCH  15  17
ENDBRANCH  12  15
ENDBRANCH   7  12
ENDBRANCH   4   6
ENDBRANCH   3   4
ENDBRANCH   2   3
ENDBRANCH   1   2
BRANCH   1  26
ATOM     26  O   UNL A   1      32.801  31.357  27.429  1.00  0.00    -0.374 OA
BRANCH  26  27
ATOM     27  C   UNL A   1      32.160  32.605  27.187  1.00  0.00     0.202 C 
BRANCH  27  28
ATOM     28  C   UNL A   1      32.885  33.904  27.564  1.00  0.00     0.261 C 
BRANCH  28  29
ATOM     29  O   UNL A   1      32.442  34.475  28.805  1.00  0.00    -0.460 OA
BRANCH  29  30
ATOM     30  C   UNL A   1      33.379  35.237  29.425  1.00  0.00     0.338 C 
ATOM     31  O   UNL A   1      33.274  36.411  29.744  1.00  0.00    -0.246 OA
BRANCH  30  32
ATOM     32  C   UNL A   1      34.522  34.412  29.854  1.00  0.00     0.060 A 
ATOM     33  C   UNL A   1      34.336  33.589  30.974  1.00  0.00     0.016 A 
ATOM     34  C   UNL A   1      35.777  34.528  29.258  1.00  0.00     0.016 A 
ATOM     35  C   UNL A   1      35.421  32.922  31.536  1.00  0.00     0.010 A 
ATOM     36  C   UNL A   1      36.867  33.860  29.830  1.00  0.00     0.010 A 
ATOM     37  C   UNL A   1      36.700  33.085  30.993  1.00  0.00    -0.014 A 
BRANCH  37  38
ATOM     38  C   UNL A   1      37.879  32.536  31.711  1.00  0.00     0.031 A 
ATOM     39  C   UNL A   1      38.551  31.297  31.188  1.00  0.00     0.074 A 
ATOM     40  C   UNL A   1      38.354  33.150  32.810  1.00  0.00     0.049 A 
ATOM     41  N   UNL A   1      39.557  30.629  31.691  1.00  0.00    -0.248 NA
ATOM     42  C   UNL A   1      38.028  30.739  29.930  1.00  0.00     0.031 C 
ATOM     43  C   UNL A   1      37.823  34.387  33.378  1.00  0.00     0.029 A 
ATOM     44  N   UNL A   1      39.378  32.806  33.656  1.00  0.00    -0.354 N 
ATOM     45  C   UNL A   1      39.775  29.563  30.826  1.00  0.00     0.074 A 
ATOM     46  C   UNL A   1      38.787  29.663  29.773  1.00  0.00     0.031 C 
ATOM     47  C   UNL A   1      38.495  34.679  34.503  1.00  0.00     0.029 A 
ATOM     48  C   UNL A   1      39.491  33.639  34.745  1.00  0.00     0.049 A 
ATOM     49  H   UNL A   1      39.972  32.038  33.501  1.00  0.00     0.167 HD
ATOM     50  C   UNL A   1      40.716  28.592  30.903  1.00  0.00     0.031 A 
ATOM     51  C   UNL A   1      40.288  33.558  35.829  1.00  0.00     0.031 A 
ATOM     52  C   UNL A   1      41.693  28.499  31.957  1.00  0.00     0.049 A 
ATOM     53  C   UNL A   1      41.278  32.427  35.927  1.00  0.00     0.074 A 
ATOM     54  C   UNL A   1      42.713  27.575  32.101  1.00  0.00     0.029 A 
ATOM     55  N   UNL A   1      41.765  29.348  33.052  1.00  0.00    -0.354 N 
ATOM     56  N   UNL A   1      41.505  31.456  35.075  1.00  0.00    -0.248 NA
ATOM     57  C   UNL A   1      42.126  32.387  37.127  1.00  0.00     0.031 C 
ATOM     58  C   UNL A   1      43.352  27.818  33.321  1.00  0.00     0.029 A 
ATOM     59  C   UNL A   1      42.782  28.941  33.899  1.00  0.00     0.049 A 
ATOM     60  H   UNL A   1      41.178  30.124  33.204  1.00  0.00     0.167 HD
ATOM     61  C   UNL A   1      42.541  30.705  35.624  1.00  0.00     0.074 A 
ATOM     62  C   UNL A   1      42.907  31.347  36.870  1.00  0.00     0.031 C 
ATOM     63  C   UNL A   1      43.136  29.588  35.139  1.00  0.00     0.031 A 
BRANCH  50  64
ATOM     64  C   UNL A   1      40.714  27.519  29.844  1.00  0.00    -0.014 A 
ATOM     65  C   UNL A   1      41.860  27.236  29.080  1.00  0.00     0.010 A 
ATOM     66  C   UNL A   1      39.561  26.731  29.666  1.00  0.00     0.010 A 
ATOM     67  C   UNL A   1      41.844  26.201  28.140  1.00  0.00     0.020 A 
ATOM     68  C   UNL A   1      39.551  25.678  28.748  1.00  0.00     0.020 A 
ATOM     69  C   UNL A   1      40.690  25.426  27.982  1.00  0.00     0.054 A 
BRANCH  69  70
ATOM     70  S   UNL A   1      40.714  24.061  26.788  1.00  0.00     0.124 S 
ATOM     71  O   UNL A   1      39.398  24.182  26.164  1.00  0.00    -0.237 OA
ATOM     72  O   UNL A   1      41.848  24.406  25.933  1.00  0.00    -0.237 OA
ATOM     73  O   UNL A   1      40.902  22.874  27.619  1.00  0.00    -0.744 OA
ENDBRANCH  69  70
ENDBRANCH  50  64
BRANCH  51  74
ATOM     74  C   UNL A   1      40.157  34.559  36.925  1.00  0.00    -0.014 A 
ATOM     75  C   UNL A   1      39.198  34.402  37.940  1.00  0.00     0.010 A 
ATOM     76  C   UNL A   1      41.001  35.686  36.952  1.00  0.00     0.010 A 
ATOM     77  C   UNL A   1      39.067  35.366  38.945  1.00  0.00     0.020 A 
ATOM     78  C   UNL A   1      40.895  36.634  37.973  1.00  0.00     0.020 A 
ATOM     79  C   UNL A   1      39.918  36.475  38.956  1.00  0.00     0.054 A 
BRANCH  79  80
ATOM     80  S   UNL A   1      39.755  37.691  40.292  1.00  0.00     0.124 S 
ATOM     81  O   UNL A   1      38.317  37.939  40.305  1.00  0.00    -0.237 OA
ATOM     82  O   UNL A   1      40.282  36.965  41.445  1.00  0.00    -0.237 OA
ATOM     83  O   UNL A   1      40.579  38.810  39.841  1.00  0.00    -0.744 OA
ENDBRANCH  79  80
ENDBRANCH  51  74
BRANCH  63  84
ATOM     84  C   UNL A   1      44.268  28.996  35.937  1.00  0.00    -0.014 A 
ATOM     85  C   UNL A   1      44.047  27.963  36.866  1.00  0.00     0.010 A 
ATOM     86  C   UNL A   1      45.585  29.437  35.706  1.00  0.00     0.010 A 
ATOM     87  C   UNL A   1      45.118  27.404  37.569  1.00  0.00     0.020 A 
ATOM     88  C   UNL A   1      46.662  28.858  36.382  1.00  0.00     0.020 A 
ATOM     89  C   UNL A   1      46.419  27.852  37.319  1.00  0.00     0.054 A 
BRANCH  89  90
ATOM     90  S   UNL A   1      47.795  27.073  38.208  1.00  0.00     0.124 S 
ATOM     91  O   UNL A   1      48.438  26.295  37.153  1.00  0.00    -0.237 OA
ATOM     92  O   UNL A   1      48.555  28.224  38.692  1.00  0.00    -0.237 OA
ATOM     93  O   UNL A   1      47.137  26.287  39.248  1.00  0.00    -0.744 OA
ENDBRANCH  89  90
ENDBRANCH  63  84
ENDBRANCH  37  38
ENDBRANCH  30  32
ENDBRANCH  29  30
ENDBRANCH  28  29
ENDBRANCH  27  28
ENDBRANCH  26  27
ENDBRANCH   1  26
TORSDOF 21
ENDMDL
MODEL 2
REMARK VINA RESULT:      -9.7      5.315     10.034
REMARK SMILES C[N@H+]1CCO[C@@H](CNS(=O)(=O)N2CCC(C(=O)OCCOCCOC(=O)c3ccc(-c4c5nc(c(-c6ccc(S(=O)(=O)[O-])cc6)c6ccc([nH]6)c(-c6ccc(S(=O)(=O)[O-])cc6)c6nc(c(-c7ccc(S(=O)(=O)[O-])cc7)c7ccc4[nH]7)C=C6)C=C5)cc3)CC2)C1
REMARK SMILES IDX 20 1 19 2 18 3 16 4 17 5 15 6 12 7 13 8 88 9 14 10 87 11
REMARK SMILES IDX 9 12 10 13 11 14 8 15 7 17 6 18 1 19 2 20 3 21 89 22 4 24
REMARK SMILES IDX 5 25 21 26 22 27 23 28 24 29 25 30 26 31 27 32 28 33 86 34
REMARK SMILES IDX 29 35 85 36 30 37 31 38 32 39 79 40 33 41 84 42 78 43 80 44
REMARK SMILES IDX 34 45 83 46 77 47 76 48 35 50 65 51 46 52 64 53 47 54 50 55
REMARK SMILES IDX 63 56 81 57 48 58 49 59 62 61 82 62 51 63 36 64 37 65 45 66
REMARK SMILES IDX 38 67 44 68 39 69 40 70 41 71 42 72 43 73 66 74 67 75 75 76
REMARK SMILES IDX 68 77 74 78 69 79 70 80 71 81 72 82 73 83 52 84 53 85 61 86
REMARK SMILES IDX 54 87 60 88 55 89 56 90 57 91 58 92 59 93
REMARK H PARENT 8 16 2 23 80 49 50 60
REMARK Flexibility Score: inf
ROOT
ATOM      1  C   UNL A   1      33.570  32.080  27.902  1.00  0.00     0.202 C 
ENDROOT
BRANCH   1   2
ATOM      2  C   UNL A   1      34.013  30.733  27.322  1.00  0.00     0.261 C 
BRANCH   2   3
ATOM      3  O   UNL A   1      32.926  29.829  27.094  1.00  0.00    -0.463 OA
BRANCH   3   4
ATOM      4  C   UNL A   1      33.184  28.775  26.272  1.00  0.00     0.309 C 
ATOM      5  O   UNL A   1      33.659  27.704  26.630  1.00  0.00    -0.252 OA
BRANCH   4   6
ATOM      6  C   UNL A   1      32.883  29.089  24.810  1.00  0.00     0.102 C 
ATOM      7  N   UNL A   1      32.369  27.587  22.453  1.00  0.00    -0.189 NA
ATOM      8  C   UNL A   1      31.197  28.196  23.062  1.00  0.00     0.104 C 
ATOM      9  C   UNL A   1      33.521  28.493  22.409  1.00  0.00     0.104 C 
ATOM     10  C   UNL A   1      31.503  28.474  24.532  1.00  0.00     0.032 C 
ATOM     11  C   UNL A   1      34.009  28.669  23.838  1.00  0.00     0.032 C 
BRANCH   7  12
ATOM     12  S   UNL A   1      32.585  25.997  22.030  1.00  0.00     0.279 S 
ATOM     13  O   UNL A   1      33.997  25.718  22.123  1.00  0.00    -0.195 OA
ATOM     14  O   UNL A   1      31.873  25.764  20.794  1.00  0.00    -0.195 OA
BRANCH  12  15
ATOM     15  N   UNL A   1      31.829  25.065  23.212  1.00  0.00    -0.199 NA
ATOM     16  H   UNL A   1      31.292  25.695  23.809  1.00  0.00     0.142 HD
BRANCH  15  17
ATOM     17  C   UNL A   1      32.716  24.271  24.082  1.00  0.00     0.138 C 
BRANCH  17  18
ATOM     18  C   UNL A   1      32.622  24.438  25.599  1.00  0.00     0.188 C 
ATOM     19  C   UNL A   1      31.965  21.285  25.233  1.00  0.00     0.332 C 
ATOM     20  N   UNL A   1      32.240  22.063  26.431  1.00  0.00    -0.333 N 
ATOM     21  C   UNL A   1      33.654  22.051  26.843  1.00  0.00     0.290 C 
ATOM     22  C   UNL A   1      31.741  23.444  26.371  1.00  0.00     0.295 C 
ATOM     23  H   UNL A   1      31.708  21.576  27.151  1.00  0.00     0.348 HD
ATOM     24  C   UNL A   1      34.538  23.082  26.119  1.00  0.00     0.222 C 
ATOM     25  O   UNL A   1      33.973  24.404  26.139  1.00  0.00    -0.365 OA
ENDBRANCH  17  18
ENDBRANCH  15  17
ENDBRANCH  12  15
ENDBRANCH   7  12
ENDBRANCH   4   6
ENDBRANCH   3   4
ENDBRANCH   2   3
ENDBRANCH   1   2
BRANCH   1  26
ATOM     26  O   UNL A   1      34.345  33.236  27.602  1.00  0.00    -0.374 OA
BRANCH  26  27
ATOM     27  C   UNL A   1      34.052  34.447  28.292  1.00  0.00     0.202 C 
BRANCH  27  28
ATOM     28  C   UNL A   1      33.945  34.428  29.822  1.00  0.00     0.261 C 
BRANCH  28  29
ATOM     29  O   UNL A   1      35.179  34.106  30.485  1.00  0.00    -0.460 OA
BRANCH  29  30
ATOM     30  C   UNL A   1      35.182  32.886  31.079  1.00  0.00     0.338 C 
ATOM     31  O   UNL A   1      34.268  32.374  31.705  1.00  0.00    -0.246 OA
BRANCH  30  32
ATOM     32  C   UNL A   1      36.398  32.135  30.719  1.00  0.00     0.060 A 
ATOM     33  C   UNL A   1      37.175  31.630  31.771  1.00  0.00     0.016 A 
ATOM     34  C   UNL A   1      36.835  32.033  29.400  1.00  0.00     0.016 A 
ATOM     35  C   UNL A   1      38.422  31.067  31.509  1.00  0.00     0.010 A 
ATOM     36  C   UNL A   1      38.092  31.472  29.140  1.00  0.00     0.010 A 
ATOM     37  C   UNL A   1      38.906  31.022  30.197  1.00  0.00    -0.014 A 
BRANCH  37  38
ATOM     38  C   UNL A   1      40.310  30.608  29.946  1.00  0.00     0.031 A 
ATOM     39  C   UNL A   1      41.414  31.620  30.083  1.00  0.00     0.074 A 
ATOM     40  C   UNL A   1      40.597  29.335  29.615  1.00  0.00     0.049 A 
ATOM     41  N   UNL A   1      42.695  31.479  29.859  1.00  0.00    -0.248 NA
ATOM     42  C   UNL A   1      41.028  32.966  30.538  1.00  0.00     0.031 C 
ATOM     43  C   UNL A   1      39.621  28.254  29.509  1.00  0.00     0.029 A 
ATOM     44  N   UNL A   1      41.790  28.742  29.289  1.00  0.00    -0.354 N 
ATOM     45  C   UNL A   1      43.265  32.718  30.126  1.00  0.00     0.074 A 
ATOM     46  C   UNL A   1      42.190  33.605  30.513  1.00  0.00     0.031 C 
ATOM     47  C   UNL A   1      40.243  27.137  29.101  1.00  0.00     0.029 A 
ATOM     48  C   UNL A   1      41.660  27.429  28.900  1.00  0.00     0.049 A 
ATOM     49  H   UNL A   1      42.655  29.209  29.329  1.00  0.00     0.167 HD
ATOM     50  C   UNL A   1      44.569  33.080  30.056  1.00  0.00     0.031 A 
ATOM     51  C   UNL A   1      42.573  26.567  28.410  1.00  0.00     0.031 A 
ATOM     52  C   UNL A   1      45.632  32.191  29.667  1.00  0.00     0.049 A 
ATOM     53  C   UNL A   1      44.004  27.016  28.273  1.00  0.00     0.074 A 
ATOM     54  C   UNL A   1      46.989  32.454  29.604  1.00  0.00     0.029 A 
ATOM     55  N   UNL A   1      45.460  30.876  29.260  1.00  0.00    -0.354 N 
ATOM     56  N   UNL A   1      44.536  28.177  28.577  1.00  0.00    -0.248 NA
ATOM     57  C   UNL A   1      44.961  26.037  27.738  1.00  0.00     0.031 C 
ATOM     58  C   UNL A   1      47.628  31.323  29.087  1.00  0.00     0.029 A 
ATOM     59  C   UNL A   1      46.681  30.329  28.902  1.00  0.00     0.049 A 
ATOM     60  H   UNL A   1      44.597  30.402  29.231  1.00  0.00     0.167 HD
ATOM     61  C   UNL A   1      45.893  28.058  28.295  1.00  0.00     0.074 A 
ATOM     62  C   UNL A   1      46.103  26.707  27.816  1.00  0.00     0.031 C 
ATOM     63  C   UNL A   1      46.877  28.982  28.424  1.00  0.00     0.031 A 
BRANCH  50  64
ATOM     64  C   UNL A   1      44.922  34.513  30.364  1.00  0.00    -0.014 A 
ATOM     65  C   UNL A   1      44.906  35.506  29.369  1.00  0.00     0.010 A 
ATOM     66  C   UNL A   1      45.203  34.881  31.693  1.00  0.00     0.010 A 
ATOM     67  C   UNL A   1      45.189  36.837  29.694  1.00  0.00     0.020 A 
ATOM     68  C   UNL A   1      45.458  36.214  32.027  1.00  0.00     0.020 A 
ATOM     69  C   UNL A   1      45.460  37.183  31.022  1.00  0.00     0.054 A 
BRANCH  69  70
ATOM     70  S   UNL A   1      45.778  38.923  31.421  1.00  0.00     0.124 S 
ATOM     71  O   UNL A   1      46.507  38.816  32.683  1.00  0.00    -0.237 OA
ATOM     72  O   UNL A   1      46.567  39.373  30.277  1.00  0.00    -0.237 OA
ATOM     73  O   UNL A   1      44.443  39.507  31.522  1.00  0.00    -0.744 OA
ENDBRANCH  69  70
ENDBRANCH  50  64
BRANCH  51  74
ATOM     74  C   UNL A   1      42.154  25.204  27.979  1.00  0.00    -0.014 A 
ATOM     75  C   UNL A   1      41.504  25.000  26.750  1.00  0.00     0.010 A 
ATOM     76  C   UNL A   1      42.405  24.095  28.811  1.00  0.00     0.010 A 
ATOM     77  C   UNL A   1      41.090  23.717  26.374  1.00  0.00     0.020 A 
ATOM     78  C   UNL A   1      42.021  22.809  28.424  1.00  0.00     0.020 A 
ATOM     79  C   UNL A   1      41.352  22.631  27.212  1.00  0.00     0.054 A 
BRANCH  79  80
ATOM     80  S   UNL A   1      40.840  20.973  26.684  1.00  0.00     0.124 S 
ATOM     81  O   UNL A   1      39.551  21.239  26.053  1.00  0.00    -0.237 OA
ATOM     82  O   UNL A   1      41.919  20.582  25.781  1.00  0.00    -0.237 OA
ATOM     83  O   UNL A   1      40.780  20.217  27.934  1.00  0.00    -0.744 OA
ENDBRANCH  79  80
ENDBRANCH  51  74
BRANCH  63  84
ATOM     84  C   UNL A   1      48.280  28.563  28.070  1.00  0.00    -0.014 A 
ATOM     85  C   UNL A   1      49.125  27.958  29.019  1.00  0.00     0.010 A 
ATOM     86  C   UNL A   1      48.738  28.719  26.748  1.00  0.00     0.010 A 
ATOM     87  C   UNL A   1      50.409  27.544  28.659  1.00  0.00     0.020 A 
ATOM     88  C   UNL A   1      50.010  28.275  26.376  1.00  0.00     0.020 A 
ATOM     89  C   UNL A   1      50.843  27.701  27.338  1.00  0.00     0.054 A 
BRANCH  89  90
ATOM     90  S   UNL A   1      52.495  27.108  26.886  1.00  0.00     0.124 S 
ATOM     91  O   UNL A   1      53.351  27.861  27.799  1.00  0.00    -0.237 OA
ATOM     92  O   UNL A   1      52.403  25.674  27.151  1.00  0.00    -0.237 OA
ATOM     93  O   UNL A   1      52.622  27.468  25.476  1.00  0.00    -0.744 OA
ENDBRANCH  89  90
ENDBRANCH  63  84
ENDBRANCH  37  38
ENDBRANCH  30  32
ENDBRANCH  29  30
ENDBRANCH  28  29
ENDBRANCH  27  28
ENDBRANCH  26  27
ENDBRANCH   1  26
TORSDOF 21
ENDMDL
MODEL 3
REMARK VINA RESULT:      -9.6      0.647      8.038
REMARK SMILES C[N@H+]1CCO[C@@H](CNS(=O)(=O)N2CCC(C(=O)OCCOCCOC(=O)c3ccc(-c4c5nc(c(-c6ccc(S(=O)(=O)[O-])cc6)c6ccc([nH]6)c(-c6ccc(S(=O)(=O)[O-])cc6)c6nc(c(-c7ccc(S(=O)(=O)[O-])cc7)c7ccc4[nH]7)C=C6)C=C5)cc3)CC2)C1
REMARK SMILES IDX 20 1 19 2 18 3 16 4 17 5 15 6 12 7 13 8 88 9 14 10 87 11
REMARK SMILES IDX 9 12 10 13 11 14 8 15 7 17 6 18 1 19 2 20 3 21 89 22 4 24
REMARK SMILES IDX 5 25 21 26 22 27 23 28 24 29 25 30 26 31 27 32 28 33 86 34
REMARK SMILES IDX 29 35 85 36 30 37 31 38 32 39 79 40 33 41 84 42 78 43 80 44
REMARK SMILES IDX 34 45 83 46 77 47 76 48 35 50 65 51 46 52 64 53 47 54 50 55
REMARK SMILES IDX 63 56 81 57 48 58 49 59 62 61 82 62 51 63 36 64 37 65 45 66
REMARK SMILES IDX 38 67 44 68 39 69 40 70 41 71 42 72 43 73 66 74 67 75 75 76
REMARK SMILES IDX 68 77 74 78 69 79 70 80 71 81 72 82 73 83 52 84 53 85 61 86
REMARK SMILES IDX 54 87 60 88 55 89 56 90 57 91 58 92 59 93
REMARK H PARENT 8 16 2 23 80 49 50 60
REMARK Flexibility Score: inf
ROOT
ATOM      1  C   UNL A   1      34.153  31.210  27.486  1.00  0.00     0.202 C 
ENDROOT
BRANCH   1   2
ATOM      2  C   UNL A   1      34.627  29.854  28.019  1.00  0.00     0.261 C 
BRANCH   2   3
ATOM      3  O   UNL A   1      33.765  28.769  27.655  1.00  0.00    -0.463 OA
BRANCH   3   4
ATOM      4  C   UNL A   1      34.008  28.188  26.448  1.00  0.00     0.309 C 
ATOM      5  O   UNL A   1      34.832  28.583  25.632  1.00  0.00    -0.252 OA
BRANCH   4   6
ATOM      6  C   UNL A   1      33.082  27.008  26.170  1.00  0.00     0.102 C 
ATOM      7  N   UNL A   1      30.969  26.442  24.358  1.00  0.00    -0.189 NA
ATOM      8  C   UNL A   1      32.239  25.813  24.036  1.00  0.00     0.104 C 
ATOM      9  C   UNL A   1      30.641  26.362  25.785  1.00  0.00     0.104 C 
ATOM     10  C   UNL A   1      33.357  26.602  24.715  1.00  0.00     0.032 C 
ATOM     11  C   UNL A   1      31.602  27.283  26.518  1.00  0.00     0.032 C 
BRANCH   7  12
ATOM     12  S   UNL A   1      30.016  27.374  23.370  1.00  0.00     0.279 S 
ATOM     13  O   UNL A   1      28.649  26.970  23.587  1.00  0.00    -0.195 OA
ATOM     14  O   UNL A   1      30.586  27.343  22.042  1.00  0.00    -0.195 OA
BRANCH  12  15
ATOM     15  N   UNL A   1      30.144  28.963  23.918  1.00  0.00    -0.199 NA
ATOM     16  H   UNL A   1      29.587  29.043  24.769  1.00  0.00     0.142 HD
BRANCH  15  17
ATOM     17  C   UNL A   1      29.694  30.012  22.985  1.00  0.00     0.138 C 
BRANCH  17  18
ATOM     18  C   UNL A   1      28.196  30.267  22.813  1.00  0.00     0.188 C 
ATOM     19  C   UNL A   1      29.352  33.278  23.136  1.00  0.00     0.332 C 
ATOM     20  N   UNL A   1      28.035  32.805  22.738  1.00  0.00    -0.333 N 
ATOM     21  C   UNL A   1      27.855  32.685  21.281  1.00  0.00     0.290 C 
ATOM     22  C   UNL A   1      27.622  31.563  23.405  1.00  0.00     0.295 C 
ATOM     23  H   UNL A   1      27.415  33.547  23.062  1.00  0.00     0.348 HD
ATOM     24  C   UNL A   1      28.374  31.366  20.682  1.00  0.00     0.222 C 
ATOM     25  O   UNL A   1      27.892  30.212  21.390  1.00  0.00    -0.365 OA
ENDBRANCH  17  18
ENDBRANCH  15  17
ENDBRANCH  12  15
ENDBRANCH   7  12
ENDBRANCH   4   6
ENDBRANCH   3   4
ENDBRANCH   2   3
ENDBRANCH   1   2
BRANCH   1  26
ATOM     26  O   UNL A   1      32.758  31.410  27.287  1.00  0.00    -0.374 OA
BRANCH  26  27
ATOM     27  C   UNL A   1      32.255  32.742  27.304  1.00  0.00     0.202 C 
BRANCH  27  28
ATOM     28  C   UNL A   1      33.161  33.878  27.797  1.00  0.00     0.261 C 
BRANCH  28  29
ATOM     29  O   UNL A   1      32.479  34.859  28.594  1.00  0.00    -0.460 OA
BRANCH  29  30
ATOM     30  C   UNL A   1      33.256  35.430  29.548  1.00  0.00     0.338 C 
ATOM     31  O   UNL A   1      33.040  36.475  30.140  1.00  0.00    -0.246 OA
BRANCH  30  32
ATOM     32  C   UNL A   1      34.349  34.523  29.942  1.00  0.00     0.060 A 
ATOM     33  C   UNL A   1      34.110  33.658  31.019  1.00  0.00     0.016 A 
ATOM     34  C   UNL A   1      35.613  34.599  29.359  1.00  0.00     0.016 A 
ATOM     35  C   UNL A   1      35.151  32.905  31.554  1.00  0.00     0.010 A 
ATOM     36  C   UNL A   1      36.660  33.845  29.903  1.00  0.00     0.010 A 
ATOM     37  C   UNL A   1      36.442  33.023  31.026  1.00  0.00    -0.014 A 
BRANCH  37  38
ATOM     38  C   UNL A   1      37.583  32.376  31.722  1.00  0.00     0.031 A 
ATOM     39  C   UNL A   1      38.027  32.901  33.060  1.00  0.00     0.074 A 
ATOM     40  C   UNL A   1      38.206  31.318  31.171  1.00  0.00     0.049 A 
ATOM     41  N   UNL A   1      39.028  32.514  33.806  1.00  0.00    -0.248 NA
ATOM     42  C   UNL A   1      37.236  34.001  33.636  1.00  0.00     0.031 C 
ATOM     43  C   UNL A   1      37.829  30.685  29.909  1.00  0.00     0.029 A 
ATOM     44  N   UNL A   1      39.297  30.601  31.592  1.00  0.00    -0.354 N 
ATOM     45  C   UNL A   1      39.002  33.333  34.929  1.00  0.00     0.074 A 
ATOM     46  C   UNL A   1      37.895  34.250  34.760  1.00  0.00     0.031 C 
ATOM     47  C   UNL A   1      38.700  29.701  29.633  1.00  0.00     0.029 A 
ATOM     48  C   UNL A   1      39.706  29.646  30.691  1.00  0.00     0.049 A 
ATOM     49  H   UNL A   1      39.744  30.755  32.455  1.00  0.00     0.167 HD
ATOM     50  C   UNL A   1      39.826  33.318  36.004  1.00  0.00     0.031 A 
ATOM     51  C   UNL A   1      40.785  28.838  30.702  1.00  0.00     0.031 A 
ATOM     52  C   UNL A   1      40.927  32.405  36.163  1.00  0.00     0.049 A 
ATOM     53  C   UNL A   1      41.727  28.891  31.875  1.00  0.00     0.074 A 
ATOM     54  C   UNL A   1      41.795  32.285  37.234  1.00  0.00     0.029 A 
ATOM     55  N   UNL A   1      41.323  31.466  35.221  1.00  0.00    -0.354 N 
ATOM     56  N   UNL A   1      41.660  29.636  32.953  1.00  0.00    -0.248 NA
ATOM     57  C   UNL A   1      42.885  27.986  31.840  1.00  0.00     0.031 C 
ATOM     58  C   UNL A   1      42.761  31.328  36.908  1.00  0.00     0.029 A 
ATOM     59  C   UNL A   1      42.449  30.795  35.668  1.00  0.00     0.049 A 
ATOM     60  H   UNL A   1      40.870  31.302  34.362  1.00  0.00     0.167 HD
ATOM     61  C   UNL A   1      42.751  29.271  33.735  1.00  0.00     0.074 A 
ATOM     62  C   UNL A   1      43.449  28.225  33.017  1.00  0.00     0.031 C 
ATOM     63  C   UNL A   1      43.138  29.756  34.941  1.00  0.00     0.031 A 
BRANCH  50  64
ATOM     64  C   UNL A   1      39.602  34.349  37.081  1.00  0.00    -0.014 A 
ATOM     65  C   UNL A   1      38.881  34.049  38.250  1.00  0.00     0.010 A 
ATOM     66  C   UNL A   1      40.191  35.621  36.949  1.00  0.00     0.010 A 
ATOM     67  C   UNL A   1      38.733  35.010  39.255  1.00  0.00     0.020 A 
ATOM     68  C   UNL A   1      40.069  36.574  37.963  1.00  0.00     0.020 A 
ATOM     69  C   UNL A   1      39.331  36.266  39.107  1.00  0.00     0.054 A 
BRANCH  69  70
ATOM     70  S   UNL A   1      39.160  37.476  40.447  1.00  0.00     0.124 S 
ATOM     71  O   UNL A   1      38.140  38.376  39.913  1.00  0.00    -0.237 OA
ATOM     72  O   UNL A   1      38.737  36.646  41.573  1.00  0.00    -0.237 OA
ATOM     73  O   UNL A   1      40.496  38.053  40.568  1.00  0.00    -0.744 OA
ENDBRANCH  69  70
ENDBRANCH  50  64
BRANCH  51  74
ATOM     74  C   UNL A   1      41.050  27.935  29.547  1.00  0.00    -0.014 A 
ATOM     75  C   UNL A   1      40.428  26.678  29.451  1.00  0.00     0.010 A 
ATOM     76  C   UNL A   1      41.938  28.336  28.530  1.00  0.00     0.010 A 
ATOM     77  C   UNL A   1      40.710  25.829  28.376  1.00  0.00     0.020 A 
ATOM     78  C   UNL A   1      42.197  27.503  27.438  1.00  0.00     0.020 A 
ATOM     79  C   UNL A   1      41.591  26.248  27.375  1.00  0.00     0.054 A 
BRANCH  79  80
ATOM     80  S   UNL A   1      41.911  25.145  25.971  1.00  0.00     0.124 S 
ATOM     81  O   UNL A   1      41.114  25.759  24.914  1.00  0.00    -0.237 OA
ATOM     82  O   UNL A   1      43.359  25.249  25.813  1.00  0.00    -0.237 OA
ATOM     83  O   UNL A   1      41.434  23.845  26.439  1.00  0.00    -0.744 OA
ENDBRANCH  79  80
ENDBRANCH  51  74
BRANCH  63  84
ATOM     84  C   UNL A   1      44.357  29.145  35.582  1.00  0.00    -0.014 A 
ATOM     85  C   UNL A   1      44.258  28.015  36.413  1.00  0.00     0.010 A 
ATOM     86  C   UNL A   1      45.629  29.673  35.293  1.00  0.00     0.010 A 
ATOM     87  C   UNL A   1      45.407  27.443  36.966  1.00  0.00     0.020 A 
ATOM     88  C   UNL A   1      46.783  29.083  35.818  1.00  0.00     0.020 A 
ATOM     89  C   UNL A   1      46.662  27.978  36.662  1.00  0.00     0.054 A 
BRANCH  89  90
ATOM     90  S   UNL A   1      48.139  27.185  37.352  1.00  0.00     0.124 S 
ATOM     91  O   UNL A   1      47.587  25.967  37.938  1.00  0.00    -0.237 OA
ATOM     92  O   UNL A   1      48.979  26.990  36.172  1.00  0.00    -0.237 OA
ATOM     93  O   UNL A   1      48.644  28.163  38.313  1.00  0.00    -0.744 OA
ENDBRANCH  89  90
ENDBRANCH  63  84
ENDBRANCH  37  38
ENDBRANCH  30  32
ENDBRANCH  29  30
ENDBRANCH  28  29
ENDBRANCH  27  28
ENDBRANCH  26  27
ENDBRANCH   1  26
TORSDOF 21
ENDMDL
