MODEL 1
REMARK VINA RESULT:      -8.5      0.000      0.000
REMARK SMILES COc1ccc2c(c1)c(Cc1nc(-c3ccc(C(=O)OCCOCCOC(=O)c4ccc(-c5c6nc(c(-c7ccc(S(=O)(=O)[O-])cc7)c7ccc([nH]7)c(-c7ccc(S(=O)(=O)[O-])cc7)c7nc(c(-c8ccc(S(=O)(=O)[O-])cc8)c8ccc5[nH]8)C=C7)C=C6)cc4)cc3)cs1)c(C)n2C(=O)c1ccc(Cl)cc1
REMARK SMILES IDX 22 1 21 2 20 3 18 4 19 5 17 6 14 7 15 8 90 9 16 10 89 11
REMARK SMILES IDX 13 12 11 13 12 14 92 15 91 16 10 17 9 18 3 19 4 20 8 21 5 22
REMARK SMILES IDX 7 23 6 24 95 25 93 26 94 27 2 28 1 29 96 30 97 31 98 32
REMARK SMILES IDX 99 33 104 34 100 35 103 36 101 37 102 38 23 39 24 40 25 41
REMARK SMILES IDX 26 42 27 43 28 44 29 45 30 46 88 47 31 48 87 49 32 50 33 51
REMARK SMILES IDX 34 52 81 53 35 54 86 55 80 56 82 57 36 58 85 59 79 60 78 61
REMARK SMILES IDX 37 63 67 64 48 65 66 66 49 67 52 68 65 69 83 70 50 71 51 72
REMARK SMILES IDX 64 74 84 75 53 76 38 77 39 78 47 79 40 80 46 81 41 82 42 83
REMARK SMILES IDX 43 84 44 85 45 86 68 87 69 88 77 89 70 90 76 91 71 92 72 93
REMARK SMILES IDX 73 94 74 95 75 96 54 97 55 98 63 99 56 100 62 101 57 102
REMARK SMILES IDX 58 103 59 104 60 105 61 106
REMARK H PARENT 82 62 52 73
REMARK Flexibility Score: inf
ROOT
ATOM      1  C   UNL A   1      44.404  41.811  28.527  1.00  0.00     0.202 C 
ENDROOT
BRANCH   1   2
ATOM      2  C   UNL A   1      43.660  40.694  27.781  1.00  0.00     0.261 C 
BRANCH   2   3
ATOM      3  O   UNL A   1      43.907  39.400  28.330  1.00  0.00    -0.460 OA
BRANCH   3   4
ATOM      4  C   UNL A   1      42.866  38.546  28.154  1.00  0.00     0.338 C 
ATOM      5  O   UNL A   1      41.807  38.779  27.610  1.00  0.00    -0.246 OA
BRANCH   4   6
ATOM      6  C   UNL A   1      43.309  37.174  28.476  1.00  0.00     0.060 A 
ATOM      7  C   UNL A   1      44.347  34.663  29.122  1.00  0.00     0.001 A 
ATOM      8  C   UNL A   1      45.210  35.736  28.866  1.00  0.00     0.011 A 
ATOM      9  C   UNL A   1      42.958  34.863  29.069  1.00  0.00     0.011 A 
ATOM     10  C   UNL A   1      44.693  36.982  28.537  1.00  0.00     0.016 A 
ATOM     11  C   UNL A   1      42.433  36.124  28.764  1.00  0.00     0.016 A 
BRANCH   7  12
ATOM     12  C   UNL A   1      44.898  33.334  29.310  1.00  0.00     0.081 A 
ATOM     13  C   UNL A   1      45.642  31.399  28.551  1.00  0.00     0.098 A 
ATOM     14  N   UNL A   1      44.831  32.404  28.299  1.00  0.00    -0.241 NA
ATOM     15  S   UNL A   1      46.326  31.400  30.129  1.00  0.00    -0.126 S 
ATOM     16  C   UNL A   1      45.599  32.928  30.428  1.00  0.00     0.095 A 
BRANCH  13  17
ATOM     17  C   UNL A   1      45.948  30.306  27.567  1.00  0.00     0.105 C 
BRANCH  17  18
ATOM     18  C   UNL A   1      45.068  29.084  27.729  1.00  0.00    -0.012 A 
ATOM     19  C   UNL A   1      46.716  26.206  29.643  1.00  0.00     0.119 A 
ATOM     20  C   UNL A   1      45.700  25.291  29.445  1.00  0.00     0.048 A 
ATOM     21  C   UNL A   1      46.590  27.491  29.116  1.00  0.00     0.057 A 
ATOM     22  C   UNL A   1      44.561  25.640  28.711  1.00  0.00     0.031 A 
ATOM     23  C   UNL A   1      45.434  27.882  28.401  1.00  0.00     0.008 A 
ATOM     24  C   UNL A   1      44.398  26.960  28.229  1.00  0.00     0.057 A 
ATOM     25  N   UNL A   1      43.344  27.604  27.552  1.00  0.00    -0.280 N 
ATOM     26  C   UNL A   1      43.793  28.893  27.205  1.00  0.00     0.028 A 
ATOM     27  C   UNL A   1      43.028  29.900  26.405  1.00  0.00     0.065 C 
BRANCH  19  28
ATOM     28  O   UNL A   1      47.856  25.971  30.356  1.00  0.00    -0.497 OA
ATOM     29  C   UNL A   1      48.501  27.131  30.875  1.00  0.00     0.278 C 
ENDBRANCH  19  28
BRANCH  25  30
ATOM     30  C   UNL A   1      42.069  27.031  27.249  1.00  0.00     0.262 C 
ATOM     31  O   UNL A   1      42.002  26.087  26.462  1.00  0.00    -0.268 OA
BRANCH  30  32
ATOM     32  C   UNL A   1      40.782  27.440  27.841  1.00  0.00     0.040 A 
ATOM     33  C   UNL A   1      39.967  28.394  27.220  1.00  0.00     0.015 A 
ATOM     34  C   UNL A   1      40.415  26.882  29.072  1.00  0.00     0.015 A 
ATOM     35  C   UNL A   1      38.832  28.864  27.889  1.00  0.00     0.021 A 
ATOM     36  C   UNL A   1      39.274  27.346  29.728  1.00  0.00     0.021 A 
ATOM     37  C   UNL A   1      38.501  28.350  29.145  1.00  0.00     0.041 A 
ATOM     38  Cl  UNL A   1      37.142  28.974  29.995  1.00  0.00    -0.084 Cl
ENDBRANCH  30  32
ENDBRANCH  25  30
ENDBRANCH  17  18
ENDBRANCH  13  17
ENDBRANCH   7  12
ENDBRANCH   4   6
ENDBRANCH   3   4
ENDBRANCH   2   3
ENDBRANCH   1   2
BRANCH   1  39
ATOM     39  O   UNL A   1      44.808  41.622  29.879  1.00  0.00    -0.374 OA
BRANCH  39  40
ATOM     40  C   UNL A   1      43.883  41.978  30.909  1.00  0.00     0.202 C 
BRANCH  40  41
ATOM     41  C   UNL A   1      43.523  40.948  31.998  1.00  0.00     0.261 C 
BRANCH  41  42
ATOM     42  O   UNL A   1      44.305  39.750  31.886  1.00  0.00    -0.460 OA
BRANCH  42  43
ATOM     43  C   UNL A   1      44.932  39.353  33.031  1.00  0.00     0.338 C 
ATOM     44  O   UNL A   1      45.491  40.055  33.847  1.00  0.00    -0.246 OA
BRANCH  43  45
ATOM     45  C   UNL A   1      44.431  37.983  33.291  1.00  0.00     0.060 A 
ATOM     46  C   UNL A   1      44.032  37.157  32.234  1.00  0.00     0.016 A 
ATOM     47  C   UNL A   1      44.013  37.731  34.607  1.00  0.00     0.016 A 
ATOM     48  C   UNL A   1      43.117  36.138  32.488  1.00  0.00     0.010 A 
ATOM     49  C   UNL A   1      43.058  36.748  34.844  1.00  0.00     0.010 A 
ATOM     50  C   UNL A   1      42.576  35.983  33.778  1.00  0.00    -0.014 A 
BRANCH  50  51
ATOM     51  C   UNL A   1      41.683  34.847  34.030  1.00  0.00     0.031 A 
ATOM     52  C   UNL A   1      42.265  33.578  33.511  1.00  0.00     0.074 A 
ATOM     53  C   UNL A   1      40.555  34.853  34.776  1.00  0.00     0.049 A 
ATOM     54  N   UNL A   1      41.802  32.804  32.585  1.00  0.00    -0.248 NA
ATOM     55  C   UNL A   1      43.624  33.229  33.964  1.00  0.00     0.031 C 
ATOM     56  C   UNL A   1      40.010  35.941  35.590  1.00  0.00     0.029 A 
ATOM     57  N   UNL A   1      39.692  33.826  35.052  1.00  0.00    -0.354 N 
ATOM     58  C   UNL A   1      42.721  31.765  32.477  1.00  0.00     0.074 A 
ATOM     59  C   UNL A   1      43.899  32.184  33.189  1.00  0.00     0.031 C 
ATOM     60  C   UNL A   1      39.073  35.455  36.438  1.00  0.00     0.029 A 
ATOM     61  C   UNL A   1      38.860  34.049  36.150  1.00  0.00     0.049 A 
ATOM     62  H   UNL A   1      39.662  32.998  34.520  1.00  0.00     0.167 HD
ATOM     63  C   UNL A   1      42.373  30.531  32.023  1.00  0.00     0.031 A 
ATOM     64  C   UNL A   1      38.105  33.135  36.823  1.00  0.00     0.031 A 
ATOM     65  C   UNL A   1      41.137  30.561  31.291  1.00  0.00     0.049 A 
ATOM     66  C   UNL A   1      37.929  31.970  35.925  1.00  0.00     0.074 A 
ATOM     67  C   UNL A   1      40.713  31.194  30.140  1.00  0.00     0.029 A 
ATOM     68  N   UNL A   1      39.999  30.171  31.954  1.00  0.00    -0.354 N 
ATOM     69  N   UNL A   1      37.255  32.009  34.811  1.00  0.00    -0.248 NA
ATOM     70  C   UNL A   1      38.889  30.886  36.048  1.00  0.00     0.031 C 
ATOM     71  C   UNL A   1      39.368  31.574  30.407  1.00  0.00     0.029 A 
ATOM     72  C   UNL A   1      39.019  31.084  31.667  1.00  0.00     0.049 A 
ATOM     73  H   UNL A   1      39.906  29.380  32.532  1.00  0.00     0.167 HD
ATOM     74  C   UNL A   1      38.001  31.244  33.928  1.00  0.00     0.074 A 
ATOM     75  C   UNL A   1      38.960  30.522  34.766  1.00  0.00     0.031 C 
ATOM     76  C   UNL A   1      37.962  31.468  32.583  1.00  0.00     0.031 A 
BRANCH  63  77
ATOM     77  C   UNL A   1      42.976  29.259  32.563  1.00  0.00    -0.014 A 
ATOM     78  C   UNL A   1      42.670  28.741  33.840  1.00  0.00     0.010 A 
ATOM     79  C   UNL A   1      43.692  28.413  31.693  1.00  0.00     0.010 A 
ATOM     80  C   UNL A   1      43.077  27.472  34.249  1.00  0.00     0.020 A 
ATOM     81  C   UNL A   1      44.065  27.117  32.075  1.00  0.00     0.020 A 
ATOM     82  C   UNL A   1      43.765  26.661  33.358  1.00  0.00     0.054 A 
BRANCH  82  83
ATOM     83  S   UNL A   1      44.198  24.992  33.897  1.00  0.00     0.124 S 
ATOM     84  O   UNL A   1      44.306  24.286  32.623  1.00  0.00    -0.237 OA
ATOM     85  O   UNL A   1      45.456  25.209  34.607  1.00  0.00    -0.237 OA
ATOM     86  O   UNL A   1      43.068  24.600  34.736  1.00  0.00    -0.744 OA
ENDBRANCH  82  83
ENDBRANCH  63  77
BRANCH  64  87
ATOM     87  C   UNL A   1      37.971  32.991  38.306  1.00  0.00    -0.014 A 
ATOM     88  C   UNL A   1      36.723  32.648  38.862  1.00  0.00     0.010 A 
ATOM     89  C   UNL A   1      38.950  33.511  39.181  1.00  0.00     0.010 A 
ATOM     90  C   UNL A   1      36.426  32.896  40.209  1.00  0.00     0.020 A 
ATOM     91  C   UNL A   1      38.659  33.762  40.538  1.00  0.00     0.020 A 
ATOM     92  C   UNL A   1      37.382  33.490  41.030  1.00  0.00     0.054 A 
BRANCH  92  93
ATOM     93  S   UNL A   1      36.881  33.982  42.708  1.00  0.00     0.124 S 
ATOM     94  O   UNL A   1      37.488  32.934  43.523  1.00  0.00    -0.237 OA
ATOM     95  O   UNL A   1      37.486  35.306  42.842  1.00  0.00    -0.237 OA
ATOM     96  O   UNL A   1      35.423  33.970  42.656  1.00  0.00    -0.744 OA
ENDBRANCH  92  93
ENDBRANCH  64  87
BRANCH  76  97
ATOM     97  C   UNL A   1      36.890  32.369  32.004  1.00  0.00    -0.014 A 
ATOM     98  C   UNL A   1      35.716  31.737  31.553  1.00  0.00     0.010 A 
ATOM     99  C   UNL A   1      37.084  33.728  31.685  1.00  0.00     0.010 A 
ATOM    100  C   UNL A   1      34.795  32.412  30.752  1.00  0.00     0.020 A 
ATOM    101  C   UNL A   1      36.144  34.423  30.902  1.00  0.00     0.020 A 
ATOM    102  C   UNL A   1      35.022  33.747  30.414  1.00  0.00     0.054 A 
BRANCH 102 103
ATOM    103  S   UNL A   1      33.836  34.548  29.298  1.00  0.00     0.124 S 
ATOM    104  O   UNL A   1      34.638  35.618  28.707  1.00  0.00    -0.237 OA
ATOM    105  O   UNL A   1      33.474  33.467  28.383  1.00  0.00    -0.237 OA
ATOM    106  O   UNL A   1      32.761  34.996  30.180  1.00  0.00    -0.744 OA
ENDBRANCH 102 103
ENDBRANCH  76  97
ENDBRANCH  50  51
ENDBRANCH  43  45
ENDBRANCH  42  43
ENDBRANCH  41  42
ENDBRANCH  40  41
ENDBRANCH  39  40
ENDBRANCH   1  39
TORSDOF 23
ENDMDL
MODEL 2
REMARK VINA RESULT:      -8.4      4.573     14.031
REMARK SMILES COc1ccc2c(c1)c(Cc1nc(-c3ccc(C(=O)OCCOCCOC(=O)c4ccc(-c5c6nc(c(-c7ccc(S(=O)(=O)[O-])cc7)c7ccc([nH]7)c(-c7ccc(S(=O)(=O)[O-])cc7)c7nc(c(-c8ccc(S(=O)(=O)[O-])cc8)c8ccc5[nH]8)C=C7)C=C6)cc4)cc3)cs1)c(C)n2C(=O)c1ccc(Cl)cc1
REMARK SMILES IDX 22 1 21 2 20 3 18 4 19 5 17 6 14 7 15 8 90 9 16 10 89 11
REMARK SMILES IDX 13 12 11 13 12 14 92 15 91 16 10 17 9 18 3 19 4 20 8 21 5 22
REMARK SMILES IDX 7 23 6 24 95 25 93 26 94 27 2 28 1 29 96 30 97 31 98 32
REMARK SMILES IDX 99 33 104 34 100 35 103 36 101 37 102 38 23 39 24 40 25 41
REMARK SMILES IDX 26 42 27 43 28 44 29 45 30 46 88 47 31 48 87 49 32 50 33 51
REMARK SMILES IDX 34 52 81 53 35 54 86 55 80 56 82 57 36 58 85 59 79 60 78 61
REMARK SMILES IDX 37 63 67 64 48 65 66 66 49 67 52 68 65 69 83 70 50 71 51 72
REMARK SMILES IDX 64 74 84 75 53 76 38 77 39 78 47 79 40 80 46 81 41 82 42 83
REMARK SMILES IDX 43 84 44 85 45 86 68 87 69 88 77 89 70 90 76 91 71 92 72 93
REMARK SMILES IDX 73 94 74 95 75 96 54 97 55 98 63 99 56 100 62 101 57 102
REMARK SMILES IDX 58 103 59 104 60 105 61 106
REMARK H PARENT 82 62 52 73
REMARK Flexibility Score: inf
ROOT
ATOM      1  C   UNL A   1      47.966  22.892  35.624  1.00  0.00     0.202 C 
ENDROOT
BRANCH   1   2
ATOM      2  C   UNL A   1      46.926  23.046  34.505  1.00  0.00     0.261 C 
BRANCH   2   3
ATOM      3  O   UNL A   1      45.814  23.855  34.888  1.00  0.00    -0.460 OA
BRANCH   3   4
ATOM      4  C   UNL A   1      44.971  24.114  33.857  1.00  0.00     0.338 C 
ATOM      5  O   UNL A   1      44.715  23.390  32.917  1.00  0.00    -0.246 OA
BRANCH   4   6
ATOM      6  C   UNL A   1      44.169  25.313  34.178  1.00  0.00     0.060 A 
ATOM      7  C   UNL A   1      42.644  27.619  34.568  1.00  0.00     0.001 A 
ATOM      8  C   UNL A   1      43.238  27.371  33.324  1.00  0.00     0.011 A 
ATOM      9  C   UNL A   1      42.806  26.693  35.610  1.00  0.00     0.011 A 
ATOM     10  C   UNL A   1      44.003  26.227  33.133  1.00  0.00     0.016 A 
ATOM     11  C   UNL A   1      43.554  25.526  35.414  1.00  0.00     0.016 A 
BRANCH   7  12
ATOM     12  C   UNL A   1      41.980  28.888  34.799  1.00  0.00     0.081 A 
ATOM     13  C   UNL A   1      41.110  30.796  34.109  1.00  0.00     0.098 A 
ATOM     14  N   UNL A   1      42.008  29.873  33.839  1.00  0.00    -0.241 NA
ATOM     15  S   UNL A   1      40.374  30.658  35.657  1.00  0.00    -0.126 S 
ATOM     16  C   UNL A   1      41.210  29.179  35.907  1.00  0.00     0.095 A 
BRANCH  13  17
ATOM     17  C   UNL A   1      40.751  31.911  33.169  1.00  0.00     0.105 C 
BRANCH  17  18
ATOM     18  C   UNL A   1      39.729  31.514  32.124  1.00  0.00    -0.012 A 
ATOM     19  C   UNL A   1      36.108  32.287  33.096  1.00  0.00     0.119 A 
ATOM     20  C   UNL A   1      35.522  31.667  32.009  1.00  0.00     0.048 A 
ATOM     21  C   UNL A   1      37.496  32.292  33.214  1.00  0.00     0.057 A 
ATOM     22  C   UNL A   1      36.311  31.035  31.041  1.00  0.00     0.031 A 
ATOM     23  C   UNL A   1      38.320  31.693  32.231  1.00  0.00     0.008 A 
ATOM     24  C   UNL A   1      37.722  31.092  31.120  1.00  0.00     0.057 A 
ATOM     25  N   UNL A   1      38.744  30.634  30.265  1.00  0.00    -0.280 N 
ATOM     26  C   UNL A   1      39.970  30.854  30.923  1.00  0.00     0.028 A 
ATOM     27  C   UNL A   1      41.319  30.448  30.416  1.00  0.00     0.065 C 
BRANCH  19  28
ATOM     28  O   UNL A   1      35.430  32.944  34.083  1.00  0.00    -0.497 OA
ATOM     29  C   UNL A   1      34.608  34.023  33.644  1.00  0.00     0.278 C 
ENDBRANCH  19  28
BRANCH  25  30
ATOM     30  C   UNL A   1      38.555  30.029  28.984  1.00  0.00     0.262 C 
ATOM     31  O   UNL A   1      37.894  30.617  28.129  1.00  0.00    -0.268 OA
BRANCH  30  32
ATOM     32  C   UNL A   1      39.133  28.744  28.548  1.00  0.00     0.040 A 
ATOM     33  C   UNL A   1      39.834  28.634  27.341  1.00  0.00     0.015 A 
ATOM     34  C   UNL A   1      38.923  27.619  29.355  1.00  0.00     0.015 A 
ATOM     35  C   UNL A   1      40.232  27.370  26.895  1.00  0.00     0.021 A 
ATOM     36  C   UNL A   1      39.334  26.362  28.910  1.00  0.00     0.021 A 
ATOM     37  C   UNL A   1      39.966  26.240  27.672  1.00  0.00     0.041 A 
ATOM     38  Cl  UNL A   1      40.399  24.680  27.092  1.00  0.00    -0.084 Cl
ENDBRANCH  30  32
ENDBRANCH  25  30
ENDBRANCH  17  18
ENDBRANCH  13  17
ENDBRANCH   7  12
ENDBRANCH   4   6
ENDBRANCH   3   4
ENDBRANCH   2   3
ENDBRANCH   1   2
BRANCH   1  39
ATOM     39  O   UNL A   1      49.109  22.066  35.431  1.00  0.00    -0.374 OA
BRANCH  39  40
ATOM     40  C   UNL A   1      50.361  22.527  35.943  1.00  0.00     0.202 C 
BRANCH  40  41
ATOM     41  C   UNL A   1      51.568  22.663  34.994  1.00  0.00     0.261 C 
BRANCH  41  42
ATOM     42  O   UNL A   1      51.242  23.411  33.813  1.00  0.00    -0.460 OA
BRANCH  42  43
ATOM     43  C   UNL A   1      51.817  24.645  33.726  1.00  0.00     0.338 C 
ATOM     44  O   UNL A   1      52.945  24.957  34.043  1.00  0.00    -0.246 OA
BRANCH  43  45
ATOM     45  C   UNL A   1      50.957  25.407  32.790  1.00  0.00     0.060 A 
ATOM     46  C   UNL A   1      49.568  25.237  32.798  1.00  0.00     0.016 A 
ATOM     47  C   UNL A   1      51.613  25.963  31.680  1.00  0.00     0.016 A 
ATOM     48  C   UNL A   1      48.851  25.524  31.640  1.00  0.00     0.010 A 
ATOM     49  C   UNL A   1      50.899  26.196  30.510  1.00  0.00     0.010 A 
ATOM     50  C   UNL A   1      49.526  25.932  30.475  1.00  0.00    -0.014 A 
BRANCH  50  51
ATOM     51  C   UNL A   1      48.733  26.311  29.300  1.00  0.00     0.031 A 
ATOM     52  C   UNL A   1      47.731  27.359  29.642  1.00  0.00     0.074 A 
ATOM     53  C   UNL A   1      48.944  25.926  28.022  1.00  0.00     0.049 A 
ATOM     54  N   UNL A   1      46.442  27.282  29.586  1.00  0.00    -0.248 NA
ATOM     55  C   UNL A   1      48.235  28.581  30.294  1.00  0.00     0.031 C 
ATOM     56  C   UNL A   1      50.056  25.142  27.482  1.00  0.00     0.029 A 
ATOM     57  N   UNL A   1      48.246  26.253  26.891  1.00  0.00    -0.354 N 
ATOM     58  C   UNL A   1      45.979  28.523  30.016  1.00  0.00     0.074 A 
ATOM     59  C   UNL A   1      47.100  29.191  30.622  1.00  0.00     0.031 C 
ATOM     60  C   UNL A   1      50.088  25.259  26.133  1.00  0.00     0.029 A 
ATOM     61  C   UNL A   1      48.934  26.023  25.698  1.00  0.00     0.049 A 
ATOM     62  H   UNL A   1      47.333  26.622  26.917  1.00  0.00     0.167 HD
ATOM     63  C   UNL A   1      44.774  29.022  29.630  1.00  0.00     0.031 A 
ATOM     64  C   UNL A   1      48.624  26.486  24.454  1.00  0.00     0.031 A 
ATOM     65  C   UNL A   1      43.905  27.991  29.132  1.00  0.00     0.049 A 
ATOM     66  C   UNL A   1      47.193  26.868  24.476  1.00  0.00     0.074 A 
ATOM     67  C   UNL A   1      43.350  26.852  29.678  1.00  0.00     0.029 A 
ATOM     68  N   UNL A   1      43.806  27.852  27.770  1.00  0.00    -0.354 N 
ATOM     69  N   UNL A   1      46.218  26.017  24.626  1.00  0.00    -0.248 NA
ATOM     70  C   UNL A   1      46.879  28.252  24.788  1.00  0.00     0.031 C 
ATOM     71  C   UNL A   1      43.388  25.890  28.630  1.00  0.00     0.029 A 
ATOM     72  C   UNL A   1      43.885  26.514  27.484  1.00  0.00     0.049 A 
ATOM     73  H   UNL A   1      43.697  28.581  27.117  1.00  0.00     0.167 HD
ATOM     74  C   UNL A   1      45.318  26.665  25.459  1.00  0.00     0.074 A 
ATOM     75  C   UNL A   1      45.749  28.064  25.470  1.00  0.00     0.031 C 
ATOM     76  C   UNL A   1      44.478  25.968  26.278  1.00  0.00     0.031 A 
BRANCH  63  77
ATOM     77  C   UNL A   1      44.540  30.489  29.373  1.00  0.00    -0.014 A 
ATOM     78  C   UNL A   1      44.572  31.466  30.392  1.00  0.00     0.010 A 
ATOM     79  C   UNL A   1      44.520  30.961  28.046  1.00  0.00     0.010 A 
ATOM     80  C   UNL A   1      44.552  32.833  30.117  1.00  0.00     0.020 A 
ATOM     81  C   UNL A   1      44.548  32.332  27.756  1.00  0.00     0.020 A 
ATOM     82  C   UNL A   1      44.550  33.258  28.797  1.00  0.00     0.054 A 
BRANCH  82  83
ATOM     83  S   UNL A   1      44.611  35.037  28.485  1.00  0.00     0.124 S 
ATOM     84  O   UNL A   1      44.615  35.083  27.025  1.00  0.00    -0.237 OA
ATOM     85  O   UNL A   1      43.387  35.509  29.127  1.00  0.00    -0.237 OA
ATOM     86  O   UNL A   1      45.854  35.455  29.128  1.00  0.00    -0.744 OA
ENDBRANCH  82  83
ENDBRANCH  63  77
BRANCH  64  87
ATOM     87  C   UNL A   1      49.563  27.076  23.450  1.00  0.00    -0.014 A 
ATOM     88  C   UNL A   1      49.102  27.360  22.150  1.00  0.00     0.010 A 
ATOM     89  C   UNL A   1      50.961  27.042  23.650  1.00  0.00     0.010 A 
ATOM     90  C   UNL A   1      49.986  27.514  21.074  1.00  0.00     0.020 A 
ATOM     91  C   UNL A   1      51.857  27.197  22.573  1.00  0.00     0.020 A 
ATOM     92  C   UNL A   1      51.358  27.390  21.284  1.00  0.00     0.054 A 
BRANCH  92  93
ATOM     93  S   UNL A   1      52.449  27.388  19.829  1.00  0.00     0.124 S 
ATOM     94  O   UNL A   1      52.757  25.968  19.684  1.00  0.00    -0.237 OA
ATOM     95  O   UNL A   1      51.590  27.950  18.788  1.00  0.00    -0.237 OA
ATOM     96  O   UNL A   1      53.569  28.234  20.230  1.00  0.00    -0.744 OA
ENDBRANCH  92  93
ENDBRANCH  64  87
BRANCH  76  97
ATOM     97  C   UNL A   1      44.315  24.474  26.088  1.00  0.00    -0.014 A 
ATOM     98  C   UNL A   1      45.341  23.660  26.604  1.00  0.00     0.010 A 
ATOM     99  C   UNL A   1      43.350  23.882  25.249  1.00  0.00     0.010 A 
ATOM    100  C   UNL A   1      45.446  22.317  26.246  1.00  0.00     0.020 A 
ATOM    101  C   UNL A   1      43.434  22.519  24.908  1.00  0.00     0.020 A 
ATOM    102  C   UNL A   1      44.502  21.755  25.385  1.00  0.00     0.054 A 
BRANCH 102 103
ATOM    103  S   UNL A   1      44.740  20.028  24.883  1.00  0.00     0.124 S 
ATOM    104  O   UNL A   1      43.691  19.339  25.632  1.00  0.00    -0.237 OA
ATOM    105  O   UNL A   1      44.536  20.081  23.437  1.00  0.00    -0.237 OA
ATOM    106  O   UNL A   1      46.104  19.718  25.303  1.00  0.00    -0.744 OA
ENDBRANCH 102 103
ENDBRANCH  76  97
ENDBRANCH  50  51
ENDBRANCH  43  45
ENDBRANCH  42  43
ENDBRANCH  41  42
ENDBRANCH  40  41
ENDBRANCH  39  40
ENDBRANCH   1  39
TORSDOF 23
ENDMDL
MODEL 3
REMARK VINA RESULT:      -8.2      1.896      2.637
REMARK SMILES COc1ccc2c(c1)c(Cc1nc(-c3ccc(C(=O)OCCOCCOC(=O)c4ccc(-c5c6nc(c(-c7ccc(S(=O)(=O)[O-])cc7)c7ccc([nH]7)c(-c7ccc(S(=O)(=O)[O-])cc7)c7nc(c(-c8ccc(S(=O)(=O)[O-])cc8)c8ccc5[nH]8)C=C7)C=C6)cc4)cc3)cs1)c(C)n2C(=O)c1ccc(Cl)cc1
REMARK SMILES IDX 22 1 21 2 20 3 18 4 19 5 17 6 14 7 15 8 90 9 16 10 89 11
REMARK SMILES IDX 13 12 11 13 12 14 92 15 91 16 10 17 9 18 3 19 4 20 8 21 5 22
REMARK SMILES IDX 7 23 6 24 95 25 93 26 94 27 2 28 1 29 96 30 97 31 98 32
REMARK SMILES IDX 99 33 104 34 100 35 103 36 101 37 102 38 23 39 24 40 25 41
REMARK SMILES IDX 26 42 27 43 28 44 29 45 30 46 88 47 31 48 87 49 32 50 33 51
REMARK SMILES IDX 34 52 81 53 35 54 86 55 80 56 82 57 36 58 85 59 79 60 78 61
REMARK SMILES IDX 37 63 67 64 48 65 66 66 49 67 52 68 65 69 83 70 50 71 51 72
REMARK SMILES IDX 64 74 84 75 53 76 38 77 39 78 47 79 40 80 46 81 41 82 42 83
REMARK SMILES IDX 43 84 44 85 45 86 68 87 69 88 77 89 70 90 76 91 71 92 72 93
REMARK SMILES IDX 73 94 74 95 75 96 54 97 55 98 63 99 56 100 62 101 57 102
REMARK SMILES IDX 58 103 59 104 60 105 61 106
REMARK H PARENT 82 62 52 73
REMARK Flexibility Score: inf
ROOT
ATOM      1  C   UNL A   1      44.889  41.946  29.102  1.00  0.00     0.202 C 
ENDROOT
BRANCH   1   2
ATOM      2  C   UNL A   1      43.863  41.075  28.363  1.00  0.00     0.261 C 
BRANCH   2   3
ATOM      3  O   UNL A   1      43.712  39.781  28.948  1.00  0.00    -0.460 OA
BRANCH   3   4
ATOM      4  C   UNL A   1      42.603  39.132  28.509  1.00  0.00     0.338 C 
ATOM      5  O   UNL A   1      41.580  39.628  28.084  1.00  0.00    -0.246 OA
BRANCH   4   6
ATOM      6  C   UNL A   1      42.914  37.697  28.354  1.00  0.00     0.060 A 
ATOM      7  C   UNL A   1      43.709  35.030  28.120  1.00  0.00     0.001 A 
ATOM      8  C   UNL A   1      44.670  36.043  28.226  1.00  0.00     0.011 A 
ATOM      9  C   UNL A   1      42.345  35.362  28.150  1.00  0.00     0.011 A 
ATOM     10  C   UNL A   1      44.274  37.371  28.334  1.00  0.00     0.016 A 
ATOM     11  C   UNL A   1      41.941  36.696  28.286  1.00  0.00     0.016 A 
BRANCH   7  12
ATOM     12  C   UNL A   1      44.136  33.670  27.852  1.00  0.00     0.081 A 
ATOM     13  C   UNL A   1      43.905  31.479  28.008  1.00  0.00     0.098 A 
ATOM     14  N   UNL A   1      43.642  32.625  28.599  1.00  0.00    -0.241 NA
ATOM     15  S   UNL A   1      44.978  31.587  26.668  1.00  0.00    -0.126 S 
ATOM     16  C   UNL A   1      44.959  33.298  26.807  1.00  0.00     0.095 A 
BRANCH  13  17
ATOM     17  C   UNL A   1      43.348  30.160  28.460  1.00  0.00     0.105 C 
BRANCH  17  18
ATOM     18  C   UNL A   1      44.152  28.970  27.980  1.00  0.00    -0.012 A 
ATOM     19  C   UNL A   1      47.441  28.433  29.866  1.00  0.00     0.119 A 
ATOM     20  C   UNL A   1      47.910  27.408  29.067  1.00  0.00     0.048 A 
ATOM     21  C   UNL A   1      46.202  29.007  29.585  1.00  0.00     0.057 A 
ATOM     22  C   UNL A   1      47.158  26.957  27.976  1.00  0.00     0.031 A 
ATOM     23  C   UNL A   1      45.405  28.546  28.511  1.00  0.00     0.008 A 
ATOM     24  C   UNL A   1      45.873  27.490  27.724  1.00  0.00     0.057 A 
ATOM     25  N   UNL A   1      44.880  27.176  26.775  1.00  0.00    -0.280 N 
ATOM     26  C   UNL A   1      43.852  28.129  26.912  1.00  0.00     0.028 A 
ATOM     27  C   UNL A   1      42.631  28.228  26.052  1.00  0.00     0.065 C 
BRANCH  19  28
ATOM     28  O   UNL A   1      48.087  28.932  30.961  1.00  0.00    -0.497 OA
ATOM     29  C   UNL A   1      49.378  29.481  30.709  1.00  0.00     0.278 C 
ENDBRANCH  19  28
BRANCH  25  30
ATOM     30  C   UNL A   1      44.934  26.105  25.830  1.00  0.00     0.262 C 
ATOM     31  O   UNL A   1      45.629  26.222  24.821  1.00  0.00    -0.268 OA
BRANCH  30  32
ATOM     32  C   UNL A   1      44.253  24.804  25.968  1.00  0.00     0.040 A 
ATOM     33  C   UNL A   1      44.161  24.159  27.207  1.00  0.00     0.015 A 
ATOM     34  C   UNL A   1      43.736  24.204  24.812  1.00  0.00     0.015 A 
ATOM     35  C   UNL A   1      43.643  22.862  27.266  1.00  0.00     0.021 A 
ATOM     36  C   UNL A   1      43.208  22.914  24.880  1.00  0.00     0.021 A 
ATOM     37  C   UNL A   1      43.185  22.240  26.102  1.00  0.00     0.041 A 
ATOM     38  Cl  UNL A   1      42.607  20.622  26.165  1.00  0.00    -0.084 Cl
ENDBRANCH  30  32
ENDBRANCH  25  30
ENDBRANCH  17  18
ENDBRANCH  13  17
ENDBRANCH   7  12
ENDBRANCH   4   6
ENDBRANCH   3   4
ENDBRANCH   2   3
ENDBRANCH   1   2
BRANCH   1  39
ATOM     39  O   UNL A   1      45.497  41.477  30.300  1.00  0.00    -0.374 OA
BRANCH  39  40
ATOM     40  C   UNL A   1      44.975  41.949  31.544  1.00  0.00     0.202 C 
BRANCH  40  41
ATOM     41  C   UNL A   1      44.197  40.984  32.460  1.00  0.00     0.261 C 
BRANCH  41  42
ATOM     42  O   UNL A   1      44.315  39.620  32.029  1.00  0.00    -0.460 OA
BRANCH  42  43
ATOM     43  C   UNL A   1      45.264  38.883  32.676  1.00  0.00     0.338 C 
ATOM     44  O   UNL A   1      46.256  39.291  33.241  1.00  0.00    -0.246 OA
BRANCH  43  45
ATOM     45  C   UNL A   1      44.630  37.565  32.918  1.00  0.00     0.060 A 
ATOM     46  C   UNL A   1      43.908  36.923  31.906  1.00  0.00     0.016 A 
ATOM     47  C   UNL A   1      44.454  37.217  34.267  1.00  0.00     0.016 A 
ATOM     48  C   UNL A   1      42.925  36.005  32.263  1.00  0.00     0.010 A 
ATOM     49  C   UNL A   1      43.433  36.341  34.619  1.00  0.00     0.010 A 
ATOM     50  C   UNL A   1      42.638  35.771  33.621  1.00  0.00    -0.014 A 
BRANCH  50  51
ATOM     51  C   UNL A   1      41.658  34.734  33.961  1.00  0.00     0.031 A 
ATOM     52  C   UNL A   1      42.022  33.426  33.348  1.00  0.00     0.074 A 
ATOM     53  C   UNL A   1      40.638  34.841  34.842  1.00  0.00     0.049 A 
ATOM     54  N   UNL A   1      41.362  32.740  32.473  1.00  0.00    -0.248 NA
ATOM     55  C   UNL A   1      43.377  32.912  33.619  1.00  0.00     0.031 C 
ATOM     56  C   UNL A   1      40.327  35.955  35.740  1.00  0.00     0.029 A 
ATOM     57  N   UNL A   1      39.704  33.909  35.205  1.00  0.00    -0.354 N 
ATOM     58  C   UNL A   1      42.136  31.609  32.230  1.00  0.00     0.074 A 
ATOM     59  C   UNL A   1      43.433  31.869  32.796  1.00  0.00     0.031 C 
ATOM     60  C   UNL A   1      39.451  35.548  36.690  1.00  0.00     0.029 A 
ATOM     61  C   UNL A   1      39.043  34.186  36.403  1.00  0.00     0.049 A 
ATOM     62  H   UNL A   1      39.514  33.108  34.665  1.00  0.00     0.167 HD
ATOM     63  C   UNL A   1      41.594  30.438  31.799  1.00  0.00     0.031 A 
ATOM     64  C   UNL A   1      38.277  33.340  37.148  1.00  0.00     0.031 A 
ATOM     65  C   UNL A   1      40.290  30.632  31.229  1.00  0.00     0.049 A 
ATOM     66  C   UNL A   1      37.859  32.233  36.256  1.00  0.00     0.074 A 
ATOM     67  C   UNL A   1      39.804  31.346  30.153  1.00  0.00     0.029 A 
ATOM     68  N   UNL A   1      39.205  30.349  32.022  1.00  0.00    -0.354 N 
ATOM     69  N   UNL A   1      37.062  32.385  35.237  1.00  0.00    -0.248 NA
ATOM     70  C   UNL A   1      38.695  31.044  36.236  1.00  0.00     0.031 C 
ATOM     71  C   UNL A   1      38.555  31.865  30.594  1.00  0.00     0.029 A 
ATOM     72  C   UNL A   1      38.308  31.375  31.878  1.00  0.00     0.049 A 
ATOM     73  H   UNL A   1      39.093  29.554  32.592  1.00  0.00     0.167 HD
ATOM     74  C   UNL A   1      37.601  31.571  34.253  1.00  0.00     0.074 A 
ATOM     75  C   UNL A   1      38.566  30.719  34.949  1.00  0.00     0.031 C 
ATOM     76  C   UNL A   1      37.423  31.843  32.927  1.00  0.00     0.031 A 
BRANCH  63  77
ATOM     77  C   UNL A   1      42.109  29.089  32.234  1.00  0.00    -0.014 A 
ATOM     78  C   UNL A   1      43.022  28.329  31.472  1.00  0.00     0.010 A 
ATOM     79  C   UNL A   1      41.869  28.654  33.552  1.00  0.00     0.010 A 
ATOM     80  C   UNL A   1      43.640  27.183  31.972  1.00  0.00     0.020 A 
ATOM     81  C   UNL A   1      42.521  27.531  34.082  1.00  0.00     0.020 A 
ATOM     82  C   UNL A   1      43.392  26.796  33.281  1.00  0.00     0.054 A 
BRANCH  82  83
ATOM     83  S   UNL A   1      44.279  25.355  33.917  1.00  0.00     0.124 S 
ATOM     84  O   UNL A   1      43.378  24.891  34.968  1.00  0.00    -0.237 OA
ATOM     85  O   UNL A   1      44.368  24.498  32.738  1.00  0.00    -0.237 OA
ATOM     86  O   UNL A   1      45.548  25.912  34.379  1.00  0.00    -0.744 OA
ENDBRANCH  82  83
ENDBRANCH  63  77
BRANCH  64  87
ATOM     87  C   UNL A   1      38.310  33.162  38.632  1.00  0.00    -0.014 A 
ATOM     88  C   UNL A   1      37.126  32.833  39.321  1.00  0.00     0.010 A 
ATOM     89  C   UNL A   1      39.396  33.638  39.401  1.00  0.00     0.010 A 
ATOM     90  C   UNL A   1      36.992  33.053  40.698  1.00  0.00     0.020 A 
ATOM     91  C   UNL A   1      39.268  33.861  40.787  1.00  0.00     0.020 A 
ATOM     92  C   UNL A   1      38.049  33.605  41.417  1.00  0.00     0.054 A 
BRANCH  92  93
ATOM     93  S   UNL A   1      37.757  34.066  43.151  1.00  0.00     0.124 S 
ATOM     94  O   UNL A   1      38.876  34.965  43.418  1.00  0.00    -0.237 OA
ATOM     95  O   UNL A   1      36.443  34.705  43.092  1.00  0.00    -0.237 OA
ATOM     96  O   UNL A   1      37.793  32.792  43.863  1.00  0.00    -0.744 OA
ENDBRANCH  92  93
ENDBRANCH  64  87
BRANCH  76  97
ATOM     97  C   UNL A   1      36.400  32.878  32.506  1.00  0.00    -0.014 A 
ATOM     98  C   UNL A   1      36.731  34.224  32.750  1.00  0.00     0.010 A 
ATOM     99  C   UNL A   1      35.081  32.574  32.113  1.00  0.00     0.010 A 
ATOM    100  C   UNL A   1      35.768  35.230  32.673  1.00  0.00     0.020 A 
ATOM    101  C   UNL A   1      34.112  33.589  32.004  1.00  0.00     0.020 A 
ATOM    102  C   UNL A   1      34.458  34.906  32.318  1.00  0.00     0.054 A 
BRANCH 102 103
ATOM    103  S   UNL A   1      33.229  36.242  32.321  1.00  0.00     0.124 S 
ATOM    104  O   UNL A   1      31.967  35.504  32.302  1.00  0.00    -0.237 OA
ATOM    105  O   UNL A   1      33.518  36.944  33.569  1.00  0.00    -0.237 OA
ATOM    106  O   UNL A   1      33.520  36.998  31.106  1.00  0.00    -0.744 OA
ENDBRANCH 102 103
ENDBRANCH  76  97
ENDBRANCH  50  51
ENDBRANCH  43  45
ENDBRANCH  42  43
ENDBRANCH  41  42
ENDBRANCH  40  41
ENDBRANCH  39  40
ENDBRANCH   1  39
TORSDOF 23
ENDMDL
