MODEL 1
REMARK VINA RESULT:      -9.1      0.000      0.000
REMARK SMILES C[NH+]1CCN(C(=O)c2ccc3c(c2)N(CC(=O)OCCOCCOC(=O)c2ccc(-c4c5nc(c(-c6ccc(S(=O)(=O)[O-])cc6)c6ccc([nH]6)c(-c6ccc(S(=O)(=O)[O-])cc6)c6nc(c(-c7ccc(S(=O)(=O)[O-])cc7)c7ccc4[nH]7)C=C6)C=C5)cc2)C(=O)CO3)CC1
REMARK SMILES IDX 22 1 21 2 20 3 19 4 18 5 16 6 17 7 15 8 14 9 8 10 9 11 13 12
REMARK SMILES IDX 10 13 12 14 11 15 90 16 87 17 89 18 88 19 6 20 1 21 2 22
REMARK SMILES IDX 3 23 92 24 4 26 91 27 5 28 7 29 23 30 24 31 25 32 26 33
REMARK SMILES IDX 27 34 28 35 86 36 29 37 85 38 30 39 31 40 32 41 79 42 33 43
REMARK SMILES IDX 84 44 78 45 80 46 34 47 83 48 77 49 76 50 35 52 65 53 46 54
REMARK SMILES IDX 64 55 47 56 50 57 63 58 81 59 48 60 49 61 62 63 82 64 51 65
REMARK SMILES IDX 36 66 37 67 45 68 38 69 44 70 39 71 40 72 41 73 42 74 43 75
REMARK SMILES IDX 66 76 67 77 75 78 68 79 74 80 69 81 70 82 71 83 72 84 73 85
REMARK SMILES IDX 52 86 53 87 61 88 54 89 60 90 55 91 56 92 57 93 58 94 59 95
REMARK H PARENT 2 25 80 51 50 62
REMARK Flexibility Score: inf
ROOT
ATOM      1  C   UNL A   1      33.242  34.072  28.228  1.00  0.00     0.202 C 
ENDROOT
BRANCH   1   2
ATOM      2  O   UNL A   1      34.600  33.662  28.197  1.00  0.00    -0.374 OA
BRANCH   2   3
ATOM      3  C   UNL A   1      34.762  32.241  28.093  1.00  0.00     0.202 C 
BRANCH   3   4
ATOM      4  C   UNL A   1      33.514  31.468  27.608  1.00  0.00     0.261 C 
BRANCH   4   5
ATOM      5  O   UNL A   1      33.688  30.030  27.696  1.00  0.00    -0.462 OA
BRANCH   5   6
ATOM      6  C   UNL A   1      33.359  29.304  26.594  1.00  0.00     0.326 C 
ATOM      7  O   UNL A   1      34.173  28.935  25.750  1.00  0.00    -0.250 OA
BRANCH   6   8
ATOM      8  C   UNL A   1      31.854  28.997  26.434  1.00  0.00     0.248 C 
BRANCH   8   9
ATOM      9  N   UNL A   1      31.286  28.411  25.210  1.00  0.00    -0.295 N 
ATOM     10  C   UNL A   1      31.462  24.640  25.656  1.00  0.00     0.042 A 
ATOM     11  C   UNL A   1      30.827  24.222  24.484  1.00  0.00     0.018 A 
ATOM     12  C   UNL A   1      31.754  26.015  25.838  1.00  0.00     0.044 A 
ATOM     13  C   UNL A   1      30.452  25.169  23.528  1.00  0.00     0.049 A 
ATOM     14  C   UNL A   1      31.284  26.998  24.928  1.00  0.00     0.087 A 
ATOM     15  C   UNL A   1      30.659  26.541  23.753  1.00  0.00     0.143 A 
ATOM     16  O   UNL A   1      30.088  27.344  22.808  1.00  0.00    -0.482 OA
ATOM     17  C   UNL A   1      30.740  29.305  24.293  1.00  0.00     0.265 C 
ATOM     18  C   UNL A   1      30.362  28.720  22.939  1.00  0.00     0.330 C 
ATOM     19  O   UNL A   1      30.644  30.514  24.511  1.00  0.00    -0.270 OA
BRANCH  10  20
ATOM     20  C   UNL A   1      31.975  23.602  26.597  1.00  0.00     0.254 C 
ATOM     21  C   UNL A   1      34.340  19.173  24.608  1.00  0.00     0.332 C 
ATOM     22  N   UNL A   1      34.440  20.446  25.322  1.00  0.00    -0.334 N 
ATOM     23  C   UNL A   1      33.609  20.433  26.550  1.00  0.00     0.283 C 
ATOM     24  C   UNL A   1      34.036  21.558  24.436  1.00  0.00     0.283 C 
ATOM     25  H   UNL A   1      35.411  20.584  25.602  1.00  0.00     0.347 HD
ATOM     26  C   UNL A   1      33.541  21.802  27.271  1.00  0.00     0.181 C 
ATOM     27  C   UNL A   1      34.020  22.899  25.193  1.00  0.00     0.181 C 
ATOM     28  N   UNL A   1      33.126  22.853  26.343  1.00  0.00    -0.327 N 
ATOM     29  O   UNL A   1      31.308  23.463  27.623  1.00  0.00    -0.269 OA
ENDBRANCH  10  20
ENDBRANCH   8   9
ENDBRANCH   6   8
ENDBRANCH   5   6
ENDBRANCH   4   5
ENDBRANCH   3   4
ENDBRANCH   2   3
ENDBRANCH   1   2
BRANCH   1  30
ATOM     30  C   UNL A   1      32.874  35.308  29.028  1.00  0.00     0.261 C 
BRANCH  30  31
ATOM     31  O   UNL A   1      33.784  35.484  30.064  1.00  0.00    -0.460 OA
BRANCH  31  32
ATOM     32  C   UNL A   1      33.364  35.007  31.248  1.00  0.00     0.338 C 
ATOM     33  O   UNL A   1      32.277  35.077  31.781  1.00  0.00    -0.246 OA
BRANCH  32  34
ATOM     34  C   UNL A   1      34.546  34.279  31.656  1.00  0.00     0.060 A 
ATOM     35  C   UNL A   1      34.468  32.895  31.759  1.00  0.00     0.016 A 
ATOM     36  C   UNL A   1      35.756  34.994  31.709  1.00  0.00     0.016 A 
ATOM     37  C   UNL A   1      35.642  32.202  31.963  1.00  0.00     0.010 A 
ATOM     38  C   UNL A   1      36.926  34.297  31.845  1.00  0.00     0.010 A 
ATOM     39  C   UNL A   1      36.851  32.913  32.029  1.00  0.00    -0.014 A 
BRANCH  39  40
ATOM     40  C   UNL A   1      38.053  32.264  32.533  1.00  0.00     0.031 A 
ATOM     41  C   UNL A   1      38.442  32.588  33.940  1.00  0.00     0.074 A 
ATOM     42  C   UNL A   1      38.766  31.480  31.713  1.00  0.00     0.049 A 
ATOM     43  N   UNL A   1      39.522  32.259  34.586  1.00  0.00    -0.248 NA
ATOM     44  C   UNL A   1      37.504  33.427  34.717  1.00  0.00     0.031 C 
ATOM     45  C   UNL A   1      38.412  31.151  30.330  1.00  0.00     0.029 A 
ATOM     46  N   UNL A   1      39.943  30.833  31.929  1.00  0.00    -0.354 N 
ATOM     47  C   UNL A   1      39.394  32.851  35.835  1.00  0.00     0.074 A 
ATOM     48  C   UNL A   1      38.170  33.612  35.844  1.00  0.00     0.031 C 
ATOM     49  C   UNL A   1      39.362  30.348  29.821  1.00  0.00     0.029 A 
ATOM     50  C   UNL A   1      40.397  30.151  30.829  1.00  0.00     0.049 A 
ATOM     51  H   UNL A   1      40.422  30.852  32.788  1.00  0.00     0.167 HD
ATOM     52  C   UNL A   1      40.228  32.739  36.888  1.00  0.00     0.031 A 
ATOM     53  C   UNL A   1      41.541  29.463  30.676  1.00  0.00     0.031 A 
ATOM     54  C   UNL A   1      41.437  31.971  36.831  1.00  0.00     0.049 A 
ATOM     55  C   UNL A   1      42.475  29.391  31.855  1.00  0.00     0.074 A 
ATOM     56  C   UNL A   1      42.376  31.763  37.821  1.00  0.00     0.029 A 
ATOM     57  N   UNL A   1      41.864  31.274  35.707  1.00  0.00    -0.354 N 
ATOM     58  N   UNL A   1      42.339  29.931  33.045  1.00  0.00    -0.248 NA
ATOM     59  C   UNL A   1      43.704  28.611  31.680  1.00  0.00     0.031 C 
ATOM     60  C   UNL A   1      43.394  30.972  37.282  1.00  0.00     0.029 A 
ATOM     61  C   UNL A   1      43.056  30.635  35.977  1.00  0.00     0.049 A 
ATOM     62  H   UNL A   1      41.387  31.241  34.847  1.00  0.00     0.167 HD
ATOM     63  C   UNL A   1      43.444  29.517  33.777  1.00  0.00     0.074 A 
ATOM     64  C   UNL A   1      44.236  28.683  32.893  1.00  0.00     0.031 C 
ATOM     65  C   UNL A   1      43.780  29.789  35.062  1.00  0.00     0.031 A 
BRANCH  52  66
ATOM     66  C   UNL A   1      39.855  33.449  38.156  1.00  0.00    -0.014 A 
ATOM     67  C   UNL A   1      38.948  32.874  39.067  1.00  0.00     0.010 A 
ATOM     68  C   UNL A   1      40.435  34.693  38.460  1.00  0.00     0.010 A 
ATOM     69  C   UNL A   1      38.618  33.537  40.250  1.00  0.00     0.020 A 
ATOM     70  C   UNL A   1      40.128  35.346  39.657  1.00  0.00     0.020 A 
ATOM     71  C   UNL A   1      39.215  34.766  40.541  1.00  0.00     0.054 A 
BRANCH  71  72
ATOM     72  S   UNL A   1      38.815  35.572  42.115  1.00  0.00     0.124 S 
ATOM     73  O   UNL A   1      39.756  34.929  43.030  1.00  0.00    -0.237 OA
ATOM     74  O   UNL A   1      39.079  36.980  41.828  1.00  0.00    -0.237 OA
ATOM     75  O   UNL A   1      37.410  35.235  42.331  1.00  0.00    -0.744 OA
ENDBRANCH  71  72
ENDBRANCH  52  66
BRANCH  53  76
ATOM     76  C   UNL A   1      41.851  28.797  29.385  1.00  0.00    -0.014 A 
ATOM     77  C   UNL A   1      42.254  29.554  28.272  1.00  0.00     0.010 A 
ATOM     78  C   UNL A   1      41.746  27.400  29.260  1.00  0.00     0.010 A 
ATOM     79  C   UNL A   1      42.501  28.932  27.044  1.00  0.00     0.020 A 
ATOM     80  C   UNL A   1      42.022  26.771  28.042  1.00  0.00     0.020 A 
ATOM     81  C   UNL A   1      42.376  27.545  26.937  1.00  0.00     0.054 A 
BRANCH  81  82
ATOM     82  S   UNL A   1      42.700  26.761  25.334  1.00  0.00     0.124 S 
ATOM     83  O   UNL A   1      42.746  27.913  24.439  1.00  0.00    -0.237 OA
ATOM     84  O   UNL A   1      43.974  26.086  25.564  1.00  0.00    -0.237 OA
ATOM     85  O   UNL A   1      41.555  25.871  25.152  1.00  0.00    -0.744 OA
ENDBRANCH  81  82
ENDBRANCH  53  76
BRANCH  65  86
ATOM     86  C   UNL A   1      45.006  29.121  35.608  1.00  0.00    -0.014 A 
ATOM     87  C   UNL A   1      46.258  29.755  35.577  1.00  0.00     0.010 A 
ATOM     88  C   UNL A   1      44.868  27.882  36.263  1.00  0.00     0.010 A 
ATOM     89  C   UNL A   1      47.359  29.153  36.187  1.00  0.00     0.020 A 
ATOM     90  C   UNL A   1      45.959  27.295  36.899  1.00  0.00     0.020 A 
ATOM     91  C   UNL A   1      47.201  27.932  36.851  1.00  0.00     0.054 A 
BRANCH  91  92
ATOM     92  S   UNL A   1      48.627  27.218  37.710  1.00  0.00     0.124 S 
ATOM     93  O   UNL A   1      49.077  26.204  36.761  1.00  0.00    -0.237 OA
ATOM     94  O   UNL A   1      49.512  28.370  37.867  1.00  0.00    -0.237 OA
ATOM     95  O   UNL A   1      48.061  26.701  38.953  1.00  0.00    -0.744 OA
ENDBRANCH  91  92
ENDBRANCH  65  86
ENDBRANCH  39  40
ENDBRANCH  32  34
ENDBRANCH  31  32
ENDBRANCH  30  31
ENDBRANCH   1  30
TORSDOF 19
ENDMDL
MODEL 2
REMARK VINA RESULT:      -9.1      4.691      9.370
REMARK SMILES C[NH+]1CCN(C(=O)c2ccc3c(c2)N(CC(=O)OCCOCCOC(=O)c2ccc(-c4c5nc(c(-c6ccc(S(=O)(=O)[O-])cc6)c6ccc([nH]6)c(-c6ccc(S(=O)(=O)[O-])cc6)c6nc(c(-c7ccc(S(=O)(=O)[O-])cc7)c7ccc4[nH]7)C=C6)C=C5)cc2)C(=O)CO3)CC1
REMARK SMILES IDX 22 1 21 2 20 3 19 4 18 5 16 6 17 7 15 8 14 9 8 10 9 11 13 12
REMARK SMILES IDX 10 13 12 14 11 15 90 16 87 17 89 18 88 19 6 20 1 21 2 22
REMARK SMILES IDX 3 23 92 24 4 26 91 27 5 28 7 29 23 30 24 31 25 32 26 33
REMARK SMILES IDX 27 34 28 35 86 36 29 37 85 38 30 39 31 40 32 41 79 42 33 43
REMARK SMILES IDX 84 44 78 45 80 46 34 47 83 48 77 49 76 50 35 52 65 53 46 54
REMARK SMILES IDX 64 55 47 56 50 57 63 58 81 59 48 60 49 61 62 63 82 64 51 65
REMARK SMILES IDX 36 66 37 67 45 68 38 69 44 70 39 71 40 72 41 73 42 74 43 75
REMARK SMILES IDX 66 76 67 77 75 78 68 79 74 80 69 81 70 82 71 83 72 84 73 85
REMARK SMILES IDX 52 86 53 87 61 88 54 89 60 90 55 91 56 92 57 93 58 94 59 95
REMARK H PARENT 2 25 80 51 50 62
REMARK Flexibility Score: inf
ROOT
ATOM      1  C   UNL A   1      34.697  33.349  29.767  1.00  0.00     0.202 C 
ENDROOT
BRANCH   1   2
ATOM      2  O   UNL A   1      34.099  32.847  30.952  1.00  0.00    -0.374 OA
BRANCH   2   3
ATOM      3  C   UNL A   1      34.953  32.937  32.101  1.00  0.00     0.202 C 
BRANCH   3   4
ATOM      4  C   UNL A   1      36.199  32.023  32.071  1.00  0.00     0.261 C 
BRANCH   4   5
ATOM      5  O   UNL A   1      36.570  31.554  33.393  1.00  0.00    -0.462 OA
BRANCH   5   6
ATOM      6  C   UNL A   1      37.767  31.978  33.881  1.00  0.00     0.326 C 
ATOM      7  O   UNL A   1      38.574  32.640  33.233  1.00  0.00    -0.250 OA
BRANCH   6   8
ATOM      8  C   UNL A   1      38.084  31.529  35.325  1.00  0.00     0.248 C 
BRANCH   8   9
ATOM      9  N   UNL A   1      39.230  32.050  36.087  1.00  0.00    -0.295 N 
ATOM     10  C   UNL A   1      42.108  29.650  35.455  1.00  0.00     0.042 A 
ATOM     11  C   UNL A   1      43.129  30.296  36.156  1.00  0.00     0.018 A 
ATOM     12  C   UNL A   1      40.781  30.138  35.549  1.00  0.00     0.044 A 
ATOM     13  C   UNL A   1      42.835  31.440  36.903  1.00  0.00     0.049 A 
ATOM     14  C   UNL A   1      40.486  31.356  36.215  1.00  0.00     0.087 A 
ATOM     15  C   UNL A   1      41.536  31.976  36.919  1.00  0.00     0.143 A 
ATOM     16  O   UNL A   1      41.447  33.181  37.553  1.00  0.00    -0.482 OA
ATOM     17  C   UNL A   1      39.045  33.278  36.717  1.00  0.00     0.265 C 
ATOM     18  C   UNL A   1      40.143  33.701  37.683  1.00  0.00     0.330 C 
ATOM     19  O   UNL A   1      38.023  33.953  36.583  1.00  0.00    -0.270 OA
BRANCH  10  20
ATOM     20  C   UNL A   1      42.419  28.357  34.778  1.00  0.00     0.254 C 
ATOM     21  C   UNL A   1      44.718  24.376  37.611  1.00  0.00     0.332 C 
ATOM     22  N   UNL A   1      43.551  24.922  36.918  1.00  0.00    -0.334 N 
ATOM     23  C   UNL A   1      43.852  25.170  35.487  1.00  0.00     0.283 C 
ATOM     24  C   UNL A   1      43.108  26.168  37.577  1.00  0.00     0.283 C 
ATOM     25  H   UNL A   1      42.798  24.237  36.966  1.00  0.00     0.347 HD
ATOM     26  C   UNL A   1      42.713  25.896  34.728  1.00  0.00     0.181 C 
ATOM     27  C   UNL A   1      41.952  26.829  36.802  1.00  0.00     0.181 C 
ATOM     28  N   UNL A   1      42.330  27.122  35.425  1.00  0.00    -0.327 N 
ATOM     29  O   UNL A   1      42.751  28.462  33.596  1.00  0.00    -0.269 OA
ENDBRANCH  10  20
ENDBRANCH   8   9
ENDBRANCH   6   8
ENDBRANCH   5   6
ENDBRANCH   4   5
ENDBRANCH   3   4
ENDBRANCH   2   3
ENDBRANCH   1   2
BRANCH   1  30
ATOM     30  C   UNL A   1      34.111  32.940  28.428  1.00  0.00     0.261 C 
BRANCH  30  31
ATOM     31  O   UNL A   1      35.011  32.124  27.753  1.00  0.00    -0.460 OA
BRANCH  31  32
ATOM     32  C   UNL A   1      34.728  30.812  27.835  1.00  0.00     0.338 C 
ATOM     33  O   UNL A   1      33.717  30.208  27.547  1.00  0.00    -0.246 OA
BRANCH  32  34
ATOM     34  C   UNL A   1      36.019  30.306  28.250  1.00  0.00     0.060 A 
ATOM     35  C   UNL A   1      36.109  29.645  29.469  1.00  0.00     0.016 A 
ATOM     36  C   UNL A   1      37.053  30.321  27.297  1.00  0.00     0.016 A 
ATOM     37  C   UNL A   1      37.295  29.007  29.765  1.00  0.00     0.010 A 
ATOM     38  C   UNL A   1      38.205  29.631  27.565  1.00  0.00     0.010 A 
ATOM     39  C   UNL A   1      38.335  29.030  28.822  1.00  0.00    -0.014 A 
BRANCH  39  40
ATOM     40  C   UNL A   1      39.681  28.633  29.209  1.00  0.00     0.031 A 
ATOM     41  C   UNL A   1      40.498  29.664  29.922  1.00  0.00     0.074 A 
ATOM     42  C   UNL A   1      40.131  27.421  28.862  1.00  0.00     0.049 A 
ATOM     43  N   UNL A   1      41.753  29.624  30.258  1.00  0.00    -0.248 NA
ATOM     44  C   UNL A   1      39.817  30.929  30.274  1.00  0.00     0.031 C 
ATOM     45  C   UNL A   1      39.356  26.395  28.158  1.00  0.00     0.029 A 
ATOM     46  N   UNL A   1      41.357  26.858  29.045  1.00  0.00    -0.354 N 
ATOM     47  C   UNL A   1      42.011  30.850  30.853  1.00  0.00     0.074 A 
ATOM     48  C   UNL A   1      40.809  31.642  30.780  1.00  0.00     0.031 C 
ATOM     49  C   UNL A   1      40.136  25.315  27.976  1.00  0.00     0.029 A 
ATOM     50  C   UNL A   1      41.462  25.599  28.512  1.00  0.00     0.049 A 
ATOM     51  H   UNL A   1      42.095  27.310  29.514  1.00  0.00     0.167 HD
ATOM     52  C   UNL A   1      43.157  31.259  31.433  1.00  0.00     0.031 A 
ATOM     53  C   UNL A   1      42.535  24.792  28.460  1.00  0.00     0.031 A 
ATOM     54  C   UNL A   1      44.330  30.436  31.480  1.00  0.00     0.049 A 
ATOM     55  C   UNL A   1      43.814  25.292  29.076  1.00  0.00     0.074 A 
ATOM     56  C   UNL A   1      45.560  30.716  32.038  1.00  0.00     0.029 A 
ATOM     57  N   UNL A   1      44.402  29.154  30.946  1.00  0.00    -0.354 N 
ATOM     58  N   UNL A   1      44.049  26.445  29.663  1.00  0.00    -0.248 NA
ATOM     59  C   UNL A   1      44.966  24.386  29.038  1.00  0.00     0.031 C 
ATOM     60  C   UNL A   1      46.391  29.617  31.806  1.00  0.00     0.029 A 
ATOM     61  C   UNL A   1      45.659  28.629  31.160  1.00  0.00     0.049 A 
ATOM     62  H   UNL A   1      43.666  28.691  30.485  1.00  0.00     0.167 HD
ATOM     63  C   UNL A   1      45.364  26.383  30.106  1.00  0.00     0.074 A 
ATOM     64  C   UNL A   1      45.870  25.080  29.717  1.00  0.00     0.031 C 
ATOM     65  C   UNL A   1      46.092  27.309  30.777  1.00  0.00     0.031 A 
BRANCH  52  66
ATOM     66  C   UNL A   1      43.182  32.628  32.047  1.00  0.00    -0.014 A 
ATOM     67  C   UNL A   1      42.741  32.836  33.368  1.00  0.00     0.010 A 
ATOM     68  C   UNL A   1      43.677  33.718  31.311  1.00  0.00     0.010 A 
ATOM     69  C   UNL A   1      42.781  34.111  33.935  1.00  0.00     0.020 A 
ATOM     70  C   UNL A   1      43.746  34.991  31.885  1.00  0.00     0.020 A 
ATOM     71  C   UNL A   1      43.289  35.179  33.192  1.00  0.00     0.054 A 
BRANCH  71  72
ATOM     72  S   UNL A   1      43.389  36.810  33.978  1.00  0.00     0.124 S 
ATOM     73  O   UNL A   1      42.158  36.842  34.764  1.00  0.00    -0.237 OA
ATOM     74  O   UNL A   1      44.626  36.716  34.750  1.00  0.00    -0.237 OA
ATOM     75  O   UNL A   1      43.430  37.738  32.849  1.00  0.00    -0.744 OA
ENDBRANCH  71  72
ENDBRANCH  52  66
BRANCH  53  76
ATOM     76  C   UNL A   1      42.439  23.454  27.822  1.00  0.00    -0.014 A 
ATOM     77  C   UNL A   1      41.962  22.351  28.548  1.00  0.00     0.010 A 
ATOM     78  C   UNL A   1      42.823  23.275  26.480  1.00  0.00     0.010 A 
ATOM     79  C   UNL A   1      41.914  21.083  27.961  1.00  0.00     0.020 A 
ATOM     80  C   UNL A   1      42.748  22.015  25.879  1.00  0.00     0.020 A 
ATOM     81  C   UNL A   1      42.315  20.923  26.632  1.00  0.00     0.054 A 
BRANCH  81  82
ATOM     82  S   UNL A   1      42.247  19.269  25.893  1.00  0.00     0.124 S 
ATOM     83  O   UNL A   1      42.756  18.434  26.977  1.00  0.00    -0.237 OA
ATOM     84  O   UNL A   1      40.827  19.117  25.590  1.00  0.00    -0.237 OA
ATOM     85  O   UNL A   1      43.118  19.380  24.725  1.00  0.00    -0.744 OA
ENDBRANCH  81  82
ENDBRANCH  53  76
BRANCH  65  86
ATOM     86  C   UNL A   1      47.477  26.918  31.200  1.00  0.00    -0.014 A 
ATOM     87  C   UNL A   1      47.702  26.199  32.385  1.00  0.00     0.010 A 
ATOM     88  C   UNL A   1      48.552  27.184  30.331  1.00  0.00     0.010 A 
ATOM     89  C   UNL A   1      48.988  25.759  32.699  1.00  0.00     0.020 A 
ATOM     90  C   UNL A   1      49.831  26.718  30.627  1.00  0.00     0.020 A 
ATOM     91  C   UNL A   1      50.042  26.014  31.814  1.00  0.00     0.054 A 
BRANCH  91  92
ATOM     92  S   UNL A   1      51.683  25.353  32.204  1.00  0.00     0.124 S 
ATOM     93  O   UNL A   1      52.451  25.732  31.021  1.00  0.00    -0.237 OA
ATOM     94  O   UNL A   1      52.028  26.063  33.432  1.00  0.00    -0.237 OA
ATOM     95  O   UNL A   1      51.451  23.919  32.364  1.00  0.00    -0.744 OA
ENDBRANCH  91  92
ENDBRANCH  65  86
ENDBRANCH  39  40
ENDBRANCH  32  34
ENDBRANCH  31  32
ENDBRANCH  30  31
ENDBRANCH   1  30
TORSDOF 19
ENDMDL
MODEL 3
REMARK VINA RESULT:      -8.4      4.953      5.898
REMARK SMILES C[NH+]1CCN(C(=O)c2ccc3c(c2)N(CC(=O)OCCOCCOC(=O)c2ccc(-c4c5nc(c(-c6ccc(S(=O)(=O)[O-])cc6)c6ccc([nH]6)c(-c6ccc(S(=O)(=O)[O-])cc6)c6nc(c(-c7ccc(S(=O)(=O)[O-])cc7)c7ccc4[nH]7)C=C6)C=C5)cc2)C(=O)CO3)CC1
REMARK SMILES IDX 22 1 21 2 20 3 19 4 18 5 16 6 17 7 15 8 14 9 8 10 9 11 13 12
REMARK SMILES IDX 10 13 12 14 11 15 90 16 87 17 89 18 88 19 6 20 1 21 2 22
REMARK SMILES IDX 3 23 92 24 4 26 91 27 5 28 7 29 23 30 24 31 25 32 26 33
REMARK SMILES IDX 27 34 28 35 86 36 29 37 85 38 30 39 31 40 32 41 79 42 33 43
REMARK SMILES IDX 84 44 78 45 80 46 34 47 83 48 77 49 76 50 35 52 65 53 46 54
REMARK SMILES IDX 64 55 47 56 50 57 63 58 81 59 48 60 49 61 62 63 82 64 51 65
REMARK SMILES IDX 36 66 37 67 45 68 38 69 44 70 39 71 40 72 41 73 42 74 43 75
REMARK SMILES IDX 66 76 67 77 75 78 68 79 74 80 69 81 70 82 71 83 72 84 73 85
REMARK SMILES IDX 52 86 53 87 61 88 54 89 60 90 55 91 56 92 57 93 58 94 59 95
REMARK H PARENT 2 25 80 51 50 62
REMARK Flexibility Score: inf
ROOT
ATOM      1  C   UNL A   1      33.589  35.043  28.882  1.00  0.00     0.202 C 
ENDROOT
BRANCH   1   2
ATOM      2  O   UNL A   1      33.174  34.112  27.895  1.00  0.00    -0.374 OA
BRANCH   2   3
ATOM      3  C   UNL A   1      34.144  33.088  27.637  1.00  0.00     0.202 C 
BRANCH   3   4
ATOM      4  C   UNL A   1      33.620  31.638  27.747  1.00  0.00     0.261 C 
BRANCH   4   5
ATOM      5  O   UNL A   1      34.422  30.703  26.981  1.00  0.00    -0.462 OA
BRANCH   5   6
ATOM      6  C   UNL A   1      33.942  29.436  26.862  1.00  0.00     0.326 C 
ATOM      7  O   UNL A   1      34.653  28.449  26.686  1.00  0.00    -0.250 OA
BRANCH   6   8
ATOM      8  C   UNL A   1      32.404  29.308  26.916  1.00  0.00     0.248 C 
BRANCH   8   9
ATOM      9  N   UNL A   1      31.594  28.928  25.748  1.00  0.00    -0.295 N 
ATOM     10  C   UNL A   1      31.486  25.129  25.719  1.00  0.00     0.042 A 
ATOM     11  C   UNL A   1      30.636  24.912  24.632  1.00  0.00     0.018 A 
ATOM     12  C   UNL A   1      31.931  26.444  26.006  1.00  0.00     0.044 A 
ATOM     13  C   UNL A   1      30.202  26.000  23.870  1.00  0.00     0.049 A 
ATOM     14  C   UNL A   1      31.415  27.567  25.309  1.00  0.00     0.087 A 
ATOM     15  C   UNL A   1      30.570  27.313  24.213  1.00  0.00     0.143 A 
ATOM     16  O   UNL A   1      29.932  28.271  23.478  1.00  0.00    -0.482 OA
ATOM     17  C   UNL A   1      30.995  29.970  25.046  1.00  0.00     0.265 C 
ATOM     18  C   UNL A   1      30.351  29.595  23.718  1.00  0.00     0.330 C 
ATOM     19  O   UNL A   1      31.048  31.145  25.415  1.00  0.00    -0.270 OA
BRANCH  10  20
ATOM     20  C   UNL A   1      32.044  23.943  26.433  1.00  0.00     0.254 C 
ATOM     21  C   UNL A   1      32.716  19.313  23.735  1.00  0.00     0.332 C 
ATOM     22  N   UNL A   1      33.291  20.486  24.395  1.00  0.00    -0.334 N 
ATOM     23  C   UNL A   1      32.900  20.535  25.825  1.00  0.00     0.283 C 
ATOM     24  C   UNL A   1      32.867  21.718  23.699  1.00  0.00     0.283 C 
ATOM     25  H   UNL A   1      34.307  20.415  24.350  1.00  0.00     0.347 HD
ATOM     26  C   UNL A   1      33.341  21.833  26.546  1.00  0.00     0.181 C 
ATOM     27  C   UNL A   1      33.361  22.976  24.438  1.00  0.00     0.181 C 
ATOM     28  N   UNL A   1      32.881  23.011  25.814  1.00  0.00    -0.327 N 
ATOM     29  O   UNL A   1      31.717  23.854  27.617  1.00  0.00    -0.269 OA
ENDBRANCH  10  20
ENDBRANCH   8   9
ENDBRANCH   6   8
ENDBRANCH   5   6
ENDBRANCH   4   5
ENDBRANCH   3   4
ENDBRANCH   2   3
ENDBRANCH   1   2
BRANCH   1  30
ATOM     30  C   UNL A   1      33.623  34.599  30.333  1.00  0.00     0.261 C 
BRANCH  30  31
ATOM     31  O   UNL A   1      34.902  34.163  30.659  1.00  0.00    -0.460 OA
BRANCH  31  32
ATOM     32  C   UNL A   1      34.931  32.981  31.300  1.00  0.00     0.338 C 
ATOM     33  O   UNL A   1      34.036  32.350  31.822  1.00  0.00    -0.246 OA
BRANCH  32  34
ATOM     34  C   UNL A   1      36.314  32.615  31.083  1.00  0.00     0.060 A 
ATOM     35  C   UNL A   1      36.946  31.826  32.037  1.00  0.00     0.016 A 
ATOM     36  C   UNL A   1      36.864  32.897  29.820  1.00  0.00     0.016 A 
ATOM     37  C   UNL A   1      38.196  31.331  31.730  1.00  0.00     0.010 A 
ATOM     38  C   UNL A   1      38.075  32.349  29.493  1.00  0.00     0.010 A 
ATOM     39  C   UNL A   1      38.754  31.620  30.475  1.00  0.00    -0.014 A 
BRANCH  39  40
ATOM     40  C   UNL A   1      40.168  31.373  30.230  1.00  0.00     0.031 A 
ATOM     41  C   UNL A   1      41.096  32.517  30.489  1.00  0.00     0.074 A 
ATOM     42  C   UNL A   1      40.550  30.187  29.739  1.00  0.00     0.049 A 
ATOM     43  N   UNL A   1      42.368  32.613  30.233  1.00  0.00    -0.248 NA
ATOM     44  C   UNL A   1      40.506  33.735  31.086  1.00  0.00     0.031 C 
ATOM     45  C   UNL A   1      39.663  29.052  29.471  1.00  0.00     0.029 A 
ATOM     46  N   UNL A   1      41.785  29.751  29.369  1.00  0.00    -0.354 N 
ATOM     47  C   UNL A   1      42.725  33.893  30.632  1.00  0.00     0.074 A 
ATOM     48  C   UNL A   1      41.534  34.566  31.087  1.00  0.00     0.031 C 
ATOM     49  C   UNL A   1      40.396  28.038  28.979  1.00  0.00     0.029 A 
ATOM     50  C   UNL A   1      41.783  28.476  28.865  1.00  0.00     0.049 A 
ATOM     51  H   UNL A   1      42.599  30.297  29.453  1.00  0.00     0.167 HD
ATOM     52  C   UNL A   1      43.956  34.441  30.635  1.00  0.00     0.031 A 
ATOM     53  C   UNL A   1      42.805  27.768  28.356  1.00  0.00     0.031 A 
ATOM     54  C   UNL A   1      45.112  33.733  30.169  1.00  0.00     0.049 A 
ATOM     55  C   UNL A   1      44.161  28.421  28.331  1.00  0.00     0.074 A 
ATOM     56  C   UNL A   1      46.424  34.159  30.119  1.00  0.00     0.029 A 
ATOM     57  N   UNL A   1      45.083  32.432  29.680  1.00  0.00    -0.354 N 
ATOM     58  N   UNL A   1      44.501  29.625  28.733  1.00  0.00    -0.248 NA
ATOM     59  C   UNL A   1      45.271  27.623  27.800  1.00  0.00     0.031 C 
ATOM     60  C   UNL A   1      47.184  33.128  29.559  1.00  0.00     0.029 A 
ATOM     61  C   UNL A   1      46.355  32.038  29.322  1.00  0.00     0.049 A 
ATOM     62  H   UNL A   1      44.275  31.875  29.602  1.00  0.00     0.167 HD
ATOM     63  C   UNL A   1      45.875  29.712  28.547  1.00  0.00     0.074 A 
ATOM     64  C   UNL A   1      46.299  28.439  27.995  1.00  0.00     0.031 C 
ATOM     65  C   UNL A   1      46.718  30.741  28.809  1.00  0.00     0.031 A 
BRANCH  52  66
ATOM     66  C   UNL A   1      44.098  35.843  31.151  1.00  0.00    -0.014 A 
ATOM     67  C   UNL A   1      44.382  36.088  32.508  1.00  0.00     0.010 A 
ATOM     68  C   UNL A   1      43.976  36.931  30.270  1.00  0.00     0.010 A 
ATOM     69  C   UNL A   1      44.526  37.395  32.976  1.00  0.00     0.020 A 
ATOM     70  C   UNL A   1      44.148  38.240  30.729  1.00  0.00     0.020 A 
ATOM     71  C   UNL A   1      44.414  38.463  32.081  1.00  0.00     0.054 A 
BRANCH  71  72
ATOM     72  S   UNL A   1      44.670  40.146  32.706  1.00  0.00     0.124 S 
ATOM     73  O   UNL A   1      43.490  40.840  32.195  1.00  0.00    -0.237 OA
ATOM     74  O   UNL A   1      44.704  39.946  34.153  1.00  0.00    -0.237 OA
ATOM     75  O   UNL A   1      45.939  40.550  32.105  1.00  0.00    -0.744 OA
ENDBRANCH  71  72
ENDBRANCH  52  66
BRANCH  53  76
ATOM     76  C   UNL A   1      42.585  26.389  27.849  1.00  0.00    -0.014 A 
ATOM     77  C   UNL A   1      42.453  26.150  26.471  1.00  0.00     0.010 A 
ATOM     78  C   UNL A   1      42.509  25.305  28.742  1.00  0.00     0.010 A 
ATOM     79  C   UNL A   1      42.201  24.859  25.997  1.00  0.00     0.020 A 
ATOM     80  C   UNL A   1      42.288  24.008  28.270  1.00  0.00     0.020 A 
ATOM     81  C   UNL A   1      42.113  23.798  26.902  1.00  0.00     0.054 A 
BRANCH  81  82
ATOM     82  S   UNL A   1      41.783  22.133  26.264  1.00  0.00     0.124 S 
ATOM     83  O   UNL A   1      42.513  22.144  25.000  1.00  0.00    -0.237 OA
ATOM     84  O   UNL A   1      42.339  21.278  27.310  1.00  0.00    -0.237 OA
ATOM     85  O   UNL A   1      40.327  22.094  26.147  1.00  0.00    -0.744 OA
ENDBRANCH  81  82
ENDBRANCH  53  76
BRANCH  65  86
ATOM     86  C   UNL A   1      48.181  30.506  28.579  1.00  0.00    -0.014 A 
ATOM     87  C   UNL A   1      48.996  29.948  29.578  1.00  0.00     0.010 A 
ATOM     88  C   UNL A   1      48.714  30.748  27.299  1.00  0.00     0.010 A 
ATOM     89  C   UNL A   1      50.328  29.644  29.300  1.00  0.00     0.020 A 
ATOM     90  C   UNL A   1      50.036  30.416  27.011  1.00  0.00     0.020 A 
ATOM     91  C   UNL A   1      50.838  29.872  28.016  1.00  0.00     0.054 A 
BRANCH  91  92
ATOM     92  S   UNL A   1      52.545  29.384  27.659  1.00  0.00     0.124 S 
ATOM     93  O   UNL A   1      53.171  30.668  27.358  1.00  0.00    -0.237 OA
ATOM     94  O   UNL A   1      52.965  28.758  28.910  1.00  0.00    -0.237 OA
ATOM     95  O   UNL A   1      52.416  28.472  26.525  1.00  0.00    -0.744 OA
ENDBRANCH  91  92
ENDBRANCH  65  86
ENDBRANCH  39  40
ENDBRANCH  32  34
ENDBRANCH  31  32
ENDBRANCH  30  31
ENDBRANCH   1  30
TORSDOF 19
ENDMDL
