MODEL 1
REMARK VINA RESULT:     -10.2      0.000      0.000
REMARK SMILES CCC(CC)(CC(=O)Nc1ccc(NC(C)=O)cc1)C(=O)OCCOCCOC(=O)c1ccc(-c2c3nc(c(-c4ccc(S(=O)(=O)[O-])cc4)c4ccc([nH]4)c(-c4ccc(S(=O)(=O)[O-])cc4)c4nc(c(-c5ccc(S(=O)(=O)[O-])cc5)c5ccc2[nH]5)C=C4)C=C3)cc1
REMARK SMILES IDX 24 1 23 2 22 3 20 4 21 5 3 6 2 7 1 8 4 9 5 10 6 11 7 12 8 13
REMARK SMILES IDX 9 14 10 16 11 17 19 18 12 19 18 20 13 21 14 22 15 23 16 25
REMARK SMILES IDX 17 26 25 27 26 28 27 29 28 30 29 31 30 32 31 33 32 34 90 35
REMARK SMILES IDX 33 36 89 37 34 38 35 39 36 40 83 41 37 42 88 43 82 44 84 45
REMARK SMILES IDX 38 46 87 47 81 48 80 49 39 51 69 52 50 53 68 54 51 55 54 56
REMARK SMILES IDX 67 57 85 58 52 59 53 60 66 62 86 63 55 64 40 65 41 66 49 67
REMARK SMILES IDX 42 68 48 69 43 70 44 71 45 72 46 73 47 74 70 75 71 76 79 77
REMARK SMILES IDX 72 78 78 79 73 80 74 81 75 82 76 83 77 84 56 85 57 86 65 87
REMARK SMILES IDX 58 88 64 89 59 90 60 91 61 92 62 93 63 94
REMARK H PARENT 9 15 14 24 84 50 54 61
REMARK Flexibility Score: inf
ROOT
ATOM      1  C   UNL A   1      36.405  23.130  24.690  1.00  0.00     0.202 C 
ENDROOT
BRANCH   1   2
ATOM      2  C   UNL A   1      35.041  23.390  24.021  1.00  0.00     0.261 C 
BRANCH   2   3
ATOM      3  O   UNL A   1      34.626  24.771  24.007  1.00  0.00    -0.463 OA
BRANCH   3   4
ATOM      4  C   UNL A   1      33.434  24.993  23.417  1.00  0.00     0.312 C 
ATOM      5  O   UNL A   1      32.930  24.217  22.607  1.00  0.00    -0.252 OA
BRANCH   4   6
ATOM      6  C   UNL A   1      32.691  26.268  23.856  1.00  0.00     0.076 C 
BRANCH   6   7
ATOM      7  C   UNL A   1      32.284  26.995  22.555  1.00  0.00     0.016 C 
ATOM      8  C   UNL A   1      30.891  27.604  22.426  1.00  0.00     0.005 C 
ENDBRANCH   6   7
BRANCH   6   9
ATOM      9  C   UNL A   1      33.794  27.074  24.640  1.00  0.00     0.016 C 
ATOM     10  C   UNL A   1      33.656  28.592  24.640  1.00  0.00     0.005 C 
ENDBRANCH   6   9
BRANCH   6  11
ATOM     11  C   UNL A   1      31.463  26.157  24.823  1.00  0.00     0.119 C 
BRANCH  11  12
ATOM     12  C   UNL A   1      31.427  26.018  26.356  1.00  0.00     0.225 C 
ATOM     13  O   UNL A   1      31.250  27.012  27.063  1.00  0.00    -0.275 OA
ATOM     14  N   UNL A   1      31.245  24.784  26.950  1.00  0.00    -0.326 N 
ATOM     15  H   UNL A   1      30.715  24.796  27.780  1.00  0.00     0.169 HD
BRANCH  14  16
ATOM     16  C   UNL A   1      31.698  23.520  26.558  1.00  0.00     0.041 A 
ATOM     17  C   UNL A   1      31.130  22.859  25.470  1.00  0.00     0.028 A 
ATOM     18  C   UNL A   1      32.653  22.854  27.306  1.00  0.00     0.028 A 
ATOM     19  C   UNL A   1      31.696  21.658  25.003  1.00  0.00     0.028 A 
ATOM     20  C   UNL A   1      33.242  21.680  26.835  1.00  0.00     0.028 A 
ATOM     21  C   UNL A   1      32.811  21.107  25.640  1.00  0.00     0.041 A 
BRANCH  21  22
ATOM     22  N   UNL A   1      33.589  20.050  25.132  1.00  0.00    -0.326 N 
ATOM     23  C   UNL A   1      33.282  18.704  25.126  1.00  0.00     0.221 C 
ATOM     24  H   UNL A   1      34.454  20.299  24.734  1.00  0.00     0.169 HD
ATOM     25  C   UNL A   1      34.201  17.913  24.224  1.00  0.00     0.114 C 
ATOM     26  O   UNL A   1      32.395  18.151  25.766  1.00  0.00    -0.275 OA
ENDBRANCH  21  22
ENDBRANCH  14  16
ENDBRANCH  11  12
ENDBRANCH   6  11
ENDBRANCH   4   6
ENDBRANCH   3   4
ENDBRANCH   2   3
ENDBRANCH   1   2
BRANCH   1  27
ATOM     27  O   UNL A   1      37.171  22.016  24.239  1.00  0.00    -0.374 OA
BRANCH  27  28
ATOM     28  C   UNL A   1      37.793  21.214  25.246  1.00  0.00     0.202 C 
BRANCH  28  29
ATOM     29  C   UNL A   1      39.026  21.798  25.945  1.00  0.00     0.261 C 
BRANCH  29  30
ATOM     30  O   UNL A   1      39.627  20.838  26.835  1.00  0.00    -0.460 OA
BRANCH  30  31
ATOM     31  C   UNL A   1      40.815  20.363  26.417  1.00  0.00     0.338 C 
ATOM     32  O   UNL A   1      41.015  19.331  25.783  1.00  0.00    -0.246 OA
BRANCH  31  33
ATOM     33  C   UNL A   1      41.865  21.368  26.637  1.00  0.00     0.060 A 
ATOM     34  C   UNL A   1      42.220  21.647  27.963  1.00  0.00     0.016 A 
ATOM     35  C   UNL A   1      42.370  22.139  25.587  1.00  0.00     0.016 A 
ATOM     36  C   UNL A   1      43.000  22.764  28.250  1.00  0.00     0.010 A 
ATOM     37  C   UNL A   1      43.154  23.263  25.880  1.00  0.00     0.010 A 
ATOM     38  C   UNL A   1      43.413  23.618  27.217  1.00  0.00    -0.014 A 
BRANCH  38  39
ATOM     39  C   UNL A   1      43.894  24.975  27.584  1.00  0.00     0.031 A 
ATOM     40  C   UNL A   1      45.333  25.333  27.296  1.00  0.00     0.074 A 
ATOM     41  C   UNL A   1      43.052  25.913  28.052  1.00  0.00     0.049 A 
ATOM     42  N   UNL A   1      45.936  26.489  27.397  1.00  0.00    -0.248 NA
ATOM     43  C   UNL A   1      46.202  24.243  26.821  1.00  0.00     0.031 C 
ATOM     44  C   UNL A   1      41.631  25.710  28.336  1.00  0.00     0.029 A 
ATOM     45  N   UNL A   1      43.269  27.236  28.349  1.00  0.00    -0.354 N 
ATOM     46  C   UNL A   1      47.250  26.267  26.999  1.00  0.00     0.074 A 
ATOM     47  C   UNL A   1      47.366  24.860  26.687  1.00  0.00     0.031 C 
ATOM     48  C   UNL A   1      41.099  26.873  28.748  1.00  0.00     0.029 A 
ATOM     49  C   UNL A   1      42.142  27.899  28.771  1.00  0.00     0.049 A 
ATOM     50  H   UNL A   1      44.149  27.669  28.266  1.00  0.00     0.167 HD
ATOM     51  C   UNL A   1      48.270  27.153  26.888  1.00  0.00     0.031 A 
ATOM     52  C   UNL A   1      41.966  29.188  29.126  1.00  0.00     0.031 A 
ATOM     53  C   UNL A   1      48.163  28.552  27.203  1.00  0.00     0.049 A 
ATOM     54  C   UNL A   1      43.125  30.148  29.036  1.00  0.00     0.074 A 
ATOM     55  C   UNL A   1      49.138  29.532  27.114  1.00  0.00     0.029 A 
ATOM     56  N   UNL A   1      47.015  29.171  27.672  1.00  0.00    -0.354 N 
ATOM     57  N   UNL A   1      44.352  29.925  28.627  1.00  0.00    -0.248 NA
ATOM     58  C   UNL A   1      42.868  31.538  29.438  1.00  0.00     0.031 C 
ATOM     59  C   UNL A   1      48.590  30.735  27.572  1.00  0.00     0.029 A 
ATOM     60  C   UNL A   1      47.261  30.514  27.895  1.00  0.00     0.049 A 
ATOM     61  H   UNL A   1      46.153  28.720  27.823  1.00  0.00     0.167 HD
ATOM     62  C   UNL A   1      45.002  31.155  28.689  1.00  0.00     0.074 A 
ATOM     63  C   UNL A   1      44.030  32.117  29.168  1.00  0.00     0.031 C 
ATOM     64  C   UNL A   1      46.283  31.461  28.370  1.00  0.00     0.031 A 
BRANCH  51  65
ATOM     65  C   UNL A   1      49.603  26.619  26.435  1.00  0.00    -0.014 A 
ATOM     66  C   UNL A   1      50.404  25.837  27.287  1.00  0.00     0.010 A 
ATOM     67  C   UNL A   1      50.050  26.887  25.129  1.00  0.00     0.010 A 
ATOM     68  C   UNL A   1      51.648  25.368  26.854  1.00  0.00     0.020 A 
ATOM     69  C   UNL A   1      51.283  26.400  24.685  1.00  0.00     0.020 A 
ATOM     70  C   UNL A   1      52.083  25.659  25.557  1.00  0.00     0.054 A 
BRANCH  70  71
ATOM     71  S   UNL A   1      53.696  25.031  25.013  1.00  0.00     0.124 S 
ATOM     72  O   UNL A   1      53.775  25.547  23.649  1.00  0.00    -0.237 OA
ATOM     73  O   UNL A   1      54.618  25.639  25.969  1.00  0.00    -0.237 OA
ATOM     74  O   UNL A   1      53.558  23.581  25.123  1.00  0.00    -0.744 OA
ENDBRANCH  70  71
ENDBRANCH  51  65
BRANCH  52  75
ATOM     75  C   UNL A   1      40.631  29.657  29.588  1.00  0.00    -0.014 A 
ATOM     76  C   UNL A   1      39.580  29.851  28.674  1.00  0.00     0.010 A 
ATOM     77  C   UNL A   1      40.408  29.916  30.953  1.00  0.00     0.010 A 
ATOM     78  C   UNL A   1      38.335  30.312  29.114  1.00  0.00     0.020 A 
ATOM     79  C   UNL A   1      39.159  30.353  31.400  1.00  0.00     0.020 A 
ATOM     80  C   UNL A   1      38.133  30.560  30.476  1.00  0.00     0.054 A 
BRANCH  80  81
ATOM     81  S   UNL A   1      36.494  31.107  31.035  1.00  0.00     0.124 S 
ATOM     82  O   UNL A   1      35.779  31.258  29.773  1.00  0.00    -0.237 OA
ATOM     83  O   UNL A   1      36.061  30.000  31.882  1.00  0.00    -0.237 OA
ATOM     84  O   UNL A   1      36.777  32.351  31.747  1.00  0.00    -0.744 OA
ENDBRANCH  80  81
ENDBRANCH  52  75
BRANCH  64  85
ATOM     85  C   UNL A   1      46.701  32.903  28.484  1.00  0.00    -0.014 A 
ATOM     86  C   UNL A   1      46.445  33.823  27.452  1.00  0.00     0.010 A 
ATOM     87  C   UNL A   1      47.329  33.351  29.661  1.00  0.00     0.010 A 
ATOM     88  C   UNL A   1      46.849  35.156  27.577  1.00  0.00     0.020 A 
ATOM     89  C   UNL A   1      47.711  34.687  29.800  1.00  0.00     0.020 A 
ATOM     90  C   UNL A   1      47.486  35.578  28.748  1.00  0.00     0.054 A 
BRANCH  90  91
ATOM     91  S   UNL A   1      47.986  37.315  28.900  1.00  0.00     0.124 S 
ATOM     92  O   UNL A   1      48.916  37.460  27.784  1.00  0.00    -0.237 OA
ATOM     93  O   UNL A   1      46.720  38.030  28.761  1.00  0.00    -0.237 OA
ATOM     94  O   UNL A   1      48.590  37.386  30.228  1.00  0.00    -0.744 OA
ENDBRANCH  90  91
ENDBRANCH  64  85
ENDBRANCH  38  39
ENDBRANCH  31  33
ENDBRANCH  30  31
ENDBRANCH  29  30
ENDBRANCH  28  29
ENDBRANCH  27  28
ENDBRANCH   1  27
TORSDOF 23
ENDMDL
MODEL 2
REMARK VINA RESULT:     -10.0      6.196      8.823
REMARK SMILES CCC(CC)(CC(=O)Nc1ccc(NC(C)=O)cc1)C(=O)OCCOCCOC(=O)c1ccc(-c2c3nc(c(-c4ccc(S(=O)(=O)[O-])cc4)c4ccc([nH]4)c(-c4ccc(S(=O)(=O)[O-])cc4)c4nc(c(-c5ccc(S(=O)(=O)[O-])cc5)c5ccc2[nH]5)C=C4)C=C3)cc1
REMARK SMILES IDX 24 1 23 2 22 3 20 4 21 5 3 6 2 7 1 8 4 9 5 10 6 11 7 12 8 13
REMARK SMILES IDX 9 14 10 16 11 17 19 18 12 19 18 20 13 21 14 22 15 23 16 25
REMARK SMILES IDX 17 26 25 27 26 28 27 29 28 30 29 31 30 32 31 33 32 34 90 35
REMARK SMILES IDX 33 36 89 37 34 38 35 39 36 40 83 41 37 42 88 43 82 44 84 45
REMARK SMILES IDX 38 46 87 47 81 48 80 49 39 51 69 52 50 53 68 54 51 55 54 56
REMARK SMILES IDX 67 57 85 58 52 59 53 60 66 62 86 63 55 64 40 65 41 66 49 67
REMARK SMILES IDX 42 68 48 69 43 70 44 71 45 72 46 73 47 74 70 75 71 76 79 77
REMARK SMILES IDX 72 78 78 79 73 80 74 81 75 82 76 83 77 84 56 85 57 86 65 87
REMARK SMILES IDX 58 88 64 89 59 90 60 91 61 92 62 93 63 94
REMARK H PARENT 9 15 14 24 84 50 54 61
REMARK Flexibility Score: inf
ROOT
ATOM      1  C   UNL A   1      37.261  23.291  25.376  1.00  0.00     0.202 C 
ENDROOT
BRANCH   1   2
ATOM      2  C   UNL A   1      36.117  23.345  26.406  1.00  0.00     0.261 C 
BRANCH   2   3
ATOM      3  O   UNL A   1      34.831  23.717  25.866  1.00  0.00    -0.463 OA
BRANCH   3   4
ATOM      4  C   UNL A   1      33.985  22.685  25.670  1.00  0.00     0.312 C 
ATOM      5  O   UNL A   1      34.024  21.649  26.332  1.00  0.00    -0.252 OA
BRANCH   4   6
ATOM      6  C   UNL A   1      32.908  22.891  24.590  1.00  0.00     0.076 C 
BRANCH   6   7
ATOM      7  C   UNL A   1      32.663  21.502  23.960  1.00  0.00     0.016 C 
ATOM      8  C   UNL A   1      32.179  21.394  22.517  1.00  0.00     0.005 C 
ENDBRANCH   6   7
BRANCH   6   9
ATOM      9  C   UNL A   1      33.607  23.866  23.568  1.00  0.00     0.016 C 
ATOM     10  C   UNL A   1      32.697  24.833  22.820  1.00  0.00     0.005 C 
ENDBRANCH   6   9
BRANCH   6  11
ATOM     11  C   UNL A   1      31.545  23.563  24.971  1.00  0.00     0.119 C 
BRANCH  11  12
ATOM     12  C   UNL A   1      31.146  24.324  26.248  1.00  0.00     0.225 C 
ATOM     13  O   UNL A   1      31.176  23.756  27.342  1.00  0.00    -0.275 OA
ATOM     14  N   UNL A   1      31.086  25.704  26.260  1.00  0.00    -0.326 N 
ATOM     15  H   UNL A   1      31.366  26.126  27.105  1.00  0.00     0.169 HD
BRANCH  14  16
ATOM     16  C   UNL A   1      30.690  26.597  25.259  1.00  0.00     0.041 A 
ATOM     17  C   UNL A   1      29.601  26.317  24.436  1.00  0.00     0.028 A 
ATOM     18  C   UNL A   1      31.436  27.734  24.998  1.00  0.00     0.028 A 
ATOM     19  C   UNL A   1      29.129  27.291  23.536  1.00  0.00     0.028 A 
ATOM     20  C   UNL A   1      30.960  28.720  24.133  1.00  0.00     0.028 A 
ATOM     21  C   UNL A   1      29.764  28.532  23.442  1.00  0.00     0.041 A 
BRANCH  21  22
ATOM     22  N   UNL A   1      29.252  29.650  22.756  1.00  0.00    -0.326 N 
ATOM     23  C   UNL A   1      27.999  30.216  22.884  1.00  0.00     0.221 C 
ATOM     24  H   UNL A   1      29.857  30.078  22.109  1.00  0.00     0.169 HD
ATOM     25  C   UNL A   1      27.919  31.575  22.229  1.00  0.00     0.114 C 
ATOM     26  O   UNL A   1      27.023  29.720  23.434  1.00  0.00    -0.275 OA
ENDBRANCH  21  22
ENDBRANCH  14  16
ENDBRANCH  11  12
ENDBRANCH   6  11
ENDBRANCH   4   6
ENDBRANCH   3   4
ENDBRANCH   2   3
ENDBRANCH   1   2
BRANCH   1  27
ATOM     27  O   UNL A   1      38.226  22.250  25.501  1.00  0.00    -0.374 OA
BRANCH  27  28
ATOM     28  C   UNL A   1      39.222  22.417  26.513  1.00  0.00     0.202 C 
BRANCH  28  29
ATOM     29  C   UNL A   1      40.297  23.483  26.270  1.00  0.00     0.261 C 
BRANCH  29  30
ATOM     30  O   UNL A   1      40.370  24.412  27.368  1.00  0.00    -0.460 OA
BRANCH  30  31
ATOM     31  C   UNL A   1      40.752  25.654  27.018  1.00  0.00     0.338 C 
ATOM     32  O   UNL A   1      41.304  25.989  25.974  1.00  0.00    -0.246 OA
BRANCH  31  33
ATOM     33  C   UNL A   1      40.226  26.634  27.980  1.00  0.00     0.060 A 
ATOM     34  C   UNL A   1      40.880  27.870  28.060  1.00  0.00     0.016 A 
ATOM     35  C   UNL A   1      39.228  26.295  28.896  1.00  0.00     0.016 A 
ATOM     36  C   UNL A   1      40.609  28.728  29.122  1.00  0.00     0.010 A 
ATOM     37  C   UNL A   1      38.959  27.161  29.965  1.00  0.00     0.010 A 
ATOM     38  C   UNL A   1      39.698  28.348  30.118  1.00  0.00    -0.014 A 
BRANCH  38  39
ATOM     39  C   UNL A   1      39.725  29.089  31.407  1.00  0.00     0.031 A 
ATOM     40  C   UNL A   1      40.870  28.837  32.359  1.00  0.00     0.074 A 
ATOM     41  C   UNL A   1      38.824  30.049  31.681  1.00  0.00     0.049 A 
ATOM     42  N   UNL A   1      41.179  29.460  33.467  1.00  0.00    -0.248 NA
ATOM     43  C   UNL A   1      41.793  27.744  32.008  1.00  0.00     0.031 C 
ATOM     44  C   UNL A   1      37.695  30.419  30.829  1.00  0.00     0.029 A 
ATOM     45  N   UNL A   1      38.736  30.907  32.750  1.00  0.00    -0.354 N 
ATOM     46  C   UNL A   1      42.329  28.838  33.943  1.00  0.00     0.074 A 
ATOM     47  C   UNL A   1      42.643  27.768  33.023  1.00  0.00     0.031 C 
ATOM     48  C   UNL A   1      37.036  31.443  31.400  1.00  0.00     0.029 A 
ATOM     49  C   UNL A   1      37.688  31.792  32.662  1.00  0.00     0.049 A 
ATOM     50  H   UNL A   1      39.365  30.891  33.507  1.00  0.00     0.167 HD
ATOM     51  C   UNL A   1      43.068  29.135  35.040  1.00  0.00     0.031 A 
ATOM     52  C   UNL A   1      37.303  32.778  33.497  1.00  0.00     0.031 A 
ATOM     53  C   UNL A   1      42.758  30.193  35.961  1.00  0.00     0.049 A 
ATOM     54  C   UNL A   1      38.116  33.063  34.734  1.00  0.00     0.074 A 
ATOM     55  C   UNL A   1      43.452  30.578  37.097  1.00  0.00     0.029 A 
ATOM     56  N   UNL A   1      41.661  31.034  35.859  1.00  0.00    -0.354 N 
ATOM     57  N   UNL A   1      39.218  32.484  35.150  1.00  0.00    -0.248 NA
ATOM     58  C   UNL A   1      37.642  34.150  35.603  1.00  0.00     0.031 C 
ATOM     59  C   UNL A   1      42.748  31.624  37.704  1.00  0.00     0.029 A 
ATOM     60  C   UNL A   1      41.647  31.924  36.919  1.00  0.00     0.049 A 
ATOM     61  H   UNL A   1      40.991  31.002  35.138  1.00  0.00     0.167 HD
ATOM     62  C   UNL A   1      39.587  33.160  36.310  1.00  0.00     0.074 A 
ATOM     63  C   UNL A   1      38.595  34.195  36.524  1.00  0.00     0.031 C 
ATOM     64  C   UNL A   1      40.654  32.949  37.119  1.00  0.00     0.031 A 
BRANCH  51  65
ATOM     65  C   UNL A   1      44.272  28.273  35.315  1.00  0.00    -0.014 A 
ATOM     66  C   UNL A   1      44.200  27.177  36.194  1.00  0.00     0.010 A 
ATOM     67  C   UNL A   1      45.488  28.554  34.668  1.00  0.00     0.010 A 
ATOM     68  C   UNL A   1      45.334  26.402  36.452  1.00  0.00     0.020 A 
ATOM     69  C   UNL A   1      46.619  27.767  34.905  1.00  0.00     0.020 A 
ATOM     70  C   UNL A   1      46.540  26.707  35.810  1.00  0.00     0.054 A 
BRANCH  70  71
ATOM     71  S   UNL A   1      47.996  25.681  36.153  1.00  0.00     0.124 S 
ATOM     72  O   UNL A   1      47.389  24.463  36.683  1.00  0.00    -0.237 OA
ATOM     73  O   UNL A   1      48.617  25.551  34.837  1.00  0.00    -0.237 OA
ATOM     74  O   UNL A   1      48.755  26.470  37.120  1.00  0.00    -0.744 OA
ENDBRANCH  70  71
ENDBRANCH  51  65
BRANCH  52  75
ATOM     75  C   UNL A   1      36.090  33.584  33.186  1.00  0.00    -0.014 A 
ATOM     76  C   UNL A   1      34.803  33.064  33.409  1.00  0.00     0.010 A 
ATOM     77  C   UNL A   1      36.224  34.881  32.659  1.00  0.00     0.010 A 
ATOM     78  C   UNL A   1      33.670  33.820  33.093  1.00  0.00     0.020 A 
ATOM     79  C   UNL A   1      35.094  35.650  32.366  1.00  0.00     0.020 A 
ATOM     80  C   UNL A   1      33.824  35.110  32.573  1.00  0.00     0.054 A 
BRANCH  80  81
ATOM     81  S   UNL A   1      32.341  36.097  32.220  1.00  0.00     0.124 S 
ATOM     82  O   UNL A   1      31.276  35.227  32.706  1.00  0.00    -0.237 OA
ATOM     83  O   UNL A   1      32.575  37.311  32.997  1.00  0.00    -0.237 OA
ATOM     84  O   UNL A   1      32.391  36.276  30.770  1.00  0.00    -0.744 OA
ENDBRANCH  80  81
ENDBRANCH  52  75
BRANCH  64  85
ATOM     85  C   UNL A   1      40.835  33.883  38.286  1.00  0.00    -0.014 A 
ATOM     86  C   UNL A   1      41.554  35.084  38.160  1.00  0.00     0.010 A 
ATOM     87  C   UNL A   1      40.242  33.566  39.523  1.00  0.00     0.010 A 
ATOM     88  C   UNL A   1      41.715  35.931  39.261  1.00  0.00     0.020 A 
ATOM     89  C   UNL A   1      40.379  34.422  40.618  1.00  0.00     0.020 A 
ATOM     90  C   UNL A   1      41.132  35.591  40.486  1.00  0.00     0.054 A 
BRANCH  90  91
ATOM     91  S   UNL A   1      41.335  36.711  41.897  1.00  0.00     0.124 S 
ATOM     92  O   UNL A   1      40.645  37.911  41.433  1.00  0.00    -0.237 OA
ATOM     93  O   UNL A   1      40.678  35.987  42.983  1.00  0.00    -0.237 OA
ATOM     94  O   UNL A   1      42.785  36.838  42.031  1.00  0.00    -0.744 OA
ENDBRANCH  90  91
ENDBRANCH  64  85
ENDBRANCH  38  39
ENDBRANCH  31  33
ENDBRANCH  30  31
ENDBRANCH  29  30
ENDBRANCH  28  29
ENDBRANCH  27  28
ENDBRANCH   1  27
TORSDOF 23
ENDMDL
MODEL 3
REMARK VINA RESULT:      -9.4      2.319      3.396
REMARK SMILES CCC(CC)(CC(=O)Nc1ccc(NC(C)=O)cc1)C(=O)OCCOCCOC(=O)c1ccc(-c2c3nc(c(-c4ccc(S(=O)(=O)[O-])cc4)c4ccc([nH]4)c(-c4ccc(S(=O)(=O)[O-])cc4)c4nc(c(-c5ccc(S(=O)(=O)[O-])cc5)c5ccc2[nH]5)C=C4)C=C3)cc1
REMARK SMILES IDX 24 1 23 2 22 3 20 4 21 5 3 6 2 7 1 8 4 9 5 10 6 11 7 12 8 13
REMARK SMILES IDX 9 14 10 16 11 17 19 18 12 19 18 20 13 21 14 22 15 23 16 25
REMARK SMILES IDX 17 26 25 27 26 28 27 29 28 30 29 31 30 32 31 33 32 34 90 35
REMARK SMILES IDX 33 36 89 37 34 38 35 39 36 40 83 41 37 42 88 43 82 44 84 45
REMARK SMILES IDX 38 46 87 47 81 48 80 49 39 51 69 52 50 53 68 54 51 55 54 56
REMARK SMILES IDX 67 57 85 58 52 59 53 60 66 62 86 63 55 64 40 65 41 66 49 67
REMARK SMILES IDX 42 68 48 69 43 70 44 71 45 72 46 73 47 74 70 75 71 76 79 77
REMARK SMILES IDX 72 78 78 79 73 80 74 81 75 82 76 83 77 84 56 85 57 86 65 87
REMARK SMILES IDX 58 88 64 89 59 90 60 91 61 92 62 93 63 94
REMARK H PARENT 9 15 14 24 84 50 54 61
REMARK Flexibility Score: inf
ROOT
ATOM      1  C   UNL A   1      35.636  22.629  23.359  1.00  0.00     0.202 C 
ENDROOT
BRANCH   1   2
ATOM      2  C   UNL A   1      35.349  24.129  23.562  1.00  0.00     0.261 C 
BRANCH   2   3
ATOM      3  O   UNL A   1      33.956  24.463  23.728  1.00  0.00    -0.463 OA
BRANCH   3   4
ATOM      4  C   UNL A   1      33.590  25.637  23.176  1.00  0.00     0.312 C 
ATOM      5  O   UNL A   1      33.847  25.943  22.013  1.00  0.00    -0.252 OA
BRANCH   4   6
ATOM      6  C   UNL A   1      32.768  26.579  24.076  1.00  0.00     0.076 C 
BRANCH   6   7
ATOM      7  C   UNL A   1      32.513  27.854  23.241  1.00  0.00     0.016 C 
ATOM      8  C   UNL A   1      33.671  28.788  22.903  1.00  0.00     0.005 C 
ENDBRANCH   6   7
BRANCH   6   9
ATOM      9  C   UNL A   1      33.745  26.869  25.277  1.00  0.00     0.016 C 
ATOM     10  C   UNL A   1      33.510  28.164  26.046  1.00  0.00     0.005 C 
ENDBRANCH   6   9
BRANCH   6  11
ATOM     11  C   UNL A   1      31.431  26.071  24.714  1.00  0.00     0.119 C 
BRANCH  11  12
ATOM     12  C   UNL A   1      31.116  25.703  26.176  1.00  0.00     0.225 C 
ATOM     13  O   UNL A   1      30.554  26.518  26.911  1.00  0.00    -0.275 OA
ATOM     14  N   UNL A   1      31.128  24.387  26.592  1.00  0.00    -0.326 N 
ATOM     15  H   UNL A   1      30.452  24.158  27.271  1.00  0.00     0.169 HD
BRANCH  14  16
ATOM     16  C   UNL A   1      31.951  23.325  26.201  1.00  0.00     0.041 A 
ATOM     17  C   UNL A   1      33.151  23.066  26.861  1.00  0.00     0.028 A 
ATOM     18  C   UNL A   1      31.640  22.572  25.082  1.00  0.00     0.028 A 
ATOM     19  C   UNL A   1      33.890  21.909  26.548  1.00  0.00     0.028 A 
ATOM     20  C   UNL A   1      32.346  21.406  24.784  1.00  0.00     0.028 A 
ATOM     21  C   UNL A   1      33.442  21.030  25.559  1.00  0.00     0.041 A 
BRANCH  21  22
ATOM     22  N   UNL A   1      33.968  19.745  25.324  1.00  0.00    -0.326 N 
ATOM     23  C   UNL A   1      33.269  18.565  25.165  1.00  0.00     0.221 C 
ATOM     24  H   UNL A   1      34.948  19.681  25.266  1.00  0.00     0.169 HD
ATOM     25  C   UNL A   1      34.140  17.457  24.620  1.00  0.00     0.114 C 
ATOM     26  O   UNL A   1      32.090  18.369  25.433  1.00  0.00    -0.275 OA
ENDBRANCH  21  22
ENDBRANCH  14  16
ENDBRANCH  11  12
ENDBRANCH   6  11
ENDBRANCH   4   6
ENDBRANCH   3   4
ENDBRANCH   2   3
ENDBRANCH   1   2
BRANCH   1  27
ATOM     27  O   UNL A   1      36.985  22.184  23.470  1.00  0.00    -0.374 OA
BRANCH  27  28
ATOM     28  C   UNL A   1      37.238  21.123  24.394  1.00  0.00     0.202 C 
BRANCH  28  29
ATOM     29  C   UNL A   1      37.676  21.515  25.810  1.00  0.00     0.261 C 
BRANCH  29  30
ATOM     30  O   UNL A   1      38.616  22.606  25.783  1.00  0.00    -0.460 OA
BRANCH  30  31
ATOM     31  C   UNL A   1      38.134  23.765  26.269  1.00  0.00     0.338 C 
ATOM     32  O   UNL A   1      36.953  24.061  26.433  1.00  0.00    -0.246 OA
BRANCH  31  33
ATOM     33  C   UNL A   1      39.232  24.588  26.797  1.00  0.00     0.060 A 
ATOM     34  C   UNL A   1      39.290  24.766  28.185  1.00  0.00     0.016 A 
ATOM     35  C   UNL A   1      40.081  25.303  25.950  1.00  0.00     0.016 A 
ATOM     36  C   UNL A   1      40.129  25.739  28.722  1.00  0.00     0.010 A 
ATOM     37  C   UNL A   1      40.923  26.283  26.494  1.00  0.00     0.010 A 
ATOM     38  C   UNL A   1      40.898  26.550  27.875  1.00  0.00    -0.014 A 
BRANCH  38  39
ATOM     39  C   UNL A   1      41.464  27.805  28.436  1.00  0.00     0.031 A 
ATOM     40  C   UNL A   1      42.953  28.035  28.329  1.00  0.00     0.074 A 
ATOM     41  C   UNL A   1      40.670  28.775  28.923  1.00  0.00     0.049 A 
ATOM     42  N   UNL A   1      43.650  29.104  28.616  1.00  0.00    -0.248 NA
ATOM     43  C   UNL A   1      43.760  26.913  27.821  1.00  0.00     0.031 C 
ATOM     44  C   UNL A   1      39.215  28.697  29.044  1.00  0.00     0.029 A 
ATOM     45  N   UNL A   1      40.980  30.030  29.385  1.00  0.00    -0.354 N 
ATOM     46  C   UNL A   1      44.972  28.785  28.324  1.00  0.00     0.074 A 
ATOM     47  C   UNL A   1      44.985  27.412  27.869  1.00  0.00     0.031 C 
ATOM     48  C   UNL A   1      38.755  29.862  29.531  1.00  0.00     0.029 A 
ATOM     49  C   UNL A   1      39.883  30.764  29.768  1.00  0.00     0.049 A 
ATOM     50  H   UNL A   1      41.901  30.374  29.436  1.00  0.00     0.167 HD
ATOM     51  C   UNL A   1      46.077  29.564  28.411  1.00  0.00     0.031 A 
ATOM     52  C   UNL A   1      39.794  32.021  30.247  1.00  0.00     0.031 A 
ATOM     53  C   UNL A   1      46.072  30.927  28.868  1.00  0.00     0.049 A 
ATOM     54  C   UNL A   1      41.042  32.856  30.376  1.00  0.00     0.074 A 
ATOM     55  C   UNL A   1      47.139  31.802  28.984  1.00  0.00     0.029 A 
ATOM     56  N   UNL A   1      44.945  31.614  29.291  1.00  0.00    -0.354 N 
ATOM     57  N   UNL A   1      42.279  32.546  30.064  1.00  0.00    -0.248 NA
ATOM     58  C   UNL A   1      40.878  34.218  30.904  1.00  0.00     0.031 C 
ATOM     59  C   UNL A   1      46.663  33.003  29.519  1.00  0.00     0.029 A 
ATOM     60  C   UNL A   1      45.292  32.894  29.685  1.00  0.00     0.049 A 
ATOM     61  H   UNL A   1      44.032  31.245  29.308  1.00  0.00     0.167 HD
ATOM     62  C   UNL A   1      43.033  33.687  30.326  1.00  0.00     0.074 A 
ATOM     63  C   UNL A   1      42.112  34.694  30.813  1.00  0.00     0.031 C 
ATOM     64  C   UNL A   1      44.364  33.886  30.168  1.00  0.00     0.031 A 
BRANCH  51  65
ATOM     65  C   UNL A   1      47.394  28.940  28.031  1.00  0.00    -0.014 A 
ATOM     66  C   UNL A   1      47.880  29.007  26.713  1.00  0.00     0.010 A 
ATOM     67  C   UNL A   1      48.164  28.293  29.014  1.00  0.00     0.010 A 
ATOM     68  C   UNL A   1      49.095  28.402  26.376  1.00  0.00     0.020 A 
ATOM     69  C   UNL A   1      49.391  27.708  28.685  1.00  0.00     0.020 A 
ATOM     70  C   UNL A   1      49.839  27.750  27.364  1.00  0.00     0.054 A 
BRANCH  70  71
ATOM     71  S   UNL A   1      51.418  26.982  26.906  1.00  0.00     0.124 S 
ATOM     72  O   UNL A   1      50.999  26.014  25.895  1.00  0.00    -0.237 OA
ATOM     73  O   UNL A   1      52.196  28.114  26.407  1.00  0.00    -0.237 OA
ATOM     74  O   UNL A   1      51.899  26.405  28.159  1.00  0.00    -0.744 OA
ENDBRANCH  70  71
ENDBRANCH  51  65
BRANCH  52  75
ATOM     75  C   UNL A   1      38.468  32.580  30.628  1.00  0.00    -0.014 A 
ATOM     76  C   UNL A   1      37.972  32.431  31.936  1.00  0.00     0.010 A 
ATOM     77  C   UNL A   1      37.691  33.263  29.675  1.00  0.00     0.010 A 
ATOM     78  C   UNL A   1      36.716  32.940  32.278  1.00  0.00     0.020 A 
ATOM     79  C   UNL A   1      36.446  33.795  30.020  1.00  0.00     0.020 A 
ATOM     80  C   UNL A   1      35.960  33.620  31.317  1.00  0.00     0.054 A 
BRANCH  80  81
ATOM     81  S   UNL A   1      34.355  34.320  31.796  1.00  0.00     0.124 S 
ATOM     82  O   UNL A   1      33.823  33.284  32.676  1.00  0.00    -0.237 OA
ATOM     83  O   UNL A   1      34.735  35.571  32.445  1.00  0.00    -0.237 OA
ATOM     84  O   UNL A   1      33.659  34.476  30.520  1.00  0.00    -0.744 OA
ENDBRANCH  80  81
ENDBRANCH  52  75
BRANCH  64  85
ATOM     85  C   UNL A   1      44.903  35.257  30.481  1.00  0.00    -0.014 A 
ATOM     86  C   UNL A   1      44.942  36.270  29.506  1.00  0.00     0.010 A 
ATOM     87  C   UNL A   1      45.345  35.544  31.786  1.00  0.00     0.010 A 
ATOM     88  C   UNL A   1      45.454  37.532  29.819  1.00  0.00     0.020 A 
ATOM     89  C   UNL A   1      45.834  36.813  32.109  1.00  0.00     0.020 A 
ATOM     90  C   UNL A   1      45.904  37.794  31.118  1.00  0.00     0.054 A 
BRANCH  90  91
ATOM     91  S   UNL A   1      46.547  39.444  31.509  1.00  0.00     0.124 S 
ATOM     92  O   UNL A   1      45.356  40.276  31.362  1.00  0.00    -0.237 OA
ATOM     93  O   UNL A   1      47.038  39.284  32.876  1.00  0.00    -0.237 OA
ATOM     94  O   UNL A   1      47.585  39.657  30.504  1.00  0.00    -0.744 OA
ENDBRANCH  90  91
ENDBRANCH  64  85
ENDBRANCH  38  39
ENDBRANCH  31  33
ENDBRANCH  30  31
ENDBRANCH  29  30
ENDBRANCH  28  29
ENDBRANCH  27  28
ENDBRANCH   1  27
TORSDOF 23
ENDMDL
