MODEL 1
REMARK VINA RESULT:     -10.5      0.000      0.000
REMARK SMILES CCCNC(=O)N1[C@@H](C(=O)OCCOCCOC(=O)c2ccc(-c3c4nc(c(-c5ccc(S(=O)(=O)[O-])cc5)c5ccc([nH]5)c(-c5ccc(S(=O)(=O)[O-])cc5)c5nc(c(-c6ccc(S(=O)(=O)[O-])cc6)c6ccc3[nH]6)C=C5)C=C4)cc2)CC[C@H]2CCCC[C@@H]21
REMARK SMILES IDX 14 1 13 2 12 3 11 4 9 5 10 6 8 7 7 8 87 9 80 10 82 11 86 12
REMARK SMILES IDX 81 13 83 14 85 15 84 16 5 17 4 18 6 20 3 21 2 22 1 23 15 24
REMARK SMILES IDX 16 25 17 26 18 27 19 28 20 29 21 30 79 31 22 32 78 33 23 34
REMARK SMILES IDX 24 35 25 36 72 37 26 38 77 39 71 40 73 41 27 42 76 43 70 44
REMARK SMILES IDX 69 45 28 47 58 48 39 49 57 50 40 51 43 52 56 53 74 54 41 55
REMARK SMILES IDX 42 56 55 58 75 59 44 60 29 61 30 62 38 63 31 64 37 65 32 66
REMARK SMILES IDX 33 67 34 68 35 69 36 70 59 71 60 72 68 73 61 74 67 75 62 76
REMARK SMILES IDX 63 77 64 78 65 79 66 80 45 81 46 82 54 83 47 84 53 85 48 86
REMARK SMILES IDX 49 87 50 88 51 89 52 90
REMARK H PARENT 4 19 73 46 43 57
REMARK Flexibility Score: inf
ROOT
ATOM      1  O   UNL A   1      37.085  22.472  24.670  1.00  0.00    -0.374 OA
ENDROOT
BRANCH   1   2
ATOM      2  C   UNL A   1      35.934  21.672  24.971  1.00  0.00     0.202 C 
BRANCH   2   3
ATOM      3  C   UNL A   1      35.079  22.097  26.170  1.00  0.00     0.261 C 
BRANCH   3   4
ATOM      4  O   UNL A   1      34.681  23.478  26.057  1.00  0.00    -0.462 OA
BRANCH   4   5
ATOM      5  C   UNL A   1      33.486  23.717  25.474  1.00  0.00     0.329 C 
ATOM      6  O   UNL A   1      32.670  22.834  25.208  1.00  0.00    -0.250 OA
BRANCH   5   7
ATOM      7  C   UNL A   1      33.082  25.210  25.358  1.00  0.00     0.197 C 
ATOM      8  N   UNL A   1      31.810  25.897  25.662  1.00  0.00    -0.308 N 
ATOM      9  C   UNL A   1      31.935  27.363  25.791  1.00  0.00     0.091 C 
ATOM     10  C   UNL A   1      33.481  25.685  23.926  1.00  0.00     0.038 C 
ATOM     11  C   UNL A   1      33.175  27.904  25.036  1.00  0.00     0.012 C 
ATOM     12  C   UNL A   1      32.021  27.847  27.245  1.00  0.00     0.025 C 
ATOM     13  C   UNL A   1      33.310  27.196  23.698  1.00  0.00     0.008 C 
ATOM     14  C   UNL A   1      33.097  29.423  24.949  1.00  0.00     0.006 C 
ATOM     15  C   UNL A   1      32.054  29.382  27.283  1.00  0.00     0.002 C 
ATOM     16  C   UNL A   1      33.121  29.998  26.368  1.00  0.00     0.000 C 
BRANCH   8  17
ATOM     17  C   UNL A   1      30.658  25.209  25.918  1.00  0.00     0.318 C 
ATOM     18  N   UNL A   1      29.603  25.300  25.067  1.00  0.00    -0.338 N 
ATOM     19  H   UNL A   1      28.756  24.969  25.444  1.00  0.00     0.165 HD
ATOM     20  O   UNL A   1      30.521  24.494  26.908  1.00  0.00    -0.249 OA
BRANCH  18  21
ATOM     21  C   UNL A   1      29.489  25.796  23.706  1.00  0.00     0.117 C 
BRANCH  21  22
ATOM     22  C   UNL A   1      28.845  27.178  23.599  1.00  0.00     0.018 C 
ATOM     23  C   UNL A   1      29.638  28.180  22.776  1.00  0.00     0.006 C 
ENDBRANCH  21  22
ENDBRANCH  18  21
ENDBRANCH   8  17
ENDBRANCH   5   7
ENDBRANCH   4   5
ENDBRANCH   3   4
ENDBRANCH   2   3
ENDBRANCH   1   2
BRANCH   1  24
ATOM     24  C   UNL A   1      38.010  22.673  25.731  1.00  0.00     0.202 C 
BRANCH  24  25
ATOM     25  C   UNL A   1      38.386  24.106  26.122  1.00  0.00     0.261 C 
BRANCH  25  26
ATOM     26  O   UNL A   1      39.656  24.196  26.771  1.00  0.00    -0.460 OA
BRANCH  26  27
ATOM     27  C   UNL A   1      40.314  25.345  26.496  1.00  0.00     0.338 C 
ATOM     28  O   UNL A   1      40.632  25.770  25.392  1.00  0.00    -0.246 OA
BRANCH  27  29
ATOM     29  C   UNL A   1      40.470  26.132  27.727  1.00  0.00     0.060 A 
ATOM     30  C   UNL A   1      39.497  25.967  28.722  1.00  0.00     0.016 A 
ATOM     31  C   UNL A   1      41.509  27.051  27.884  1.00  0.00     0.016 A 
ATOM     32  C   UNL A   1      39.523  26.771  29.854  1.00  0.00     0.010 A 
ATOM     33  C   UNL A   1      41.527  27.863  29.018  1.00  0.00     0.010 A 
ATOM     34  C   UNL A   1      40.509  27.757  29.983  1.00  0.00    -0.014 A 
BRANCH  34  35
ATOM     35  C   UNL A   1      40.368  28.790  31.031  1.00  0.00     0.031 A 
ATOM     36  C   UNL A   1      41.267  28.714  32.236  1.00  0.00     0.074 A 
ATOM     37  C   UNL A   1      39.486  29.794  30.894  1.00  0.00     0.049 A 
ATOM     38  N   UNL A   1      41.299  29.480  33.294  1.00  0.00    -0.248 NA
ATOM     39  C   UNL A   1      42.262  27.627  32.248  1.00  0.00     0.031 C 
ATOM     40  C   UNL A   1      38.606  29.996  29.743  1.00  0.00     0.029 A 
ATOM     41  N   UNL A   1      39.185  30.833  31.736  1.00  0.00    -0.354 N 
ATOM     42  C   UNL A   1      42.306  28.964  34.101  1.00  0.00     0.074 A 
ATOM     43  C   UNL A   1      42.839  27.801  33.427  1.00  0.00     0.031 C 
ATOM     44  C   UNL A   1      37.860  31.094  29.954  1.00  0.00     0.029 A 
ATOM     45  C   UNL A   1      38.181  31.647  31.268  1.00  0.00     0.049 A 
ATOM     46  H   UNL A   1      39.644  30.983  32.594  1.00  0.00     0.167 HD
ATOM     47  C   UNL A   1      42.753  29.424  35.294  1.00  0.00     0.031 A 
ATOM     48  C   UNL A   1      37.578  32.703  31.847  1.00  0.00     0.031 A 
ATOM     49  C   UNL A   1      42.206  30.575  35.961  1.00  0.00     0.049 A 
ATOM     50  C   UNL A   1      38.034  33.144  33.214  1.00  0.00     0.074 A 
ATOM     51  C   UNL A   1      42.583  31.129  37.172  1.00  0.00     0.029 A 
ATOM     52  N   UNL A   1      41.162  31.348  35.474  1.00  0.00    -0.354 N 
ATOM     53  N   UNL A   1      38.993  32.654  33.964  1.00  0.00    -0.248 NA
ATOM     54  C   UNL A   1      37.331  34.289  33.810  1.00  0.00     0.031 C 
ATOM     55  C   UNL A   1      41.728  32.201  37.444  1.00  0.00     0.029 A 
ATOM     56  C   UNL A   1      40.865  32.360  36.371  1.00  0.00     0.049 A 
ATOM     57  H   UNL A   1      40.700  31.200  34.617  1.00  0.00     0.167 HD
ATOM     58  C   UNL A   1      39.031  33.452  35.103  1.00  0.00     0.074 A 
ATOM     59  C   UNL A   1      38.006  34.462  34.938  1.00  0.00     0.031 C 
ATOM     60  C   UNL A   1      39.844  33.361  36.185  1.00  0.00     0.031 A 
BRANCH  47  61
ATOM     61  C   UNL A   1      43.864  28.660  35.965  1.00  0.00    -0.014 A 
ATOM     62  C   UNL A   1      43.602  27.507  36.727  1.00  0.00     0.010 A 
ATOM     63  C   UNL A   1      45.196  29.083  35.803  1.00  0.00     0.010 A 
ATOM     64  C   UNL A   1      44.648  26.813  37.342  1.00  0.00     0.020 A 
ATOM     65  C   UNL A   1      46.246  28.377  36.392  1.00  0.00     0.020 A 
ATOM     66  C   UNL A   1      45.964  27.253  37.172  1.00  0.00     0.054 A 
BRANCH  66  67
ATOM     67  S   UNL A   1      47.303  26.319  37.962  1.00  0.00     0.124 S 
ATOM     68  O   UNL A   1      48.411  26.539  37.035  1.00  0.00    -0.237 OA
ATOM     69  O   UNL A   1      47.430  26.976  39.260  1.00  0.00    -0.237 OA
ATOM     70  O   UNL A   1      46.793  24.951  38.006  1.00  0.00    -0.744 OA
ENDBRANCH  66  67
ENDBRANCH  47  61
BRANCH  48  71
ATOM     71  C   UNL A   1      36.468  33.406  31.146  1.00  0.00    -0.014 A 
ATOM     72  C   UNL A   1      36.650  33.922  29.851  1.00  0.00     0.010 A 
ATOM     73  C   UNL A   1      35.221  33.571  31.777  1.00  0.00     0.010 A 
ATOM     74  C   UNL A   1      35.613  34.608  29.209  1.00  0.00     0.020 A 
ATOM     75  C   UNL A   1      34.173  34.229  31.128  1.00  0.00     0.020 A 
ATOM     76  C   UNL A   1      34.381  34.757  29.852  1.00  0.00     0.054 A 
BRANCH  76  77
ATOM     77  S   UNL A   1      33.042  35.621  28.986  1.00  0.00     0.124 S 
ATOM     78  O   UNL A   1      32.206  36.072  30.093  1.00  0.00    -0.237 OA
ATOM     79  O   UNL A   1      33.758  36.669  28.265  1.00  0.00    -0.237 OA
ATOM     80  O   UNL A   1      32.455  34.583  28.141  1.00  0.00    -0.744 OA
ENDBRANCH  76  77
ENDBRANCH  48  71
BRANCH  60  81
ATOM     81  C   UNL A   1      39.698  34.410  37.256  1.00  0.00    -0.014 A 
ATOM     82  C   UNL A   1      38.967  34.164  38.430  1.00  0.00     0.010 A 
ATOM     83  C   UNL A   1      40.362  35.643  37.107  1.00  0.00     0.010 A 
ATOM     84  C   UNL A   1      38.877  35.144  39.424  1.00  0.00     0.020 A 
ATOM     85  C   UNL A   1      40.300  36.612  38.110  1.00  0.00     0.020 A 
ATOM     86  C   UNL A   1      39.548  36.361  39.258  1.00  0.00     0.054 A 
BRANCH  86  87
ATOM     87  S   UNL A   1      39.457  37.595  40.584  1.00  0.00     0.124 S 
ATOM     88  O   UNL A   1      40.824  38.106  40.619  1.00  0.00    -0.237 OA
ATOM     89  O   UNL A   1      38.450  38.528  40.083  1.00  0.00    -0.237 OA
ATOM     90  O   UNL A   1      39.051  36.819  41.753  1.00  0.00    -0.744 OA
ENDBRANCH  86  87
ENDBRANCH  60  81
ENDBRANCH  34  35
ENDBRANCH  27  29
ENDBRANCH  26  27
ENDBRANCH  25  26
ENDBRANCH  24  25
ENDBRANCH   1  24
TORSDOF 20
ENDMDL
MODEL 2
REMARK VINA RESULT:     -10.4      5.447      9.543
REMARK SMILES CCCNC(=O)N1[C@@H](C(=O)OCCOCCOC(=O)c2ccc(-c3c4nc(c(-c5ccc(S(=O)(=O)[O-])cc5)c5ccc([nH]5)c(-c5ccc(S(=O)(=O)[O-])cc5)c5nc(c(-c6ccc(S(=O)(=O)[O-])cc6)c6ccc3[nH]6)C=C5)C=C4)cc2)CC[C@H]2CCCC[C@@H]21
REMARK SMILES IDX 14 1 13 2 12 3 11 4 9 5 10 6 8 7 7 8 87 9 80 10 82 11 86 12
REMARK SMILES IDX 81 13 83 14 85 15 84 16 5 17 4 18 6 20 3 21 2 22 1 23 15 24
REMARK SMILES IDX 16 25 17 26 18 27 19 28 20 29 21 30 79 31 22 32 78 33 23 34
REMARK SMILES IDX 24 35 25 36 72 37 26 38 77 39 71 40 73 41 27 42 76 43 70 44
REMARK SMILES IDX 69 45 28 47 58 48 39 49 57 50 40 51 43 52 56 53 74 54 41 55
REMARK SMILES IDX 42 56 55 58 75 59 44 60 29 61 30 62 38 63 31 64 37 65 32 66
REMARK SMILES IDX 33 67 34 68 35 69 36 70 59 71 60 72 68 73 61 74 67 75 62 76
REMARK SMILES IDX 63 77 64 78 65 79 66 80 45 81 46 82 54 83 47 84 53 85 48 86
REMARK SMILES IDX 49 87 50 88 51 89 52 90
REMARK H PARENT 4 19 73 46 43 57
REMARK Flexibility Score: inf
ROOT
ATOM      1  O   UNL A   1      35.246  21.067  24.583  1.00  0.00    -0.374 OA
ENDROOT
BRANCH   1   2
ATOM      2  C   UNL A   1      34.136  20.355  25.147  1.00  0.00     0.202 C 
BRANCH   2   3
ATOM      3  C   UNL A   1      33.046  21.185  25.836  1.00  0.00     0.261 C 
BRANCH   3   4
ATOM      4  O   UNL A   1      33.530  22.503  26.161  1.00  0.00    -0.462 OA
BRANCH   4   5
ATOM      5  C   UNL A   1      32.678  23.313  26.825  1.00  0.00     0.329 C 
ATOM      6  O   UNL A   1      32.038  22.961  27.817  1.00  0.00    -0.250 OA
BRANCH   5   7
ATOM      7  C   UNL A   1      32.711  24.807  26.412  1.00  0.00     0.197 C 
ATOM      8  N   UNL A   1      31.626  25.733  26.028  1.00  0.00    -0.308 N 
ATOM      9  C   UNL A   1      32.006  27.160  26.080  1.00  0.00     0.091 C 
ATOM     10  C   UNL A   1      33.796  24.953  25.300  1.00  0.00     0.038 C 
ATOM     11  C   UNL A   1      33.538  27.352  25.951  1.00  0.00     0.012 C 
ATOM     12  C   UNL A   1      31.548  27.871  27.360  1.00  0.00     0.025 C 
ATOM     13  C   UNL A   1      34.087  26.408  24.895  1.00  0.00     0.008 C 
ATOM     14  C   UNL A   1      33.849  28.825  25.714  1.00  0.00     0.006 C 
ATOM     15  C   UNL A   1      31.904  29.364  27.284  1.00  0.00     0.002 C 
ATOM     16  C   UNL A   1      33.373  29.629  26.927  1.00  0.00     0.000 C 
BRANCH   8  17
ATOM     17  C   UNL A   1      30.358  25.296  25.771  1.00  0.00     0.318 C 
ATOM     18  N   UNL A   1      30.006  24.917  24.515  1.00  0.00    -0.338 N 
ATOM     19  H   UNL A   1      29.034  24.844  24.377  1.00  0.00     0.165 HD
ATOM     20  O   UNL A   1      29.493  25.228  26.641  1.00  0.00    -0.249 OA
BRANCH  18  21
ATOM     21  C   UNL A   1      30.794  24.600  23.336  1.00  0.00     0.117 C 
BRANCH  21  22
ATOM     22  C   UNL A   1      31.272  23.149  23.279  1.00  0.00     0.018 C 
ATOM     23  C   UNL A   1      32.611  22.954  22.589  1.00  0.00     0.006 C 
ENDBRANCH  21  22
ENDBRANCH  18  21
ENDBRANCH   8  17
ENDBRANCH   5   7
ENDBRANCH   4   5
ENDBRANCH   3   4
ENDBRANCH   2   3
ENDBRANCH   1   2
BRANCH   1  24
ATOM     24  C   UNL A   1      36.530  20.749  25.104  1.00  0.00     0.202 C 
BRANCH  24  25
ATOM     25  C   UNL A   1      37.694  21.709  24.838  1.00  0.00     0.261 C 
BRANCH  25  26
ATOM     26  O   UNL A   1      38.091  22.445  25.996  1.00  0.00    -0.460 OA
BRANCH  26  27
ATOM     27  C   UNL A   1      39.366  22.195  26.374  1.00  0.00     0.338 C 
ATOM     28  O   UNL A   1      40.037  21.207  26.105  1.00  0.00    -0.246 OA
BRANCH  27  29
ATOM     29  C   UNL A   1      39.923  23.378  27.046  1.00  0.00     0.060 A 
ATOM     30  C   UNL A   1      39.389  24.625  26.696  1.00  0.00     0.016 A 
ATOM     31  C   UNL A   1      40.978  23.277  27.954  1.00  0.00     0.016 A 
ATOM     32  C   UNL A   1      39.956  25.787  27.205  1.00  0.00     0.010 A 
ATOM     33  C   UNL A   1      41.551  24.446  28.456  1.00  0.00     0.010 A 
ATOM     34  C   UNL A   1      41.071  25.703  28.048  1.00  0.00    -0.014 A 
BRANCH  34  35
ATOM     35  C   UNL A   1      41.842  26.927  28.353  1.00  0.00     0.031 A 
ATOM     36  C   UNL A   1      41.118  28.096  28.964  1.00  0.00     0.074 A 
ATOM     37  C   UNL A   1      43.165  26.982  28.125  1.00  0.00     0.049 A 
ATOM     38  N   UNL A   1      41.573  29.280  29.279  1.00  0.00    -0.248 NA
ATOM     39  C   UNL A   1      39.687  27.904  29.257  1.00  0.00     0.031 C 
ATOM     40  C   UNL A   1      43.978  25.890  27.590  1.00  0.00     0.029 A 
ATOM     41  N   UNL A   1      44.059  28.004  28.317  1.00  0.00    -0.354 N 
ATOM     42  C   UNL A   1      40.486  29.975  29.797  1.00  0.00     0.074 A 
ATOM     43  C   UNL A   1      39.342  29.094  29.723  1.00  0.00     0.031 C 
ATOM     44  C   UNL A   1      45.253  26.303  27.493  1.00  0.00     0.029 A 
ATOM     45  C   UNL A   1      45.338  27.698  27.921  1.00  0.00     0.049 A 
ATOM     46  H   UNL A   1      43.807  28.875  28.702  1.00  0.00     0.167 HD
ATOM     47  C   UNL A   1      40.449  31.233  30.296  1.00  0.00     0.031 A 
ATOM     48  C   UNL A   1      46.445  28.466  27.889  1.00  0.00     0.031 A 
ATOM     49  C   UNL A   1      41.591  32.105  30.353  1.00  0.00     0.049 A 
ATOM     50  C   UNL A   1      46.358  29.891  28.370  1.00  0.00     0.074 A 
ATOM     51  C   UNL A   1      41.664  33.398  30.839  1.00  0.00     0.029 A 
ATOM     52  N   UNL A   1      42.861  31.773  29.903  1.00  0.00    -0.354 N 
ATOM     53  N   UNL A   1      45.327  30.535  28.865  1.00  0.00    -0.248 NA
ATOM     54  C   UNL A   1      47.588  30.692  28.296  1.00  0.00     0.031 C 
ATOM     55  C   UNL A   1      42.964  33.868  30.630  1.00  0.00     0.029 A 
ATOM     56  C   UNL A   1      43.719  32.844  30.079  1.00  0.00     0.049 A 
ATOM     57  H   UNL A   1      43.114  30.903  29.517  1.00  0.00     0.167 HD
ATOM     58  C   UNL A   1      45.793  31.804  29.195  1.00  0.00     0.074 A 
ATOM     59  C   UNL A   1      47.200  31.833  28.851  1.00  0.00     0.031 C 
ATOM     60  C   UNL A   1      45.120  32.850  29.737  1.00  0.00     0.031 A 
BRANCH  47  61
ATOM     61  C   UNL A   1      39.122  31.748  30.789  1.00  0.00    -0.014 A 
ATOM     62  C   UNL A   1      38.234  32.422  29.931  1.00  0.00     0.010 A 
ATOM     63  C   UNL A   1      38.742  31.524  32.125  1.00  0.00     0.010 A 
ATOM     64  C   UNL A   1      37.007  32.893  30.409  1.00  0.00     0.020 A 
ATOM     65  C   UNL A   1      37.505  31.968  32.600  1.00  0.00     0.020 A 
ATOM     66  C   UNL A   1      36.651  32.664  31.741  1.00  0.00     0.054 A 
BRANCH  66  67
ATOM     67  S   UNL A   1      35.043  33.265  32.328  1.00  0.00     0.124 S 
ATOM     68  O   UNL A   1      35.127  32.998  33.762  1.00  0.00    -0.237 OA
ATOM     69  O   UNL A   1      35.071  34.675  31.948  1.00  0.00    -0.237 OA
ATOM     70  O   UNL A   1      34.079  32.445  31.598  1.00  0.00    -0.744 OA
ENDBRANCH  66  67
ENDBRANCH  47  61
BRANCH  48  71
ATOM     71  C   UNL A   1      47.725  27.909  27.369  1.00  0.00    -0.014 A 
ATOM     72  C   UNL A   1      48.015  27.940  25.994  1.00  0.00     0.010 A 
ATOM     73  C   UNL A   1      48.660  27.335  28.251  1.00  0.00     0.010 A 
ATOM     74  C   UNL A   1      49.205  27.388  25.508  1.00  0.00     0.020 A 
ATOM     75  C   UNL A   1      49.863  26.810  27.773  1.00  0.00     0.020 A 
ATOM     76  C   UNL A   1      50.122  26.827  26.401  1.00  0.00     0.054 A 
BRANCH  76  77
ATOM     77  S   UNL A   1      51.673  26.148  25.751  1.00  0.00     0.124 S 
ATOM     78  O   UNL A   1      51.627  24.772  26.232  1.00  0.00    -0.237 OA
ATOM     79  O   UNL A   1      51.512  26.321  24.309  1.00  0.00    -0.237 OA
ATOM     80  O   UNL A   1      52.699  26.991  26.361  1.00  0.00    -0.744 OA
ENDBRANCH  76  77
ENDBRANCH  48  71
BRANCH  60  81
ATOM     81  C   UNL A   1      45.904  34.099  30.043  1.00  0.00    -0.014 A 
ATOM     82  C   UNL A   1      46.567  34.267  31.271  1.00  0.00     0.010 A 
ATOM     83  C   UNL A   1      46.030  35.093  29.053  1.00  0.00     0.010 A 
ATOM     84  C   UNL A   1      47.318  35.422  31.514  1.00  0.00     0.020 A 
ATOM     85  C   UNL A   1      46.804  36.232  29.282  1.00  0.00     0.020 A 
ATOM     86  C   UNL A   1      47.433  36.395  30.516  1.00  0.00     0.054 A 
BRANCH  86  87
ATOM     87  S   UNL A   1      48.453  37.859  30.840  1.00  0.00     0.124 S 
ATOM     88  O   UNL A   1      49.775  37.412  30.407  1.00  0.00    -0.237 OA
ATOM     89  O   UNL A   1      47.828  38.877  29.998  1.00  0.00    -0.237 OA
ATOM     90  O   UNL A   1      48.308  38.073  32.278  1.00  0.00    -0.744 OA
ENDBRANCH  86  87
ENDBRANCH  60  81
ENDBRANCH  34  35
ENDBRANCH  27  29
ENDBRANCH  26  27
ENDBRANCH  25  26
ENDBRANCH  24  25
ENDBRANCH   1  24
TORSDOF 20
ENDMDL
MODEL 3
REMARK VINA RESULT:     -10.3      5.152      6.676
REMARK SMILES CCCNC(=O)N1[C@@H](C(=O)OCCOCCOC(=O)c2ccc(-c3c4nc(c(-c5ccc(S(=O)(=O)[O-])cc5)c5ccc([nH]5)c(-c5ccc(S(=O)(=O)[O-])cc5)c5nc(c(-c6ccc(S(=O)(=O)[O-])cc6)c6ccc3[nH]6)C=C5)C=C4)cc2)CC[C@H]2CCCC[C@@H]21
REMARK SMILES IDX 14 1 13 2 12 3 11 4 9 5 10 6 8 7 7 8 87 9 80 10 82 11 86 12
REMARK SMILES IDX 81 13 83 14 85 15 84 16 5 17 4 18 6 20 3 21 2 22 1 23 15 24
REMARK SMILES IDX 16 25 17 26 18 27 19 28 20 29 21 30 79 31 22 32 78 33 23 34
REMARK SMILES IDX 24 35 25 36 72 37 26 38 77 39 71 40 73 41 27 42 76 43 70 44
REMARK SMILES IDX 69 45 28 47 58 48 39 49 57 50 40 51 43 52 56 53 74 54 41 55
REMARK SMILES IDX 42 56 55 58 75 59 44 60 29 61 30 62 38 63 31 64 37 65 32 66
REMARK SMILES IDX 33 67 34 68 35 69 36 70 59 71 60 72 68 73 61 74 67 75 62 76
REMARK SMILES IDX 63 77 64 78 65 79 66 80 45 81 46 82 54 83 47 84 53 85 48 86
REMARK SMILES IDX 49 87 50 88 51 89 52 90
REMARK H PARENT 4 19 73 46 43 57
REMARK Flexibility Score: inf
ROOT
ATOM      1  O   UNL A   1      35.395  22.194  23.892  1.00  0.00    -0.374 OA
ENDROOT
BRANCH   1   2
ATOM      2  C   UNL A   1      34.676  23.338  24.374  1.00  0.00     0.202 C 
BRANCH   2   3
ATOM      3  C   UNL A   1      34.484  24.507  23.400  1.00  0.00     0.261 C 
BRANCH   3   4
ATOM      4  O   UNL A   1      33.184  24.454  22.780  1.00  0.00    -0.462 OA
BRANCH   4   5
ATOM      5  C   UNL A   1      32.874  25.465  21.940  1.00  0.00     0.329 C 
ATOM      6  O   UNL A   1      33.245  25.514  20.767  1.00  0.00    -0.250 OA
BRANCH   5   7
ATOM      7  C   UNL A   1      31.815  26.471  22.463  1.00  0.00     0.197 C 
ATOM      8  N   UNL A   1      31.960  27.840  23.001  1.00  0.00    -0.308 N 
ATOM      9  C   UNL A   1      30.700  28.610  23.030  1.00  0.00     0.091 C 
ATOM     10  C   UNL A   1      30.927  25.710  23.496  1.00  0.00     0.038 C 
ATOM     11  C   UNL A   1      29.459  27.684  23.053  1.00  0.00     0.012 C 
ATOM     12  C   UNL A   1      30.543  29.576  21.847  1.00  0.00     0.025 C 
ATOM     13  C   UNL A   1      29.711  26.512  23.988  1.00  0.00     0.008 C 
ATOM     14  C   UNL A   1      28.216  28.503  23.378  1.00  0.00     0.006 C 
ATOM     15  C   UNL A   1      29.255  30.397  22.011  1.00  0.00     0.002 C 
ATOM     16  C   UNL A   1      28.008  29.541  22.272  1.00  0.00     0.000 C 
BRANCH   8  17
ATOM     17  C   UNL A   1      33.178  28.368  23.322  1.00  0.00     0.318 C 
ATOM     18  N   UNL A   1      33.570  28.445  24.619  1.00  0.00    -0.338 N 
ATOM     19  H   UNL A   1      34.340  29.040  24.770  1.00  0.00     0.165 HD
ATOM     20  O   UNL A   1      33.959  28.792  22.473  1.00  0.00    -0.249 OA
BRANCH  18  21
ATOM     21  C   UNL A   1      33.067  27.815  25.829  1.00  0.00     0.117 C 
BRANCH  21  22
ATOM     22  C   UNL A   1      31.837  28.503  26.422  1.00  0.00     0.018 C 
ATOM     23  C   UNL A   1      31.547  28.137  27.868  1.00  0.00     0.006 C 
ENDBRANCH  21  22
ENDBRANCH  18  21
ENDBRANCH   8  17
ENDBRANCH   5   7
ENDBRANCH   4   5
ENDBRANCH   3   4
ENDBRANCH   2   3
ENDBRANCH   1   2
BRANCH   1  24
ATOM     24  C   UNL A   1      36.812  22.305  23.863  1.00  0.00     0.202 C 
BRANCH  24  25
ATOM     25  C   UNL A   1      37.635  21.531  24.897  1.00  0.00     0.261 C 
BRANCH  25  26
ATOM     26  O   UNL A   1      38.004  22.323  26.028  1.00  0.00    -0.460 OA
BRANCH  26  27
ATOM     27  C   UNL A   1      39.325  22.258  26.315  1.00  0.00     0.338 C 
ATOM     28  O   UNL A   1      40.120  21.400  25.951  1.00  0.00    -0.246 OA
BRANCH  27  29
ATOM     29  C   UNL A   1      39.739  23.479  27.020  1.00  0.00     0.060 A 
ATOM     30  C   UNL A   1      39.013  24.649  26.756  1.00  0.00     0.016 A 
ATOM     31  C   UNL A   1      40.842  23.496  27.874  1.00  0.00     0.016 A 
ATOM     32  C   UNL A   1      39.432  25.859  27.297  1.00  0.00     0.010 A 
ATOM     33  C   UNL A   1      41.266  24.713  28.408  1.00  0.00     0.010 A 
ATOM     34  C   UNL A   1      40.589  25.903  28.084  1.00  0.00    -0.014 A 
BRANCH  34  35
ATOM     35  C   UNL A   1      41.189  27.212  28.416  1.00  0.00     0.031 A 
ATOM     36  C   UNL A   1      42.672  27.388  28.229  1.00  0.00     0.074 A 
ATOM     37  C   UNL A   1      40.425  28.234  28.837  1.00  0.00     0.049 A 
ATOM     38  N   UNL A   1      43.423  28.426  28.490  1.00  0.00    -0.248 NA
ATOM     39  C   UNL A   1      43.407  26.236  27.678  1.00  0.00     0.031 C 
ATOM     40  C   UNL A   1      38.971  28.192  28.999  1.00  0.00     0.029 A 
ATOM     41  N   UNL A   1      40.769  29.508  29.207  1.00  0.00    -0.354 N 
ATOM     42  C   UNL A   1      44.716  28.051  28.144  1.00  0.00     0.074 A 
ATOM     43  C   UNL A   1      44.655  26.680  27.687  1.00  0.00     0.031 C 
ATOM     44  C   UNL A   1      38.548  29.390  29.439  1.00  0.00     0.029 A 
ATOM     45  C   UNL A   1      39.702  30.266  29.628  1.00  0.00     0.049 A 
ATOM     46  H   UNL A   1      41.692  29.848  29.175  1.00  0.00     0.167 HD
ATOM     47  C   UNL A   1      45.851  28.787  28.195  1.00  0.00     0.031 A 
ATOM     48  C   UNL A   1      39.669  31.516  30.130  1.00  0.00     0.031 A 
ATOM     49  C   UNL A   1      45.902  30.146  28.664  1.00  0.00     0.049 A 
ATOM     50  C   UNL A   1      40.958  32.285  30.258  1.00  0.00     0.074 A 
ATOM     51  C   UNL A   1      46.998  30.984  28.758  1.00  0.00     0.029 A 
ATOM     52  N   UNL A   1      44.807  30.864  29.121  1.00  0.00    -0.354 N 
ATOM     53  N   UNL A   1      42.174  31.923  29.920  1.00  0.00    -0.248 NA
ATOM     54  C   UNL A   1      40.870  33.637  30.828  1.00  0.00     0.031 C 
ATOM     55  C   UNL A   1      46.576  32.189  29.326  1.00  0.00     0.029 A 
ATOM     56  C   UNL A   1      45.205  32.128  29.521  1.00  0.00     0.049 A 
ATOM     57  H   UNL A   1      43.883  30.526  29.156  1.00  0.00     0.167 HD
ATOM     58  C   UNL A   1      42.988  33.015  30.203  1.00  0.00     0.074 A 
ATOM     59  C   UNL A   1      42.126  34.053  30.731  1.00  0.00     0.031 C 
ATOM     60  C   UNL A   1      44.328  33.150  30.037  1.00  0.00     0.031 A 
BRANCH  47  61
ATOM     61  C   UNL A   1      47.133  28.123  27.764  1.00  0.00    -0.014 A 
ATOM     62  C   UNL A   1      47.973  27.481  28.692  1.00  0.00     0.010 A 
ATOM     63  C   UNL A   1      47.486  28.112  26.402  1.00  0.00     0.010 A 
ATOM     64  C   UNL A   1      49.159  26.873  28.270  1.00  0.00     0.020 A 
ATOM     65  C   UNL A   1      48.655  27.480  25.973  1.00  0.00     0.020 A 
ATOM     66  C   UNL A   1      49.493  26.877  26.913  1.00  0.00     0.054 A 
BRANCH  66  67
ATOM     67  S   UNL A   1      51.025  26.057  26.392  1.00  0.00     0.124 S 
ATOM     68  O   UNL A   1      50.920  26.121  24.936  1.00  0.00    -0.237 OA
ATOM     69  O   UNL A   1      52.057  26.903  26.985  1.00  0.00    -0.237 OA
ATOM     70  O   UNL A   1      50.915  24.718  26.965  1.00  0.00    -0.744 OA
ENDBRANCH  66  67
ENDBRANCH  47  61
BRANCH  48  71
ATOM     71  C   UNL A   1      38.375  32.112  30.562  1.00  0.00    -0.014 A 
ATOM     72  C   UNL A   1      37.565  32.809  29.649  1.00  0.00     0.010 A 
ATOM     73  C   UNL A   1      37.949  31.992  31.898  1.00  0.00     0.010 A 
ATOM     74  C   UNL A   1      36.365  33.394  30.068  1.00  0.00     0.020 A 
ATOM     75  C   UNL A   1      36.737  32.548  32.314  1.00  0.00     0.020 A 
ATOM     76  C   UNL A   1      35.958  33.259  31.398  1.00  0.00     0.054 A 
BRANCH  76  77
ATOM     77  S   UNL A   1      34.382  33.996  31.910  1.00  0.00     0.124 S 
ATOM     78  O   UNL A   1      33.751  32.896  32.630  1.00  0.00    -0.237 OA
ATOM     79  O   UNL A   1      34.814  35.125  32.731  1.00  0.00    -0.237 OA
ATOM     80  O   UNL A   1      33.748  34.363  30.645  1.00  0.00    -0.744 OA
ENDBRANCH  76  77
ENDBRANCH  48  71
BRANCH  60  81
ATOM     81  C   UNL A   1      44.941  34.483  30.380  1.00  0.00    -0.014 A 
ATOM     82  C   UNL A   1      45.491  34.734  31.648  1.00  0.00     0.010 A 
ATOM     83  C   UNL A   1      45.024  35.478  29.387  1.00  0.00     0.010 A 
ATOM     84  C   UNL A   1      46.086  35.968  31.928  1.00  0.00     0.020 A 
ATOM     85  C   UNL A   1      45.645  36.699  29.652  1.00  0.00     0.020 A 
ATOM     86  C   UNL A   1      46.162  36.942  30.926  1.00  0.00     0.054 A 
BRANCH  86  87
ATOM     87  S   UNL A   1      46.983  38.515  31.299  1.00  0.00     0.124 S 
ATOM     88  O   UNL A   1      46.591  38.742  32.687  1.00  0.00    -0.237 OA
ATOM     89  O   UNL A   1      48.394  38.196  31.089  1.00  0.00    -0.237 OA
ATOM     90  O   UNL A   1      46.411  39.445  30.328  1.00  0.00    -0.744 OA
ENDBRANCH  86  87
ENDBRANCH  60  81
ENDBRANCH  34  35
ENDBRANCH  27  29
ENDBRANCH  26  27
ENDBRANCH  25  26
ENDBRANCH  24  25
ENDBRANCH   1  24
TORSDOF 20
ENDMDL
