MODEL 1
REMARK VINA RESULT:     -10.3      0.000      0.000
REMARK SMILES Cc1ccc(-c2ncccc2C(=O)OCCOCCOC(=O)c2ccc(-c3c4nc(c(-c5ccc(S(=O)(=O)[O-])cc5)c5ccc([nH]5)c(-c5ccc(S(=O)(=O)[O-])cc5)c5nc(c(-c6ccc(S(=O)(=O)[O-])cc6)c6ccc3[nH]6)C=C5)C=C4)cc2)c(Cl)c1
REMARK SMILES IDX 18 1 17 2 16 3 15 4 14 5 12 6 13 7 11 8 6 9 7 10 8 11 10 12
REMARK SMILES IDX 9 13 5 14 1 15 2 16 3 17 85 18 4 19 83 20 84 21 19 22 20 23
REMARK SMILES IDX 21 24 22 25 23 26 24 27 82 28 25 29 81 30 26 31 27 32 28 33
REMARK SMILES IDX 75 34 29 35 80 36 74 37 76 38 30 39 79 40 73 41 72 42 31 44
REMARK SMILES IDX 61 45 42 46 60 47 43 48 46 49 59 50 77 51 44 52 45 53 58 55
REMARK SMILES IDX 78 56 47 57 32 58 33 59 41 60 34 61 40 62 35 63 36 64 37 65
REMARK SMILES IDX 38 66 39 67 62 68 63 69 71 70 64 71 70 72 65 73 66 74 67 75
REMARK SMILES IDX 68 76 69 77 48 78 49 79 57 80 50 81 56 82 51 83 52 84 53 85
REMARK SMILES IDX 54 86 55 87
REMARK H PARENT 76 43 46 54
REMARK Flexibility Score: inf
ROOT
ATOM      1  C   UNL A   1      34.087  30.805  27.532  1.00  0.00     0.202 C 
ENDROOT
BRANCH   1   2
ATOM      2  O   UNL A   1      33.590  29.594  26.975  1.00  0.00    -0.374 OA
BRANCH   2   3
ATOM      3  C   UNL A   1      32.204  29.302  27.162  1.00  0.00     0.202 C 
BRANCH   3   4
ATOM      4  C   UNL A   1      31.690  27.946  26.673  1.00  0.00     0.261 C 
BRANCH   4   5
ATOM      5  O   UNL A   1      32.754  26.977  26.614  1.00  0.00    -0.460 OA
BRANCH   5   6
ATOM      6  C   UNL A   1      32.364  25.702  26.364  1.00  0.00     0.340 C 
ATOM      7  O   UNL A   1      31.323  25.185  26.730  1.00  0.00    -0.246 OA
BRANCH   6   8
ATOM      8  C   UNL A   1      33.352  25.050  25.476  1.00  0.00     0.086 A 
ATOM      9  C   UNL A   1      33.364  25.300  24.095  1.00  0.00     0.086 A 
ATOM     10  N   UNL A   1      34.262  24.707  23.258  1.00  0.00    -0.255 NA
ATOM     11  C   UNL A   1      35.141  23.836  23.800  1.00  0.00     0.112 A 
ATOM     12  C   UNL A   1      34.310  24.178  26.007  1.00  0.00     0.019 A 
ATOM     13  C   UNL A   1      35.215  23.555  25.154  1.00  0.00     0.021 A 
BRANCH   9  14
ATOM     14  C   UNL A   1      32.527  26.324  23.451  1.00  0.00     0.020 A 
ATOM     15  C   UNL A   1      30.044  29.645  22.206  1.00  0.00     0.044 C 
ATOM     16  C   UNL A   1      30.922  28.487  22.576  1.00  0.00    -0.050 A 
ATOM     17  C   UNL A   1      32.292  28.663  22.771  1.00  0.00     0.004 A 
ATOM     18  C   UNL A   1      30.377  27.205  22.720  1.00  0.00     0.024 A 
ATOM     19  C   UNL A   1      33.085  27.590  23.190  1.00  0.00     0.012 A 
ATOM     20  C   UNL A   1      31.171  26.132  23.147  1.00  0.00     0.050 A 
ATOM     21  Cl  UNL A   1      30.416  24.583  23.302  1.00  0.00    -0.084 Cl
ENDBRANCH   9  14
ENDBRANCH   6   8
ENDBRANCH   5   6
ENDBRANCH   4   5
ENDBRANCH   3   4
ENDBRANCH   2   3
ENDBRANCH   1   2
BRANCH   1  22
ATOM     22  C   UNL A   1      35.602  30.970  27.709  1.00  0.00     0.261 C 
BRANCH  22  23
ATOM     23  O   UNL A   1      36.319  29.734  27.752  1.00  0.00    -0.460 OA
BRANCH  23  24
ATOM     24  C   UNL A   1      36.958  29.511  28.928  1.00  0.00     0.338 C 
ATOM     25  O   UNL A   1      36.462  29.417  30.038  1.00  0.00    -0.246 OA
BRANCH  24  26
ATOM     26  C   UNL A   1      38.368  29.207  28.640  1.00  0.00     0.060 A 
ATOM     27  C   UNL A   1      39.170  28.754  29.695  1.00  0.00     0.016 A 
ATOM     28  C   UNL A   1      38.889  29.358  27.354  1.00  0.00     0.016 A 
ATOM     29  C   UNL A   1      40.509  28.453  29.468  1.00  0.00     0.010 A 
ATOM     30  C   UNL A   1      40.237  29.073  27.133  1.00  0.00     0.010 A 
ATOM     31  C   UNL A   1      41.054  28.633  28.190  1.00  0.00    -0.014 A 
BRANCH  31  32
ATOM     32  C   UNL A   1      42.505  28.454  27.965  1.00  0.00     0.031 A 
ATOM     33  C   UNL A   1      43.424  29.617  28.203  1.00  0.00     0.074 A 
ATOM     34  C   UNL A   1      42.982  27.275  27.529  1.00  0.00     0.049 A 
ATOM     35  N   UNL A   1      44.704  29.717  27.963  1.00  0.00    -0.248 NA
ATOM     36  C   UNL A   1      42.818  30.827  28.782  1.00  0.00     0.031 C 
ATOM     37  C   UNL A   1      42.185  26.068  27.313  1.00  0.00     0.029 A 
ATOM     38  N   UNL A   1      44.255  26.908  27.173  1.00  0.00    -0.354 N 
ATOM     39  C   UNL A   1      45.056  31.005  28.347  1.00  0.00     0.074 A 
ATOM     40  C   UNL A   1      43.852  31.656  28.816  1.00  0.00     0.031 C 
ATOM     41  C   UNL A   1      42.986  25.096  26.844  1.00  0.00     0.029 A 
ATOM     42  C   UNL A   1      44.337  25.627  26.681  1.00  0.00     0.049 A 
ATOM     43  H   UNL A   1      45.033  27.504  27.262  1.00  0.00     0.167 HD
ATOM     44  C   UNL A   1      46.276  31.590  28.310  1.00  0.00     0.031 A 
ATOM     45  C   UNL A   1      45.376  24.974  26.125  1.00  0.00     0.031 A 
ATOM     46  C   UNL A   1      47.462  30.936  27.822  1.00  0.00     0.049 A 
ATOM     47  C   UNL A   1      46.701  25.680  26.001  1.00  0.00     0.074 A 
ATOM     48  C   UNL A   1      48.753  31.430  27.761  1.00  0.00     0.029 A 
ATOM     49  N   UNL A   1      47.499  29.654  27.295  1.00  0.00    -0.354 N 
ATOM     50  N   UNL A   1      47.033  26.884  26.404  1.00  0.00    -0.248 NA
ATOM     51  C   UNL A   1      47.790  24.942  25.345  1.00  0.00     0.031 C 
ATOM     52  C   UNL A   1      49.555  30.475  27.131  1.00  0.00     0.029 A 
ATOM     53  C   UNL A   1      48.781  29.357  26.864  1.00  0.00     0.049 A 
ATOM     54  H   UNL A   1      46.728  29.045  27.237  1.00  0.00     0.167 HD
ATOM     55  C   UNL A   1      48.373  27.042  26.063  1.00  0.00     0.074 A 
ATOM     56  C   UNL A   1      48.795  25.803  25.443  1.00  0.00     0.031 C 
ATOM     57  C   UNL A   1      49.179  28.118  26.242  1.00  0.00     0.031 A 
BRANCH  44  58
ATOM     58  C   UNL A   1      46.382  33.021  28.767  1.00  0.00    -0.014 A 
ATOM     59  C   UNL A   1      46.226  34.091  27.867  1.00  0.00     0.010 A 
ATOM     60  C   UNL A   1      46.600  33.300  30.129  1.00  0.00     0.010 A 
ATOM     61  C   UNL A   1      46.320  35.412  28.315  1.00  0.00     0.020 A 
ATOM     62  C   UNL A   1      46.665  34.619  30.586  1.00  0.00     0.020 A 
ATOM     63  C   UNL A   1      46.539  35.667  29.673  1.00  0.00     0.054 A 
BRANCH  63  64
ATOM     64  S   UNL A   1      46.630  37.391  30.228  1.00  0.00     0.124 S 
ATOM     65  O   UNL A   1      48.045  37.527  30.561  1.00  0.00    -0.237 OA
ATOM     66  O   UNL A   1      46.189  38.129  29.047  1.00  0.00    -0.237 OA
ATOM     67  O   UNL A   1      45.716  37.438  31.367  1.00  0.00    -0.744 OA
ENDBRANCH  63  64
ENDBRANCH  44  58
BRANCH  45  68
ATOM     68  C   UNL A   1      45.192  23.591  25.603  1.00  0.00    -0.014 A 
ATOM     69  C   UNL A   1      44.632  23.371  24.333  1.00  0.00     0.010 A 
ATOM     70  C   UNL A   1      45.585  22.483  26.377  1.00  0.00     0.010 A 
ATOM     71  C   UNL A   1      44.460  22.071  23.851  1.00  0.00     0.020 A 
ATOM     72  C   UNL A   1      45.443  21.182  25.886  1.00  0.00     0.020 A 
ATOM     73  C   UNL A   1      44.872  20.984  24.629  1.00  0.00     0.054 A 
BRANCH  73  74
ATOM     74  S   UNL A   1      44.689  19.309  23.956  1.00  0.00     0.124 S 
ATOM     75  O   UNL A   1      45.945  18.683  24.357  1.00  0.00    -0.237 OA
ATOM     76  O   UNL A   1      43.492  18.826  24.641  1.00  0.00    -0.237 OA
ATOM     77  O   UNL A   1      44.530  19.533  22.521  1.00  0.00    -0.744 OA
ENDBRANCH  73  74
ENDBRANCH  45  68
BRANCH  57  78
ATOM     78  C   UNL A   1      50.604  28.006  25.769  1.00  0.00    -0.014 A 
ATOM     79  C   UNL A   1      51.631  27.625  26.651  1.00  0.00     0.010 A 
ATOM     80  C   UNL A   1      50.907  28.200  24.408  1.00  0.00     0.010 A 
ATOM     81  C   UNL A   1      52.937  27.453  26.184  1.00  0.00     0.020 A 
ATOM     82  C   UNL A   1      52.204  27.998  23.931  1.00  0.00     0.020 A 
ATOM     83  C   UNL A   1      53.213  27.631  24.825  1.00  0.00     0.054 A 
BRANCH  83  84
ATOM     84  S   UNL A   1      54.900  27.324  24.234  1.00  0.00     0.124 S 
ATOM     85  O   UNL A   1      55.433  26.449  25.274  1.00  0.00    -0.237 OA
ATOM     86  O   UNL A   1      54.671  26.692  22.937  1.00  0.00    -0.237 OA
ATOM     87  O   UNL A   1      55.497  28.656  24.175  1.00  0.00    -0.744 OA
ENDBRANCH  83  84
ENDBRANCH  57  78
ENDBRANCH  31  32
ENDBRANCH  24  26
ENDBRANCH  23  24
ENDBRANCH  22  23
ENDBRANCH   1  22
TORSDOF 18
ENDMDL
MODEL 2
REMARK VINA RESULT:     -10.2      1.753      2.533
REMARK SMILES Cc1ccc(-c2ncccc2C(=O)OCCOCCOC(=O)c2ccc(-c3c4nc(c(-c5ccc(S(=O)(=O)[O-])cc5)c5ccc([nH]5)c(-c5ccc(S(=O)(=O)[O-])cc5)c5nc(c(-c6ccc(S(=O)(=O)[O-])cc6)c6ccc3[nH]6)C=C5)C=C4)cc2)c(Cl)c1
REMARK SMILES IDX 18 1 17 2 16 3 15 4 14 5 12 6 13 7 11 8 6 9 7 10 8 11 10 12
REMARK SMILES IDX 9 13 5 14 1 15 2 16 3 17 85 18 4 19 83 20 84 21 19 22 20 23
REMARK SMILES IDX 21 24 22 25 23 26 24 27 82 28 25 29 81 30 26 31 27 32 28 33
REMARK SMILES IDX 75 34 29 35 80 36 74 37 76 38 30 39 79 40 73 41 72 42 31 44
REMARK SMILES IDX 61 45 42 46 60 47 43 48 46 49 59 50 77 51 44 52 45 53 58 55
REMARK SMILES IDX 78 56 47 57 32 58 33 59 41 60 34 61 40 62 35 63 36 64 37 65
REMARK SMILES IDX 38 66 39 67 62 68 63 69 71 70 64 71 70 72 65 73 66 74 67 75
REMARK SMILES IDX 68 76 69 77 48 78 49 79 57 80 50 81 56 82 51 83 52 84 53 85
REMARK SMILES IDX 54 86 55 87
REMARK H PARENT 76 43 46 54
REMARK Flexibility Score: inf
ROOT
ATOM      1  C   UNL A   1      34.598  31.514  27.918  1.00  0.00     0.202 C 
ENDROOT
BRANCH   1   2
ATOM      2  O   UNL A   1      33.313  30.907  27.866  1.00  0.00    -0.374 OA
BRANCH   2   3
ATOM      3  C   UNL A   1      32.781  30.598  26.576  1.00  0.00     0.202 C 
BRANCH   3   4
ATOM      4  C   UNL A   1      33.314  29.353  25.865  1.00  0.00     0.261 C 
BRANCH   4   5
ATOM      5  O   UNL A   1      32.422  28.933  24.815  1.00  0.00    -0.460 OA
BRANCH   5   6
ATOM      6  C   UNL A   1      31.949  27.666  24.927  1.00  0.00     0.340 C 
ATOM      7  O   UNL A   1      31.392  27.192  25.902  1.00  0.00    -0.246 OA
BRANCH   6   8
ATOM      8  C   UNL A   1      32.112  26.963  23.635  1.00  0.00     0.086 A 
ATOM      9  C   UNL A   1      31.211  27.167  22.579  1.00  0.00     0.086 A 
ATOM     10  N   UNL A   1      31.339  26.527  21.382  1.00  0.00    -0.255 NA
ATOM     11  C   UNL A   1      32.363  25.654  21.247  1.00  0.00     0.112 A 
ATOM     12  C   UNL A   1      33.187  26.088  23.440  1.00  0.00     0.019 A 
ATOM     13  C   UNL A   1      33.310  25.417  22.228  1.00  0.00     0.021 A 
BRANCH   9  14
ATOM     14  C   UNL A   1      30.152  28.188  22.603  1.00  0.00     0.020 A 
ATOM     15  C   UNL A   1      27.430  31.503  23.193  1.00  0.00     0.044 C 
ATOM     16  C   UNL A   1      28.349  30.347  22.929  1.00  0.00    -0.050 A 
ATOM     17  C   UNL A   1      29.535  30.524  22.216  1.00  0.00     0.004 A 
ATOM     18  C   UNL A   1      28.021  29.066  23.389  1.00  0.00     0.024 A 
ATOM     19  C   UNL A   1      30.417  29.453  22.045  1.00  0.00     0.012 A 
ATOM     20  C   UNL A   1      28.909  27.995  23.223  1.00  0.00     0.050 A 
ATOM     21  Cl  UNL A   1      28.425  26.446  23.825  1.00  0.00    -0.084 Cl
ENDBRANCH   9  14
ENDBRANCH   6   8
ENDBRANCH   5   6
ENDBRANCH   4   5
ENDBRANCH   3   4
ENDBRANCH   2   3
ENDBRANCH   1   2
BRANCH   1  22
ATOM     22  C   UNL A   1      34.982  32.326  29.163  1.00  0.00     0.261 C 
BRANCH  22  23
ATOM     23  O   UNL A   1      36.380  32.305  29.459  1.00  0.00    -0.460 OA
BRANCH  23  24
ATOM     24  C   UNL A   1      36.728  31.391  30.401  1.00  0.00     0.338 C 
ATOM     25  O   UNL A   1      36.054  30.993  31.336  1.00  0.00    -0.246 OA
BRANCH  24  26
ATOM     26  C   UNL A   1      38.016  30.794  30.016  1.00  0.00     0.060 A 
ATOM     27  C   UNL A   1      38.966  30.578  31.022  1.00  0.00     0.016 A 
ATOM     28  C   UNL A   1      38.281  30.447  28.690  1.00  0.00     0.016 A 
ATOM     29  C   UNL A   1      40.197  30.015  30.702  1.00  0.00     0.010 A 
ATOM     30  C   UNL A   1      39.523  29.899  28.370  1.00  0.00     0.010 A 
ATOM     31  C   UNL A   1      40.489  29.693  29.371  1.00  0.00    -0.014 A 
BRANCH  31  32
ATOM     32  C   UNL A   1      41.842  29.226  28.995  1.00  0.00     0.031 A 
ATOM     33  C   UNL A   1      42.960  30.224  28.930  1.00  0.00     0.074 A 
ATOM     34  C   UNL A   1      42.052  27.934  28.691  1.00  0.00     0.049 A 
ATOM     35  N   UNL A   1      44.189  30.059  28.517  1.00  0.00    -0.248 NA
ATOM     36  C   UNL A   1      42.652  31.589  29.386  1.00  0.00     0.031 C 
ATOM     37  C   UNL A   1      41.047  26.873  28.769  1.00  0.00     0.029 A 
ATOM     38  N   UNL A   1      43.180  27.298  28.239  1.00  0.00    -0.354 N 
ATOM     39  C   UNL A   1      44.798  31.301  28.648  1.00  0.00     0.074 A 
ATOM     40  C   UNL A   1      43.798  32.215  29.158  1.00  0.00     0.031 C 
ATOM     41  C   UNL A   1      41.601  25.719  28.359  1.00  0.00     0.029 A 
ATOM     42  C   UNL A   1      42.980  25.970  27.946  1.00  0.00     0.049 A 
ATOM     43  H   UNL A   1      44.048  27.750  28.134  1.00  0.00     0.167 HD
ATOM     44  C   UNL A   1      46.076  31.646  28.366  1.00  0.00     0.031 A 
ATOM     45  C   UNL A   1      43.804  25.072  27.372  1.00  0.00     0.031 A 
ATOM     46  C   UNL A   1      47.054  30.729  27.840  1.00  0.00     0.049 A 
ATOM     47  C   UNL A   1      45.191  25.504  26.973  1.00  0.00     0.074 A 
ATOM     48  C   UNL A   1      48.382  30.969  27.540  1.00  0.00     0.029 A 
ATOM     49  N   UNL A   1      46.803  29.403  27.520  1.00  0.00    -0.354 N 
ATOM     50  N   UNL A   1      45.769  26.670  27.137  1.00  0.00    -0.248 NA
ATOM     51  C   UNL A   1      46.035  24.501  26.307  1.00  0.00     0.031 C 
ATOM     52  C   UNL A   1      48.916  29.809  26.970  1.00  0.00     0.029 A 
ATOM     53  C   UNL A   1      47.940  28.825  26.981  1.00  0.00     0.049 A 
ATOM     54  H   UNL A   1      45.945  28.941  27.655  1.00  0.00     0.167 HD
ATOM     55  C   UNL A   1      47.049  26.537  26.609  1.00  0.00     0.074 A 
ATOM     56  C   UNL A   1      47.168  25.171  26.142  1.00  0.00     0.031 C 
ATOM     57  C   UNL A   1      48.036  27.464  26.514  1.00  0.00     0.031 A 
BRANCH  44  58
ATOM     58  C   UNL A   1      46.478  33.081  28.577  1.00  0.00    -0.014 A 
ATOM     59  C   UNL A   1      47.036  33.515  29.793  1.00  0.00     0.010 A 
ATOM     60  C   UNL A   1      46.334  34.004  27.524  1.00  0.00     0.010 A 
ATOM     61  C   UNL A   1      47.409  34.851  29.964  1.00  0.00     0.020 A 
ATOM     62  C   UNL A   1      46.733  35.333  27.680  1.00  0.00     0.020 A 
ATOM     63  C   UNL A   1      47.254  35.752  28.905  1.00  0.00     0.054 A 
BRANCH  63  64
ATOM     64  S   UNL A   1      47.773  37.473  29.147  1.00  0.00     0.124 S 
ATOM     65  O   UNL A   1      46.548  38.089  29.650  1.00  0.00    -0.237 OA
ATOM     66  O   UNL A   1      48.856  37.345  30.119  1.00  0.00    -0.237 OA
ATOM     67  O   UNL A   1      48.184  37.905  27.813  1.00  0.00    -0.744 OA
ENDBRANCH  63  64
ENDBRANCH  44  58
BRANCH  45  68
ATOM     68  C   UNL A   1      43.323  23.689  27.099  1.00  0.00    -0.014 A 
ATOM     69  C   UNL A   1      42.957  23.299  25.800  1.00  0.00     0.010 A 
ATOM     70  C   UNL A   1      43.235  22.750  28.145  1.00  0.00     0.010 A 
ATOM     71  C   UNL A   1      42.504  22.000  25.552  1.00  0.00     0.020 A 
ATOM     72  C   UNL A   1      42.812  21.442  27.896  1.00  0.00     0.020 A 
ATOM     73  C   UNL A   1      42.440  21.078  26.602  1.00  0.00     0.054 A 
BRANCH  73  74
ATOM     74  S   UNL A   1      41.902  19.382  26.243  1.00  0.00     0.124 S 
ATOM     75  O   UNL A   1      40.454  19.535  26.152  1.00  0.00    -0.237 OA
ATOM     76  O   UNL A   1      42.592  19.095  24.987  1.00  0.00    -0.237 OA
ATOM     77  O   UNL A   1      42.381  18.621  27.396  1.00  0.00    -0.744 OA
ENDBRANCH  73  74
ENDBRANCH  45  68
BRANCH  57  78
ATOM     78  C   UNL A   1      49.336  27.034  25.888  1.00  0.00    -0.014 A 
ATOM     79  C   UNL A   1      49.617  27.314  24.539  1.00  0.00     0.010 A 
ATOM     80  C   UNL A   1      50.325  26.422  26.681  1.00  0.00     0.010 A 
ATOM     81  C   UNL A   1      50.857  26.976  23.990  1.00  0.00     0.020 A 
ATOM     82  C   UNL A   1      51.577  26.111  26.145  1.00  0.00     0.020 A 
ATOM     83  C   UNL A   1      51.832  26.385  24.799  1.00  0.00     0.054 A 
BRANCH  83  84
ATOM     84  S   UNL A   1      53.459  26.030  24.080  1.00  0.00     0.124 S 
ATOM     85  O   UNL A   1      53.156  25.982  22.651  1.00  0.00    -0.237 OA
ATOM     86  O   UNL A   1      54.255  27.174  24.516  1.00  0.00    -0.237 OA
ATOM     87  O   UNL A   1      53.833  24.751  24.680  1.00  0.00    -0.744 OA
ENDBRANCH  83  84
ENDBRANCH  57  78
ENDBRANCH  31  32
ENDBRANCH  24  26
ENDBRANCH  23  24
ENDBRANCH  22  23
ENDBRANCH   1  22
TORSDOF 18
ENDMDL
MODEL 3
REMARK VINA RESULT:     -10.2      3.323      4.748
REMARK SMILES Cc1ccc(-c2ncccc2C(=O)OCCOCCOC(=O)c2ccc(-c3c4nc(c(-c5ccc(S(=O)(=O)[O-])cc5)c5ccc([nH]5)c(-c5ccc(S(=O)(=O)[O-])cc5)c5nc(c(-c6ccc(S(=O)(=O)[O-])cc6)c6ccc3[nH]6)C=C5)C=C4)cc2)c(Cl)c1
REMARK SMILES IDX 18 1 17 2 16 3 15 4 14 5 12 6 13 7 11 8 6 9 7 10 8 11 10 12
REMARK SMILES IDX 9 13 5 14 1 15 2 16 3 17 85 18 4 19 83 20 84 21 19 22 20 23
REMARK SMILES IDX 21 24 22 25 23 26 24 27 82 28 25 29 81 30 26 31 27 32 28 33
REMARK SMILES IDX 75 34 29 35 80 36 74 37 76 38 30 39 79 40 73 41 72 42 31 44
REMARK SMILES IDX 61 45 42 46 60 47 43 48 46 49 59 50 77 51 44 52 45 53 58 55
REMARK SMILES IDX 78 56 47 57 32 58 33 59 41 60 34 61 40 62 35 63 36 64 37 65
REMARK SMILES IDX 38 66 39 67 62 68 63 69 71 70 64 71 70 72 65 73 66 74 67 75
REMARK SMILES IDX 68 76 69 77 48 78 49 79 57 80 50 81 56 82 51 83 52 84 53 85
REMARK SMILES IDX 54 86 55 87
REMARK H PARENT 76 43 46 54
REMARK Flexibility Score: inf
ROOT
ATOM      1  C   UNL A   1      31.934  29.819  25.549  1.00  0.00     0.202 C 
ENDROOT
BRANCH   1   2
ATOM      2  O   UNL A   1      32.484  28.700  24.865  1.00  0.00    -0.374 OA
BRANCH   2   3
ATOM      3  C   UNL A   1      33.261  28.960  23.694  1.00  0.00     0.202 C 
BRANCH   3   4
ATOM      4  C   UNL A   1      33.654  27.766  22.821  1.00  0.00     0.261 C 
BRANCH   4   5
ATOM      5  O   UNL A   1      33.813  26.574  23.613  1.00  0.00    -0.460 OA
BRANCH   5   6
ATOM      6  C   UNL A   1      33.057  25.515  23.226  1.00  0.00     0.340 C 
ATOM      7  O   UNL A   1      33.179  24.887  22.189  1.00  0.00    -0.246 OA
BRANCH   6   8
ATOM      8  C   UNL A   1      32.116  25.159  24.311  1.00  0.00     0.086 A 
ATOM      9  C   UNL A   1      32.403  24.118  25.208  1.00  0.00     0.086 A 
ATOM     10  N   UNL A   1      31.549  23.770  26.212  1.00  0.00    -0.255 NA
ATOM     11  C   UNL A   1      30.385  24.450  26.307  1.00  0.00     0.112 A 
ATOM     12  C   UNL A   1      30.922  25.871  24.471  1.00  0.00     0.019 A 
ATOM     13  C   UNL A   1      30.039  25.506  25.481  1.00  0.00     0.021 A 
BRANCH   9  14
ATOM     14  C   UNL A   1      33.697  23.418  25.250  1.00  0.00     0.020 A 
ATOM     15  C   UNL A   1      37.739  21.897  24.954  1.00  0.00     0.044 C 
ATOM     16  C   UNL A   1      36.332  22.390  25.111  1.00  0.00    -0.050 A 
ATOM     17  C   UNL A   1      36.039  23.462  25.955  1.00  0.00     0.004 A 
ATOM     18  C   UNL A   1      35.285  21.771  24.416  1.00  0.00     0.024 A 
ATOM     19  C   UNL A   1      34.735  23.959  26.032  1.00  0.00     0.012 A 
ATOM     20  C   UNL A   1      33.979  22.275  24.489  1.00  0.00     0.050 A 
ATOM     21  Cl  UNL A   1      32.747  21.451  23.596  1.00  0.00    -0.084 Cl
ENDBRANCH   9  14
ENDBRANCH   6   8
ENDBRANCH   5   6
ENDBRANCH   4   5
ENDBRANCH   3   4
ENDBRANCH   2   3
ENDBRANCH   1   2
BRANCH   1  22
ATOM     22  C   UNL A   1      32.250  30.002  27.040  1.00  0.00     0.261 C 
BRANCH  22  23
ATOM     23  O   UNL A   1      33.594  29.664  27.393  1.00  0.00    -0.460 OA
BRANCH  23  24
ATOM     24  C   UNL A   1      34.331  30.720  27.822  1.00  0.00     0.338 C 
ATOM     25  O   UNL A   1      33.942  31.851  28.061  1.00  0.00    -0.246 OA
BRANCH  24  26
ATOM     26  C   UNL A   1      35.684  30.242  28.141  1.00  0.00     0.060 A 
ATOM     27  C   UNL A   1      35.922  29.760  29.435  1.00  0.00     0.016 A 
ATOM     28  C   UNL A   1      36.700  30.261  27.184  1.00  0.00     0.016 A 
ATOM     29  C   UNL A   1      37.187  29.297  29.781  1.00  0.00     0.010 A 
ATOM     30  C   UNL A   1      37.972  29.812  27.539  1.00  0.00     0.010 A 
ATOM     31  C   UNL A   1      38.224  29.342  28.840  1.00  0.00    -0.014 A 
BRANCH  31  32
ATOM     32  C   UNL A   1      39.605  28.987  29.234  1.00  0.00     0.031 A 
ATOM     33  C   UNL A   1      40.462  30.030  29.889  1.00  0.00     0.074 A 
ATOM     34  C   UNL A   1      40.086  27.757  28.981  1.00  0.00     0.049 A 
ATOM     35  N   UNL A   1      41.727  29.973  30.211  1.00  0.00    -0.248 NA
ATOM     36  C   UNL A   1      39.809  31.306  30.221  1.00  0.00     0.031 C 
ATOM     37  C   UNL A   1      39.324  26.655  28.393  1.00  0.00     0.029 A 
ATOM     38  N   UNL A   1      41.340  27.236  29.172  1.00  0.00    -0.354 N 
ATOM     39  C   UNL A   1      42.027  31.209  30.769  1.00  0.00     0.074 A 
ATOM     40  C   UNL A   1      40.818  32.003  30.722  1.00  0.00     0.031 C 
ATOM     41  C   UNL A   1      40.133  25.591  28.255  1.00  0.00     0.029 A 
ATOM     42  C   UNL A   1      41.478  25.953  28.698  1.00  0.00     0.049 A 
ATOM     43  H   UNL A   1      42.070  27.733  29.606  1.00  0.00     0.167 HD
ATOM     44  C   UNL A   1      43.207  31.641  31.274  1.00  0.00     0.031 A 
ATOM     45  C   UNL A   1      42.574  25.177  28.596  1.00  0.00     0.031 A 
ATOM     46  C   UNL A   1      44.406  30.846  31.295  1.00  0.00     0.049 A 
ATOM     47  C   UNL A   1      43.898  25.716  29.071  1.00  0.00     0.074 A 
ATOM     48  C   UNL A   1      45.649  31.179  31.802  1.00  0.00     0.029 A 
ATOM     49  N   UNL A   1      44.517  29.567  30.770  1.00  0.00    -0.354 N 
ATOM     50  N   UNL A   1      44.163  26.871  29.633  1.00  0.00    -0.248 NA
ATOM     51  C   UNL A   1      45.072  24.848  28.895  1.00  0.00     0.031 C 
ATOM     52  C   UNL A   1      46.530  30.130  31.520  1.00  0.00     0.029 A 
ATOM     53  C   UNL A   1      45.819  29.114  30.900  1.00  0.00     0.049 A 
ATOM     54  H   UNL A   1      43.780  29.056  30.366  1.00  0.00     0.167 HD
ATOM     55  C   UNL A   1      45.530  26.864  29.891  1.00  0.00     0.074 A 
ATOM     56  C   UNL A   1      46.032  25.580  29.446  1.00  0.00     0.031 C 
ATOM     57  C   UNL A   1      46.301  27.834  30.442  1.00  0.00     0.031 A 
BRANCH  44  58
ATOM     58  C   UNL A   1      43.270  33.050  31.801  1.00  0.00    -0.014 A 
ATOM     59  C   UNL A   1      42.939  33.349  33.135  1.00  0.00     0.010 A 
ATOM     60  C   UNL A   1      43.708  34.088  30.957  1.00  0.00     0.010 A 
ATOM     61  C   UNL A   1      43.013  34.663  33.605  1.00  0.00     0.020 A 
ATOM     62  C   UNL A   1      43.811  35.397  31.431  1.00  0.00     0.020 A 
ATOM     63  C   UNL A   1      43.449  35.680  32.749  1.00  0.00     0.054 A 
BRANCH  63  64
ATOM     64  S   UNL A   1      43.560  37.370  33.395  1.00  0.00     0.124 S 
ATOM     65  O   UNL A   1      44.837  37.340  34.103  1.00  0.00    -0.237 OA
ATOM     66  O   UNL A   1      43.535  38.178  32.178  1.00  0.00    -0.237 OA
ATOM     67  O   UNL A   1      42.380  37.496  34.248  1.00  0.00    -0.744 OA
ENDBRANCH  63  64
ENDBRANCH  44  58
BRANCH  45  68
ATOM     68  C   UNL A   1      42.473  23.825  27.979  1.00  0.00    -0.014 A 
ATOM     69  C   UNL A   1      42.326  22.679  28.778  1.00  0.00     0.010 A 
ATOM     70  C   UNL A   1      42.517  23.680  26.579  1.00  0.00     0.010 A 
ATOM     71  C   UNL A   1      42.235  21.413  28.192  1.00  0.00     0.020 A 
ATOM     72  C   UNL A   1      42.395  22.420  25.987  1.00  0.00     0.020 A 
ATOM     73  C   UNL A   1      42.265  21.293  26.799  1.00  0.00     0.054 A 
BRANCH  73  74
ATOM     74  S   UNL A   1      42.088  19.644  26.061  1.00  0.00     0.124 S 
ATOM     75  O   UNL A   1      42.487  18.774  27.162  1.00  0.00    -0.237 OA
ATOM     76  O   UNL A   1      40.671  19.612  25.706  1.00  0.00    -0.237 OA
ATOM     77  O   UNL A   1      43.006  19.679  24.924  1.00  0.00    -0.744 OA
ENDBRANCH  73  74
ENDBRANCH  45  68
BRANCH  57  78
ATOM     78  C   UNL A   1      47.771  27.548  30.603  1.00  0.00    -0.014 A 
ATOM     79  C   UNL A   1      48.266  26.946  31.773  1.00  0.00     0.010 A 
ATOM     80  C   UNL A   1      48.654  27.804  29.538  1.00  0.00     0.010 A 
ATOM     81  C   UNL A   1      49.620  26.617  31.881  1.00  0.00     0.020 A 
ATOM     82  C   UNL A   1      50.002  27.448  29.629  1.00  0.00     0.020 A 
ATOM     83  C   UNL A   1      50.477  26.862  30.804  1.00  0.00     0.054 A 
BRANCH  83  84
ATOM     84  S   UNL A   1      52.213  26.354  30.942  1.00  0.00     0.124 S 
ATOM     85  O   UNL A   1      52.637  26.335  29.544  1.00  0.00    -0.237 OA
ATOM     86  O   UNL A   1      52.791  27.418  31.759  1.00  0.00    -0.237 OA
ATOM     87  O   UNL A   1      52.143  25.046  31.589  1.00  0.00    -0.744 OA
ENDBRANCH  83  84
ENDBRANCH  57  78
ENDBRANCH  31  32
ENDBRANCH  24  26
ENDBRANCH  23  24
ENDBRANCH  22  23
ENDBRANCH   1  22
TORSDOF 18
ENDMDL
