MODEL 1
REMARK VINA RESULT:     -10.3      0.000      0.000
REMARK SMILES CC1(C)CCCC[C@@]1(C(=O)OCCOCCOC(=O)c1ccc(-c2c3nc(c(-c4ccc(S(=O)(=O)[O-])cc4)c4ccc([nH]4)c(-c4ccc(S(=O)(=O)[O-])cc4)c4nc(c(-c5ccc(S(=O)(=O)[O-])cc5)c5ccc2[nH]5)C=C4)C=C3)cc1)[NH+]1CC[NH2+]CC1
REMARK SMILES IDX 15 1 14 2 13 3 12 4 11 5 9 6 10 7 8 8 1 9 2 10 3 11 4 12
REMARK SMILES IDX 5 13 7 14 6 15 80 16 81 17 85 18 82 20 84 21 83 22 16 25
REMARK SMILES IDX 17 26 18 27 19 28 20 29 21 30 79 31 22 32 78 33 23 34 24 35
REMARK SMILES IDX 25 36 72 37 26 38 77 39 71 40 73 41 27 42 76 43 70 44 69 45
REMARK SMILES IDX 28 47 58 48 39 49 57 50 40 51 43 52 56 53 74 54 41 55 42 56
REMARK SMILES IDX 55 58 75 59 44 60 29 61 30 62 38 63 31 64 37 65 32 66 33 67
REMARK SMILES IDX 34 68 35 69 36 70 59 71 60 72 68 73 61 74 67 75 62 76 63 77
REMARK SMILES IDX 64 78 65 79 66 80 45 81 46 82 54 83 47 84 53 85 48 86 49 87
REMARK SMILES IDX 50 88 51 89 52 90
REMARK H PARENT 80 19 83 23 83 24 73 46 43 57
REMARK Flexibility Score: inf
ROOT
ATOM      1  C   UNL A   1      39.704  22.814  26.817  1.00  0.00     0.202 C 
ENDROOT
BRANCH   1   2
ATOM      2  O   UNL A   1      38.504  22.673  26.062  1.00  0.00    -0.374 OA
BRANCH   2   3
ATOM      3  C   UNL A   1      37.530  23.702  26.216  1.00  0.00     0.202 C 
BRANCH   3   4
ATOM      4  C   UNL A   1      36.064  23.345  25.967  1.00  0.00     0.261 C 
BRANCH   4   5
ATOM      5  O   UNL A   1      35.243  24.466  25.572  1.00  0.00    -0.459 OA
BRANCH   5   6
ATOM      6  C   UNL A   1      33.903  24.248  25.704  1.00  0.00     0.368 C 
ATOM      7  O   UNL A   1      33.457  23.591  26.643  1.00  0.00    -0.245 OA
BRANCH   6   8
ATOM      8  C   UNL A   1      32.965  24.881  24.558  1.00  0.00     0.201 C 
ATOM      9  C   UNL A   1      30.640  24.352  23.279  1.00  0.00     0.018 C 
ATOM     10  C   UNL A   1      31.520  24.147  24.562  1.00  0.00     0.031 C 
ATOM     11  C   UNL A   1      30.646  24.582  25.766  1.00  0.00     0.018 C 
ATOM     12  C   UNL A   1      31.751  22.610  24.608  1.00  0.00     0.013 C 
ATOM     13  C   UNL A   1      32.545  22.104  23.398  1.00  0.00     0.001 C 
ATOM     14  C   UNL A   1      33.684  24.475  23.230  1.00  0.00     0.082 C 
ATOM     15  C   UNL A   1      33.734  22.959  22.944  1.00  0.00     0.007 C 
BRANCH   8  16
ATOM     16  N   UNL A   1      32.899  26.391  24.733  1.00  0.00    -0.311 N 
ATOM     17  C   UNL A   1      33.538  27.204  23.682  1.00  0.00     0.325 C 
ATOM     18  C   UNL A   1      33.318  26.902  26.059  1.00  0.00     0.325 C 
ATOM     19  H   UNL A   1      31.890  26.517  24.642  1.00  0.00     0.349 HD
ATOM     20  C   UNL A   1      33.467  28.739  23.881  1.00  0.00     0.322 C 
ATOM     21  C   UNL A   1      33.083  28.426  26.201  1.00  0.00     0.322 C 
ATOM     22  N   UNL A   1      33.859  29.194  25.215  1.00  0.00    -0.337 N 
ATOM     23  H   UNL A   1      33.659  30.190  25.315  1.00  0.00     0.346 HD
ATOM     24  H   UNL A   1      34.859  29.050  25.360  1.00  0.00     0.346 HD
ENDBRANCH   8  16
ENDBRANCH   6   8
ENDBRANCH   5   6
ENDBRANCH   4   5
ENDBRANCH   3   4
ENDBRANCH   2   3
ENDBRANCH   1   2
BRANCH   1  25
ATOM     25  C   UNL A   1      40.620  23.995  26.474  1.00  0.00     0.261 C 
BRANCH  25  26
ATOM     26  O   UNL A   1      39.887  25.220  26.295  1.00  0.00    -0.460 OA
BRANCH  26  27
ATOM     27  C   UNL A   1      40.646  26.343  26.358  1.00  0.00     0.338 C 
ATOM     28  O   UNL A   1      41.438  26.739  25.519  1.00  0.00    -0.246 OA
BRANCH  27  29
ATOM     29  C   UNL A   1      40.236  27.175  27.508  1.00  0.00     0.060 A 
ATOM     30  C   UNL A   1      40.724  28.487  27.548  1.00  0.00     0.016 A 
ATOM     31  C   UNL A   1      39.457  26.676  28.555  1.00  0.00     0.016 A 
ATOM     32  C   UNL A   1      40.503  29.283  28.667  1.00  0.00     0.010 A 
ATOM     33  C   UNL A   1      39.246  27.472  29.687  1.00  0.00     0.010 A 
ATOM     34  C   UNL A   1      39.811  28.759  29.767  1.00  0.00    -0.014 A 
BRANCH  34  35
ATOM     35  C   UNL A   1      39.869  29.487  31.057  1.00  0.00     0.031 A 
ATOM     36  C   UNL A   1      41.020  29.207  31.987  1.00  0.00     0.074 A 
ATOM     37  C   UNL A   1      38.961  30.430  31.365  1.00  0.00     0.049 A 
ATOM     38  N   UNL A   1      41.294  29.739  33.150  1.00  0.00    -0.248 NA
ATOM     39  C   UNL A   1      41.995  28.195  31.544  1.00  0.00     0.031 C 
ATOM     40  C   UNL A   1      37.836  30.830  30.520  1.00  0.00     0.029 A 
ATOM     41  N   UNL A   1      38.851  31.230  32.474  1.00  0.00    -0.354 N 
ATOM     42  C   UNL A   1      42.466  29.125  33.578  1.00  0.00     0.074 A 
ATOM     43  C   UNL A   1      42.836  28.161  32.565  1.00  0.00     0.031 C 
ATOM     44  C   UNL A   1      37.145  31.799  31.146  1.00  0.00     0.029 A 
ATOM     45  C   UNL A   1      37.764  32.068  32.443  1.00  0.00     0.049 A 
ATOM     46  H   UNL A   1      39.491  31.204  33.222  1.00  0.00     0.167 HD
ATOM     47  C   UNL A   1      43.175  29.347  34.711  1.00  0.00     0.031 A 
ATOM     48  C   UNL A   1      37.311  32.944  33.363  1.00  0.00     0.031 A 
ATOM     49  C   UNL A   1      42.797  30.297  35.722  1.00  0.00     0.049 A 
ATOM     50  C   UNL A   1      38.076  33.122  34.649  1.00  0.00     0.074 A 
ATOM     51  C   UNL A   1      43.450  30.600  36.904  1.00  0.00     0.029 A 
ATOM     52  N   UNL A   1      41.663  31.092  35.675  1.00  0.00    -0.354 N 
ATOM     53  N   UNL A   1      39.189  32.545  35.032  1.00  0.00    -0.248 NA
ATOM     54  C   UNL A   1      37.526  34.077  35.622  1.00  0.00     0.031 C 
ATOM     55  C   UNL A   1      42.682  31.542  37.596  1.00  0.00     0.029 A 
ATOM     56  C   UNL A   1      41.581  31.868  36.818  1.00  0.00     0.049 A 
ATOM     57  H   UNL A   1      41.011  31.102  34.937  1.00  0.00     0.167 HD
ATOM     58  C   UNL A   1      39.487  33.084  36.280  1.00  0.00     0.074 A 
ATOM     59  C   UNL A   1      38.442  34.042  36.580  1.00  0.00     0.031 C 
ATOM     60  C   UNL A   1      40.532  32.814  37.101  1.00  0.00     0.031 A 
BRANCH  47  61
ATOM     61  C   UNL A   1      44.411  28.515  34.929  1.00  0.00    -0.014 A 
ATOM     62  C   UNL A   1      44.349  27.275  35.590  1.00  0.00     0.010 A 
ATOM     63  C   UNL A   1      45.650  28.973  34.445  1.00  0.00     0.010 A 
ATOM     64  C   UNL A   1      45.510  26.526  35.797  1.00  0.00     0.020 A 
ATOM     65  C   UNL A   1      46.809  28.215  34.628  1.00  0.00     0.020 A 
ATOM     66  C   UNL A   1      46.734  27.003  35.318  1.00  0.00     0.054 A 
BRANCH  66  67
ATOM     67  S   UNL A   1      48.226  26.004  35.586  1.00  0.00     0.124 S 
ATOM     68  O   UNL A   1      49.242  27.033  35.799  1.00  0.00    -0.237 OA
ATOM     69  O   UNL A   1      47.876  25.214  36.764  1.00  0.00    -0.237 OA
ATOM     70  O   UNL A   1      48.361  25.243  34.346  1.00  0.00    -0.744 OA
ENDBRANCH  66  67
ENDBRANCH  47  61
BRANCH  48  71
ATOM     71  C   UNL A   1      36.057  33.704  33.108  1.00  0.00    -0.014 A 
ATOM     72  C   UNL A   1      36.096  34.991  32.543  1.00  0.00     0.010 A 
ATOM     73  C   UNL A   1      34.810  33.134  33.424  1.00  0.00     0.010 A 
ATOM     74  C   UNL A   1      34.911  35.696  32.307  1.00  0.00     0.020 A 
ATOM     75  C   UNL A   1      33.623  33.825  33.167  1.00  0.00     0.020 A 
ATOM     76  C   UNL A   1      33.682  35.107  32.618  1.00  0.00     0.054 A 
BRANCH  76  77
ATOM     77  S   UNL A   1      32.155  36.013  32.245  1.00  0.00     0.124 S 
ATOM     78  O   UNL A   1      32.340  36.354  30.838  1.00  0.00    -0.237 OA
ATOM     79  O   UNL A   1      31.120  35.020  32.525  1.00  0.00    -0.237 OA
ATOM     80  O   UNL A   1      32.191  37.141  33.173  1.00  0.00    -0.744 OA
ENDBRANCH  76  77
ENDBRANCH  48  71
BRANCH  60  81
ATOM     81  C   UNL A   1      40.619  33.585  38.391  1.00  0.00    -0.014 A 
ATOM     82  C   UNL A   1      41.263  34.833  38.450  1.00  0.00     0.010 A 
ATOM     83  C   UNL A   1      39.995  33.078  39.546  1.00  0.00     0.010 A 
ATOM     84  C   UNL A   1      41.305  35.549  39.651  1.00  0.00     0.020 A 
ATOM     85  C   UNL A   1      40.013  33.801  40.740  1.00  0.00     0.020 A 
ATOM     86  C   UNL A   1      40.681  35.027  40.789  1.00  0.00     0.054 A 
BRANCH  86  87
ATOM     87  S   UNL A   1      40.710  35.994  42.324  1.00  0.00     0.124 S 
ATOM     88  O   UNL A   1      40.821  34.949  43.337  1.00  0.00    -0.237 OA
ATOM     89  O   UNL A   1      41.894  36.833  42.154  1.00  0.00    -0.237 OA
ATOM     90  O   UNL A   1      39.438  36.712  42.304  1.00  0.00    -0.744 OA
ENDBRANCH  86  87
ENDBRANCH  60  81
ENDBRANCH  34  35
ENDBRANCH  27  29
ENDBRANCH  26  27
ENDBRANCH  25  26
ENDBRANCH   1  25
TORSDOF 18
ENDMDL
MODEL 2
REMARK VINA RESULT:     -10.1      6.916     12.626
REMARK SMILES CC1(C)CCCC[C@@]1(C(=O)OCCOCCOC(=O)c1ccc(-c2c3nc(c(-c4ccc(S(=O)(=O)[O-])cc4)c4ccc([nH]4)c(-c4ccc(S(=O)(=O)[O-])cc4)c4nc(c(-c5ccc(S(=O)(=O)[O-])cc5)c5ccc2[nH]5)C=C4)C=C3)cc1)[NH+]1CC[NH2+]CC1
REMARK SMILES IDX 15 1 14 2 13 3 12 4 11 5 9 6 10 7 8 8 1 9 2 10 3 11 4 12
REMARK SMILES IDX 5 13 7 14 6 15 80 16 81 17 85 18 82 20 84 21 83 22 16 25
REMARK SMILES IDX 17 26 18 27 19 28 20 29 21 30 79 31 22 32 78 33 23 34 24 35
REMARK SMILES IDX 25 36 72 37 26 38 77 39 71 40 73 41 27 42 76 43 70 44 69 45
REMARK SMILES IDX 28 47 58 48 39 49 57 50 40 51 43 52 56 53 74 54 41 55 42 56
REMARK SMILES IDX 55 58 75 59 44 60 29 61 30 62 38 63 31 64 37 65 32 66 33 67
REMARK SMILES IDX 34 68 35 69 36 70 59 71 60 72 68 73 61 74 67 75 62 76 63 77
REMARK SMILES IDX 64 78 65 79 66 80 45 81 46 82 54 83 47 84 53 85 48 86 49 87
REMARK SMILES IDX 50 88 51 89 52 90
REMARK H PARENT 80 19 83 23 83 24 73 46 43 57
REMARK Flexibility Score: inf
ROOT
ATOM      1  C   UNL A   1      34.864  31.907  27.869  1.00  0.00     0.202 C 
ENDROOT
BRANCH   1   2
ATOM      2  O   UNL A   1      33.497  31.887  27.467  1.00  0.00    -0.374 OA
BRANCH   2   3
ATOM      3  C   UNL A   1      32.906  30.603  27.285  1.00  0.00     0.202 C 
BRANCH   3   4
ATOM      4  C   UNL A   1      32.222  30.311  25.949  1.00  0.00     0.261 C 
BRANCH   4   5
ATOM      5  O   UNL A   1      32.094  28.905  25.645  1.00  0.00    -0.459 OA
BRANCH   5   6
ATOM      6  C   UNL A   1      32.301  28.598  24.332  1.00  0.00     0.368 C 
ATOM      7  O   UNL A   1      33.305  28.992  23.740  1.00  0.00    -0.245 OA
BRANCH   6   8
ATOM      8  C   UNL A   1      31.156  27.718  23.620  1.00  0.00     0.201 C 
ATOM      9  C   UNL A   1      30.298  25.154  23.519  1.00  0.00     0.018 C 
ATOM     10  C   UNL A   1      31.063  26.262  24.325  1.00  0.00     0.031 C 
ATOM     11  C   UNL A   1      30.394  26.329  25.721  1.00  0.00     0.018 C 
ATOM     12  C   UNL A   1      32.503  25.690  24.460  1.00  0.00     0.013 C 
ATOM     13  C   UNL A   1      33.193  25.524  23.101  1.00  0.00     0.001 C 
ATOM     14  C   UNL A   1      31.709  27.496  22.175  1.00  0.00     0.082 C 
ATOM     15  C   UNL A   1      33.002  26.657  22.085  1.00  0.00     0.007 C 
BRANCH   8  16
ATOM     16  N   UNL A   1      29.847  28.495  23.618  1.00  0.00    -0.311 N 
ATOM     17  C   UNL A   1      28.656  27.777  23.128  1.00  0.00     0.325 C 
ATOM     18  C   UNL A   1      29.897  29.834  22.983  1.00  0.00     0.325 C 
ATOM     19  H   UNL A   1      29.735  28.618  24.624  1.00  0.00     0.349 HD
ATOM     20  C   UNL A   1      27.334  28.585  23.127  1.00  0.00     0.322 C 
ATOM     21  C   UNL A   1      28.569  30.611  23.152  1.00  0.00     0.322 C 
ATOM     22  N   UNL A   1      27.440  29.912  22.518  1.00  0.00    -0.337 N 
ATOM     23  H   UNL A   1      26.577  30.435  22.674  1.00  0.00     0.346 HD
ATOM     24  H   UNL A   1      27.591  29.832  21.513  1.00  0.00     0.346 HD
ENDBRANCH   8  16
ENDBRANCH   6   8
ENDBRANCH   5   6
ENDBRANCH   4   5
ENDBRANCH   3   4
ENDBRANCH   2   3
ENDBRANCH   1   2
BRANCH   1  25
ATOM     25  C   UNL A   1      35.458  30.604  28.416  1.00  0.00     0.261 C 
BRANCH  25  26
ATOM     26  O   UNL A   1      36.751  30.802  29.017  1.00  0.00    -0.460 OA
BRANCH  26  27
ATOM     27  C   UNL A   1      37.194  29.754  29.755  1.00  0.00     0.338 C 
ATOM     28  O   UNL A   1      36.598  29.189  30.658  1.00  0.00    -0.246 OA
BRANCH  27  29
ATOM     29  C   UNL A   1      38.446  29.217  29.183  1.00  0.00     0.060 A 
ATOM     30  C   UNL A   1      39.384  28.699  30.085  1.00  0.00     0.016 A 
ATOM     31  C   UNL A   1      38.734  29.279  27.818  1.00  0.00     0.016 A 
ATOM     32  C   UNL A   1      40.643  28.310  29.639  1.00  0.00     0.010 A 
ATOM     33  C   UNL A   1      40.005  28.900  27.371  1.00  0.00     0.010 A 
ATOM     34  C   UNL A   1      40.980  28.463  28.288  1.00  0.00    -0.014 A 
BRANCH  34  35
ATOM     35  C   UNL A   1      42.406  28.360  27.893  1.00  0.00     0.031 A 
ATOM     36  C   UNL A   1      43.302  29.547  28.126  1.00  0.00     0.074 A 
ATOM     37  C   UNL A   1      42.911  27.212  27.408  1.00  0.00     0.049 A 
ATOM     38  N   UNL A   1      44.581  29.680  27.887  1.00  0.00    -0.248 NA
ATOM     39  C   UNL A   1      42.671  30.744  28.710  1.00  0.00     0.031 C 
ATOM     40  C   UNL A   1      42.156  25.978  27.193  1.00  0.00     0.029 A 
ATOM     41  N   UNL A   1      44.188  26.899  27.016  1.00  0.00    -0.354 N 
ATOM     42  C   UNL A   1      44.906  30.972  28.287  1.00  0.00     0.074 A 
ATOM     43  C   UNL A   1      43.687  31.592  28.755  1.00  0.00     0.031 C 
ATOM     44  C   UNL A   1      42.986  25.040  26.702  1.00  0.00     0.029 A 
ATOM     45  C   UNL A   1      44.322  25.616  26.545  1.00  0.00     0.049 A 
ATOM     46  H   UNL A   1      44.939  27.535  27.067  1.00  0.00     0.167 HD
ATOM     47  C   UNL A   1      46.113  31.585  28.269  1.00  0.00     0.031 A 
ATOM     48  C   UNL A   1      45.395  24.981  26.032  1.00  0.00     0.031 A 
ATOM     49  C   UNL A   1      47.322  30.970  27.791  1.00  0.00     0.049 A 
ATOM     50  C   UNL A   1      46.713  25.708  25.956  1.00  0.00     0.074 A 
ATOM     51  C   UNL A   1      48.596  31.506  27.736  1.00  0.00     0.029 A 
ATOM     52  N   UNL A   1      47.403  29.685  27.277  1.00  0.00    -0.354 N 
ATOM     53  N   UNL A   1      47.007  26.924  26.351  1.00  0.00    -0.248 NA
ATOM     54  C   UNL A   1      47.844  24.974  25.372  1.00  0.00     0.031 C 
ATOM     55  C   UNL A   1      49.440  30.562  27.141  1.00  0.00     0.029 A 
ATOM     56  C   UNL A   1      48.701  29.417  26.879  1.00  0.00     0.049 A 
ATOM     57  H   UNL A   1      46.649  29.056  27.207  1.00  0.00     0.167 HD
ATOM     58  C   UNL A   1      48.363  27.091  26.086  1.00  0.00     0.074 A 
ATOM     59  C   UNL A   1      48.831  25.848  25.508  1.00  0.00     0.031 C 
ATOM     60  C   UNL A   1      49.149  28.174  26.303  1.00  0.00     0.031 A 
BRANCH  47  61
ATOM     61  C   UNL A   1      46.172  33.011  28.750  1.00  0.00    -0.014 A 
ATOM     62  C   UNL A   1      45.959  34.087  27.870  1.00  0.00     0.010 A 
ATOM     63  C   UNL A   1      46.423  33.277  30.108  1.00  0.00     0.010 A 
ATOM     64  C   UNL A   1      46.034  35.404  28.332  1.00  0.00     0.020 A 
ATOM     65  C   UNL A   1      46.475  34.591  30.579  1.00  0.00     0.020 A 
ATOM     66  C   UNL A   1      46.296  35.648  29.683  1.00  0.00     0.054 A 
BRANCH  66  67
ATOM     67  S   UNL A   1      46.374  37.366  30.262  1.00  0.00     0.124 S 
ATOM     68  O   UNL A   1      45.031  37.850  29.948  1.00  0.00    -0.237 OA
ATOM     69  O   UNL A   1      46.670  37.213  31.684  1.00  0.00    -0.237 OA
ATOM     70  O   UNL A   1      47.449  37.952  29.464  1.00  0.00    -0.744 OA
ENDBRANCH  66  67
ENDBRANCH  47  61
BRANCH  48  71
ATOM     71  C   UNL A   1      45.262  23.585  25.532  1.00  0.00    -0.014 A 
ATOM     72  C   UNL A   1      45.641  22.493  26.333  1.00  0.00     0.010 A 
ATOM     73  C   UNL A   1      44.743  23.344  24.247  1.00  0.00     0.010 A 
ATOM     74  C   UNL A   1      45.511  21.186  25.853  1.00  0.00     0.020 A 
ATOM     75  C   UNL A   1      44.588  22.038  23.773  1.00  0.00     0.020 A 
ATOM     76  C   UNL A   1      44.983  20.967  24.577  1.00  0.00     0.054 A 
BRANCH  76  77
ATOM     77  S   UNL A   1      44.763  19.261  23.999  1.00  0.00     0.124 S 
ATOM     78  O   UNL A   1      44.518  19.453  22.573  1.00  0.00    -0.237 OA
ATOM     79  O   UNL A   1      46.039  18.641  24.345  1.00  0.00    -0.237 OA
ATOM     80  O   UNL A   1      43.618  18.784  24.773  1.00  0.00    -0.744 OA
ENDBRANCH  76  77
ENDBRANCH  48  71
BRANCH  60  81
ATOM     81  C   UNL A   1      50.607  28.058  25.947  1.00  0.00    -0.014 A 
ATOM     82  C   UNL A   1      51.062  28.330  24.645  1.00  0.00     0.010 A 
ATOM     83  C   UNL A   1      51.541  27.731  26.947  1.00  0.00     0.010 A 
ATOM     84  C   UNL A   1      52.424  28.248  24.342  1.00  0.00     0.020 A 
ATOM     85  C   UNL A   1      52.906  27.673  26.654  1.00  0.00     0.020 A 
ATOM     86  C   UNL A   1      53.338  27.918  25.349  1.00  0.00     0.054 A 
BRANCH  86  87
ATOM     87  S   UNL A   1      55.105  27.862  24.943  1.00  0.00     0.124 S 
ATOM     88  O   UNL A   1      55.078  27.564  23.514  1.00  0.00    -0.237 OA
ATOM     89  O   UNL A   1      55.560  29.205  25.296  1.00  0.00    -0.237 OA
ATOM     90  O   UNL A   1      55.621  26.793  25.794  1.00  0.00    -0.744 OA
ENDBRANCH  86  87
ENDBRANCH  60  81
ENDBRANCH  34  35
ENDBRANCH  27  29
ENDBRANCH  26  27
ENDBRANCH  25  26
ENDBRANCH   1  25
TORSDOF 18
ENDMDL
MODEL 3
REMARK VINA RESULT:     -10.0      6.462      8.574
REMARK SMILES CC1(C)CCCC[C@@]1(C(=O)OCCOCCOC(=O)c1ccc(-c2c3nc(c(-c4ccc(S(=O)(=O)[O-])cc4)c4ccc([nH]4)c(-c4ccc(S(=O)(=O)[O-])cc4)c4nc(c(-c5ccc(S(=O)(=O)[O-])cc5)c5ccc2[nH]5)C=C4)C=C3)cc1)[NH+]1CC[NH2+]CC1
REMARK SMILES IDX 15 1 14 2 13 3 12 4 11 5 9 6 10 7 8 8 1 9 2 10 3 11 4 12
REMARK SMILES IDX 5 13 7 14 6 15 80 16 81 17 85 18 82 20 84 21 83 22 16 25
REMARK SMILES IDX 17 26 18 27 19 28 20 29 21 30 79 31 22 32 78 33 23 34 24 35
REMARK SMILES IDX 25 36 72 37 26 38 77 39 71 40 73 41 27 42 76 43 70 44 69 45
REMARK SMILES IDX 28 47 58 48 39 49 57 50 40 51 43 52 56 53 74 54 41 55 42 56
REMARK SMILES IDX 55 58 75 59 44 60 29 61 30 62 38 63 31 64 37 65 32 66 33 67
REMARK SMILES IDX 34 68 35 69 36 70 59 71 60 72 68 73 61 74 67 75 62 76 63 77
REMARK SMILES IDX 64 78 65 79 66 80 45 81 46 82 54 83 47 84 53 85 48 86 49 87
REMARK SMILES IDX 50 88 51 89 52 90
REMARK H PARENT 80 19 83 23 83 24 73 46 43 57
REMARK Flexibility Score: inf
ROOT
ATOM      1  C   UNL A   1      38.176  21.506  25.671  1.00  0.00     0.202 C 
ENDROOT
BRANCH   1   2
ATOM      2  O   UNL A   1      36.838  21.215  25.275  1.00  0.00    -0.374 OA
BRANCH   2   3
ATOM      3  C   UNL A   1      35.864  22.222  25.537  1.00  0.00     0.202 C 
BRANCH   3   4
ATOM      4  C   UNL A   1      36.318  23.682  25.517  1.00  0.00     0.261 C 
BRANCH   4   5
ATOM      5  O   UNL A   1      35.451  24.560  24.766  1.00  0.00    -0.459 OA
BRANCH   5   6
ATOM      6  C   UNL A   1      34.186  24.654  25.267  1.00  0.00     0.368 C 
ATOM      7  O   UNL A   1      33.961  24.464  26.461  1.00  0.00    -0.245 OA
BRANCH   6   8
ATOM      8  C   UNL A   1      33.027  25.005  24.205  1.00  0.00     0.201 C 
ATOM      9  C   UNL A   1      30.647  24.033  23.364  1.00  0.00     0.018 C 
ATOM     10  C   UNL A   1      31.709  24.116  24.515  1.00  0.00     0.031 C 
ATOM     11  C   UNL A   1      30.952  24.611  25.774  1.00  0.00     0.018 C 
ATOM     12  C   UNL A   1      32.150  22.638  24.716  1.00  0.00     0.013 C 
ATOM     13  C   UNL A   1      32.837  22.062  23.473  1.00  0.00     0.001 C 
ATOM     14  C   UNL A   1      33.612  24.501  22.845  1.00  0.00     0.082 C 
ATOM     15  C   UNL A   1      33.829  22.976  22.744  1.00  0.00     0.007 C 
BRANCH   8  16
ATOM     16  N   UNL A   1      32.781  26.506  24.200  1.00  0.00    -0.311 N 
ATOM     17  C   UNL A   1      32.734  27.162  22.880  1.00  0.00     0.325 C 
ATOM     18  C   UNL A   1      33.648  27.302  25.101  1.00  0.00     0.325 C 
ATOM     19  H   UNL A   1      31.832  26.512  24.575  1.00  0.00     0.349 HD
ATOM     20  C   UNL A   1      32.489  28.692  22.895  1.00  0.00     0.322 C 
ATOM     21  C   UNL A   1      33.236  28.794  25.144  1.00  0.00     0.322 C 
ATOM     22  N   UNL A   1      33.345  29.431  23.822  1.00  0.00    -0.337 N 
ATOM     23  H   UNL A   1      33.038  30.402  23.879  1.00  0.00     0.346 HD
ATOM     24  H   UNL A   1      34.313  29.417  23.501  1.00  0.00     0.346 HD
ENDBRANCH   8  16
ENDBRANCH   6   8
ENDBRANCH   5   6
ENDBRANCH   4   5
ENDBRANCH   3   4
ENDBRANCH   2   3
ENDBRANCH   1   2
BRANCH   1  25
ATOM     25  C   UNL A   1      39.250  20.461  25.348  1.00  0.00     0.261 C 
BRANCH  25  26
ATOM     26  O   UNL A   1      40.010  20.081  26.510  1.00  0.00    -0.460 OA
BRANCH  26  27
ATOM     27  C   UNL A   1      41.306  19.771  26.257  1.00  0.00     0.338 C 
ATOM     28  O   UNL A   1      41.731  18.735  25.774  1.00  0.00    -0.246 OA
BRANCH  27  29
ATOM     29  C   UNL A   1      42.163  20.960  26.448  1.00  0.00     0.060 A 
ATOM     30  C   UNL A   1      42.300  21.439  27.758  1.00  0.00     0.016 A 
ATOM     31  C   UNL A   1      42.761  21.633  25.381  1.00  0.00     0.016 A 
ATOM     32  C   UNL A   1      42.969  22.634  27.999  1.00  0.00     0.010 A 
ATOM     33  C   UNL A   1      43.423  22.843  25.623  1.00  0.00     0.010 A 
ATOM     34  C   UNL A   1      43.484  23.372  26.926  1.00  0.00    -0.014 A 
BRANCH  34  35
ATOM     35  C   UNL A   1      43.894  24.778  27.159  1.00  0.00     0.031 A 
ATOM     36  C   UNL A   1      45.339  25.148  26.954  1.00  0.00     0.074 A 
ATOM     37  C   UNL A   1      42.989  25.722  27.474  1.00  0.00     0.049 A 
ATOM     38  N   UNL A   1      45.921  26.313  27.072  1.00  0.00    -0.248 NA
ATOM     39  C   UNL A   1      46.248  24.058  26.559  1.00  0.00     0.031 C 
ATOM     40  C   UNL A   1      41.554  25.497  27.643  1.00  0.00     0.029 A 
ATOM     41  N   UNL A   1      43.148  27.065  27.700  1.00  0.00    -0.354 N 
ATOM     42  C   UNL A   1      47.261  26.096  26.771  1.00  0.00     0.074 A 
ATOM     43  C   UNL A   1      47.412  24.685  26.493  1.00  0.00     0.031 C 
ATOM     44  C   UNL A   1      40.964  26.665  27.951  1.00  0.00     0.029 A 
ATOM     45  C   UNL A   1      41.982  27.713  28.026  1.00  0.00     0.049 A 
ATOM     46  H   UNL A   1      44.019  27.523  27.635  1.00  0.00     0.167 HD
ATOM     47  C   UNL A   1      48.275  26.992  26.724  1.00  0.00     0.031 A 
ATOM     48  C   UNL A   1      41.762  29.000  28.360  1.00  0.00     0.031 A 
ATOM     49  C   UNL A   1      48.125  28.393  27.013  1.00  0.00     0.049 A 
ATOM     50  C   UNL A   1      42.918  29.965  28.372  1.00  0.00     0.074 A 
ATOM     51  C   UNL A   1      49.089  29.385  26.989  1.00  0.00     0.029 A 
ATOM     52  N   UNL A   1      46.935  28.998  27.385  1.00  0.00    -0.354 N 
ATOM     53  N   UNL A   1      44.176  29.748  28.071  1.00  0.00    -0.248 NA
ATOM     54  C   UNL A   1      42.623  31.352  28.761  1.00  0.00     0.031 C 
ATOM     55  C   UNL A   1      48.492  30.582  27.397  1.00  0.00     0.029 A 
ATOM     56  C   UNL A   1      47.144  30.346  27.620  1.00  0.00     0.049 A 
ATOM     57  H   UNL A   1      46.069  28.537  27.471  1.00  0.00     0.167 HD
ATOM     58  C   UNL A   1      44.818  30.975  28.210  1.00  0.00     0.074 A 
ATOM     59  C   UNL A   1      43.805  31.931  28.611  1.00  0.00     0.031 C 
ATOM     60  C   UNL A   1      46.125  31.283  28.021  1.00  0.00     0.031 A 
BRANCH  47  61
ATOM     61  C   UNL A   1      49.646  26.471  26.383  1.00  0.00    -0.014 A 
ATOM     62  C   UNL A   1      50.111  26.453  25.056  1.00  0.00     0.010 A 
ATOM     63  C   UNL A   1      50.490  26.012  27.411  1.00  0.00     0.010 A 
ATOM     64  C   UNL A   1      51.380  25.949  24.758  1.00  0.00     0.020 A 
ATOM     65  C   UNL A   1      51.769  25.531  27.120  1.00  0.00     0.020 A 
ATOM     66  C   UNL A   1      52.200  25.487  25.792  1.00  0.00     0.054 A 
BRANCH  66  67
ATOM     67  S   UNL A   1      53.849  24.852  25.382  1.00  0.00     0.124 S 
ATOM     68  O   UNL A   1      53.548  23.489  24.949  1.00  0.00    -0.237 OA
ATOM     69  O   UNL A   1      54.291  25.761  24.327  1.00  0.00    -0.237 OA
ATOM     70  O   UNL A   1      54.585  24.957  26.640  1.00  0.00    -0.744 OA
ENDBRANCH  66  67
ENDBRANCH  47  61
BRANCH  48  71
ATOM     71  C   UNL A   1      40.390  29.445  28.731  1.00  0.00    -0.014 A 
ATOM     72  C   UNL A   1      40.057  29.716  30.069  1.00  0.00     0.010 A 
ATOM     73  C   UNL A   1      39.410  29.609  27.735  1.00  0.00     0.010 A 
ATOM     74  C   UNL A   1      38.765  30.134  30.406  1.00  0.00     0.020 A 
ATOM     75  C   UNL A   1      38.125  30.051  28.064  1.00  0.00     0.020 A 
ATOM     76  C   UNL A   1      37.808  30.302  29.400  1.00  0.00     0.054 A 
BRANCH  76  77
ATOM     77  S   UNL A   1      36.158  30.907  29.850  1.00  0.00     0.124 S 
ATOM     78  O   UNL A   1      35.314  30.260  28.851  1.00  0.00    -0.237 OA
ATOM     79  O   UNL A   1      36.005  30.422  31.220  1.00  0.00    -0.237 OA
ATOM     80  O   UNL A   1      36.281  32.358  29.722  1.00  0.00    -0.744 OA
ENDBRANCH  76  77
ENDBRANCH  48  71
BRANCH  60  81
ATOM     81  C   UNL A   1      46.535  32.719  28.212  1.00  0.00    -0.014 A 
ATOM     82  C   UNL A   1      47.006  33.182  29.453  1.00  0.00     0.010 A 
ATOM     83  C   UNL A   1      46.507  33.600  27.116  1.00  0.00     0.010 A 
ATOM     84  C   UNL A   1      47.413  34.511  29.602  1.00  0.00     0.020 A 
ATOM     85  C   UNL A   1      46.937  34.922  27.254  1.00  0.00     0.020 A 
ATOM     86  C   UNL A   1      47.375  35.373  28.501  1.00  0.00     0.054 A 
BRANCH  86  87
ATOM     87  S   UNL A   1      47.951  37.081  28.706  1.00  0.00     0.124 S 
ATOM     88  O   UNL A   1      48.859  36.959  29.843  1.00  0.00    -0.237 OA
ATOM     89  O   UNL A   1      48.588  37.363  27.421  1.00  0.00    -0.237 OA
ATOM     90  O   UNL A   1      46.725  37.831  28.964  1.00  0.00    -0.744 OA
ENDBRANCH  86  87
ENDBRANCH  60  81
ENDBRANCH  34  35
ENDBRANCH  27  29
ENDBRANCH  26  27
ENDBRANCH  25  26
ENDBRANCH   1  25
TORSDOF 18
ENDMDL
