MODEL 1
REMARK VINA RESULT:      -9.3      0.000      0.000
REMARK SMILES CC[NH2+]C(C)(C)C(=O)N[C@@](C)(C(=O)OCCOCCOC(=O)c1ccc(-c2c3nc(c(-c4ccc(S(=O)(=O)[O-])cc4)c4ccc([nH]4)c(-c4ccc(S(=O)(=O)[O-])cc4)c4nc(c(-c5ccc(S(=O)(=O)[O-])cc5)c5ccc2[nH]5)C=C4)C=C3)cc1)C(F)(F)F
REMARK SMILES IDX 16 1 15 2 14 3 12 4 13 5 10 6 11 7 9 8 7 9 8 10 4 12 5 13
REMARK SMILES IDX 6 14 3 15 2 18 1 19 83 20 84 21 85 22 86 23 17 24 18 25
REMARK SMILES IDX 19 26 20 27 21 28 22 29 23 30 24 31 82 32 25 33 81 34 26 35
REMARK SMILES IDX 27 36 28 37 75 38 29 39 80 40 74 41 76 42 30 43 79 44 73 45
REMARK SMILES IDX 72 46 31 48 61 49 42 50 60 51 43 52 46 53 59 54 77 55 44 56
REMARK SMILES IDX 45 57 58 59 78 60 47 61 32 62 33 63 41 64 34 65 40 66 35 67
REMARK SMILES IDX 36 68 37 69 38 70 39 71 62 72 63 73 71 74 64 75 70 76 65 77
REMARK SMILES IDX 66 78 67 79 68 80 69 81 48 82 49 83 57 84 50 85 56 86 51 87
REMARK SMILES IDX 52 88 53 89 54 90 55 91
REMARK H PARENT 9 11 3 16 3 17 76 47 46 58
REMARK Flexibility Score: inf
ROOT
ATOM      1  C   UNL A   1      36.881  20.698  25.038  1.00  0.00     0.202 C 
ENDROOT
BRANCH   1   2
ATOM      2  C   UNL A   1      36.086  21.966  25.384  1.00  0.00     0.261 C 
BRANCH   2   3
ATOM      3  O   UNL A   1      34.726  21.915  24.927  1.00  0.00    -0.461 OA
BRANCH   3   4
ATOM      4  C   UNL A   1      33.841  21.328  25.786  1.00  0.00     0.341 C 
ATOM      5  O   UNL A   1      34.039  21.218  26.990  1.00  0.00    -0.249 OA
BRANCH   4   6
ATOM      6  C   UNL A   1      32.573  20.812  25.070  1.00  0.00     0.231 C 
ATOM      7  C   UNL A   1      32.671  21.313  23.623  1.00  0.00     0.058 C 
BRANCH   6   8
ATOM      8  N   UNL A   1      31.338  21.458  25.696  1.00  0.00    -0.328 N 
ATOM      9  C   UNL A   1      30.821  22.655  26.095  1.00  0.00     0.281 C 
ATOM     10  O   UNL A   1      29.822  22.527  26.815  1.00  0.00    -0.268 OA
ATOM     11  H   UNL A   1      30.675  20.754  25.881  1.00  0.00     0.165 HD
BRANCH   9  12
ATOM     12  C   UNL A   1      31.318  24.062  25.629  1.00  0.00     0.169 C 
ATOM     13  C   UNL A   1      32.615  24.418  26.371  1.00  0.00     0.090 C 
ATOM     14  C   UNL A   1      30.203  25.104  25.829  1.00  0.00     0.090 C 
BRANCH  12  15
ATOM     15  N   UNL A   1      31.586  24.173  24.159  1.00  0.00    -0.334 N 
ATOM     16  H   UNL A   1      32.599  24.192  24.040  1.00  0.00     0.347 HD
ATOM     17  H   UNL A   1      31.096  23.373  23.759  1.00  0.00     0.347 HD
BRANCH  15  18
ATOM     18  C   UNL A   1      31.049  25.317  23.426  1.00  0.00     0.257 C 
ATOM     19  C   UNL A   1      31.827  25.470  22.119  1.00  0.00     0.071 C 
ENDBRANCH  15  18
ENDBRANCH  12  15
ENDBRANCH   9  12
ENDBRANCH   6   8
BRANCH   6  20
ATOM     20  C   UNL A   1      32.795  19.289  25.148  1.00  0.00     0.422 C 
ATOM     21  F   UNL A   1      32.028  18.615  24.259  1.00  0.00    -0.168 F 
ATOM     22  F   UNL A   1      34.076  18.941  24.900  1.00  0.00    -0.168 F 
ATOM     23  F   UNL A   1      32.526  18.780  26.374  1.00  0.00    -0.168 F 
ENDBRANCH   6  20
ENDBRANCH   4   6
ENDBRANCH   3   4
ENDBRANCH   2   3
ENDBRANCH   1   2
BRANCH   1  24
ATOM     24  O   UNL A   1      38.302  20.760  25.112  1.00  0.00    -0.374 OA
BRANCH  24  25
ATOM     25  C   UNL A   1      38.895  21.869  25.788  1.00  0.00     0.202 C 
BRANCH  25  26
ATOM     26  C   UNL A   1      39.963  21.603  26.859  1.00  0.00     0.261 C 
BRANCH  26  27
ATOM     27  O   UNL A   1      40.490  20.266  26.829  1.00  0.00    -0.460 OA
BRANCH  27  28
ATOM     28  C   UNL A   1      41.682  20.149  26.188  1.00  0.00     0.338 C 
ATOM     29  O   UNL A   1      42.029  19.255  25.435  1.00  0.00    -0.246 OA
BRANCH  28  30
ATOM     30  C   UNL A   1      42.478  21.378  26.359  1.00  0.00     0.060 A 
ATOM     31  C   UNL A   1      42.865  21.724  27.661  1.00  0.00     0.016 A 
ATOM     32  C   UNL A   1      42.740  22.233  25.288  1.00  0.00     0.016 A 
ATOM     33  C   UNL A   1      43.481  22.949  27.903  1.00  0.00     0.010 A 
ATOM     34  C   UNL A   1      43.347  23.472  25.537  1.00  0.00     0.010 A 
ATOM     35  C   UNL A   1      43.687  23.848  26.849  1.00  0.00    -0.014 A 
BRANCH  35  36
ATOM     36  C   UNL A   1      44.120  25.235  27.152  1.00  0.00     0.031 A 
ATOM     37  C   UNL A   1      45.548  25.627  26.885  1.00  0.00     0.074 A 
ATOM     38  C   UNL A   1      43.241  26.143  27.613  1.00  0.00     0.049 A 
ATOM     39  N   UNL A   1      46.142  26.774  27.088  1.00  0.00    -0.248 NA
ATOM     40  C   UNL A   1      46.420  24.591  26.305  1.00  0.00     0.031 C 
ATOM     41  C   UNL A   1      41.821  25.897  27.865  1.00  0.00     0.029 A 
ATOM     42  N   UNL A   1      43.419  27.461  27.951  1.00  0.00    -0.354 N 
ATOM     43  C   UNL A   1      47.453  26.603  26.656  1.00  0.00     0.074 A 
ATOM     44  C   UNL A   1      47.576  25.232  26.211  1.00  0.00     0.031 C 
ATOM     45  C   UNL A   1      41.260  27.025  28.334  1.00  0.00     0.029 A 
ATOM     46  C   UNL A   1      42.284  28.063  28.441  1.00  0.00     0.049 A 
ATOM     47  H   UNL A   1      44.279  27.932  27.854  1.00  0.00     0.167 HD
ATOM     48  C   UNL A   1      48.460  27.507  26.623  1.00  0.00     0.031 A 
ATOM     49  C   UNL A   1      42.098  29.301  28.940  1.00  0.00     0.031 A 
ATOM     50  C   UNL A   1      48.343  28.863  27.090  1.00  0.00     0.049 A 
ATOM     51  C   UNL A   1      43.257  30.264  28.970  1.00  0.00     0.074 A 
ATOM     52  C   UNL A   1      49.313  29.849  27.122  1.00  0.00     0.029 A 
ATOM     53  N   UNL A   1      47.186  29.424  27.607  1.00  0.00    -0.354 N 
ATOM     54  N   UNL A   1      44.489  30.086  28.555  1.00  0.00    -0.248 NA
ATOM     55  C   UNL A   1      42.997  31.600  29.527  1.00  0.00     0.031 C 
ATOM     56  C   UNL A   1      48.753  30.994  27.698  1.00  0.00     0.029 A 
ATOM     57  C   UNL A   1      47.420  30.737  27.974  1.00  0.00     0.049 A 
ATOM     58  H   UNL A   1      46.325  28.955  27.700  1.00  0.00     0.167 HD
ATOM     59  C   UNL A   1      45.143  31.294  28.779  1.00  0.00     0.074 A 
ATOM     60  C   UNL A   1      44.166  32.199  29.350  1.00  0.00     0.031 C 
ATOM     61  C   UNL A   1      46.435  31.625  28.536  1.00  0.00     0.031 A 
BRANCH  48  62
ATOM     62  C   UNL A   1      49.785  27.050  26.076  1.00  0.00    -0.014 A 
ATOM     63  C   UNL A   1      50.126  27.275  24.730  1.00  0.00     0.010 A 
ATOM     64  C   UNL A   1      50.720  26.431  26.925  1.00  0.00     0.010 A 
ATOM     65  C   UNL A   1      51.366  26.862  24.236  1.00  0.00     0.020 A 
ATOM     66  C   UNL A   1      51.971  26.038  26.439  1.00  0.00     0.020 A 
ATOM     67  C   UNL A   1      52.280  26.245  25.094  1.00  0.00     0.054 A 
BRANCH  67  68
ATOM     68  S   UNL A   1      53.895  25.748  24.433  1.00  0.00     0.124 S 
ATOM     69  O   UNL A   1      53.882  24.305  24.659  1.00  0.00    -0.237 OA
ATOM     70  O   UNL A   1      53.811  26.165  23.035  1.00  0.00    -0.237 OA
ATOM     71  O   UNL A   1      54.849  26.497  25.247  1.00  0.00    -0.744 OA
ENDBRANCH  67  68
ENDBRANCH  48  62
BRANCH  49  72
ATOM     72  C   UNL A   1      40.772  29.693  29.491  1.00  0.00    -0.014 A 
ATOM     73  C   UNL A   1      40.524  29.665  30.874  1.00  0.00     0.010 A 
ATOM     74  C   UNL A   1      39.737  30.076  28.619  1.00  0.00     0.010 A 
ATOM     75  C   UNL A   1      39.257  29.984  31.373  1.00  0.00     0.020 A 
ATOM     76  C   UNL A   1      38.477  30.422  29.115  1.00  0.00     0.020 A 
ATOM     77  C   UNL A   1      38.240  30.357  30.489  1.00  0.00     0.054 A 
BRANCH  77  78
ATOM     78  S   UNL A   1      36.610  30.795  31.155  1.00  0.00     0.124 S 
ATOM     79  O   UNL A   1      35.840  31.030  29.938  1.00  0.00    -0.237 OA
ATOM     80  O   UNL A   1      36.246  29.602  31.915  1.00  0.00    -0.237 OA
ATOM     81  O   UNL A   1      36.882  31.980  31.965  1.00  0.00    -0.744 OA
ENDBRANCH  77  78
ENDBRANCH  49  72
BRANCH  61  82
ATOM     82  C   UNL A   1      46.861  33.035  28.847  1.00  0.00    -0.014 A 
ATOM     83  C   UNL A   1      46.728  34.062  27.896  1.00  0.00     0.010 A 
ATOM     84  C   UNL A   1      47.352  33.344  30.129  1.00  0.00     0.010 A 
ATOM     85  C   UNL A   1      47.107  35.369  28.214  1.00  0.00     0.020 A 
ATOM     86  C   UNL A   1      47.707  34.654  30.458  1.00  0.00     0.020 A 
ATOM     87  C   UNL A   1      47.596  35.657  29.492  1.00  0.00     0.054 A 
BRANCH  87  88
ATOM     88  S   UNL A   1      48.041  37.368  29.894  1.00  0.00     0.124 S 
ATOM     89  O   UNL A   1      48.998  37.690  28.839  1.00  0.00    -0.237 OA
ATOM     90  O   UNL A   1      46.758  38.063  29.811  1.00  0.00    -0.237 OA
ATOM     91  O   UNL A   1      48.604  37.273  31.240  1.00  0.00    -0.744 OA
ENDBRANCH  87  88
ENDBRANCH  61  82
ENDBRANCH  35  36
ENDBRANCH  28  30
ENDBRANCH  27  28
ENDBRANCH  26  27
ENDBRANCH  25  26
ENDBRANCH  24  25
ENDBRANCH   1  24
TORSDOF 22
ENDMDL
MODEL 2
REMARK VINA RESULT:      -8.9      0.610      8.222
REMARK SMILES CC[NH2+]C(C)(C)C(=O)N[C@@](C)(C(=O)OCCOCCOC(=O)c1ccc(-c2c3nc(c(-c4ccc(S(=O)(=O)[O-])cc4)c4ccc([nH]4)c(-c4ccc(S(=O)(=O)[O-])cc4)c4nc(c(-c5ccc(S(=O)(=O)[O-])cc5)c5ccc2[nH]5)C=C4)C=C3)cc1)C(F)(F)F
REMARK SMILES IDX 16 1 15 2 14 3 12 4 13 5 10 6 11 7 9 8 7 9 8 10 4 12 5 13
REMARK SMILES IDX 6 14 3 15 2 18 1 19 83 20 84 21 85 22 86 23 17 24 18 25
REMARK SMILES IDX 19 26 20 27 21 28 22 29 23 30 24 31 82 32 25 33 81 34 26 35
REMARK SMILES IDX 27 36 28 37 75 38 29 39 80 40 74 41 76 42 30 43 79 44 73 45
REMARK SMILES IDX 72 46 31 48 61 49 42 50 60 51 43 52 46 53 59 54 77 55 44 56
REMARK SMILES IDX 45 57 58 59 78 60 47 61 32 62 33 63 41 64 34 65 40 66 35 67
REMARK SMILES IDX 36 68 37 69 38 70 39 71 62 72 63 73 71 74 64 75 70 76 65 77
REMARK SMILES IDX 66 78 67 79 68 80 69 81 48 82 49 83 57 84 50 85 56 86 51 87
REMARK SMILES IDX 52 88 53 89 54 90 55 91
REMARK H PARENT 9 11 3 16 3 17 76 47 46 58
REMARK Flexibility Score: inf
ROOT
ATOM      1  C   UNL A   1      37.097  20.889  25.197  1.00  0.00     0.202 C 
ENDROOT
BRANCH   1   2
ATOM      2  C   UNL A   1      36.126  21.984  25.661  1.00  0.00     0.261 C 
BRANCH   2   3
ATOM      3  O   UNL A   1      34.842  21.899  25.021  1.00  0.00    -0.461 OA
BRANCH   3   4
ATOM      4  C   UNL A   1      33.884  21.223  25.720  1.00  0.00     0.341 C 
ATOM      5  O   UNL A   1      33.986  20.939  26.908  1.00  0.00    -0.249 OA
BRANCH   4   6
ATOM      6  C   UNL A   1      32.666  20.849  24.846  1.00  0.00     0.231 C 
ATOM      7  C   UNL A   1      32.888  21.538  23.493  1.00  0.00     0.058 C 
BRANCH   6   8
ATOM      8  N   UNL A   1      31.399  21.442  25.460  1.00  0.00    -0.328 N 
ATOM      9  C   UNL A   1      30.889  22.577  26.017  1.00  0.00     0.281 C 
ATOM     10  O   UNL A   1      29.818  22.380  26.607  1.00  0.00    -0.268 OA
ATOM     11  H   UNL A   1      30.695  20.753  25.452  1.00  0.00     0.165 HD
BRANCH   9  12
ATOM     12  C   UNL A   1      31.484  24.015  25.860  1.00  0.00     0.169 C 
ATOM     13  C   UNL A   1      32.708  24.165  26.776  1.00  0.00     0.090 C 
ATOM     14  C   UNL A   1      30.393  25.065  26.135  1.00  0.00     0.090 C 
BRANCH  12  15
ATOM     15  N   UNL A   1      31.908  24.365  24.467  1.00  0.00    -0.334 N 
ATOM     16  H   UNL A   1      32.338  25.289  24.508  1.00  0.00     0.347 HD
ATOM     17  H   UNL A   1      32.514  23.592  24.194  1.00  0.00     0.347 HD
BRANCH  15  18
ATOM     18  C   UNL A   1      30.900  24.411  23.411  1.00  0.00     0.257 C 
ATOM     19  C   UNL A   1      31.283  25.506  22.416  1.00  0.00     0.071 C 
ENDBRANCH  15  18
ENDBRANCH  12  15
ENDBRANCH   9  12
ENDBRANCH   6   8
BRANCH   6  20
ATOM     20  C   UNL A   1      32.849  19.323  24.730  1.00  0.00     0.422 C 
ATOM     21  F   UNL A   1      34.152  18.960  24.788  1.00  0.00    -0.168 F 
ATOM     22  F   UNL A   1      32.213  18.651  25.713  1.00  0.00    -0.168 F 
ATOM     23  F   UNL A   1      32.345  18.818  23.579  1.00  0.00    -0.168 F 
ENDBRANCH   6  20
ENDBRANCH   4   6
ENDBRANCH   3   4
ENDBRANCH   2   3
ENDBRANCH   1   2
BRANCH   1  24
ATOM     24  O   UNL A   1      38.490  21.188  25.199  1.00  0.00    -0.374 OA
BRANCH  24  25
ATOM     25  C   UNL A   1      38.962  22.200  26.089  1.00  0.00     0.202 C 
BRANCH  25  26
ATOM     26  C   UNL A   1      40.086  21.857  27.078  1.00  0.00     0.261 C 
BRANCH  26  27
ATOM     27  O   UNL A   1      40.531  20.492  26.994  1.00  0.00    -0.460 OA
BRANCH  27  28
ATOM     28  C   UNL A   1      41.660  20.317  26.259  1.00  0.00     0.338 C 
ATOM     29  O   UNL A   1      41.892  19.418  25.469  1.00  0.00    -0.246 OA
BRANCH  28  30
ATOM     30  C   UNL A   1      42.539  21.494  26.381  1.00  0.00     0.060 A 
ATOM     31  C   UNL A   1      43.109  21.751  27.636  1.00  0.00     0.016 A 
ATOM     32  C   UNL A   1      42.709  22.392  25.326  1.00  0.00     0.016 A 
ATOM     33  C   UNL A   1      43.818  22.929  27.853  1.00  0.00     0.010 A 
ATOM     34  C   UNL A   1      43.411  23.584  25.551  1.00  0.00     0.010 A 
ATOM     35  C   UNL A   1      43.937  23.872  26.824  1.00  0.00    -0.014 A 
BRANCH  35  36
ATOM     36  C   UNL A   1      44.482  25.217  27.132  1.00  0.00     0.031 A 
ATOM     37  C   UNL A   1      43.597  26.223  27.818  1.00  0.00     0.074 A 
ATOM     38  C   UNL A   1      45.762  25.521  26.850  1.00  0.00     0.049 A 
ATOM     39  N   UNL A   1      43.861  27.455  28.167  1.00  0.00    -0.248 NA
ATOM     40  C   UNL A   1      42.236  25.777  28.163  1.00  0.00     0.031 C 
ATOM     41  C   UNL A   1      46.731  24.616  26.231  1.00  0.00     0.029 A 
ATOM     42  N   UNL A   1      46.465  26.683  27.048  1.00  0.00    -0.354 N 
ATOM     43  C   UNL A   1      42.706  27.931  28.778  1.00  0.00     0.074 A 
ATOM     44  C   UNL A   1      41.728  26.866  28.722  1.00  0.00     0.031 C 
ATOM     45  C   UNL A   1      47.900  25.264  26.086  1.00  0.00     0.029 A 
ATOM     46  C   UNL A   1      47.755  26.634  26.574  1.00  0.00     0.049 A 
ATOM     47  H   UNL A   1      46.082  27.477  27.486  1.00  0.00     0.167 HD
ATOM     48  C   UNL A   1      42.482  29.141  29.343  1.00  0.00     0.031 A 
ATOM     49  C   UNL A   1      48.702  27.591  26.521  1.00  0.00     0.031 A 
ATOM     50  C   UNL A   1      43.447  30.208  29.375  1.00  0.00     0.049 A 
ATOM     51  C   UNL A   1      48.401  28.957  27.082  1.00  0.00     0.074 A 
ATOM     52  C   UNL A   1      43.307  31.480  29.902  1.00  0.00     0.029 A 
ATOM     53  N   UNL A   1      44.730  30.128  28.858  1.00  0.00    -0.354 N 
ATOM     54  N   UNL A   1      47.304  29.389  27.657  1.00  0.00    -0.248 NA
ATOM     55  C   UNL A   1      49.470  29.962  26.994  1.00  0.00     0.031 C 
ATOM     56  C   UNL A   1      44.493  32.183  29.666  1.00  0.00     0.029 A 
ATOM     57  C   UNL A   1      45.389  31.331  29.041  1.00  0.00     0.049 A 
ATOM     58  H   UNL A   1      45.115  29.333  28.424  1.00  0.00     0.167 HD
ATOM     59  C   UNL A   1      47.561  30.707  28.022  1.00  0.00     0.074 A 
ATOM     60  C   UNL A   1      48.921  30.996  27.617  1.00  0.00     0.031 C 
ATOM     61  C   UNL A   1      46.745  31.600  28.635  1.00  0.00     0.031 A 
BRANCH  48  62
ATOM     62  C   UNL A   1      41.131  29.379  29.960  1.00  0.00    -0.014 A 
ATOM     63  C   UNL A   1      40.096  29.981  29.220  1.00  0.00     0.010 A 
ATOM     64  C   UNL A   1      40.875  28.957  31.277  1.00  0.00     0.010 A 
ATOM     65  C   UNL A   1      38.839  30.182  29.796  1.00  0.00     0.020 A 
ATOM     66  C   UNL A   1      39.611  29.136  31.848  1.00  0.00     0.020 A 
ATOM     67  C   UNL A   1      38.606  29.759  31.107  1.00  0.00     0.054 A 
BRANCH  67  68
ATOM     68  S   UNL A   1      36.954  30.004  31.820  1.00  0.00     0.124 S 
ATOM     69  O   UNL A   1      37.077  29.322  33.106  1.00  0.00    -0.237 OA
ATOM     70  O   UNL A   1      36.848  31.460  31.888  1.00  0.00    -0.237 OA
ATOM     71  O   UNL A   1      36.063  29.362  30.857  1.00  0.00    -0.744 OA
ENDBRANCH  67  68
ENDBRANCH  48  62
BRANCH  49  72
ATOM     72  C   UNL A   1      50.015  27.308  25.877  1.00  0.00    -0.014 A 
ATOM     73  C   UNL A   1      50.193  27.470  24.493  1.00  0.00     0.010 A 
ATOM     74  C   UNL A   1      51.092  26.848  26.656  1.00  0.00     0.010 A 
ATOM     75  C   UNL A   1      51.416  27.148  23.894  1.00  0.00     0.020 A 
ATOM     76  C   UNL A   1      52.324  26.552  26.066  1.00  0.00     0.020 A 
ATOM     77  C   UNL A   1      52.472  26.688  24.685  1.00  0.00     0.054 A 
BRANCH  77  78
ATOM     78  S   UNL A   1      54.061  26.302  23.897  1.00  0.00     0.124 S 
ATOM     79  O   UNL A   1      54.408  25.031  24.523  1.00  0.00    -0.237 OA
ATOM     80  O   UNL A   1      53.705  26.236  22.482  1.00  0.00    -0.237 OA
ATOM     81  O   UNL A   1      54.906  27.436  24.265  1.00  0.00    -0.744 OA
ENDBRANCH  77  78
ENDBRANCH  49  72
BRANCH  61  82
ATOM     82  C   UNL A   1      47.310  32.960  28.943  1.00  0.00    -0.014 A 
ATOM     83  C   UNL A   1      47.972  33.216  30.158  1.00  0.00     0.010 A 
ATOM     84  C   UNL A   1      47.224  33.982  27.979  1.00  0.00     0.010 A 
ATOM     85  C   UNL A   1      48.511  34.479  30.414  1.00  0.00     0.020 A 
ATOM     86  C   UNL A   1      47.785  35.237  28.222  1.00  0.00     0.020 A 
ATOM     87  C   UNL A   1      48.413  35.483  29.445  1.00  0.00     0.054 A 
BRANCH  87  88
ATOM     88  S   UNL A   1      49.158  37.101  29.783  1.00  0.00     0.124 S 
ATOM     89  O   UNL A   1      49.058  37.184  31.238  1.00  0.00    -0.237 OA
ATOM     90  O   UNL A   1      50.512  36.950  29.254  1.00  0.00    -0.237 OA
ATOM     91  O   UNL A   1      48.309  38.035  29.045  1.00  0.00    -0.744 OA
ENDBRANCH  87  88
ENDBRANCH  61  82
ENDBRANCH  35  36
ENDBRANCH  28  30
ENDBRANCH  27  28
ENDBRANCH  26  27
ENDBRANCH  25  26
ENDBRANCH  24  25
ENDBRANCH   1  24
TORSDOF 22
ENDMDL
MODEL 3
REMARK VINA RESULT:      -8.6      3.168      4.464
REMARK SMILES CC[NH2+]C(C)(C)C(=O)N[C@@](C)(C(=O)OCCOCCOC(=O)c1ccc(-c2c3nc(c(-c4ccc(S(=O)(=O)[O-])cc4)c4ccc([nH]4)c(-c4ccc(S(=O)(=O)[O-])cc4)c4nc(c(-c5ccc(S(=O)(=O)[O-])cc5)c5ccc2[nH]5)C=C4)C=C3)cc1)C(F)(F)F
REMARK SMILES IDX 16 1 15 2 14 3 12 4 13 5 10 6 11 7 9 8 7 9 8 10 4 12 5 13
REMARK SMILES IDX 6 14 3 15 2 18 1 19 83 20 84 21 85 22 86 23 17 24 18 25
REMARK SMILES IDX 19 26 20 27 21 28 22 29 23 30 24 31 82 32 25 33 81 34 26 35
REMARK SMILES IDX 27 36 28 37 75 38 29 39 80 40 74 41 76 42 30 43 79 44 73 45
REMARK SMILES IDX 72 46 31 48 61 49 42 50 60 51 43 52 46 53 59 54 77 55 44 56
REMARK SMILES IDX 45 57 58 59 78 60 47 61 32 62 33 63 41 64 34 65 40 66 35 67
REMARK SMILES IDX 36 68 37 69 38 70 39 71 62 72 63 73 71 74 64 75 70 76 65 77
REMARK SMILES IDX 66 78 67 79 68 80 69 81 48 82 49 83 57 84 50 85 56 86 51 87
REMARK SMILES IDX 52 88 53 89 54 90 55 91
REMARK H PARENT 9 11 3 16 3 17 76 47 46 58
REMARK Flexibility Score: inf
ROOT
ATOM      1  C   UNL A   1      33.915  23.101  26.502  1.00  0.00     0.202 C 
ENDROOT
BRANCH   1   2
ATOM      2  C   UNL A   1      32.927  22.898  25.344  1.00  0.00     0.261 C 
BRANCH   2   3
ATOM      3  O   UNL A   1      33.160  23.795  24.247  1.00  0.00    -0.461 OA
BRANCH   3   4
ATOM      4  C   UNL A   1      32.040  24.226  23.596  1.00  0.00     0.341 C 
ATOM      5  O   UNL A   1      31.091  23.499  23.328  1.00  0.00    -0.249 OA
BRANCH   4   6
ATOM      6  C   UNL A   1      32.108  25.726  23.229  1.00  0.00     0.231 C 
ATOM      7  C   UNL A   1      33.111  26.355  24.205  1.00  0.00     0.058 C 
BRANCH   6   8
ATOM      8  N   UNL A   1      30.748  26.374  23.486  1.00  0.00    -0.328 N 
ATOM      9  C   UNL A   1      30.152  27.551  23.829  1.00  0.00     0.281 C 
ATOM     10  O   UNL A   1      28.968  27.408  24.162  1.00  0.00    -0.268 OA
ATOM     11  H   UNL A   1      30.048  25.693  23.360  1.00  0.00     0.165 HD
BRANCH   9  12
ATOM     12  C   UNL A   1      30.804  28.968  23.718  1.00  0.00     0.169 C 
ATOM     13  C   UNL A   1      31.533  29.092  22.371  1.00  0.00     0.090 C 
ATOM     14  C   UNL A   1      31.724  29.216  24.926  1.00  0.00     0.090 C 
BRANCH  12  15
ATOM     15  N   UNL A   1      29.839  30.108  23.823  1.00  0.00    -0.334 N 
ATOM     16  H   UNL A   1      29.393  30.040  24.738  1.00  0.00     0.347 HD
ATOM     17  H   UNL A   1      30.414  30.933  23.657  1.00  0.00     0.347 HD
BRANCH  15  18
ATOM     18  C   UNL A   1      28.769  30.222  22.835  1.00  0.00     0.257 C 
ATOM     19  C   UNL A   1      27.679  31.136  23.396  1.00  0.00     0.071 C 
ENDBRANCH  15  18
ENDBRANCH  12  15
ENDBRANCH   9  12
ENDBRANCH   6   8
BRANCH   6  20
ATOM     20  C   UNL A   1      32.691  25.649  21.804  1.00  0.00     0.422 C 
ATOM     21  F   UNL A   1      31.772  25.957  20.860  1.00  0.00    -0.168 F 
ATOM     22  F   UNL A   1      33.730  26.494  21.627  1.00  0.00    -0.168 F 
ATOM     23  F   UNL A   1      33.181  24.424  21.500  1.00  0.00    -0.168 F 
ENDBRANCH   6  20
ENDBRANCH   4   6
ENDBRANCH   3   4
ENDBRANCH   2   3
ENDBRANCH   1   2
BRANCH   1  24
ATOM     24  O   UNL A   1      35.221  22.548  26.371  1.00  0.00    -0.374 OA
BRANCH  24  25
ATOM     25  C   UNL A   1      36.216  23.320  25.700  1.00  0.00     0.202 C 
BRANCH  25  26
ATOM     26  C   UNL A   1      37.559  22.661  25.350  1.00  0.00     0.261 C 
BRANCH  26  27
ATOM     27  O   UNL A   1      38.287  22.190  26.498  1.00  0.00    -0.460 OA
BRANCH  27  28
ATOM     28  C   UNL A   1      39.604  22.521  26.498  1.00  0.00     0.338 C 
ATOM     29  O   UNL A   1      40.526  21.877  26.028  1.00  0.00    -0.246 OA
BRANCH  28  30
ATOM     30  C   UNL A   1      39.785  23.902  26.983  1.00  0.00     0.060 A 
ATOM     31  C   UNL A   1      40.071  24.890  26.031  1.00  0.00     0.016 A 
ATOM     32  C   UNL A   1      39.792  24.203  28.345  1.00  0.00     0.016 A 
ATOM     33  C   UNL A   1      40.405  26.178  26.442  1.00  0.00     0.010 A 
ATOM     34  C   UNL A   1      40.143  25.496  28.756  1.00  0.00     0.010 A 
ATOM     35  C   UNL A   1      40.485  26.477  27.808  1.00  0.00    -0.014 A 
BRANCH  35  36
ATOM     36  C   UNL A   1      41.071  27.772  28.234  1.00  0.00     0.031 A 
ATOM     37  C   UNL A   1      42.559  27.968  28.131  1.00  0.00     0.074 A 
ATOM     38  C   UNL A   1      40.282  28.776  28.660  1.00  0.00     0.049 A 
ATOM     39  N   UNL A   1      43.281  29.008  28.459  1.00  0.00    -0.248 NA
ATOM     40  C   UNL A   1      43.336  26.845  27.579  1.00  0.00     0.031 C 
ATOM     41  C   UNL A   1      38.823  28.724  28.757  1.00  0.00     0.029 A 
ATOM     42  N   UNL A   1      40.604  30.038  29.091  1.00  0.00    -0.354 N 
ATOM     43  C   UNL A   1      44.594  28.671  28.148  1.00  0.00     0.074 A 
ATOM     44  C   UNL A   1      44.573  27.318  27.636  1.00  0.00     0.031 C 
ATOM     45  C   UNL A   1      38.376  29.899  29.235  1.00  0.00     0.029 A 
ATOM     46  C   UNL A   1      39.517  30.773  29.503  1.00  0.00     0.049 A 
ATOM     47  H   UNL A   1      41.525  30.385  29.106  1.00  0.00     0.167 HD
ATOM     48  C   UNL A   1      45.714  29.422  28.267  1.00  0.00     0.031 A 
ATOM     49  C   UNL A   1      39.452  32.002  30.054  1.00  0.00     0.031 A 
ATOM     50  C   UNL A   1      45.737  30.758  28.800  1.00  0.00     0.049 A 
ATOM     51  C   UNL A   1      40.723  32.787  30.255  1.00  0.00     0.074 A 
ATOM     52  C   UNL A   1      46.825  31.593  28.986  1.00  0.00     0.029 A 
ATOM     53  N   UNL A   1      44.620  31.454  29.235  1.00  0.00    -0.354 N 
ATOM     54  N   UNL A   1      41.955  32.453  29.952  1.00  0.00    -0.248 NA
ATOM     55  C   UNL A   1      40.592  34.119  30.862  1.00  0.00     0.031 C 
ATOM     56  C   UNL A   1      46.370  32.779  29.571  1.00  0.00     0.029 A 
ATOM     57  C   UNL A   1      44.993  32.703  29.699  1.00  0.00     0.049 A 
ATOM     58  H   UNL A   1      43.698  31.111  29.214  1.00  0.00     0.167 HD
ATOM     59  C   UNL A   1      42.742  33.543  30.310  1.00  0.00     0.074 A 
ATOM     60  C   UNL A   1      41.845  34.552  30.835  1.00  0.00     0.031 C 
ATOM     61  C   UNL A   1      44.086  33.697  30.214  1.00  0.00     0.031 A 
BRANCH  48  62
ATOM     62  C   UNL A   1      47.013  28.805  27.826  1.00  0.00    -0.014 A 
ATOM     63  C   UNL A   1      47.824  28.102  28.736  1.00  0.00     0.010 A 
ATOM     64  C   UNL A   1      47.409  28.887  26.479  1.00  0.00     0.010 A 
ATOM     65  C   UNL A   1      49.020  27.518  28.313  1.00  0.00     0.020 A 
ATOM     66  C   UNL A   1      48.594  28.284  26.047  1.00  0.00     0.020 A 
ATOM     67  C   UNL A   1      49.398  27.614  26.971  1.00  0.00     0.054 A 
BRANCH  67  68
ATOM     68  S   UNL A   1      50.942  26.818  26.442  1.00  0.00     0.124 S 
ATOM     69  O   UNL A   1      51.583  26.527  27.722  1.00  0.00    -0.237 OA
ATOM     70  O   UNL A   1      50.463  25.655  25.700  1.00  0.00    -0.237 OA
ATOM     71  O   UNL A   1      51.600  27.842  25.634  1.00  0.00    -0.744 OA
ENDBRANCH  67  68
ENDBRANCH  48  62
BRANCH  49  72
ATOM     72  C   UNL A   1      38.142  32.554  30.495  1.00  0.00    -0.014 A 
ATOM     73  C   UNL A   1      37.334  33.296  29.616  1.00  0.00     0.010 A 
ATOM     74  C   UNL A   1      37.709  32.357  31.819  1.00  0.00     0.010 A 
ATOM     75  C   UNL A   1      36.132  33.855  30.060  1.00  0.00     0.020 A 
ATOM     76  C   UNL A   1      36.495  32.890  32.260  1.00  0.00     0.020 A 
ATOM     77  C   UNL A   1      35.721  33.651  31.381  1.00  0.00     0.054 A 
BRANCH  77  78
ATOM     78  S   UNL A   1      34.144  34.359  31.934  1.00  0.00     0.124 S 
ATOM     79  O   UNL A   1      33.451  34.574  30.668  1.00  0.00    -0.237 OA
ATOM     80  O   UNL A   1      33.602  33.301  32.781  1.00  0.00    -0.237 OA
ATOM     81  O   UNL A   1      34.547  35.570  32.645  1.00  0.00    -0.744 OA
ENDBRANCH  77  78
ENDBRANCH  49  72
BRANCH  61  82
ATOM     82  C   UNL A   1      44.667  35.015  30.649  1.00  0.00    -0.014 A 
ATOM     83  C   UNL A   1      44.750  36.102  29.761  1.00  0.00     0.010 A 
ATOM     84  C   UNL A   1      45.086  35.184  31.982  1.00  0.00     0.010 A 
ATOM     85  C   UNL A   1      45.270  37.326  30.191  1.00  0.00     0.020 A 
ATOM     86  C   UNL A   1      45.582  36.412  32.422  1.00  0.00     0.020 A 
ATOM     87  C   UNL A   1      45.685  37.473  31.519  1.00  0.00     0.054 A 
BRANCH  87  88
ATOM     88  S   UNL A   1      46.317  39.082  32.065  1.00  0.00     0.124 S 
ATOM     89  O   UNL A   1      45.327  39.476  33.064  1.00  0.00    -0.237 OA
ATOM     90  O   UNL A   1      47.640  38.747  32.590  1.00  0.00    -0.237 OA
ATOM     91  O   UNL A   1      46.324  39.885  30.844  1.00  0.00    -0.744 OA
ENDBRANCH  87  88
ENDBRANCH  61  82
ENDBRANCH  35  36
ENDBRANCH  28  30
ENDBRANCH  27  28
ENDBRANCH  26  27
ENDBRANCH  25  26
ENDBRANCH  24  25
ENDBRANCH   1  24
TORSDOF 22
ENDMDL
