MODEL 1
REMARK VINA RESULT:     -11.0      0.000      0.000
REMARK SMILES CC(C)[C@H](NC(=O)[C@H](Cc1ccccc1)n1c(=O)[nH]c2ccccc2c1=O)C(=O)OCCOCCOC(=O)c1ccc(-c2c3nc(c(-c4ccc(S(=O)(=O)[O-])cc4)c4ccc([nH]4)c(-c4ccc(S(=O)(=O)[O-])cc4)c4nc(c(-c5ccc(S(=O)(=O)[O-])cc5)c5ccc2[nH]5)C=C4)C=C3)cc1
REMARK SMILES IDX 32 1 31 2 30 3 28 4 29 5 4 6 2 7 1 8 3 9 5 10 6 11 7 13 8 14
REMARK SMILES IDX 16 15 17 16 26 17 18 18 19 19 25 20 27 21 20 22 24 24 21 25
REMARK SMILES IDX 23 26 22 27 9 28 10 29 11 30 15 31 12 32 14 33 13 34 33 35
REMARK SMILES IDX 34 36 35 37 36 38 37 39 38 40 39 41 40 42 98 43 41 44 97 45
REMARK SMILES IDX 42 46 43 47 44 48 91 49 45 50 96 51 90 52 92 53 46 54 95 55
REMARK SMILES IDX 89 56 88 57 47 59 77 60 58 61 76 62 59 63 62 64 75 65 93 66
REMARK SMILES IDX 60 67 61 68 74 70 94 71 63 72 48 73 49 74 57 75 50 76 56 77
REMARK SMILES IDX 51 78 52 79 53 80 54 81 55 82 78 83 79 84 87 85 80 86 86 87
REMARK SMILES IDX 81 88 82 89 83 90 84 91 85 92 64 93 65 94 73 95 66 96 72 97
REMARK SMILES IDX 67 98 68 99 69 100 70 101 71 102
REMARK H PARENT 5 12 19 23 92 58 62 69
REMARK Flexibility Score: inf
ROOT
ATOM      1  C   UNL A   1      37.359  20.700  24.862  1.00  0.00     0.202 C 
ENDROOT
BRANCH   1   2
ATOM      2  C   UNL A   1      37.081  21.867  23.909  1.00  0.00     0.261 C 
BRANCH   2   3
ATOM      3  O   UNL A   1      35.817  22.508  24.146  1.00  0.00    -0.462 OA
BRANCH   3   4
ATOM      4  C   UNL A   1      35.873  23.556  25.014  1.00  0.00     0.328 C 
ATOM      5  O   UNL A   1      36.909  24.074  25.419  1.00  0.00    -0.250 OA
BRANCH   4   6
ATOM      6  C   UNL A   1      34.484  24.012  25.497  1.00  0.00     0.194 C 
BRANCH   6   7
ATOM      7  C   UNL A   1      34.349  25.551  25.467  1.00  0.00     0.017 C 
ATOM      8  C   UNL A   1      34.168  26.105  24.053  1.00  0.00     0.010 C 
ATOM      9  C   UNL A   1      33.210  26.013  26.383  1.00  0.00     0.010 C 
ENDBRANCH   6   7
BRANCH   6  10
ATOM     10  N   UNL A   1      34.004  23.473  26.780  1.00  0.00    -0.341 N 
ATOM     11  C   UNL A   1      32.915  22.659  27.007  1.00  0.00     0.244 C 
ATOM     12  H   UNL A   1      34.526  23.725  27.575  1.00  0.00     0.164 HD
ATOM     13  O   UNL A   1      32.733  22.266  28.160  1.00  0.00    -0.273 OA
BRANCH  11  14
ATOM     14  C   UNL A   1      32.007  22.217  25.826  1.00  0.00     0.189 C 
BRANCH  14  15
ATOM     15  N   UNL A   1      31.142  23.318  25.343  1.00  0.00    -0.247 N 
ATOM     16  C   UNL A   1      30.227  23.911  26.200  1.00  0.00     0.329 A 
ATOM     17  C   UNL A   1      31.368  23.777  24.047  1.00  0.00     0.264 A 
ATOM     18  O   UNL A   1      29.884  23.464  27.291  1.00  0.00    -0.248 OA
ATOM     19  N   UNL A   1      29.714  25.120  25.807  1.00  0.00    -0.307 N 
ATOM     20  C   UNL A   1      30.808  25.080  23.677  1.00  0.00     0.064 A 
ATOM     21  O   UNL A   1      32.083  23.214  23.223  1.00  0.00    -0.268 OA
ATOM     22  C   UNL A   1      30.031  25.749  24.608  1.00  0.00     0.055 A 
ATOM     23  H   UNL A   1      29.081  25.570  26.411  1.00  0.00     0.171 HD
ATOM     24  C   UNL A   1      31.135  25.675  22.454  1.00  0.00     0.016 A 
ATOM     25  C   UNL A   1      29.593  27.045  24.342  1.00  0.00     0.027 A 
ATOM     26  C   UNL A   1      30.702  26.971  22.184  1.00  0.00     0.001 A 
ATOM     27  C   UNL A   1      29.943  27.658  23.133  1.00  0.00     0.002 A 
ENDBRANCH  14  15
BRANCH  14  28
ATOM     28  C   UNL A   1      32.819  21.511  24.705  1.00  0.00     0.071 C 
BRANCH  28  29
ATOM     29  C   UNL A   1      32.684  19.995  24.598  1.00  0.00    -0.045 A 
ATOM     30  C   UNL A   1      32.435  19.316  23.394  1.00  0.00     0.004 A 
ATOM     31  C   UNL A   1      32.804  19.225  25.766  1.00  0.00     0.004 A 
ATOM     32  C   UNL A   1      32.406  17.920  23.341  1.00  0.00     0.000 A 
ATOM     33  C   UNL A   1      32.737  17.827  25.720  1.00  0.00     0.000 A 
ATOM     34  C   UNL A   1      32.559  17.174  24.504  1.00  0.00     0.000 A 
ENDBRANCH  28  29
ENDBRANCH  14  28
ENDBRANCH  11  14
ENDBRANCH   6  10
ENDBRANCH   4   6
ENDBRANCH   3   4
ENDBRANCH   2   3
ENDBRANCH   1   2
BRANCH   1  35
ATOM     35  O   UNL A   1      38.627  20.662  25.508  1.00  0.00    -0.374 OA
BRANCH  35  36
ATOM     36  C   UNL A   1      39.264  19.395  25.678  1.00  0.00     0.202 C 
BRANCH  36  37
ATOM     37  C   UNL A   1      40.684  19.364  26.260  1.00  0.00     0.261 C 
BRANCH  37  38
ATOM     38  O   UNL A   1      41.716  19.453  25.256  1.00  0.00    -0.460 OA
BRANCH  38  39
ATOM     39  C   UNL A   1      42.908  19.891  25.722  1.00  0.00     0.338 C 
ATOM     40  O   UNL A   1      43.998  19.338  25.591  1.00  0.00    -0.246 OA
BRANCH  39  41
ATOM     41  C   UNL A   1      42.805  21.250  26.277  1.00  0.00     0.060 A 
ATOM     42  C   UNL A   1      42.691  22.310  25.369  1.00  0.00     0.016 A 
ATOM     43  C   UNL A   1      42.993  21.497  27.638  1.00  0.00     0.016 A 
ATOM     44  C   UNL A   1      42.851  23.623  25.806  1.00  0.00     0.010 A 
ATOM     45  C   UNL A   1      43.160  22.818  28.075  1.00  0.00     0.010 A 
ATOM     46  C   UNL A   1      43.147  23.880  27.151  1.00  0.00    -0.014 A 
BRANCH  46  47
ATOM     47  C   UNL A   1      43.651  25.227  27.520  1.00  0.00     0.031 A 
ATOM     48  C   UNL A   1      45.104  25.549  27.277  1.00  0.00     0.074 A 
ATOM     49  C   UNL A   1      42.817  26.178  27.979  1.00  0.00     0.049 A 
ATOM     50  N   UNL A   1      45.744  26.677  27.454  1.00  0.00    -0.248 NA
ATOM     51  C   UNL A   1      45.946  24.456  26.763  1.00  0.00     0.031 C 
ATOM     52  C   UNL A   1      41.385  26.005  28.215  1.00  0.00     0.029 A 
ATOM     53  N   UNL A   1      43.060  27.485  28.316  1.00  0.00    -0.354 N 
ATOM     54  C   UNL A   1      47.059  26.429  27.075  1.00  0.00     0.074 A 
ATOM     55  C   UNL A   1      47.134  25.038  26.691  1.00  0.00     0.031 C 
ATOM     56  C   UNL A   1      40.874  27.168  28.655  1.00  0.00     0.029 A 
ATOM     57  C   UNL A   1      41.944  28.160  28.749  1.00  0.00     0.049 A 
ATOM     58  H   UNL A   1      43.950  27.902  28.254  1.00  0.00     0.167 HD
ATOM     59  C   UNL A   1      48.110  27.284  27.038  1.00  0.00     0.031 A 
ATOM     60  C   UNL A   1      41.801  29.432  29.171  1.00  0.00     0.031 A 
ATOM     61  C   UNL A   1      48.041  28.666  27.429  1.00  0.00     0.049 A 
ATOM     62  C   UNL A   1      42.993  30.353  29.163  1.00  0.00     0.074 A 
ATOM     63  C   UNL A   1      49.051  29.614  27.430  1.00  0.00     0.029 A 
ATOM     64  N   UNL A   1      46.898  29.301  27.889  1.00  0.00    -0.354 N 
ATOM     65  N   UNL A   1      44.225  30.105  28.786  1.00  0.00    -0.248 NA
ATOM     66  C   UNL A   1      42.767  31.732  29.616  1.00  0.00     0.031 C 
ATOM     67  C   UNL A   1      48.527  30.811  27.928  1.00  0.00     0.029 A 
ATOM     68  C   UNL A   1      47.178  30.624  28.187  1.00  0.00     0.049 A 
ATOM     69  H   UNL A   1      46.016  28.874  27.988  1.00  0.00     0.167 HD
ATOM     70  C   UNL A   1      44.913  31.307  28.925  1.00  0.00     0.074 A 
ATOM     71  C   UNL A   1      43.957  32.281  29.411  1.00  0.00     0.031 C 
ATOM     72  C   UNL A   1      46.215  31.582  28.667  1.00  0.00     0.031 A 
BRANCH  59  73
ATOM     73  C   UNL A   1      49.435  26.731  26.585  1.00  0.00    -0.014 A 
ATOM     74  C   UNL A   1      49.884  26.908  25.265  1.00  0.00     0.010 A 
ATOM     75  C   UNL A   1      50.254  26.046  27.501  1.00  0.00     0.010 A 
ATOM     76  C   UNL A   1      51.111  26.377  24.857  1.00  0.00     0.020 A 
ATOM     77  C   UNL A   1      51.492  25.534  27.104  1.00  0.00     0.020 A 
ATOM     78  C   UNL A   1      51.904  25.688  25.778  1.00  0.00     0.054 A 
BRANCH  78  79
ATOM     79  S   UNL A   1      53.500  25.021  25.230  1.00  0.00     0.124 S 
ATOM     80  O   UNL A   1      54.391  25.448  26.306  1.00  0.00    -0.237 OA
ATOM     81  O   UNL A   1      53.244  23.585  25.161  1.00  0.00    -0.237 OA
ATOM     82  O   UNL A   1      53.724  25.671  23.941  1.00  0.00    -0.744 OA
ENDBRANCH  78  79
ENDBRANCH  59  73
BRANCH  60  83
ATOM     83  C   UNL A   1      40.472  29.914  29.637  1.00  0.00    -0.014 A 
ATOM     84  C   UNL A   1      39.420  30.118  28.727  1.00  0.00     0.010 A 
ATOM     85  C   UNL A   1      40.257  30.177  31.001  1.00  0.00     0.010 A 
ATOM     86  C   UNL A   1      38.183  30.595  29.171  1.00  0.00     0.020 A 
ATOM     87  C   UNL A   1      39.015  30.630  31.452  1.00  0.00     0.020 A 
ATOM     88  C   UNL A   1      37.988  30.847  30.532  1.00  0.00     0.054 A 
BRANCH  88  89
ATOM     89  S   UNL A   1      36.360  31.418  31.096  1.00  0.00     0.124 S 
ATOM     90  O   UNL A   1      35.598  31.439  29.851  1.00  0.00    -0.237 OA
ATOM     91  O   UNL A   1      35.977  30.387  32.056  1.00  0.00    -0.237 OA
ATOM     92  O   UNL A   1      36.643  32.727  31.679  1.00  0.00    -0.744 OA
ENDBRANCH  88  89
ENDBRANCH  60  83
BRANCH  72  93
ATOM     93  C   UNL A   1      46.673  33.005  28.854  1.00  0.00    -0.014 A 
ATOM     94  C   UNL A   1      47.207  33.449  30.077  1.00  0.00     0.010 A 
ATOM     95  C   UNL A   1      46.594  33.902  27.773  1.00  0.00     0.010 A 
ATOM     96  C   UNL A   1      47.610  34.779  30.228  1.00  0.00     0.020 A 
ATOM     97  C   UNL A   1      47.019  35.225  27.914  1.00  0.00     0.020 A 
ATOM     98  C   UNL A   1      47.506  35.661  29.148  1.00  0.00     0.054 A 
BRANCH  98  99
ATOM     99  S   UNL A   1      48.047  37.380  29.362  1.00  0.00     0.124 S 
ATOM    100  O   UNL A   1      48.230  37.462  30.807  1.00  0.00    -0.237 OA
ATOM    101  O   UNL A   1      49.273  37.434  28.569  1.00  0.00    -0.237 OA
ATOM    102  O   UNL A   1      46.934  38.161  28.827  1.00  0.00    -0.744 OA
ENDBRANCH  98  99
ENDBRANCH  72  93
ENDBRANCH  46  47
ENDBRANCH  39  41
ENDBRANCH  38  39
ENDBRANCH  37  38
ENDBRANCH  36  37
ENDBRANCH  35  36
ENDBRANCH   1  35
TORSDOF 23
ENDMDL
MODEL 2
REMARK VINA RESULT:     -10.8      0.593      7.704
REMARK SMILES CC(C)[C@H](NC(=O)[C@H](Cc1ccccc1)n1c(=O)[nH]c2ccccc2c1=O)C(=O)OCCOCCOC(=O)c1ccc(-c2c3nc(c(-c4ccc(S(=O)(=O)[O-])cc4)c4ccc([nH]4)c(-c4ccc(S(=O)(=O)[O-])cc4)c4nc(c(-c5ccc(S(=O)(=O)[O-])cc5)c5ccc2[nH]5)C=C4)C=C3)cc1
REMARK SMILES IDX 32 1 31 2 30 3 28 4 29 5 4 6 2 7 1 8 3 9 5 10 6 11 7 13 8 14
REMARK SMILES IDX 16 15 17 16 26 17 18 18 19 19 25 20 27 21 20 22 24 24 21 25
REMARK SMILES IDX 23 26 22 27 9 28 10 29 11 30 15 31 12 32 14 33 13 34 33 35
REMARK SMILES IDX 34 36 35 37 36 38 37 39 38 40 39 41 40 42 98 43 41 44 97 45
REMARK SMILES IDX 42 46 43 47 44 48 91 49 45 50 96 51 90 52 92 53 46 54 95 55
REMARK SMILES IDX 89 56 88 57 47 59 77 60 58 61 76 62 59 63 62 64 75 65 93 66
REMARK SMILES IDX 60 67 61 68 74 70 94 71 63 72 48 73 49 74 57 75 50 76 56 77
REMARK SMILES IDX 51 78 52 79 53 80 54 81 55 82 78 83 79 84 87 85 80 86 86 87
REMARK SMILES IDX 81 88 82 89 83 90 84 91 85 92 64 93 65 94 73 95 66 96 72 97
REMARK SMILES IDX 67 98 68 99 69 100 70 101 71 102
REMARK H PARENT 5 12 19 23 92 58 62 69
REMARK Flexibility Score: inf
ROOT
ATOM      1  C   UNL A   1      37.145  21.310  24.344  1.00  0.00     0.202 C 
ENDROOT
BRANCH   1   2
ATOM      2  C   UNL A   1      36.955  22.665  23.655  1.00  0.00     0.261 C 
BRANCH   2   3
ATOM      3  O   UNL A   1      35.699  23.290  23.964  1.00  0.00    -0.462 OA
BRANCH   3   4
ATOM      4  C   UNL A   1      35.686  23.969  25.145  1.00  0.00     0.328 C 
ATOM      5  O   UNL A   1      36.678  24.204  25.827  1.00  0.00    -0.250 OA
BRANCH   4   6
ATOM      6  C   UNL A   1      34.269  24.382  25.586  1.00  0.00     0.194 C 
BRANCH   6   7
ATOM      7  C   UNL A   1      34.116  25.919  25.641  1.00  0.00     0.017 C 
ATOM      8  C   UNL A   1      33.989  26.553  24.255  1.00  0.00     0.010 C 
ATOM      9  C   UNL A   1      32.932  26.314  26.531  1.00  0.00     0.010 C 
ENDBRANCH   6   7
BRANCH   6  10
ATOM     10  N   UNL A   1      33.736  23.762  26.811  1.00  0.00    -0.341 N 
ATOM     11  C   UNL A   1      32.655  22.917  26.935  1.00  0.00     0.244 C 
ATOM     12  H   UNL A   1      34.211  23.980  27.645  1.00  0.00     0.164 HD
ATOM     13  O   UNL A   1      32.423  22.456  28.054  1.00  0.00    -0.273 OA
BRANCH  11  14
ATOM     14  C   UNL A   1      31.819  22.524  25.685  1.00  0.00     0.189 C 
BRANCH  14  15
ATOM     15  N   UNL A   1      30.984  23.645  25.196  1.00  0.00    -0.247 N 
ATOM     16  C   UNL A   1      30.061  24.245  26.040  1.00  0.00     0.329 A 
ATOM     17  C   UNL A   1      31.246  24.114  23.910  1.00  0.00     0.264 A 
ATOM     18  O   UNL A   1      29.686  23.793  27.117  1.00  0.00    -0.248 OA
ATOM     19  N   UNL A   1      29.578  25.467  25.649  1.00  0.00    -0.307 N 
ATOM     20  C   UNL A   1      30.717  25.431  23.543  1.00  0.00     0.064 A 
ATOM     21  O   UNL A   1      31.970  23.547  23.096  1.00  0.00    -0.268 OA
ATOM     22  C   UNL A   1      29.932  26.103  24.464  1.00  0.00     0.055 A 
ATOM     23  H   UNL A   1      28.940  25.922  26.244  1.00  0.00     0.171 HD
ATOM     24  C   UNL A   1      31.082  26.033  22.334  1.00  0.00     0.016 A 
ATOM     25  C   UNL A   1      29.523  27.410  24.203  1.00  0.00     0.027 A 
ATOM     26  C   UNL A   1      30.677  27.340  22.070  1.00  0.00     0.001 A 
ATOM     27  C   UNL A   1      29.910  28.030  23.009  1.00  0.00     0.002 A 
ENDBRANCH  14  15
BRANCH  14  28
ATOM     28  C   UNL A   1      32.697  21.862  24.588  1.00  0.00     0.071 C 
BRANCH  28  29
ATOM     29  C   UNL A   1      32.632  20.341  24.469  1.00  0.00    -0.045 A 
ATOM     30  C   UNL A   1      32.293  19.665  23.286  1.00  0.00     0.004 A 
ATOM     31  C   UNL A   1      32.916  19.565  25.604  1.00  0.00     0.004 A 
ATOM     32  C   UNL A   1      32.333  18.270  23.211  1.00  0.00     0.000 A 
ATOM     33  C   UNL A   1      32.919  18.167  25.540  1.00  0.00     0.000 A 
ATOM     34  C   UNL A   1      32.649  17.520  24.339  1.00  0.00     0.000 A 
ENDBRANCH  28  29
ENDBRANCH  14  28
ENDBRANCH  11  14
ENDBRANCH   6  10
ENDBRANCH   4   6
ENDBRANCH   3   4
ENDBRANCH   2   3
ENDBRANCH   1   2
BRANCH   1  35
ATOM     35  O   UNL A   1      38.345  21.106  25.081  1.00  0.00    -0.374 OA
BRANCH  35  36
ATOM     36  C   UNL A   1      38.782  19.765  25.310  1.00  0.00     0.202 C 
BRANCH  36  37
ATOM     37  C   UNL A   1      40.033  19.541  26.169  1.00  0.00     0.261 C 
BRANCH  37  38
ATOM     38  O   UNL A   1      41.234  19.346  25.394  1.00  0.00    -0.460 OA
BRANCH  38  39
ATOM     39  C   UNL A   1      42.375  19.667  26.045  1.00  0.00     0.338 C 
ATOM     40  O   UNL A   1      43.358  18.947  26.207  1.00  0.00    -0.246 OA
BRANCH  39  41
ATOM     41  C   UNL A   1      42.406  21.092  26.412  1.00  0.00     0.060 A 
ATOM     42  C   UNL A   1      42.374  22.026  25.368  1.00  0.00     0.016 A 
ATOM     43  C   UNL A   1      42.639  21.502  27.726  1.00  0.00     0.016 A 
ATOM     44  C   UNL A   1      42.661  23.365  25.622  1.00  0.00     0.010 A 
ATOM     45  C   UNL A   1      42.933  22.848  27.978  1.00  0.00     0.010 A 
ATOM     46  C   UNL A   1      43.003  23.772  26.919  1.00  0.00    -0.014 A 
BRANCH  46  47
ATOM     47  C   UNL A   1      43.634  25.104  27.100  1.00  0.00     0.031 A 
ATOM     48  C   UNL A   1      42.800  26.232  27.652  1.00  0.00     0.074 A 
ATOM     49  C   UNL A   1      44.946  25.288  26.864  1.00  0.00     0.049 A 
ATOM     50  N   UNL A   1      43.157  27.453  27.959  1.00  0.00    -0.248 NA
ATOM     51  C   UNL A   1      41.377  25.945  27.894  1.00  0.00     0.031 C 
ATOM     52  C   UNL A   1      45.868  24.267  26.370  1.00  0.00     0.029 A 
ATOM     53  N   UNL A   1      45.730  26.403  27.022  1.00  0.00    -0.354 N 
ATOM     54  C   UNL A   1      42.006  28.077  28.429  1.00  0.00     0.074 A 
ATOM     55  C   UNL A   1      40.933  27.113  28.334  1.00  0.00     0.031 C 
ATOM     56  C   UNL A   1      47.097  24.802  26.271  1.00  0.00     0.029 A 
ATOM     57  C   UNL A   1      47.044  26.206  26.675  1.00  0.00     0.049 A 
ATOM     58  H   UNL A   1      45.383  27.263  27.352  1.00  0.00     0.167 HD
ATOM     59  C   UNL A   1      41.854  29.337  28.905  1.00  0.00     0.031 A 
ATOM     60  C   UNL A   1      48.087  27.061  26.684  1.00  0.00     0.031 A 
ATOM     61  C   UNL A   1      42.917  30.302  28.992  1.00  0.00     0.049 A 
ATOM     62  C   UNL A   1      47.886  28.469  27.178  1.00  0.00     0.074 A 
ATOM     63  C   UNL A   1      42.863  31.604  29.458  1.00  0.00     0.029 A 
ATOM     64  N   UNL A   1      44.227  30.071  28.603  1.00  0.00    -0.354 N 
ATOM     65  N   UNL A   1      46.793  29.037  27.632  1.00  0.00    -0.248 NA
ATOM     66  C   UNL A   1      49.066  29.345  27.181  1.00  0.00     0.031 C 
ATOM     67  C   UNL A   1      44.134  32.173  29.315  1.00  0.00     0.029 A 
ATOM     68  C   UNL A   1      44.990  31.208  28.807  1.00  0.00     0.049 A 
ATOM     69  H   UNL A   1      44.566  29.222  28.236  1.00  0.00     0.167 HD
ATOM     70  C   UNL A   1      47.163  30.325  28.007  1.00  0.00     0.074 A 
ATOM     71  C   UNL A   1      48.580  30.449  27.735  1.00  0.00     0.031 C 
ATOM     72  C   UNL A   1      46.400  31.314  28.535  1.00  0.00     0.031 A 
BRANCH  59  73
ATOM     73  C   UNL A   1      40.474  29.748  29.343  1.00  0.00    -0.014 A 
ATOM     74  C   UNL A   1      39.535  30.244  28.422  1.00  0.00     0.010 A 
ATOM     75  C   UNL A   1      40.103  29.613  30.694  1.00  0.00     0.010 A 
ATOM     76  C   UNL A   1      38.262  30.633  28.848  1.00  0.00     0.020 A 
ATOM     77  C   UNL A   1      38.823  29.979  31.120  1.00  0.00     0.020 A 
ATOM     78  C   UNL A   1      37.916  30.504  30.197  1.00  0.00     0.054 A 
BRANCH  78  79
ATOM     79  S   UNL A   1      36.253  31.001  30.724  1.00  0.00     0.124 S 
ATOM     80  O   UNL A   1      36.457  32.401  31.084  1.00  0.00    -0.237 OA
ATOM     81  O   UNL A   1      35.452  30.771  29.524  1.00  0.00    -0.237 OA
ATOM     82  O   UNL A   1      35.962  30.106  31.841  1.00  0.00    -0.744 OA
ENDBRANCH  78  79
ENDBRANCH  59  73
BRANCH  60  83
ATOM     83  C   UNL A   1      49.423  26.606  26.211  1.00  0.00    -0.014 A 
ATOM     84  C   UNL A   1      50.309  25.946  27.080  1.00  0.00     0.010 A 
ATOM     85  C   UNL A   1      49.816  26.839  24.881  1.00  0.00     0.010 A 
ATOM     86  C   UNL A   1      51.572  25.545  26.633  1.00  0.00     0.020 A 
ATOM     87  C   UNL A   1      51.066  26.417  24.423  1.00  0.00     0.020 A 
ATOM     88  C   UNL A   1      51.942  25.783  25.306  1.00  0.00     0.054 A 
BRANCH  88  89
ATOM     89  S   UNL A   1      53.565  25.210  24.730  1.00  0.00     0.124 S 
ATOM     90  O   UNL A   1      53.508  23.783  25.030  1.00  0.00    -0.237 OA
ATOM     91  O   UNL A   1      53.541  25.561  23.313  1.00  0.00    -0.237 OA
ATOM     92  O   UNL A   1      54.504  25.983  25.539  1.00  0.00    -0.744 OA
ENDBRANCH  88  89
ENDBRANCH  60  83
BRANCH  72  93
ATOM     93  C   UNL A   1      47.092  32.600  28.904  1.00  0.00    -0.014 A 
ATOM     94  C   UNL A   1      47.185  33.670  27.995  1.00  0.00     0.010 A 
ATOM     95  C   UNL A   1      47.631  32.748  30.195  1.00  0.00     0.010 A 
ATOM     96  C   UNL A   1      47.847  34.847  28.358  1.00  0.00     0.020 A 
ATOM     97  C   UNL A   1      48.270  33.932  30.569  1.00  0.00     0.020 A 
ATOM     98  C   UNL A   1      48.392  34.967  29.640  1.00  0.00     0.054 A 
BRANCH  98  99
ATOM     99  S   UNL A   1      49.235  36.509  30.095  1.00  0.00     0.124 S 
ATOM    100  O   UNL A   1      50.426  36.462  29.253  1.00  0.00    -0.237 OA
ATOM    101  O   UNL A   1      48.253  37.531  29.741  1.00  0.00    -0.237 OA
ATOM    102  O   UNL A   1      49.477  36.359  31.528  1.00  0.00    -0.744 OA
ENDBRANCH  98  99
ENDBRANCH  72  93
ENDBRANCH  46  47
ENDBRANCH  39  41
ENDBRANCH  38  39
ENDBRANCH  37  38
ENDBRANCH  36  37
ENDBRANCH  35  36
ENDBRANCH   1  35
TORSDOF 23
ENDMDL
MODEL 3
REMARK VINA RESULT:     -10.4      5.920     10.530
REMARK SMILES CC(C)[C@H](NC(=O)[C@H](Cc1ccccc1)n1c(=O)[nH]c2ccccc2c1=O)C(=O)OCCOCCOC(=O)c1ccc(-c2c3nc(c(-c4ccc(S(=O)(=O)[O-])cc4)c4ccc([nH]4)c(-c4ccc(S(=O)(=O)[O-])cc4)c4nc(c(-c5ccc(S(=O)(=O)[O-])cc5)c5ccc2[nH]5)C=C4)C=C3)cc1
REMARK SMILES IDX 32 1 31 2 30 3 28 4 29 5 4 6 2 7 1 8 3 9 5 10 6 11 7 13 8 14
REMARK SMILES IDX 16 15 17 16 26 17 18 18 19 19 25 20 27 21 20 22 24 24 21 25
REMARK SMILES IDX 23 26 22 27 9 28 10 29 11 30 15 31 12 32 14 33 13 34 33 35
REMARK SMILES IDX 34 36 35 37 36 38 37 39 38 40 39 41 40 42 98 43 41 44 97 45
REMARK SMILES IDX 42 46 43 47 44 48 91 49 45 50 96 51 90 52 92 53 46 54 95 55
REMARK SMILES IDX 89 56 88 57 47 59 77 60 58 61 76 62 59 63 62 64 75 65 93 66
REMARK SMILES IDX 60 67 61 68 74 70 94 71 63 72 48 73 49 74 57 75 50 76 56 77
REMARK SMILES IDX 51 78 52 79 53 80 54 81 55 82 78 83 79 84 87 85 80 86 86 87
REMARK SMILES IDX 81 88 82 89 83 90 84 91 85 92 64 93 65 94 73 95 66 96 72 97
REMARK SMILES IDX 67 98 68 99 69 100 70 101 71 102
REMARK H PARENT 5 12 19 23 92 58 62 69
REMARK Flexibility Score: inf
ROOT
ATOM      1  C   UNL A   1      37.359  22.604  25.238  1.00  0.00     0.202 C 
ENDROOT
BRANCH   1   2
ATOM      2  C   UNL A   1      36.210  23.513  25.688  1.00  0.00     0.261 C 
BRANCH   2   3
ATOM      3  O   UNL A   1      35.154  23.617  24.719  1.00  0.00    -0.462 OA
BRANCH   3   4
ATOM      4  C   UNL A   1      34.039  24.256  25.171  1.00  0.00     0.328 C 
ATOM      5  O   UNL A   1      33.837  24.566  26.341  1.00  0.00    -0.250 OA
BRANCH   4   6
ATOM      6  C   UNL A   1      33.003  24.516  24.061  1.00  0.00     0.194 C 
BRANCH   6   7
ATOM      7  C   UNL A   1      32.287  23.214  23.635  1.00  0.00     0.017 C 
ATOM      8  C   UNL A   1      30.781  23.399  23.446  1.00  0.00     0.010 C 
ATOM      9  C   UNL A   1      32.928  22.633  22.370  1.00  0.00     0.010 C 
ENDBRANCH   6   7
BRANCH   6  10
ATOM     10  N   UNL A   1      33.455  25.271  22.881  1.00  0.00    -0.341 N 
ATOM     11  C   UNL A   1      32.859  26.366  22.292  1.00  0.00     0.244 C 
ATOM     12  H   UNL A   1      34.286  24.954  22.459  1.00  0.00     0.164 HD
ATOM     13  O   UNL A   1      33.447  26.889  21.345  1.00  0.00    -0.273 OA
BRANCH  11  14
ATOM     14  C   UNL A   1      31.531  26.936  22.863  1.00  0.00     0.189 C 
BRANCH  14  15
ATOM     15  N   UNL A   1      31.713  27.548  24.199  1.00  0.00    -0.247 N 
ATOM     16  C   UNL A   1      31.028  27.044  25.294  1.00  0.00     0.329 A 
ATOM     17  C   UNL A   1      32.663  28.562  24.305  1.00  0.00     0.264 A 
ATOM     18  O   UNL A   1      30.084  26.262  25.242  1.00  0.00    -0.248 OA
ATOM     19  N   UNL A   1      31.488  27.419  26.530  1.00  0.00    -0.307 N 
ATOM     20  C   UNL A   1      33.133  28.919  25.648  1.00  0.00     0.064 A 
ATOM     21  O   UNL A   1      33.208  29.110  23.351  1.00  0.00    -0.268 OA
ATOM     22  C   UNL A   1      32.559  28.282  26.735  1.00  0.00     0.055 A 
ATOM     23  H   UNL A   1      31.032  27.055  27.322  1.00  0.00     0.171 HD
ATOM     24  C   UNL A   1      34.202  29.806  25.816  1.00  0.00     0.016 A 
ATOM     25  C   UNL A   1      33.070  28.499  28.013  1.00  0.00     0.027 A 
ATOM     26  C   UNL A   1      34.718  30.023  27.091  1.00  0.00     0.001 A 
ATOM     27  C   UNL A   1      34.160  29.361  28.185  1.00  0.00     0.002 A 
ENDBRANCH  14  15
BRANCH  14  28
ATOM     28  C   UNL A   1      30.809  27.855  21.838  1.00  0.00     0.071 C 
BRANCH  28  29
ATOM     29  C   UNL A   1      29.638  28.687  22.355  1.00  0.00    -0.045 A 
ATOM     30  C   UNL A   1      28.417  28.138  22.779  1.00  0.00     0.004 A 
ATOM     31  C   UNL A   1      29.776  30.083  22.404  1.00  0.00     0.004 A 
ATOM     32  C   UNL A   1      27.411  28.940  23.323  1.00  0.00     0.000 A 
ATOM     33  C   UNL A   1      28.753  30.892  22.915  1.00  0.00     0.000 A 
ATOM     34  C   UNL A   1      27.580  30.319  23.394  1.00  0.00     0.000 A 
ENDBRANCH  28  29
ENDBRANCH  14  28
ENDBRANCH  11  14
ENDBRANCH   6  10
ENDBRANCH   4   6
ENDBRANCH   3   4
ENDBRANCH   2   3
ENDBRANCH   1   2
BRANCH   1  35
ATOM     35  O   UNL A   1      38.161  22.004  26.250  1.00  0.00    -0.374 OA
BRANCH  35  36
ATOM     36  C   UNL A   1      39.573  21.936  26.046  1.00  0.00     0.202 C 
BRANCH  36  37
ATOM     37  C   UNL A   1      40.439  23.102  26.538  1.00  0.00     0.261 C 
BRANCH  37  38
ATOM     38  O   UNL A   1      39.767  24.377  26.487  1.00  0.00    -0.460 OA
BRANCH  38  39
ATOM     39  C   UNL A   1      40.598  25.443  26.423  1.00  0.00     0.338 C 
ATOM     40  O   UNL A   1      40.992  26.010  25.406  1.00  0.00    -0.246 OA
BRANCH  39  41
ATOM     41  C   UNL A   1      40.863  26.001  27.759  1.00  0.00     0.060 A 
ATOM     42  C   UNL A   1      39.809  25.994  28.681  1.00  0.00     0.016 A 
ATOM     43  C   UNL A   1      42.052  26.675  28.044  1.00  0.00     0.016 A 
ATOM     44  C   UNL A   1      39.907  26.733  29.857  1.00  0.00     0.010 A 
ATOM     45  C   UNL A   1      42.146  27.422  29.226  1.00  0.00     0.010 A 
ATOM     46  C   UNL A   1      41.052  27.500  30.107  1.00  0.00    -0.014 A 
BRANCH  46  47
ATOM     47  C   UNL A   1      40.994  28.534  31.171  1.00  0.00     0.031 A 
ATOM     48  C   UNL A   1      39.933  29.603  31.087  1.00  0.00     0.074 A 
ATOM     49  C   UNL A   1      41.808  28.475  32.241  1.00  0.00     0.049 A 
ATOM     50  N   UNL A   1      39.650  30.559  31.934  1.00  0.00    -0.248 NA
ATOM     51  C   UNL A   1      39.076  29.589  29.890  1.00  0.00     0.031 C 
ATOM     52  C   UNL A   1      42.844  27.468  32.461  1.00  0.00     0.029 A 
ATOM     53  N   UNL A   1      41.878  29.280  33.350  1.00  0.00    -0.354 N 
ATOM     54  C   UNL A   1      38.586  31.258  31.375  1.00  0.00     0.074 A 
ATOM     55  C   UNL A   1      38.297  30.639  30.101  1.00  0.00     0.031 C 
ATOM     56  C   UNL A   1      43.444  27.712  33.640  1.00  0.00     0.029 A 
ATOM     57  C   UNL A   1      42.849  28.902  34.245  1.00  0.00     0.049 A 
ATOM     58  H   UNL A   1      41.289  30.056  33.491  1.00  0.00     0.167 HD
ATOM     59  C   UNL A   1      37.903  32.315  31.878  1.00  0.00     0.031 A 
ATOM     60  C   UNL A   1      43.214  29.452  35.420  1.00  0.00     0.031 A 
ATOM     61  C   UNL A   1      38.195  32.939  33.140  1.00  0.00     0.049 A 
ATOM     62  C   UNL A   1      42.469  30.653  35.940  1.00  0.00     0.074 A 
ATOM     63  C   UNL A   1      37.562  34.016  33.736  1.00  0.00     0.029 A 
ATOM     64  N   UNL A   1      39.206  32.543  34.002  1.00  0.00    -0.354 N 
ATOM     65  N   UNL A   1      41.455  31.291  35.404  1.00  0.00    -0.248 NA
ATOM     66  C   UNL A   1      42.904  31.192  37.236  1.00  0.00     0.031 C 
ATOM     67  C   UNL A   1      38.215  34.295  34.941  1.00  0.00     0.029 A 
ATOM     68  C   UNL A   1      39.222  33.359  35.120  1.00  0.00     0.049 A 
ATOM     69  H   UNL A   1      39.821  31.790  33.843  1.00  0.00     0.167 HD
ATOM     70  C   UNL A   1      41.111  32.286  36.314  1.00  0.00     0.074 A 
ATOM     71  C   UNL A   1      42.016  32.158  37.436  1.00  0.00     0.031 C 
ATOM     72  C   UNL A   1      40.128  33.217  36.231  1.00  0.00     0.031 A 
BRANCH  59  73
ATOM     73  C   UNL A   1      36.788  32.879  31.039  1.00  0.00    -0.014 A 
ATOM     74  C   UNL A   1      35.444  32.574  31.314  1.00  0.00     0.010 A 
ATOM     75  C   UNL A   1      37.089  33.749  29.974  1.00  0.00     0.010 A 
ATOM     76  C   UNL A   1      34.421  33.096  30.516  1.00  0.00     0.020 A 
ATOM     77  C   UNL A   1      36.068  34.292  29.189  1.00  0.00     0.020 A 
ATOM     78  C   UNL A   1      34.741  33.948  29.455  1.00  0.00     0.054 A 
BRANCH  78  79
ATOM     79  S   UNL A   1      33.396  34.627  28.444  1.00  0.00     0.124 S 
ATOM     80  O   UNL A   1      32.976  33.457  27.676  1.00  0.00    -0.237 OA
ATOM     81  O   UNL A   1      32.443  35.095  29.447  1.00  0.00    -0.237 OA
ATOM     82  O   UNL A   1      34.045  35.681  27.667  1.00  0.00    -0.744 OA
ENDBRANCH  78  79
ENDBRANCH  59  73
BRANCH  60  83
ATOM     83  C   UNL A   1      44.346  28.868  36.192  1.00  0.00    -0.014 A 
ATOM     84  C   UNL A   1      45.656  29.350  36.025  1.00  0.00     0.010 A 
ATOM     85  C   UNL A   1      44.113  27.817  37.097  1.00  0.00     0.010 A 
ATOM     86  C   UNL A   1      46.716  28.778  36.736  1.00  0.00     0.020 A 
ATOM     87  C   UNL A   1      45.165  27.259  37.827  1.00  0.00     0.020 A 
ATOM     88  C   UNL A   1      46.463  27.736  37.634  1.00  0.00     0.054 A 
BRANCH  88  89
ATOM     89  S   UNL A   1      47.844  27.040  38.584  1.00  0.00     0.124 S 
ATOM     90  O   UNL A   1      47.820  27.855  39.794  1.00  0.00    -0.237 OA
ATOM     91  O   UNL A   1      47.443  25.646  38.751  1.00  0.00    -0.237 OA
ATOM     92  O   UNL A   1      48.996  27.248  37.711  1.00  0.00    -0.744 OA
ENDBRANCH  88  89
ENDBRANCH  60  83
BRANCH  72  93
ATOM     93  C   UNL A   1      39.945  34.138  37.409  1.00  0.00    -0.014 A 
ATOM     94  C   UNL A   1      40.590  35.386  37.471  1.00  0.00     0.010 A 
ATOM     95  C   UNL A   1      39.088  33.756  38.457  1.00  0.00     0.010 A 
ATOM     96  C   UNL A   1      40.416  36.215  38.583  1.00  0.00     0.020 A 
ATOM     97  C   UNL A   1      38.891  34.593  39.557  1.00  0.00     0.020 A 
ATOM     98  C   UNL A   1      39.574  35.810  39.623  1.00  0.00     0.054 A 
BRANCH  98  99
ATOM     99  S   UNL A   1      39.350  36.906  41.051  1.00  0.00     0.124 S 
ATOM    100  O   UNL A   1      38.533  37.976  40.487  1.00  0.00    -0.237 OA
ATOM    101  O   UNL A   1      38.677  36.044  42.019  1.00  0.00    -0.237 OA
ATOM    102  O   UNL A   1      40.714  37.287  41.411  1.00  0.00    -0.744 OA
ENDBRANCH  98  99
ENDBRANCH  72  93
ENDBRANCH  46  47
ENDBRANCH  39  41
ENDBRANCH  38  39
ENDBRANCH  37  38
ENDBRANCH  36  37
ENDBRANCH  35  36
ENDBRANCH   1  35
TORSDOF 23
ENDMDL
