MODEL 1
REMARK VINA RESULT:     -11.0      0.000      0.000
REMARK SMILES COc1ccc(-c2cnc(N)c(C(=O)OCCOCCOC(=O)c3ccc(-c4c5nc(c(-c6ccc(S(=O)(=O)[O-])cc6)c6ccc([nH]6)c(-c6ccc(S(=O)(=O)[O-])cc6)c6nc(c(-c7ccc(S(=O)(=O)[O-])cc7)c7ccc4[nH]7)C=C6)C=C5)cc3)c2)c(C)c1
REMARK SMILES IDX 19 1 18 2 17 3 16 4 15 5 13 6 14 7 12 8 7 9 8 10 84 11 9 12
REMARK SMILES IDX 10 13 6 14 3 15 4 16 87 17 5 18 85 19 86 20 2 21 1 22 11 23
REMARK SMILES IDX 20 26 21 27 22 28 23 29 24 30 25 31 83 32 26 33 82 34 27 35
REMARK SMILES IDX 28 36 29 37 76 38 30 39 81 40 75 41 77 42 31 43 80 44 74 45
REMARK SMILES IDX 73 46 32 48 62 49 43 50 61 51 44 52 47 53 60 54 78 55 45 56
REMARK SMILES IDX 46 57 59 59 79 60 48 61 33 62 34 63 42 64 35 65 41 66 36 67
REMARK SMILES IDX 37 68 38 69 39 70 40 71 63 72 64 73 72 74 65 75 71 76 66 77
REMARK SMILES IDX 67 78 68 79 69 80 70 81 49 82 50 83 58 84 51 85 57 86 52 87
REMARK SMILES IDX 53 88 54 89 55 90 56 91
REMARK H PARENT 11 24 11 25 77 47 47 58
REMARK Flexibility Score: inf
ROOT
ATOM      1  C   UNL A   1      35.792  20.780  25.396  1.00  0.00     0.202 C 
ENDROOT
BRANCH   1   2
ATOM      2  O   UNL A   1      34.854  21.337  24.509  1.00  0.00    -0.374 OA
BRANCH   2   3
ATOM      3  C   UNL A   1      34.236  22.547  24.937  1.00  0.00     0.202 C 
BRANCH   3   4
ATOM      4  C   UNL A   1      33.208  22.133  25.938  1.00  0.00     0.261 C 
BRANCH   4   5
ATOM      5  O   UNL A   1      32.750  23.260  26.708  1.00  0.00    -0.460 OA
BRANCH   5   6
ATOM      6  C   UNL A   1      31.465  23.695  26.616  1.00  0.00     0.342 C 
ATOM      7  O   UNL A   1      30.499  23.348  27.251  1.00  0.00    -0.246 OA
BRANCH   6   8
ATOM      8  C   UNL A   1      31.468  24.873  25.735  1.00  0.00     0.102 A 
ATOM      9  C   UNL A   1      32.260  27.124  25.480  1.00  0.00     0.001 A 
ATOM     10  C   UNL A   1      32.025  26.956  24.116  1.00  0.00     0.122 A 
ATOM     11  C   UNL A   1      31.945  26.055  26.306  1.00  0.00     0.030 A 
ATOM     12  N   UNL A   1      31.488  25.852  23.547  1.00  0.00    -0.238 NA
ATOM     13  C   UNL A   1      31.219  24.813  24.360  1.00  0.00     0.138 A 
BRANCH   9  14
ATOM     14  C   UNL A   1      32.795  28.376  26.005  1.00  0.00    -0.014 A 
ATOM     15  C   UNL A   1      33.877  30.658  27.249  1.00  0.00     0.119 A 
ATOM     16  C   UNL A   1      34.499  29.424  27.401  1.00  0.00     0.047 A 
ATOM     17  C   UNL A   1      32.734  30.757  26.452  1.00  0.00     0.050 A 
ATOM     18  C   UNL A   1      33.961  28.298  26.785  1.00  0.00     0.013 A 
ATOM     19  C   UNL A   1      32.190  29.634  25.803  1.00  0.00    -0.040 A 
ATOM     20  C   UNL A   1      30.989  29.856  24.919  1.00  0.00     0.045 C 
BRANCH  15  21
ATOM     21  O   UNL A   1      34.271  31.816  27.861  1.00  0.00    -0.497 OA
ATOM     22  C   UNL A   1      35.070  31.646  29.028  1.00  0.00     0.278 C 
ENDBRANCH  15  21
ENDBRANCH   9  14
BRANCH  13  23
ATOM     23  N   UNL A   1      30.624  23.732  23.735  1.00  0.00    -0.383 N 
ATOM     24  H   UNL A   1      31.125  23.214  23.065  1.00  0.00     0.158 HD
ATOM     25  H   UNL A   1      29.699  23.481  23.961  1.00  0.00     0.158 HD
ENDBRANCH  13  23
ENDBRANCH   6   8
ENDBRANCH   5   6
ENDBRANCH   4   5
ENDBRANCH   3   4
ENDBRANCH   2   3
ENDBRANCH   1   2
BRANCH   1  26
ATOM     26  C   UNL A   1      37.247  21.069  25.009  1.00  0.00     0.261 C 
BRANCH  26  27
ATOM     27  O   UNL A   1      37.662  22.391  25.422  1.00  0.00    -0.460 OA
BRANCH  27  28
ATOM     28  C   UNL A   1      38.803  22.484  26.173  1.00  0.00     0.338 C 
ATOM     29  O   UNL A   1      39.502  21.528  26.457  1.00  0.00    -0.246 OA
BRANCH  28  30
ATOM     30  C   UNL A   1      39.119  23.910  26.485  1.00  0.00     0.060 A 
ATOM     31  C   UNL A   1      40.028  24.665  25.722  1.00  0.00     0.016 A 
ATOM     32  C   UNL A   1      38.622  24.432  27.672  1.00  0.00     0.016 A 
ATOM     33  C   UNL A   1      40.548  25.876  26.226  1.00  0.00     0.010 A 
ATOM     34  C   UNL A   1      39.228  25.541  28.215  1.00  0.00     0.010 A 
ATOM     35  C   UNL A   1      40.198  26.277  27.513  1.00  0.00    -0.014 A 
BRANCH  35  36
ATOM     36  C   UNL A   1      40.754  27.395  28.286  1.00  0.00     0.031 A 
ATOM     37  C   UNL A   1      39.868  28.559  28.521  1.00  0.00     0.074 A 
ATOM     38  C   UNL A   1      41.887  27.267  29.025  1.00  0.00     0.049 A 
ATOM     39  N   UNL A   1      40.279  29.700  28.952  1.00  0.00    -0.248 NA
ATOM     40  C   UNL A   1      38.430  28.562  28.233  1.00  0.00     0.031 C 
ATOM     41  C   UNL A   1      42.243  27.962  30.264  1.00  0.00     0.029 A 
ATOM     42  N   UNL A   1      42.973  26.416  28.837  1.00  0.00    -0.354 N 
ATOM     43  C   UNL A   1      39.167  30.396  29.366  1.00  0.00     0.074 A 
ATOM     44  C   UNL A   1      38.052  29.734  28.746  1.00  0.00     0.031 C 
ATOM     45  C   UNL A   1      43.525  27.694  30.586  1.00  0.00     0.029 A 
ATOM     46  C   UNL A   1      44.098  26.916  29.499  1.00  0.00     0.049 A 
ATOM     47  H   UNL A   1      42.952  25.582  28.314  1.00  0.00     0.167 HD
ATOM     48  C   UNL A   1      39.311  31.333  30.344  1.00  0.00     0.031 A 
ATOM     49  C   UNL A   1      45.247  27.146  28.805  1.00  0.00     0.031 A 
ATOM     50  C   UNL A   1      40.724  31.471  30.726  1.00  0.00     0.049 A 
ATOM     51  C   UNL A   1      45.439  28.635  28.751  1.00  0.00     0.074 A 
ATOM     52  C   UNL A   1      41.436  31.071  31.845  1.00  0.00     0.029 A 
ATOM     53  N   UNL A   1      41.670  31.781  29.752  1.00  0.00    -0.354 N 
ATOM     54  N   UNL A   1      44.450  29.462  28.951  1.00  0.00    -0.248 NA
ATOM     55  C   UNL A   1      46.711  29.320  28.568  1.00  0.00     0.031 C 
ATOM     56  C   UNL A   1      42.818  31.069  31.503  1.00  0.00     0.029 A 
ATOM     57  C   UNL A   1      42.950  31.497  30.190  1.00  0.00     0.049 A 
ATOM     58  H   UNL A   1      41.455  32.155  28.866  1.00  0.00     0.167 HD
ATOM     59  C   UNL A   1      44.920  30.729  29.026  1.00  0.00     0.074 A 
ATOM     60  C   UNL A   1      46.336  30.605  28.725  1.00  0.00     0.031 C 
ATOM     61  C   UNL A   1      44.107  31.773  29.343  1.00  0.00     0.031 A 
BRANCH  48  62
ATOM     62  C   UNL A   1      38.169  31.929  31.144  1.00  0.00    -0.014 A 
ATOM     63  C   UNL A   1      37.959  33.323  31.101  1.00  0.00     0.010 A 
ATOM     64  C   UNL A   1      37.290  31.208  31.977  1.00  0.00     0.010 A 
ATOM     65  C   UNL A   1      36.959  33.956  31.856  1.00  0.00     0.020 A 
ATOM     66  C   UNL A   1      36.290  31.824  32.746  1.00  0.00     0.020 A 
ATOM     67  C   UNL A   1      36.129  33.199  32.678  1.00  0.00     0.054 A 
BRANCH  67  68
ATOM     68  S   UNL A   1      34.824  34.026  33.619  1.00  0.00     0.124 S 
ATOM     69  O   UNL A   1      35.255  33.827  35.000  1.00  0.00    -0.237 OA
ATOM     70  O   UNL A   1      34.902  35.397  33.124  1.00  0.00    -0.237 OA
ATOM     71  O   UNL A   1      33.610  33.302  33.243  1.00  0.00    -0.744 OA
ENDBRANCH  67  68
ENDBRANCH  48  62
BRANCH  49  72
ATOM     72  C   UNL A   1      45.476  26.131  27.722  1.00  0.00    -0.014 A 
ATOM     73  C   UNL A   1      45.834  24.822  28.132  1.00  0.00     0.010 A 
ATOM     74  C   UNL A   1      44.868  26.281  26.460  1.00  0.00     0.010 A 
ATOM     75  C   UNL A   1      45.455  23.695  27.383  1.00  0.00     0.020 A 
ATOM     76  C   UNL A   1      44.463  25.152  25.722  1.00  0.00     0.020 A 
ATOM     77  C   UNL A   1      44.717  23.866  26.210  1.00  0.00     0.054 A 
BRANCH  77  78
ATOM     78  S   UNL A   1      43.818  22.424  25.523  1.00  0.00     0.124 S 
ATOM     79  O   UNL A   1      44.853  21.399  25.479  1.00  0.00    -0.237 OA
ATOM     80  O   UNL A   1      42.755  22.201  26.505  1.00  0.00    -0.237 OA
ATOM     81  O   UNL A   1      43.346  22.911  24.231  1.00  0.00    -0.744 OA
ENDBRANCH  77  78
ENDBRANCH  49  72
BRANCH  61  82
ATOM     82  C   UNL A   1      44.400  33.181  28.935  1.00  0.00    -0.014 A 
ATOM     83  C   UNL A   1      44.481  33.577  27.591  1.00  0.00     0.010 A 
ATOM     84  C   UNL A   1      44.439  34.192  29.919  1.00  0.00     0.010 A 
ATOM     85  C   UNL A   1      44.710  34.907  27.248  1.00  0.00     0.020 A 
ATOM     86  C   UNL A   1      44.598  35.533  29.584  1.00  0.00     0.020 A 
ATOM     87  C   UNL A   1      44.780  35.874  28.249  1.00  0.00     0.054 A 
BRANCH  87  88
ATOM     88  S   UNL A   1      45.105  37.583  27.780  1.00  0.00     0.124 S 
ATOM     89  O   UNL A   1      43.893  37.918  27.036  1.00  0.00    -0.237 OA
ATOM     90  O   UNL A   1      45.251  38.249  29.072  1.00  0.00    -0.237 OA
ATOM     91  O   UNL A   1      46.327  37.497  26.986  1.00  0.00    -0.744 OA
ENDBRANCH  87  88
ENDBRANCH  61  82
ENDBRANCH  35  36
ENDBRANCH  28  30
ENDBRANCH  27  28
ENDBRANCH  26  27
ENDBRANCH   1  26
TORSDOF 20
ENDMDL
MODEL 2
REMARK VINA RESULT:     -10.8      2.179      3.066
REMARK SMILES COc1ccc(-c2cnc(N)c(C(=O)OCCOCCOC(=O)c3ccc(-c4c5nc(c(-c6ccc(S(=O)(=O)[O-])cc6)c6ccc([nH]6)c(-c6ccc(S(=O)(=O)[O-])cc6)c6nc(c(-c7ccc(S(=O)(=O)[O-])cc7)c7ccc4[nH]7)C=C6)C=C5)cc3)c2)c(C)c1
REMARK SMILES IDX 19 1 18 2 17 3 16 4 15 5 13 6 14 7 12 8 7 9 8 10 84 11 9 12
REMARK SMILES IDX 10 13 6 14 3 15 4 16 87 17 5 18 85 19 86 20 2 21 1 22 11 23
REMARK SMILES IDX 20 26 21 27 22 28 23 29 24 30 25 31 83 32 26 33 82 34 27 35
REMARK SMILES IDX 28 36 29 37 76 38 30 39 81 40 75 41 77 42 31 43 80 44 74 45
REMARK SMILES IDX 73 46 32 48 62 49 43 50 61 51 44 52 47 53 60 54 78 55 45 56
REMARK SMILES IDX 46 57 59 59 79 60 48 61 33 62 34 63 42 64 35 65 41 66 36 67
REMARK SMILES IDX 37 68 38 69 39 70 40 71 63 72 64 73 72 74 65 75 71 76 66 77
REMARK SMILES IDX 67 78 68 79 69 80 70 81 49 82 50 83 58 84 51 85 57 86 52 87
REMARK SMILES IDX 53 88 54 89 55 90 56 91
REMARK H PARENT 11 24 11 25 77 47 47 58
REMARK Flexibility Score: inf
ROOT
ATOM      1  C   UNL A   1      37.308  19.689  24.931  1.00  0.00     0.202 C 
ENDROOT
BRANCH   1   2
ATOM      2  O   UNL A   1      35.945  19.479  24.654  1.00  0.00    -0.374 OA
BRANCH   2   3
ATOM      3  C   UNL A   1      35.037  20.382  25.277  1.00  0.00     0.202 C 
BRANCH   3   4
ATOM      4  C   UNL A   1      33.739  20.193  24.563  1.00  0.00     0.261 C 
BRANCH   4   5
ATOM      5  O   UNL A   1      32.913  21.367  24.669  1.00  0.00    -0.460 OA
BRANCH   5   6
ATOM      6  C   UNL A   1      33.430  22.608  24.465  1.00  0.00     0.342 C 
ATOM      7  O   UNL A   1      34.228  22.970  23.635  1.00  0.00    -0.246 OA
BRANCH   6   8
ATOM      8  C   UNL A   1      32.665  23.540  25.308  1.00  0.00     0.102 A 
ATOM      9  C   UNL A   1      31.296  25.511  25.301  1.00  0.00     0.001 A 
ATOM     10  C   UNL A   1      30.831  25.082  26.543  1.00  0.00     0.122 A 
ATOM     11  C   UNL A   1      32.259  24.723  24.687  1.00  0.00     0.030 A 
ATOM     12  N   UNL A   1      31.266  23.984  27.203  1.00  0.00    -0.238 NA
ATOM     13  C   UNL A   1      32.177  23.215  26.577  1.00  0.00     0.138 A 
BRANCH   9  14
ATOM     14  C   UNL A   1      30.801  26.741  24.693  1.00  0.00    -0.014 A 
ATOM     15  C   UNL A   1      29.795  28.970  23.297  1.00  0.00     0.119 A 
ATOM     16  C   UNL A   1      29.143  27.744  23.210  1.00  0.00     0.047 A 
ATOM     17  C   UNL A   1      30.928  29.090  24.104  1.00  0.00     0.050 A 
ATOM     18  C   UNL A   1      29.644  26.645  23.901  1.00  0.00     0.013 A 
ATOM     19  C   UNL A   1      31.434  27.994  24.829  1.00  0.00    -0.040 A 
ATOM     20  C   UNL A   1      32.628  28.240  25.715  1.00  0.00     0.045 C 
BRANCH  15  21
ATOM     21  O   UNL A   1      29.438  30.098  22.610  1.00  0.00    -0.497 OA
ATOM     22  C   UNL A   1      28.243  29.992  21.843  1.00  0.00     0.278 C 
ENDBRANCH  15  21
ENDBRANCH   9  14
BRANCH  13  23
ATOM     23  N   UNL A   1      32.625  22.136  27.318  1.00  0.00    -0.383 N 
ATOM     24  H   UNL A   1      33.573  22.074  27.573  1.00  0.00     0.158 HD
ATOM     25  H   UNL A   1      31.994  21.430  27.589  1.00  0.00     0.158 HD
ENDBRANCH  13  23
ENDBRANCH   6   8
ENDBRANCH   5   6
ENDBRANCH   4   5
ENDBRANCH   3   4
ENDBRANCH   2   3
ENDBRANCH   1   2
BRANCH   1  26
ATOM     26  C   UNL A   1      37.759  21.139  24.723  1.00  0.00     0.261 C 
BRANCH  26  27
ATOM     27  O   UNL A   1      38.109  21.778  25.973  1.00  0.00    -0.460 OA
BRANCH  27  28
ATOM     28  C   UNL A   1      39.441  21.937  26.243  1.00  0.00     0.338 C 
ATOM     29  O   UNL A   1      40.315  21.237  25.763  1.00  0.00    -0.246 OA
BRANCH  28  30
ATOM     30  C   UNL A   1      39.669  23.138  27.102  1.00  0.00     0.060 A 
ATOM     31  C   UNL A   1      38.960  24.340  26.921  1.00  0.00     0.016 A 
ATOM     32  C   UNL A   1      40.741  23.103  27.983  1.00  0.00     0.016 A 
ATOM     33  C   UNL A   1      39.419  25.534  27.513  1.00  0.00     0.010 A 
ATOM     34  C   UNL A   1      41.258  24.289  28.450  1.00  0.00     0.010 A 
ATOM     35  C   UNL A   1      40.617  25.519  28.223  1.00  0.00    -0.014 A 
BRANCH  35  36
ATOM     36  C   UNL A   1      41.355  26.669  28.761  1.00  0.00     0.031 A 
ATOM     37  C   UNL A   1      40.582  27.654  29.553  1.00  0.00     0.074 A 
ATOM     38  C   UNL A   1      42.712  26.691  28.821  1.00  0.00     0.049 A 
ATOM     39  N   UNL A   1      41.020  28.822  29.872  1.00  0.00    -0.248 NA
ATOM     40  C   UNL A   1      39.208  27.435  30.014  1.00  0.00     0.031 C 
ATOM     41  C   UNL A   1      43.564  27.365  29.804  1.00  0.00     0.029 A 
ATOM     42  N   UNL A   1      43.643  26.043  28.013  1.00  0.00    -0.354 N 
ATOM     43  C   UNL A   1      40.200  29.300  30.868  1.00  0.00     0.074 A 
ATOM     44  C   UNL A   1      39.009  28.497  30.795  1.00  0.00     0.031 C 
ATOM     45  C   UNL A   1      44.853  27.296  29.414  1.00  0.00     0.029 A 
ATOM     46  C   UNL A   1      44.882  26.686  28.095  1.00  0.00     0.049 A 
ATOM     47  H   UNL A   1      43.456  25.247  27.464  1.00  0.00     0.167 HD
ATOM     48  C   UNL A   1      40.710  30.192  31.761  1.00  0.00     0.031 A 
ATOM     49  C   UNL A   1      45.485  27.142  26.962  1.00  0.00     0.031 A 
ATOM     50  C   UNL A   1      42.094  30.542  31.412  1.00  0.00     0.049 A 
ATOM     51  C   UNL A   1      45.449  28.642  27.017  1.00  0.00     0.074 A 
ATOM     52  C   UNL A   1      43.316  30.204  31.971  1.00  0.00     0.029 A 
ATOM     53  N   UNL A   1      42.373  31.058  30.148  1.00  0.00    -0.354 N 
ATOM     54  N   UNL A   1      44.610  29.282  27.785  1.00  0.00    -0.248 NA
ATOM     55  C   UNL A   1      46.364  29.539  26.323  1.00  0.00     0.031 C 
ATOM     56  C   UNL A   1      44.324  30.450  30.996  1.00  0.00     0.029 A 
ATOM     57  C   UNL A   1      43.721  30.967  29.858  1.00  0.00     0.049 A 
ATOM     58  H   UNL A   1      41.698  31.440  29.542  1.00  0.00     0.167 HD
ATOM     59  C   UNL A   1      44.903  30.603  27.785  1.00  0.00     0.074 A 
ATOM     60  C   UNL A   1      45.975  30.732  26.812  1.00  0.00     0.031 C 
ATOM     61  C   UNL A   1      44.248  31.478  28.596  1.00  0.00     0.031 A 
BRANCH  48  62
ATOM     62  C   UNL A   1      40.071  30.545  33.090  1.00  0.00    -0.014 A 
ATOM     63  C   UNL A   1      39.045  31.512  33.121  1.00  0.00     0.010 A 
ATOM     64  C   UNL A   1      40.434  30.006  34.341  1.00  0.00     0.010 A 
ATOM     65  C   UNL A   1      38.444  31.932  34.317  1.00  0.00     0.020 A 
ATOM     66  C   UNL A   1      39.850  30.419  35.548  1.00  0.00     0.020 A 
ATOM     67  C   UNL A   1      38.853  31.382  35.528  1.00  0.00     0.054 A 
BRANCH  67  68
ATOM     68  S   UNL A   1      38.045  31.909  37.058  1.00  0.00     0.124 S 
ATOM     69  O   UNL A   1      39.162  32.427  37.844  1.00  0.00    -0.237 OA
ATOM     70  O   UNL A   1      37.093  32.908  36.580  1.00  0.00    -0.237 OA
ATOM     71  O   UNL A   1      37.444  30.682  37.577  1.00  0.00    -0.744 OA
ENDBRANCH  67  68
ENDBRANCH  48  62
BRANCH  49  72
ATOM     72  C   UNL A   1      45.249  26.240  25.783  1.00  0.00    -0.014 A 
ATOM     73  C   UNL A   1      46.334  25.429  25.366  1.00  0.00     0.010 A 
ATOM     74  C   UNL A   1      43.946  25.814  25.459  1.00  0.00     0.010 A 
ATOM     75  C   UNL A   1      46.119  24.165  24.791  1.00  0.00     0.020 A 
ATOM     76  C   UNL A   1      43.729  24.536  24.907  1.00  0.00     0.020 A 
ATOM     77  C   UNL A   1      44.813  23.701  24.620  1.00  0.00     0.054 A 
BRANCH  77  78
ATOM     78  S   UNL A   1      44.551  21.908  24.345  1.00  0.00     0.124 S 
ATOM     79  O   UNL A   1      43.363  21.637  25.144  1.00  0.00    -0.237 OA
ATOM     80  O   UNL A   1      44.364  21.822  22.895  1.00  0.00    -0.237 OA
ATOM     81  O   UNL A   1      45.793  21.312  24.825  1.00  0.00    -0.744 OA
ENDBRANCH  77  78
ENDBRANCH  49  72
BRANCH  61  82
ATOM     82  C   UNL A   1      44.129  32.936  28.285  1.00  0.00    -0.014 A 
ATOM     83  C   UNL A   1      43.718  33.410  27.030  1.00  0.00     0.010 A 
ATOM     84  C   UNL A   1      44.274  33.878  29.327  1.00  0.00     0.010 A 
ATOM     85  C   UNL A   1      43.574  34.774  26.792  1.00  0.00     0.020 A 
ATOM     86  C   UNL A   1      44.065  35.237  29.116  1.00  0.00     0.020 A 
ATOM     87  C   UNL A   1      43.762  35.679  27.834  1.00  0.00     0.054 A 
BRANCH  87  88
ATOM     88  S   UNL A   1      43.596  37.440  27.492  1.00  0.00     0.124 S 
ATOM     89  O   UNL A   1      44.909  37.755  26.934  1.00  0.00    -0.237 OA
ATOM     90  O   UNL A   1      42.485  37.481  26.545  1.00  0.00    -0.237 OA
ATOM     91  O   UNL A   1      43.314  38.022  28.802  1.00  0.00    -0.744 OA
ENDBRANCH  87  88
ENDBRANCH  61  82
ENDBRANCH  35  36
ENDBRANCH  28  30
ENDBRANCH  27  28
ENDBRANCH  26  27
ENDBRANCH   1  26
TORSDOF 20
ENDMDL
MODEL 3
REMARK VINA RESULT:     -10.5      2.755      3.835
REMARK SMILES COc1ccc(-c2cnc(N)c(C(=O)OCCOCCOC(=O)c3ccc(-c4c5nc(c(-c6ccc(S(=O)(=O)[O-])cc6)c6ccc([nH]6)c(-c6ccc(S(=O)(=O)[O-])cc6)c6nc(c(-c7ccc(S(=O)(=O)[O-])cc7)c7ccc4[nH]7)C=C6)C=C5)cc3)c2)c(C)c1
REMARK SMILES IDX 19 1 18 2 17 3 16 4 15 5 13 6 14 7 12 8 7 9 8 10 84 11 9 12
REMARK SMILES IDX 10 13 6 14 3 15 4 16 87 17 5 18 85 19 86 20 2 21 1 22 11 23
REMARK SMILES IDX 20 26 21 27 22 28 23 29 24 30 25 31 83 32 26 33 82 34 27 35
REMARK SMILES IDX 28 36 29 37 76 38 30 39 81 40 75 41 77 42 31 43 80 44 74 45
REMARK SMILES IDX 73 46 32 48 62 49 43 50 61 51 44 52 47 53 60 54 78 55 45 56
REMARK SMILES IDX 46 57 59 59 79 60 48 61 33 62 34 63 42 64 35 65 41 66 36 67
REMARK SMILES IDX 37 68 38 69 39 70 40 71 63 72 64 73 72 74 65 75 71 76 66 77
REMARK SMILES IDX 67 78 68 79 69 80 70 81 49 82 50 83 58 84 51 85 57 86 52 87
REMARK SMILES IDX 53 88 54 89 55 90 56 91
REMARK H PARENT 11 24 11 25 77 47 47 58
REMARK Flexibility Score: inf
ROOT
ATOM      1  C   UNL A   1      37.587  23.519  25.655  1.00  0.00     0.202 C 
ENDROOT
BRANCH   1   2
ATOM      2  O   UNL A   1      37.177  22.490  24.787  1.00  0.00    -0.374 OA
BRANCH   2   3
ATOM      3  C   UNL A   1      36.709  22.906  23.508  1.00  0.00     0.202 C 
BRANCH   3   4
ATOM      4  C   UNL A   1      35.224  22.993  23.641  1.00  0.00     0.261 C 
BRANCH   4   5
ATOM      5  O   UNL A   1      34.786  24.363  23.684  1.00  0.00    -0.460 OA
BRANCH   5   6
ATOM      6  C   UNL A   1      33.483  24.689  23.468  1.00  0.00     0.342 C 
ATOM      7  O   UNL A   1      32.779  24.416  22.526  1.00  0.00    -0.246 OA
BRANCH   6   8
ATOM      8  C   UNL A   1      32.967  25.263  24.719  1.00  0.00     0.102 A 
ATOM      9  C   UNL A   1      32.825  27.258  26.045  1.00  0.00     0.001 A 
ATOM     10  C   UNL A   1      31.737  26.654  26.674  1.00  0.00     0.122 A 
ATOM     11  C   UNL A   1      33.466  26.522  25.060  1.00  0.00     0.030 A 
ATOM     12  N   UNL A   1      31.284  25.404  26.421  1.00  0.00    -0.238 NA
ATOM     13  C   UNL A   1      31.898  24.718  25.439  1.00  0.00     0.138 A 
BRANCH   9  14
ATOM     14  C   UNL A   1      33.272  28.594  26.427  1.00  0.00    -0.014 A 
ATOM     15  C   UNL A   1      34.195  31.066  27.406  1.00  0.00     0.119 A 
ATOM     16  C   UNL A   1      34.907  29.903  27.677  1.00  0.00     0.047 A 
ATOM     17  C   UNL A   1      33.042  30.999  26.621  1.00  0.00     0.050 A 
ATOM     18  C   UNL A   1      34.448  28.683  27.192  1.00  0.00     0.013 A 
ATOM     19  C   UNL A   1      32.576  29.776  26.103  1.00  0.00    -0.040 A 
ATOM     20  C   UNL A   1      31.355  29.817  25.220  1.00  0.00     0.045 C 
BRANCH  15  21
ATOM     21  O   UNL A   1      34.509  32.308  27.886  1.00  0.00    -0.497 OA
ATOM     22  C   UNL A   1      33.440  33.249  27.886  1.00  0.00     0.278 C 
ENDBRANCH  15  21
ENDBRANCH   9  14
BRANCH  13  23
ATOM     23  N   UNL A   1      31.429  23.430  25.257  1.00  0.00    -0.383 N 
ATOM     24  H   UNL A   1      31.432  23.027  24.360  1.00  0.00     0.158 HD
ATOM     25  H   UNL A   1      31.093  22.916  26.027  1.00  0.00     0.158 HD
ENDBRANCH  13  23
ENDBRANCH   6   8
ENDBRANCH   5   6
ENDBRANCH   4   5
ENDBRANCH   3   4
ENDBRANCH   2   3
ENDBRANCH   1   2
BRANCH   1  26
ATOM     26  C   UNL A   1      38.819  23.159  26.493  1.00  0.00     0.261 C 
BRANCH  26  27
ATOM     27  O   UNL A   1      39.162  24.211  27.424  1.00  0.00    -0.460 OA
BRANCH  27  28
ATOM     28  C   UNL A   1      40.108  25.117  27.026  1.00  0.00     0.338 C 
ATOM     29  O   UNL A   1      40.958  24.878  26.187  1.00  0.00    -0.246 OA
BRANCH  28  30
ATOM     30  C   UNL A   1      39.877  26.444  27.671  1.00  0.00     0.060 A 
ATOM     31  C   UNL A   1      40.434  27.634  27.167  1.00  0.00     0.016 A 
ATOM     32  C   UNL A   1      39.236  26.457  28.902  1.00  0.00     0.016 A 
ATOM     33  C   UNL A   1      40.474  28.796  27.965  1.00  0.00     0.010 A 
ATOM     34  C   UNL A   1      39.394  27.550  29.723  1.00  0.00     0.010 A 
ATOM     35  C   UNL A   1      40.014  28.729  29.278  1.00  0.00    -0.014 A 
BRANCH  35  36
ATOM     36  C   UNL A   1      40.126  29.758  30.321  1.00  0.00     0.031 A 
ATOM     37  C   UNL A   1      39.252  30.947  30.190  1.00  0.00     0.074 A 
ATOM     38  C   UNL A   1      40.742  29.517  31.507  1.00  0.00     0.049 A 
ATOM     39  N   UNL A   1      39.408  32.031  30.867  1.00  0.00    -0.248 NA
ATOM     40  C   UNL A   1      38.147  31.048  29.233  1.00  0.00     0.031 C 
ATOM     41  C   UNL A   1      40.445  30.101  32.817  1.00  0.00     0.029 A 
ATOM     42  N   UNL A   1      41.769  28.625  31.805  1.00  0.00    -0.354 N 
ATOM     43  C   UNL A   1      38.245  32.754  30.739  1.00  0.00     0.074 A 
ATOM     44  C   UNL A   1      37.577  32.198  29.593  1.00  0.00     0.031 C 
ATOM     45  C   UNL A   1      41.395  29.744  33.704  1.00  0.00     0.029 A 
ATOM     46  C   UNL A   1      42.423  29.015  32.977  1.00  0.00     0.049 A 
ATOM     47  H   UNL A   1      42.001  27.832  31.268  1.00  0.00     0.167 HD
ATOM     48  C   UNL A   1      37.896  33.610  31.739  1.00  0.00     0.031 A 
ATOM     49  C   UNL A   1      43.767  29.234  32.963  1.00  0.00     0.031 A 
ATOM     50  C   UNL A   1      38.934  33.645  32.779  1.00  0.00     0.049 A 
ATOM     51  C   UNL A   1      43.977  30.710  33.143  1.00  0.00     0.074 A 
ATOM     52  C   UNL A   1      38.993  33.128  34.062  1.00  0.00     0.029 A 
ATOM     53  N   UNL A   1      40.243  33.973  32.429  1.00  0.00    -0.354 N 
ATOM     54  N   UNL A   1      43.028  31.572  32.902  1.00  0.00    -0.248 NA
ATOM     55  C   UNL A   1      45.180  31.338  33.673  1.00  0.00     0.031 C 
ATOM     56  C   UNL A   1      40.363  33.077  34.448  1.00  0.00     0.029 A 
ATOM     57  C   UNL A   1      41.133  33.590  33.415  1.00  0.00     0.049 A 
ATOM     58  H   UNL A   1      40.499  34.420  31.590  1.00  0.00     0.167 HD
ATOM     59  C   UNL A   1      43.413  32.804  33.310  1.00  0.00     0.074 A 
ATOM     60  C   UNL A   1      44.790  32.626  33.737  1.00  0.00     0.031 C 
ATOM     61  C   UNL A   1      42.561  33.864  33.277  1.00  0.00     0.031 A 
BRANCH  48  62
ATOM     62  C   UNL A   1      36.513  34.207  31.922  1.00  0.00    -0.014 A 
ATOM     63  C   UNL A   1      35.587  34.123  30.862  1.00  0.00     0.010 A 
ATOM     64  C   UNL A   1      36.061  34.885  33.071  1.00  0.00     0.010 A 
ATOM     65  C   UNL A   1      34.309  34.699  30.933  1.00  0.00     0.020 A 
ATOM     66  C   UNL A   1      34.790  35.475  33.158  1.00  0.00     0.020 A 
ATOM     67  C   UNL A   1      33.918  35.375  32.085  1.00  0.00     0.054 A 
BRANCH  67  68
ATOM     68  S   UNL A   1      32.256  36.083  32.174  1.00  0.00     0.124 S 
ATOM     69  O   UNL A   1      31.456  34.955  32.644  1.00  0.00    -0.237 OA
ATOM     70  O   UNL A   1      32.431  37.173  33.130  1.00  0.00    -0.237 OA
ATOM     71  O   UNL A   1      31.981  36.504  30.801  1.00  0.00    -0.744 OA
ENDBRANCH  67  68
ENDBRANCH  48  62
BRANCH  49  72
ATOM     72  C   UNL A   1      44.493  28.287  32.049  1.00  0.00    -0.014 A 
ATOM     73  C   UNL A   1      44.345  26.901  32.307  1.00  0.00     0.010 A 
ATOM     74  C   UNL A   1      44.835  28.679  30.740  1.00  0.00     0.010 A 
ATOM     75  C   UNL A   1      44.378  25.959  31.265  1.00  0.00     0.020 A 
ATOM     76  C   UNL A   1      44.842  27.739  29.691  1.00  0.00     0.020 A 
ATOM     77  C   UNL A   1      44.567  26.393  29.952  1.00  0.00     0.054 A 
BRANCH  77  78
ATOM     78  S   UNL A   1      44.123  25.259  28.583  1.00  0.00     0.124 S 
ATOM     79  O   UNL A   1      43.011  24.504  29.146  1.00  0.00    -0.237 OA
ATOM     80  O   UNL A   1      43.771  26.177  27.497  1.00  0.00    -0.237 OA
ATOM     81  O   UNL A   1      45.354  24.509  28.357  1.00  0.00    -0.744 OA
ENDBRANCH  77  78
ENDBRANCH  49  72
BRANCH  61  82
ATOM     82  C   UNL A   1      43.033  35.280  33.192  1.00  0.00    -0.014 A 
ATOM     83  C   UNL A   1      42.734  36.237  34.174  1.00  0.00     0.010 A 
ATOM     84  C   UNL A   1      43.949  35.643  32.181  1.00  0.00     0.010 A 
ATOM     85  C   UNL A   1      43.231  37.535  34.086  1.00  0.00     0.020 A 
ATOM     86  C   UNL A   1      44.506  36.917  32.122  1.00  0.00     0.020 A 
ATOM     87  C   UNL A   1      44.103  37.869  33.052  1.00  0.00     0.054 A 
BRANCH  87  88
ATOM     88  S   UNL A   1      44.710  39.562  32.944  1.00  0.00     0.124 S 
ATOM     89  O   UNL A   1      44.007  40.050  31.760  1.00  0.00    -0.237 OA
ATOM     90  O   UNL A   1      44.277  40.140  34.214  1.00  0.00    -0.237 OA
ATOM     91  O   UNL A   1      46.154  39.403  32.797  1.00  0.00    -0.744 OA
ENDBRANCH  87  88
ENDBRANCH  61  82
ENDBRANCH  35  36
ENDBRANCH  28  30
ENDBRANCH  27  28
ENDBRANCH  26  27
ENDBRANCH   1  26
TORSDOF 20
ENDMDL
