MODEL 1
REMARK VINA RESULT:     -10.5      0.000      0.000
REMARK SMILES Cc1cnn([C@H]2CC[C@@]([NH3+])(C(=O)OCCOCCOC(=O)c3ccc(-c4c5nc(c(-c6ccc(S(=O)(=O)[O-])cc6)c6ccc([nH]6)c(-c6ccc(S(=O)(=O)[O-])cc6)c6nc(c(-c7ccc(S(=O)(=O)[O-])cc7)c7ccc4[nH]7)C=C6)C=C5)cc3)C2)c1
REMARK SMILES IDX 17 1 16 2 15 3 14 4 13 5 11 6 12 7 9 8 6 9 7 10 82 11 8 12
REMARK SMILES IDX 5 13 1 14 2 15 3 16 83 17 4 18 10 19 18 23 19 24 20 25 21 26
REMARK SMILES IDX 22 27 23 28 81 29 24 30 80 31 25 32 26 33 27 34 74 35 28 36
REMARK SMILES IDX 79 37 73 38 75 39 29 40 78 41 72 42 71 43 30 45 60 46 41 47
REMARK SMILES IDX 59 48 42 49 45 50 58 51 76 52 43 53 44 54 57 56 77 57 46 58
REMARK SMILES IDX 31 59 32 60 40 61 33 62 39 63 34 64 35 65 36 66 37 67 38 68
REMARK SMILES IDX 61 69 62 70 70 71 63 72 69 73 64 74 65 75 66 76 67 77 68 78
REMARK SMILES IDX 47 79 48 80 56 81 49 82 55 83 50 84 51 85 52 86 53 87 54 88
REMARK H PARENT 10 20 10 21 10 22 75 44 45 55
REMARK Flexibility Score: inf
ROOT
ATOM      1  C   UNL A   1      40.703  21.396  27.027  1.00  0.00     0.202 C 
ENDROOT
BRANCH   1   2
ATOM      2  O   UNL A   1      39.667  21.304  26.053  1.00  0.00    -0.374 OA
BRANCH   2   3
ATOM      3  C   UNL A   1      38.642  22.286  26.229  1.00  0.00     0.202 C 
BRANCH   3   4
ATOM      4  C   UNL A   1      37.583  22.268  25.126  1.00  0.00     0.261 C 
BRANCH   4   5
ATOM      5  O   UNL A   1      36.280  22.645  25.623  1.00  0.00    -0.459 OA
BRANCH   5   6
ATOM      6  C   UNL A   1      35.246  21.836  25.247  1.00  0.00     0.368 C 
ATOM      7  O   UNL A   1      35.336  20.618  25.112  1.00  0.00    -0.245 OA
BRANCH   6   8
ATOM      8  C   UNL A   1      33.955  22.632  24.870  1.00  0.00     0.194 C 
ATOM      9  C   UNL A   1      32.150  21.110  24.092  1.00  0.00     0.114 C 
ATOM     10  C   UNL A   1      31.678  21.792  25.388  1.00  0.00     0.034 C 
ATOM     11  C   UNL A   1      33.282  22.034  23.611  1.00  0.00     0.108 C 
ATOM     12  C   UNL A   1      32.835  22.647  25.923  1.00  0.00     0.083 C 
BRANCH   9  13
ATOM     13  N   UNL A   1      32.423  19.686  24.243  1.00  0.00    -0.269 N 
ATOM     14  C   UNL A   1      34.012  16.497  23.496  1.00  0.00     0.048 C 
ATOM     15  C   UNL A   1      33.245  17.657  24.008  1.00  0.00    -0.013 A 
ATOM     16  C   UNL A   1      32.889  17.935  25.343  1.00  0.00     0.138 A 
ATOM     17  C   UNL A   1      32.789  18.758  23.308  1.00  0.00     0.112 A 
ATOM     18  N   UNL A   1      32.362  19.153  25.483  1.00  0.00    -0.181 NA
ENDBRANCH   9  13
BRANCH   8  19
ATOM     19  N   UNL A   1      34.400  24.020  24.604  1.00  0.00    -0.343 N 
ATOM     20  H   UNL A   1      35.286  24.191  25.081  1.00  0.00     0.345 HD
ATOM     21  H   UNL A   1      33.698  24.674  24.949  1.00  0.00     0.345 HD
ATOM     22  H   UNL A   1      34.525  24.151  23.600  1.00  0.00     0.345 HD
ENDBRANCH   8  19
ENDBRANCH   6   8
ENDBRANCH   5   6
ENDBRANCH   4   5
ENDBRANCH   3   4
ENDBRANCH   2   3
ENDBRANCH   1   2
BRANCH   1  23
ATOM     23  C   UNL A   1      41.882  20.475  26.745  1.00  0.00     0.261 C 
BRANCH  23  24
ATOM     24  O   UNL A   1      42.469  20.866  25.514  1.00  0.00    -0.460 OA
BRANCH  24  25
ATOM     25  C   UNL A   1      43.816  20.773  25.469  1.00  0.00     0.338 C 
ATOM     26  O   UNL A   1      44.518  19.784  25.561  1.00  0.00    -0.246 OA
BRANCH  25  27
ATOM     27  C   UNL A   1      44.260  22.160  25.351  1.00  0.00     0.060 A 
ATOM     28  C   UNL A   1      45.102  22.548  26.379  1.00  0.00     0.016 A 
ATOM     29  C   UNL A   1      43.467  23.063  24.610  1.00  0.00     0.016 A 
ATOM     30  C   UNL A   1      44.876  23.790  26.904  1.00  0.00     0.010 A 
ATOM     31  C   UNL A   1      43.240  24.303  25.143  1.00  0.00     0.010 A 
ATOM     32  C   UNL A   1      43.865  24.591  26.348  1.00  0.00    -0.014 A 
BRANCH  32  33
ATOM     33  C   UNL A   1      43.544  25.795  27.063  1.00  0.00     0.031 A 
ATOM     34  C   UNL A   1      44.557  26.837  26.851  1.00  0.00     0.074 A 
ATOM     35  C   UNL A   1      42.454  25.936  27.831  1.00  0.00     0.049 A 
ATOM     36  N   UNL A   1      45.512  27.163  27.653  1.00  0.00    -0.248 NA
ATOM     37  C   UNL A   1      44.669  27.389  25.494  1.00  0.00     0.031 C 
ATOM     38  C   UNL A   1      41.248  25.111  27.899  1.00  0.00     0.029 A 
ATOM     39  N   UNL A   1      42.174  26.966  28.664  1.00  0.00    -0.354 N 
ATOM     40  C   UNL A   1      46.241  28.121  26.970  1.00  0.00     0.074 A 
ATOM     41  C   UNL A   1      45.823  28.047  25.592  1.00  0.00     0.031 C 
ATOM     42  C   UNL A   1      40.278  25.817  28.531  1.00  0.00     0.029 A 
ATOM     43  C   UNL A   1      40.841  27.070  29.015  1.00  0.00     0.049 A 
ATOM     44  H   UNL A   1      42.862  27.589  28.992  1.00  0.00     0.167 HD
ATOM     45  C   UNL A   1      46.942  29.083  27.626  1.00  0.00     0.031 A 
ATOM     46  C   UNL A   1      40.257  28.173  29.547  1.00  0.00     0.031 A 
ATOM     47  C   UNL A   1      47.098  28.775  29.025  1.00  0.00     0.049 A 
ATOM     48  C   UNL A   1      41.347  29.010  30.129  1.00  0.00     0.074 A 
ATOM     49  C   UNL A   1      47.703  27.750  29.725  1.00  0.00     0.029 A 
ATOM     50  N   UNL A   1      46.217  29.370  29.901  1.00  0.00    -0.354 N 
ATOM     51  N   UNL A   1      42.064  28.636  31.154  1.00  0.00    -0.248 NA
ATOM     52  C   UNL A   1      41.967  30.025  29.285  1.00  0.00     0.031 C 
ATOM     53  C   UNL A   1      46.831  27.486  30.822  1.00  0.00     0.029 A 
ATOM     54  C   UNL A   1      45.775  28.399  30.766  1.00  0.00     0.049 A 
ATOM     55  H   UNL A   1      45.952  30.318  29.906  1.00  0.00     0.167 HD
ATOM     56  C   UNL A   1      43.364  29.036  30.858  1.00  0.00     0.074 A 
ATOM     57  C   UNL A   1      43.224  29.966  29.739  1.00  0.00     0.031 C 
ATOM     58  C   UNL A   1      44.448  28.365  31.352  1.00  0.00     0.031 A 
BRANCH  45  59
ATOM     59  C   UNL A   1      47.117  30.467  27.070  1.00  0.00    -0.014 A 
ATOM     60  C   UNL A   1      48.388  31.063  27.110  1.00  0.00     0.010 A 
ATOM     61  C   UNL A   1      46.023  31.299  26.744  1.00  0.00     0.010 A 
ATOM     62  C   UNL A   1      48.544  32.438  26.893  1.00  0.00     0.020 A 
ATOM     63  C   UNL A   1      46.172  32.655  26.476  1.00  0.00     0.020 A 
ATOM     64  C   UNL A   1      47.430  33.225  26.590  1.00  0.00     0.054 A 
BRANCH  64  65
ATOM     65  S   UNL A   1      47.617  35.015  26.430  1.00  0.00     0.124 S 
ATOM     66  O   UNL A   1      47.893  35.410  27.808  1.00  0.00    -0.237 OA
ATOM     67  O   UNL A   1      48.736  35.125  25.498  1.00  0.00    -0.237 OA
ATOM     68  O   UNL A   1      46.325  35.447  25.900  1.00  0.00    -0.744 OA
ENDBRANCH  64  65
ENDBRANCH  45  59
BRANCH  46  69
ATOM     69  C   UNL A   1      38.913  28.704  29.197  1.00  0.00    -0.014 A 
ATOM     70  C   UNL A   1      37.977  29.044  30.188  1.00  0.00     0.010 A 
ATOM     71  C   UNL A   1      38.642  29.120  27.875  1.00  0.00     0.010 A 
ATOM     72  C   UNL A   1      36.840  29.813  29.876  1.00  0.00     0.020 A 
ATOM     73  C   UNL A   1      37.511  29.876  27.554  1.00  0.00     0.020 A 
ATOM     74  C   UNL A   1      36.624  30.239  28.562  1.00  0.00     0.054 A 
BRANCH  74  75
ATOM     75  S   UNL A   1      35.252  31.372  28.192  1.00  0.00     0.124 S 
ATOM     76  O   UNL A   1      34.422  30.573  27.295  1.00  0.00    -0.237 OA
ATOM     77  O   UNL A   1      34.689  31.631  29.514  1.00  0.00    -0.237 OA
ATOM     78  O   UNL A   1      35.912  32.519  27.569  1.00  0.00    -0.744 OA
ENDBRANCH  74  75
ENDBRANCH  46  69
BRANCH  58  79
ATOM     79  C   UNL A   1      44.221  27.322  32.427  1.00  0.00    -0.014 A 
ATOM     80  C   UNL A   1      44.183  25.936  32.170  1.00  0.00     0.010 A 
ATOM     81  C   UNL A   1      44.217  27.752  33.765  1.00  0.00     0.010 A 
ATOM     82  C   UNL A   1      44.115  25.011  33.222  1.00  0.00     0.020 A 
ATOM     83  C   UNL A   1      44.168  26.835  34.819  1.00  0.00     0.020 A 
ATOM     84  C   UNL A   1      44.108  25.468  34.544  1.00  0.00     0.054 A 
BRANCH  84  85
ATOM     85  S   UNL A   1      44.070  24.267  35.905  1.00  0.00     0.124 S 
ATOM     86  O   UNL A   1      44.701  25.004  36.995  1.00  0.00    -0.237 OA
ATOM     87  O   UNL A   1      42.642  24.003  36.066  1.00  0.00    -0.237 OA
ATOM     88  O   UNL A   1      44.845  23.137  35.392  1.00  0.00    -0.744 OA
ENDBRANCH  84  85
ENDBRANCH  58  79
ENDBRANCH  32  33
ENDBRANCH  25  27
ENDBRANCH  24  25
ENDBRANCH  23  24
ENDBRANCH   1  23
TORSDOF 19
ENDMDL
MODEL 2
REMARK VINA RESULT:     -10.4      2.789      7.793
REMARK SMILES Cc1cnn([C@H]2CC[C@@]([NH3+])(C(=O)OCCOCCOC(=O)c3ccc(-c4c5nc(c(-c6ccc(S(=O)(=O)[O-])cc6)c6ccc([nH]6)c(-c6ccc(S(=O)(=O)[O-])cc6)c6nc(c(-c7ccc(S(=O)(=O)[O-])cc7)c7ccc4[nH]7)C=C6)C=C5)cc3)C2)c1
REMARK SMILES IDX 17 1 16 2 15 3 14 4 13 5 11 6 12 7 9 8 6 9 7 10 82 11 8 12
REMARK SMILES IDX 5 13 1 14 2 15 3 16 83 17 4 18 10 19 18 23 19 24 20 25 21 26
REMARK SMILES IDX 22 27 23 28 81 29 24 30 80 31 25 32 26 33 27 34 74 35 28 36
REMARK SMILES IDX 79 37 73 38 75 39 29 40 78 41 72 42 71 43 30 45 60 46 41 47
REMARK SMILES IDX 59 48 42 49 45 50 58 51 76 52 43 53 44 54 57 56 77 57 46 58
REMARK SMILES IDX 31 59 32 60 40 61 33 62 39 63 34 64 35 65 36 66 37 67 38 68
REMARK SMILES IDX 61 69 62 70 70 71 63 72 69 73 64 74 65 75 66 76 67 77 68 78
REMARK SMILES IDX 47 79 48 80 56 81 49 82 55 83 50 84 51 85 52 86 53 87 54 88
REMARK H PARENT 10 20 10 21 10 22 75 44 45 55
REMARK Flexibility Score: inf
ROOT
ATOM      1  C   UNL A   1      36.512  22.149  25.988  1.00  0.00     0.202 C 
ENDROOT
BRANCH   1   2
ATOM      2  O   UNL A   1      35.160  21.715  25.866  1.00  0.00    -0.374 OA
BRANCH   2   3
ATOM      3  C   UNL A   1      34.804  21.355  24.529  1.00  0.00     0.202 C 
BRANCH   3   4
ATOM      4  C   UNL A   1      33.296  21.388  24.269  1.00  0.00     0.261 C 
BRANCH   4   5
ATOM      5  O   UNL A   1      32.812  22.735  24.079  1.00  0.00    -0.459 OA
BRANCH   5   6
ATOM      6  C   UNL A   1      31.979  23.207  25.053  1.00  0.00     0.368 C 
ATOM      7  O   UNL A   1      30.779  22.955  25.117  1.00  0.00    -0.245 OA
BRANCH   6   8
ATOM      8  C   UNL A   1      32.680  24.221  26.014  1.00  0.00     0.194 C 
ATOM      9  C   UNL A   1      33.373  26.281  24.806  1.00  0.00     0.114 C 
ATOM     10  C   UNL A   1      32.316  26.671  25.855  1.00  0.00     0.034 C 
ATOM     11  C   UNL A   1      33.872  24.917  25.313  1.00  0.00     0.108 C 
ATOM     12  C   UNL A   1      31.813  25.384  26.524  1.00  0.00     0.083 C 
BRANCH   9  13
ATOM     13  N   UNL A   1      32.902  26.389  23.431  1.00  0.00    -0.269 N 
ATOM     14  C   UNL A   1      32.548  25.413  19.942  1.00  0.00     0.048 C 
ATOM     15  C   UNL A   1      32.513  26.012  21.297  1.00  0.00    -0.013 A 
ATOM     16  C   UNL A   1      31.429  26.653  21.929  1.00  0.00     0.138 A 
ATOM     17  C   UNL A   1      33.499  25.995  22.266  1.00  0.00     0.112 A 
ATOM     18  N   UNL A   1      31.674  26.910  23.216  1.00  0.00    -0.181 NA
ENDBRANCH   9  13
BRANCH   8  19
ATOM     19  N   UNL A   1      33.158  23.421  27.166  1.00  0.00    -0.343 N 
ATOM     20  H   UNL A   1      32.994  22.430  26.984  1.00  0.00     0.345 HD
ATOM     21  H   UNL A   1      32.652  23.699  28.007  1.00  0.00     0.345 HD
ATOM     22  H   UNL A   1      34.157  23.581  27.300  1.00  0.00     0.345 HD
ENDBRANCH   8  19
ENDBRANCH   6   8
ENDBRANCH   5   6
ENDBRANCH   4   5
ENDBRANCH   3   4
ENDBRANCH   2   3
ENDBRANCH   1   2
BRANCH   1  23
ATOM     23  C   UNL A   1      37.508  21.228  25.299  1.00  0.00     0.261 C 
BRANCH  23  24
ATOM     24  O   UNL A   1      38.797  21.485  25.834  1.00  0.00    -0.460 OA
BRANCH  24  25
ATOM     25  C   UNL A   1      39.665  20.453  25.754  1.00  0.00     0.338 C 
ATOM     26  O   UNL A   1      39.477  19.325  25.339  1.00  0.00    -0.246 OA
BRANCH  25  27
ATOM     27  C   UNL A   1      40.891  20.977  26.350  1.00  0.00     0.060 A 
ATOM     28  C   UNL A   1      40.915  20.861  27.729  1.00  0.00     0.016 A 
ATOM     29  C   UNL A   1      41.627  21.949  25.637  1.00  0.00     0.016 A 
ATOM     30  C   UNL A   1      41.390  21.944  28.416  1.00  0.00     0.010 A 
ATOM     31  C   UNL A   1      42.096  23.034  26.329  1.00  0.00     0.010 A 
ATOM     32  C   UNL A   1      41.858  23.056  27.696  1.00  0.00    -0.014 A 
BRANCH  32  33
ATOM     33  C   UNL A   1      42.156  24.231  28.466  1.00  0.00     0.031 A 
ATOM     34  C   UNL A   1      41.185  25.305  28.210  1.00  0.00     0.074 A 
ATOM     35  C   UNL A   1      43.196  24.328  29.306  1.00  0.00     0.049 A 
ATOM     36  N   UNL A   1      41.346  26.327  27.443  1.00  0.00    -0.248 NA
ATOM     37  C   UNL A   1      39.804  25.071  28.655  1.00  0.00     0.031 C 
ATOM     38  C   UNL A   1      44.046  23.276  29.862  1.00  0.00     0.029 A 
ATOM     39  N   UNL A   1      43.636  25.446  29.929  1.00  0.00    -0.354 N 
ATOM     40  C   UNL A   1      40.129  26.987  27.465  1.00  0.00     0.074 A 
ATOM     41  C   UNL A   1      39.174  26.061  28.024  1.00  0.00     0.031 C 
ATOM     42  C   UNL A   1      44.720  23.781  30.924  1.00  0.00     0.029 A 
ATOM     43  C   UNL A   1      44.442  25.207  31.027  1.00  0.00     0.049 A 
ATOM     44  H   UNL A   1      43.403  26.353  29.626  1.00  0.00     0.167 HD
ATOM     45  C   UNL A   1      40.043  28.328  27.269  1.00  0.00     0.031 A 
ATOM     46  C   UNL A   1      44.729  26.113  31.996  1.00  0.00     0.031 A 
ATOM     47  C   UNL A   1      41.261  28.872  26.724  1.00  0.00     0.049 A 
ATOM     48  C   UNL A   1      44.466  27.466  31.425  1.00  0.00     0.074 A 
ATOM     49  C   UNL A   1      41.968  28.670  25.555  1.00  0.00     0.029 A 
ATOM     50  N   UNL A   1      42.143  29.451  27.610  1.00  0.00    -0.354 N 
ATOM     51  N   UNL A   1      45.164  27.976  30.446  1.00  0.00    -0.248 NA
ATOM     52  C   UNL A   1      43.139  28.045  31.597  1.00  0.00     0.031 C 
ATOM     53  C   UNL A   1      43.340  28.706  25.941  1.00  0.00     0.029 A 
ATOM     54  C   UNL A   1      43.399  28.984  27.309  1.00  0.00     0.049 A 
ATOM     55  H   UNL A   1      41.914  30.085  28.328  1.00  0.00     0.167 HD
ATOM     56  C   UNL A   1      44.238  28.618  29.631  1.00  0.00     0.074 A 
ATOM     57  C   UNL A   1      43.023  28.705  30.439  1.00  0.00     0.031 C 
ATOM     58  C   UNL A   1      44.447  28.763  28.287  1.00  0.00     0.031 A 
BRANCH  45  59
ATOM     59  C   UNL A   1      39.007  29.173  27.953  1.00  0.00    -0.014 A 
ATOM     60  C   UNL A   1      37.707  29.221  27.423  1.00  0.00     0.010 A 
ATOM     61  C   UNL A   1      39.334  30.120  28.948  1.00  0.00     0.010 A 
ATOM     62  C   UNL A   1      36.802  30.210  27.829  1.00  0.00     0.020 A 
ATOM     63  C   UNL A   1      38.427  31.075  29.396  1.00  0.00     0.020 A 
ATOM     64  C   UNL A   1      37.176  31.138  28.804  1.00  0.00     0.054 A 
BRANCH  64  65
ATOM     65  S   UNL A   1      36.050  32.483  29.237  1.00  0.00     0.124 S 
ATOM     66  O   UNL A   1      36.375  33.481  28.223  1.00  0.00    -0.237 OA
ATOM     67  O   UNL A   1      34.743  31.844  29.108  1.00  0.00    -0.237 OA
ATOM     68  O   UNL A   1      36.438  32.827  30.604  1.00  0.00    -0.744 OA
ENDBRANCH  64  65
ENDBRANCH  45  59
BRANCH  46  69
ATOM     69  C   UNL A   1      44.797  25.837  33.455  1.00  0.00    -0.014 A 
ATOM     70  C   UNL A   1      45.782  26.425  34.268  1.00  0.00     0.010 A 
ATOM     71  C   UNL A   1      43.723  25.186  34.101  1.00  0.00     0.010 A 
ATOM     72  C   UNL A   1      45.669  26.404  35.671  1.00  0.00     0.020 A 
ATOM     73  C   UNL A   1      43.608  25.152  35.493  1.00  0.00     0.020 A 
ATOM     74  C   UNL A   1      44.571  25.782  36.274  1.00  0.00     0.054 A 
BRANCH  74  75
ATOM     75  S   UNL A   1      44.338  25.904  38.072  1.00  0.00     0.124 S 
ATOM     76  O   UNL A   1      45.372  26.860  38.457  1.00  0.00    -0.237 OA
ATOM     77  O   UNL A   1      42.962  26.379  38.183  1.00  0.00    -0.237 OA
ATOM     78  O   UNL A   1      44.555  24.534  38.540  1.00  0.00    -0.744 OA
ENDBRANCH  74  75
ENDBRANCH  46  69
BRANCH  58  79
ATOM     79  C   UNL A   1      45.816  28.429  27.732  1.00  0.00    -0.014 A 
ATOM     80  C   UNL A   1      46.234  27.116  27.430  1.00  0.00     0.010 A 
ATOM     81  C   UNL A   1      46.644  29.497  27.344  1.00  0.00     0.010 A 
ATOM     82  C   UNL A   1      47.457  26.882  26.783  1.00  0.00     0.020 A 
ATOM     83  C   UNL A   1      47.853  29.272  26.682  1.00  0.00     0.020 A 
ATOM     84  C   UNL A   1      48.260  27.964  26.412  1.00  0.00     0.054 A 
BRANCH  84  85
ATOM     85  S   UNL A   1      49.819  27.660  25.532  1.00  0.00     0.124 S 
ATOM     86  O   UNL A   1      50.790  28.383  26.347  1.00  0.00    -0.237 OA
ATOM     87  O   UNL A   1      49.931  26.204  25.561  1.00  0.00    -0.237 OA
ATOM     88  O   UNL A   1      49.583  28.226  24.204  1.00  0.00    -0.744 OA
ENDBRANCH  84  85
ENDBRANCH  58  79
ENDBRANCH  32  33
ENDBRANCH  25  27
ENDBRANCH  24  25
ENDBRANCH  23  24
ENDBRANCH   1  23
TORSDOF 19
ENDMDL
MODEL 3
REMARK VINA RESULT:     -10.3      2.949      9.425
REMARK SMILES Cc1cnn([C@H]2CC[C@@]([NH3+])(C(=O)OCCOCCOC(=O)c3ccc(-c4c5nc(c(-c6ccc(S(=O)(=O)[O-])cc6)c6ccc([nH]6)c(-c6ccc(S(=O)(=O)[O-])cc6)c6nc(c(-c7ccc(S(=O)(=O)[O-])cc7)c7ccc4[nH]7)C=C6)C=C5)cc3)C2)c1
REMARK SMILES IDX 17 1 16 2 15 3 14 4 13 5 11 6 12 7 9 8 6 9 7 10 82 11 8 12
REMARK SMILES IDX 5 13 1 14 2 15 3 16 83 17 4 18 10 19 18 23 19 24 20 25 21 26
REMARK SMILES IDX 22 27 23 28 81 29 24 30 80 31 25 32 26 33 27 34 74 35 28 36
REMARK SMILES IDX 79 37 73 38 75 39 29 40 78 41 72 42 71 43 30 45 60 46 41 47
REMARK SMILES IDX 59 48 42 49 45 50 58 51 76 52 43 53 44 54 57 56 77 57 46 58
REMARK SMILES IDX 31 59 32 60 40 61 33 62 39 63 34 64 35 65 36 66 37 67 38 68
REMARK SMILES IDX 61 69 62 70 70 71 63 72 69 73 64 74 65 75 66 76 67 77 68 78
REMARK SMILES IDX 47 79 48 80 56 81 49 82 55 83 50 84 51 85 52 86 53 87 54 88
REMARK H PARENT 10 20 10 21 10 22 75 44 45 55
REMARK Flexibility Score: inf
ROOT
ATOM      1  C   UNL A   1      32.638  30.282  27.081  1.00  0.00     0.202 C 
ENDROOT
BRANCH   1   2
ATOM      2  O   UNL A   1      31.498  30.666  26.316  1.00  0.00    -0.374 OA
BRANCH   2   3
ATOM      3  C   UNL A   1      31.366  29.930  25.098  1.00  0.00     0.202 C 
BRANCH   3   4
ATOM      4  C   UNL A   1      32.670  29.284  24.629  1.00  0.00     0.261 C 
BRANCH   4   5
ATOM      5  O   UNL A   1      32.598  28.864  23.248  1.00  0.00    -0.459 OA
BRANCH   5   6
ATOM      6  C   UNL A   1      33.067  27.609  22.986  1.00  0.00     0.368 C 
ATOM      7  O   UNL A   1      34.257  27.317  22.917  1.00  0.00    -0.245 OA
BRANCH   6   8
ATOM      8  C   UNL A   1      31.929  26.592  22.645  1.00  0.00     0.194 C 
ATOM      9  C   UNL A   1      32.744  24.247  22.777  1.00  0.00     0.114 C 
ATOM     10  C   UNL A   1      31.662  24.442  23.855  1.00  0.00     0.034 C 
ATOM     11  C   UNL A   1      32.474  25.410  21.807  1.00  0.00     0.108 C 
ATOM     12  C   UNL A   1      31.240  25.917  23.842  1.00  0.00     0.083 C 
BRANCH   9  13
ATOM     13  N   UNL A   1      34.087  24.080  23.316  1.00  0.00    -0.269 N 
ATOM     14  C   UNL A   1      36.609  23.632  25.903  1.00  0.00     0.048 C 
ATOM     15  C   UNL A   1      35.795  23.790  24.675  1.00  0.00    -0.013 A 
ATOM     16  C   UNL A   1      36.013  23.198  23.414  1.00  0.00     0.138 A 
ATOM     17  C   UNL A   1      34.605  24.475  24.519  1.00  0.00     0.112 A 
ATOM     18  N   UNL A   1      34.991  23.398  22.579  1.00  0.00    -0.181 NA
ENDBRANCH   9  13
BRANCH   8  19
ATOM     19  N   UNL A   1      30.927  27.355  21.865  1.00  0.00    -0.343 N 
ATOM     20  H   UNL A   1      30.868  28.308  22.226  1.00  0.00     0.345 HD
ATOM     21  H   UNL A   1      30.015  26.904  21.949  1.00  0.00     0.345 HD
ATOM     22  H   UNL A   1      31.206  27.380  20.884  1.00  0.00     0.345 HD
ENDBRANCH   8  19
ENDBRANCH   6   8
ENDBRANCH   5   6
ENDBRANCH   4   5
ENDBRANCH   3   4
ENDBRANCH   2   3
ENDBRANCH   1   2
BRANCH   1  23
ATOM     23  C   UNL A   1      33.481  31.462  27.544  1.00  0.00     0.261 C 
BRANCH  23  24
ATOM     24  O   UNL A   1      34.847  31.090  27.466  1.00  0.00    -0.460 OA
BRANCH  24  25
ATOM     25  C   UNL A   1      35.715  31.995  27.971  1.00  0.00     0.338 C 
ATOM     26  O   UNL A   1      35.902  33.147  27.632  1.00  0.00    -0.246 OA
BRANCH  25  27
ATOM     27  C   UNL A   1      36.445  31.249  28.993  1.00  0.00     0.060 A 
ATOM     28  C   UNL A   1      37.473  31.978  29.565  1.00  0.00     0.016 A 
ATOM     29  C   UNL A   1      36.424  29.838  28.944  1.00  0.00     0.016 A 
ATOM     30  C   UNL A   1      38.649  31.308  29.762  1.00  0.00     0.010 A 
ATOM     31  C   UNL A   1      37.605  29.172  29.138  1.00  0.00     0.010 A 
ATOM     32  C   UNL A   1      38.720  29.944  29.428  1.00  0.00    -0.014 A 
BRANCH  32  33
ATOM     33  C   UNL A   1      40.026  29.348  29.470  1.00  0.00     0.031 A 
ATOM     34  C   UNL A   1      40.460  29.094  30.851  1.00  0.00     0.074 A 
ATOM     35  C   UNL A   1      40.752  29.068  28.378  1.00  0.00     0.049 A 
ATOM     36  N   UNL A   1      41.270  29.812  31.551  1.00  0.00    -0.248 NA
ATOM     37  C   UNL A   1      39.712  28.082  31.607  1.00  0.00     0.031 C 
ATOM     38  C   UNL A   1      40.339  28.999  26.977  1.00  0.00     0.029 A 
ATOM     39  N   UNL A   1      42.045  28.670  28.342  1.00  0.00    -0.354 N 
ATOM     40  C   UNL A   1      41.287  29.215  32.801  1.00  0.00     0.074 A 
ATOM     41  C   UNL A   1      40.156  28.320  32.840  1.00  0.00     0.031 C 
ATOM     42  C   UNL A   1      41.295  28.339  26.278  1.00  0.00     0.029 A 
ATOM     43  C   UNL A   1      42.423  28.066  27.158  1.00  0.00     0.049 A 
ATOM     44  H   UNL A   1      42.665  28.800  29.096  1.00  0.00     0.167 HD
ATOM     45  C   UNL A   1      42.372  29.299  33.614  1.00  0.00     0.031 A 
ATOM     46  C   UNL A   1      43.530  27.299  26.991  1.00  0.00     0.031 A 
ATOM     47  C   UNL A   1      43.294  30.315  33.178  1.00  0.00     0.049 A 
ATOM     48  C   UNL A   1      44.470  27.636  28.100  1.00  0.00     0.074 A 
ATOM     49  C   UNL A   1      43.215  31.684  33.017  1.00  0.00     0.029 A 
ATOM     50  N   UNL A   1      44.375  29.904  32.429  1.00  0.00    -0.354 N 
ATOM     51  N   UNL A   1      45.040  28.805  28.222  1.00  0.00    -0.248 NA
ATOM     52  C   UNL A   1      44.397  26.859  29.332  1.00  0.00     0.031 C 
ATOM     53  C   UNL A   1      43.951  31.961  31.828  1.00  0.00     0.029 A 
ATOM     54  C   UNL A   1      44.488  30.759  31.360  1.00  0.00     0.049 A 
ATOM     55  H   UNL A   1      44.961  29.137  32.625  1.00  0.00     0.167 HD
ATOM     56  C   UNL A   1      45.011  29.086  29.584  1.00  0.00     0.074 A 
ATOM     57  C   UNL A   1      44.688  27.812  30.224  1.00  0.00     0.031 C 
ATOM     58  C   UNL A   1      44.969  30.372  30.048  1.00  0.00     0.031 A 
BRANCH  45  59
ATOM     59  C   UNL A   1      42.762  28.187  34.546  1.00  0.00    -0.014 A 
ATOM     60  C   UNL A   1      43.173  28.504  35.851  1.00  0.00     0.010 A 
ATOM     61  C   UNL A   1      42.984  26.865  34.101  1.00  0.00     0.010 A 
ATOM     62  C   UNL A   1      43.829  27.556  36.648  1.00  0.00     0.020 A 
ATOM     63  C   UNL A   1      43.589  25.901  34.901  1.00  0.00     0.020 A 
ATOM     64  C   UNL A   1      44.042  26.264  36.158  1.00  0.00     0.054 A 
BRANCH  64  65
ATOM     65  S   UNL A   1      44.993  25.083  37.140  1.00  0.00     0.124 S 
ATOM     66  O   UNL A   1      44.310  25.149  38.429  1.00  0.00    -0.237 OA
ATOM     67  O   UNL A   1      44.815  23.844  36.387  1.00  0.00    -0.237 OA
ATOM     68  O   UNL A   1      46.347  25.632  37.118  1.00  0.00    -0.744 OA
ENDBRANCH  64  65
ENDBRANCH  45  59
BRANCH  46  69
ATOM     69  C   UNL A   1      43.609  26.041  26.203  1.00  0.00    -0.014 A 
ATOM     70  C   UNL A   1      44.716  25.755  25.384  1.00  0.00     0.010 A 
ATOM     71  C   UNL A   1      42.698  24.992  26.456  1.00  0.00     0.010 A 
ATOM     72  C   UNL A   1      44.928  24.457  24.882  1.00  0.00     0.020 A 
ATOM     73  C   UNL A   1      42.896  23.702  25.953  1.00  0.00     0.020 A 
ATOM     74  C   UNL A   1      44.024  23.435  25.186  1.00  0.00     0.054 A 
BRANCH  74  75
ATOM     75  S   UNL A   1      44.388  21.728  24.681  1.00  0.00     0.124 S 
ATOM     76  O   UNL A   1      45.688  21.489  25.301  1.00  0.00    -0.237 OA
ATOM     77  O   UNL A   1      43.269  20.982  25.249  1.00  0.00    -0.237 OA
ATOM     78  O   UNL A   1      44.402  21.796  23.219  1.00  0.00    -0.744 OA
ENDBRANCH  74  75
ENDBRANCH  46  69
BRANCH  58  79
ATOM     79  C   UNL A   1      45.199  31.500  29.063  1.00  0.00    -0.014 A 
ATOM     80  C   UNL A   1      46.464  32.073  28.819  1.00  0.00     0.010 A 
ATOM     81  C   UNL A   1      44.126  31.875  28.235  1.00  0.00     0.010 A 
ATOM     82  C   UNL A   1      46.640  33.014  27.793  1.00  0.00     0.020 A 
ATOM     83  C   UNL A   1      44.300  32.797  27.200  1.00  0.00     0.020 A 
ATOM     84  C   UNL A   1      45.554  33.371  26.988  1.00  0.00     0.054 A 
BRANCH  84  85
ATOM     85  S   UNL A   1      45.797  34.551  25.631  1.00  0.00     0.124 S 
ATOM     86  O   UNL A   1      45.477  35.828  26.260  1.00  0.00    -0.237 OA
ATOM     87  O   UNL A   1      47.201  34.357  25.277  1.00  0.00    -0.237 OA
ATOM     88  O   UNL A   1      44.845  34.109  24.612  1.00  0.00    -0.744 OA
ENDBRANCH  84  85
ENDBRANCH  58  79
ENDBRANCH  32  33
ENDBRANCH  25  27
ENDBRANCH  24  25
ENDBRANCH  23  24
ENDBRANCH   1  23
TORSDOF 19
ENDMDL
