MODEL 1
REMARK VINA RESULT:     -10.1      0.000      0.000
REMARK SMILES CCc1ccc2nc(NC(=O)/C=C/C(=O)OCCOCCOC(=O)c3ccc(-c4c5nc(c(-c6ccc(S(=O)(=O)[O-])cc6)c6ccc([nH]6)c(-c6ccc(S(=O)(=O)[O-])cc6)c6nc(c(-c7ccc(S(=O)(=O)[O-])cc7)c7ccc4[nH]7)C=C6)C=C5)cc3)sc2c1
REMARK SMILES IDX 19 1 18 2 17 3 16 4 14 5 15 6 13 7 12 8 10 9 9 10 11 12 8 13
REMARK SMILES IDX 3 14 4 15 87 16 5 17 86 18 6 19 85 20 7 21 2 22 1 23 20 24
REMARK SMILES IDX 21 25 22 26 23 27 24 28 25 29 26 30 84 31 27 32 83 33 28 34
REMARK SMILES IDX 29 35 30 36 77 37 31 38 82 39 76 40 78 41 32 42 81 43 75 44
REMARK SMILES IDX 74 45 33 47 63 48 44 49 62 50 45 51 48 52 61 53 79 54 46 55
REMARK SMILES IDX 47 56 60 58 80 59 49 60 34 61 35 62 43 63 36 64 42 65 37 66
REMARK SMILES IDX 38 67 39 68 40 69 41 70 64 71 65 72 73 73 66 74 72 75 67 76
REMARK SMILES IDX 68 77 69 78 70 79 71 80 50 81 51 82 59 83 52 84 58 85 53 86
REMARK SMILES IDX 54 87 55 88 56 89 57 90
REMARK H PARENT 9 11 78 46 48 57
REMARK Flexibility Score: inf
ROOT
ATOM      1  O   UNL A   1      34.154  31.951  27.642  1.00  0.00    -0.374 OA
ENDROOT
BRANCH   1   2
ATOM      2  C   UNL A   1      33.260  33.062  27.757  1.00  0.00     0.202 C 
BRANCH   2   3
ATOM      3  C   UNL A   1      33.599  34.121  28.812  1.00  0.00     0.261 C 
BRANCH   3   4
ATOM      4  O   UNL A   1      33.752  35.398  28.176  1.00  0.00    -0.460 OA
BRANCH   4   5
ATOM      5  C   UNL A   1      33.324  36.461  28.891  1.00  0.00     0.331 C 
ATOM      6  O   UNL A   1      33.125  37.597  28.473  1.00  0.00    -0.247 OA
BRANCH   5   7
ATOM      7  C   UNL A   1      32.994  35.988  30.244  1.00  0.00     0.099 C 
ATOM      8  C   UNL A   1      33.389  36.705  31.303  1.00  0.00     0.079 C 
BRANCH   8   9
ATOM      9  C   UNL A   1      32.857  36.417  32.649  1.00  0.00     0.250 C 
ATOM     10  N   UNL A   1      33.448  35.478  33.444  1.00  0.00    -0.298 N 
ATOM     11  H   UNL A   1      32.948  35.214  34.249  1.00  0.00     0.172 HD
ATOM     12  O   UNL A   1      31.811  36.954  33.011  1.00  0.00    -0.270 OA
BRANCH  10  13
ATOM     13  C   UNL A   1      34.652  34.862  33.250  1.00  0.00     0.190 A 
ATOM     14  C   UNL A   1      38.523  32.176  32.892  1.00  0.00    -0.047 A 
ATOM     15  C   UNL A   1      39.032  33.441  33.202  1.00  0.00     0.006 A 
ATOM     16  C   UNL A   1      37.136  31.993  32.745  1.00  0.00     0.025 A 
ATOM     17  C   UNL A   1      38.183  34.540  33.346  1.00  0.00     0.030 A 
ATOM     18  C   UNL A   1      36.288  33.102  32.926  1.00  0.00     0.057 A 
ATOM     19  C   UNL A   1      36.794  34.371  33.213  1.00  0.00     0.084 A 
ATOM     20  S   UNL A   1      34.563  33.199  32.875  1.00  0.00    -0.097 S 
ATOM     21  N   UNL A   1      35.850  35.364  33.367  1.00  0.00    -0.220 NA
BRANCH  14  22
ATOM     22  C   UNL A   1      39.475  31.014  32.738  1.00  0.00     0.032 C 
ATOM     23  C   UNL A   1      40.748  31.407  32.002  1.00  0.00     0.009 C 
ENDBRANCH  14  22
ENDBRANCH  10  13
ENDBRANCH   8   9
ENDBRANCH   5   7
ENDBRANCH   4   5
ENDBRANCH   3   4
ENDBRANCH   2   3
ENDBRANCH   1   2
BRANCH   1  24
ATOM     24  C   UNL A   1      35.525  32.150  27.978  1.00  0.00     0.202 C 
BRANCH  24  25
ATOM     25  C   UNL A   1      36.109  31.371  29.167  1.00  0.00     0.261 C 
BRANCH  25  26
ATOM     26  O   UNL A   1      36.415  29.997  28.882  1.00  0.00    -0.460 OA
BRANCH  26  27
ATOM     27  C   UNL A   1      37.120  29.359  29.848  1.00  0.00     0.338 C 
ATOM     28  O   UNL A   1      36.711  28.993  30.943  1.00  0.00    -0.246 OA
BRANCH  27  29
ATOM     29  C   UNL A   1      38.450  28.986  29.339  1.00  0.00     0.060 A 
ATOM     30  C   UNL A   1      39.364  28.423  30.238  1.00  0.00     0.016 A 
ATOM     31  C   UNL A   1      38.823  29.258  28.021  1.00  0.00     0.016 A 
ATOM     32  C   UNL A   1      40.665  28.143  29.828  1.00  0.00     0.010 A 
ATOM     33  C   UNL A   1      40.134  28.991  27.616  1.00  0.00     0.010 A 
ATOM     34  C   UNL A   1      41.067  28.455  28.523  1.00  0.00    -0.014 A 
BRANCH  34  35
ATOM     35  C   UNL A   1      42.497  28.339  28.149  1.00  0.00     0.031 A 
ATOM     36  C   UNL A   1      43.407  29.516  28.368  1.00  0.00     0.074 A 
ATOM     37  C   UNL A   1      42.979  27.191  27.640  1.00  0.00     0.049 A 
ATOM     38  N   UNL A   1      44.674  29.646  28.076  1.00  0.00    -0.248 NA
ATOM     39  C   UNL A   1      42.807  30.704  28.997  1.00  0.00     0.031 C 
ATOM     40  C   UNL A   1      42.203  25.968  27.428  1.00  0.00     0.029 A 
ATOM     41  N   UNL A   1      44.240  26.869  27.205  1.00  0.00    -0.354 N 
ATOM     42  C   UNL A   1      45.022  30.932  28.474  1.00  0.00     0.074 A 
ATOM     43  C   UNL A   1      43.826  31.550  29.003  1.00  0.00     0.031 C 
ATOM     44  C   UNL A   1      43.004  25.031  26.893  1.00  0.00     0.029 A 
ATOM     45  C   UNL A   1      44.336  25.598  26.691  1.00  0.00     0.049 A 
ATOM     46  H   UNL A   1      45.002  27.489  27.255  1.00  0.00     0.167 HD
ATOM     47  C   UNL A   1      46.231  31.541  28.406  1.00  0.00     0.031 A 
ATOM     48  C   UNL A   1      45.375  24.971  26.102  1.00  0.00     0.031 A 
ATOM     49  C   UNL A   1      47.412  30.923  27.863  1.00  0.00     0.049 A 
ATOM     50  C   UNL A   1      46.689  25.694  25.970  1.00  0.00     0.074 A 
ATOM     51  C   UNL A   1      48.688  31.450  27.761  1.00  0.00     0.029 A 
ATOM     52  N   UNL A   1      47.462  29.647  27.324  1.00  0.00    -0.354 N 
ATOM     53  N   UNL A   1      47.009  26.903  26.371  1.00  0.00    -0.248 NA
ATOM     54  C   UNL A   1      47.786  24.968  25.315  1.00  0.00     0.031 C 
ATOM     55  C   UNL A   1      49.493  30.516  27.104  1.00  0.00     0.029 A 
ATOM     56  C   UNL A   1      48.738  29.378  26.862  1.00  0.00     0.049 A 
ATOM     57  H   UNL A   1      46.701  29.024  27.276  1.00  0.00     0.167 HD
ATOM     58  C   UNL A   1      48.353  27.067  26.047  1.00  0.00     0.074 A 
ATOM     59  C   UNL A   1      48.786  25.831  25.426  1.00  0.00     0.031 C 
ATOM     60  C   UNL A   1      49.156  28.141  26.251  1.00  0.00     0.031 A 
BRANCH  47  61
ATOM     61  C   UNL A   1      46.324  32.963  28.896  1.00  0.00    -0.014 A 
ATOM     62  C   UNL A   1      46.059  34.050  28.043  1.00  0.00     0.010 A 
ATOM     63  C   UNL A   1      46.642  33.213  30.243  1.00  0.00     0.010 A 
ATOM     64  C   UNL A   1      46.148  35.361  28.521  1.00  0.00     0.020 A 
ATOM     65  C   UNL A   1      46.704  34.522  30.731  1.00  0.00     0.020 A 
ATOM     66  C   UNL A   1      46.472  35.588  29.862  1.00  0.00     0.054 A 
BRANCH  66  67
ATOM     67  S   UNL A   1      46.558  37.300  30.457  1.00  0.00     0.124 S 
ATOM     68  O   UNL A   1      47.902  37.353  31.028  1.00  0.00    -0.237 OA
ATOM     69  O   UNL A   1      46.363  38.074  29.234  1.00  0.00    -0.237 OA
ATOM     70  O   UNL A   1      45.467  37.385  31.426  1.00  0.00    -0.744 OA
ENDBRANCH  66  67
ENDBRANCH  47  61
BRANCH  48  71
ATOM     71  C   UNL A   1      45.207  23.588  25.578  1.00  0.00    -0.014 A 
ATOM     72  C   UNL A   1      45.594  22.476  26.345  1.00  0.00     0.010 A 
ATOM     73  C   UNL A   1      44.652  23.376  24.301  1.00  0.00     0.010 A 
ATOM     74  C   UNL A   1      45.444  21.179  25.842  1.00  0.00     0.020 A 
ATOM     75  C   UNL A   1      44.474  22.081  23.807  1.00  0.00     0.020 A 
ATOM     76  C   UNL A   1      44.882  20.991  24.576  1.00  0.00     0.054 A 
BRANCH  76  77
ATOM     77  S   UNL A   1      44.652  19.298  23.966  1.00  0.00     0.124 S 
ATOM     78  O   UNL A   1      44.506  19.509  22.529  1.00  0.00    -0.237 OA
ATOM     79  O   UNL A   1      45.885  18.641  24.388  1.00  0.00    -0.237 OA
ATOM     80  O   UNL A   1      43.446  18.846  24.657  1.00  0.00    -0.744 OA
ENDBRANCH  76  77
ENDBRANCH  48  71
BRANCH  60  81
ATOM     81  C   UNL A   1      50.602  28.018  25.845  1.00  0.00    -0.014 A 
ATOM     82  C   UNL A   1      51.030  28.329  24.543  1.00  0.00     0.010 A 
ATOM     83  C   UNL A   1      51.558  27.645  26.809  1.00  0.00     0.010 A 
ATOM     84  C   UNL A   1      52.384  28.242  24.205  1.00  0.00     0.020 A 
ATOM     85  C   UNL A   1      52.916  27.586  26.484  1.00  0.00     0.020 A 
ATOM     86  C   UNL A   1      53.318  27.872  25.179  1.00  0.00     0.054 A 
BRANCH  86  87
ATOM     87  S   UNL A   1      55.075  27.815  24.728  1.00  0.00     0.124 S 
ATOM     88  O   UNL A   1      55.292  29.152  24.184  1.00  0.00    -0.237 OA
ATOM     89  O   UNL A   1      55.726  27.543  26.008  1.00  0.00    -0.237 OA
ATOM     90  O   UNL A   1      55.149  26.728  23.756  1.00  0.00    -0.744 OA
ENDBRANCH  86  87
ENDBRANCH  60  81
ENDBRANCH  34  35
ENDBRANCH  27  29
ENDBRANCH  26  27
ENDBRANCH  25  26
ENDBRANCH  24  25
ENDBRANCH   1  24
TORSDOF 20
ENDMDL
MODEL 2
REMARK VINA RESULT:      -9.8      4.124      6.348
REMARK SMILES CCc1ccc2nc(NC(=O)/C=C/C(=O)OCCOCCOC(=O)c3ccc(-c4c5nc(c(-c6ccc(S(=O)(=O)[O-])cc6)c6ccc([nH]6)c(-c6ccc(S(=O)(=O)[O-])cc6)c6nc(c(-c7ccc(S(=O)(=O)[O-])cc7)c7ccc4[nH]7)C=C6)C=C5)cc3)sc2c1
REMARK SMILES IDX 19 1 18 2 17 3 16 4 14 5 15 6 13 7 12 8 10 9 9 10 11 12 8 13
REMARK SMILES IDX 3 14 4 15 87 16 5 17 86 18 6 19 85 20 7 21 2 22 1 23 20 24
REMARK SMILES IDX 21 25 22 26 23 27 24 28 25 29 26 30 84 31 27 32 83 33 28 34
REMARK SMILES IDX 29 35 30 36 77 37 31 38 82 39 76 40 78 41 32 42 81 43 75 44
REMARK SMILES IDX 74 45 33 47 63 48 44 49 62 50 45 51 48 52 61 53 79 54 46 55
REMARK SMILES IDX 47 56 60 58 80 59 49 60 34 61 35 62 43 63 36 64 42 65 37 66
REMARK SMILES IDX 38 67 39 68 40 69 41 70 64 71 65 72 73 73 66 74 72 75 67 76
REMARK SMILES IDX 68 77 69 78 70 79 71 80 50 81 51 82 59 83 52 84 58 85 53 86
REMARK SMILES IDX 54 87 55 88 56 89 57 90
REMARK H PARENT 9 11 78 46 48 57
REMARK Flexibility Score: inf
ROOT
ATOM      1  O   UNL A   1      34.420  31.357  27.171  1.00  0.00    -0.374 OA
ENDROOT
BRANCH   1   2
ATOM      2  C   UNL A   1      33.105  30.793  27.178  1.00  0.00     0.202 C 
BRANCH   2   3
ATOM      3  C   UNL A   1      32.838  29.640  26.205  1.00  0.00     0.261 C 
BRANCH   3   4
ATOM      4  O   UNL A   1      33.175  28.394  26.834  1.00  0.00    -0.460 OA
BRANCH   4   5
ATOM      5  C   UNL A   1      32.130  27.650  27.253  1.00  0.00     0.331 C 
ATOM      6  O   UNL A   1      31.294  27.962  28.094  1.00  0.00    -0.247 OA
BRANCH   5   7
ATOM      7  C   UNL A   1      32.076  26.441  26.416  1.00  0.00     0.099 C 
ATOM      8  C   UNL A   1      30.904  25.822  26.233  1.00  0.00     0.079 C 
BRANCH   8   9
ATOM      9  C   UNL A   1      30.755  24.779  25.200  1.00  0.00     0.250 C 
ATOM     10  N   UNL A   1      30.039  25.023  24.064  1.00  0.00    -0.298 N 
ATOM     11  H   UNL A   1      29.835  24.240  23.503  1.00  0.00     0.172 HD
ATOM     12  O   UNL A   1      31.192  23.650  25.417  1.00  0.00    -0.270 OA
BRANCH  10  13
ATOM     13  C   UNL A   1      29.572  26.226  23.615  1.00  0.00     0.190 A 
ATOM     14  C   UNL A   1      28.563  30.650  22.300  1.00  0.00    -0.047 A 
ATOM     15  C   UNL A   1      27.340  30.165  22.772  1.00  0.00     0.006 A 
ATOM     16  C   UNL A   1      29.695  29.816  22.291  1.00  0.00     0.025 A 
ATOM     17  C   UNL A   1      27.215  28.847  23.218  1.00  0.00     0.030 A 
ATOM     18  C   UNL A   1      29.565  28.500  22.775  1.00  0.00     0.057 A 
ATOM     19  C   UNL A   1      28.341  28.005  23.226  1.00  0.00     0.084 A 
ATOM     20  S   UNL A   1      30.757  27.261  22.955  1.00  0.00    -0.097 S 
ATOM     21  N   UNL A   1      28.359  26.700  23.674  1.00  0.00    -0.220 NA
BRANCH  14  22
ATOM     22  C   UNL A   1      28.654  32.079  21.819  1.00  0.00     0.032 C 
ATOM     23  C   UNL A   1      29.036  33.039  22.937  1.00  0.00     0.009 C 
ENDBRANCH  14  22
ENDBRANCH  10  13
ENDBRANCH   8   9
ENDBRANCH   5   7
ENDBRANCH   4   5
ENDBRANCH   3   4
ENDBRANCH   2   3
ENDBRANCH   1   2
BRANCH   1  24
ATOM     24  C   UNL A   1      34.837  32.110  28.308  1.00  0.00     0.202 C 
BRANCH  24  25
ATOM     25  C   UNL A   1      35.862  31.482  29.267  1.00  0.00     0.261 C 
BRANCH  25  26
ATOM     26  O   UNL A   1      36.353  30.198  28.849  1.00  0.00    -0.460 OA
BRANCH  26  27
ATOM     27  C   UNL A   1      37.024  29.508  29.804  1.00  0.00     0.338 C 
ATOM     28  O   UNL A   1      36.585  29.113  30.877  1.00  0.00    -0.246 OA
BRANCH  27  29
ATOM     29  C   UNL A   1      38.354  29.122  29.306  1.00  0.00     0.060 A 
ATOM     30  C   UNL A   1      39.261  28.567  30.218  1.00  0.00     0.016 A 
ATOM     31  C   UNL A   1      38.735  29.376  27.988  1.00  0.00     0.016 A 
ATOM     32  C   UNL A   1      40.563  28.276  29.818  1.00  0.00     0.010 A 
ATOM     33  C   UNL A   1      40.047  29.097  27.592  1.00  0.00     0.010 A 
ATOM     34  C   UNL A   1      40.973  28.568  28.511  1.00  0.00    -0.014 A 
BRANCH  34  35
ATOM     35  C   UNL A   1      42.404  28.440  28.145  1.00  0.00     0.031 A 
ATOM     36  C   UNL A   1      43.319  29.614  28.358  1.00  0.00     0.074 A 
ATOM     37  C   UNL A   1      42.882  27.284  27.650  1.00  0.00     0.049 A 
ATOM     38  N   UNL A   1      44.589  29.734  28.072  1.00  0.00    -0.248 NA
ATOM     39  C   UNL A   1      42.723  30.811  28.972  1.00  0.00     0.031 C 
ATOM     40  C   UNL A   1      42.100  26.064  27.446  1.00  0.00     0.029 A 
ATOM     41  N   UNL A   1      44.144  26.951  27.225  1.00  0.00    -0.354 N 
ATOM     42  C   UNL A   1      44.942  31.022  28.459  1.00  0.00     0.074 A 
ATOM     43  C   UNL A   1      43.747  31.652  28.976  1.00  0.00     0.031 C 
ATOM     44  C   UNL A   1      42.898  25.118  26.924  1.00  0.00     0.029 A 
ATOM     45  C   UNL A   1      44.235  25.675  26.724  1.00  0.00     0.049 A 
ATOM     46  H   UNL A   1      44.909  27.568  27.273  1.00  0.00     0.167 HD
ATOM     47  C   UNL A   1      46.155  31.623  28.392  1.00  0.00     0.031 A 
ATOM     48  C   UNL A   1      45.273  25.036  26.146  1.00  0.00     0.031 A 
ATOM     49  C   UNL A   1      47.335  30.994  27.862  1.00  0.00     0.049 A 
ATOM     50  C   UNL A   1      46.592  25.751  26.015  1.00  0.00     0.074 A 
ATOM     51  C   UNL A   1      48.615  31.512  27.761  1.00  0.00     0.029 A 
ATOM     52  N   UNL A   1      47.381  29.712  27.335  1.00  0.00    -0.354 N 
ATOM     53  N   UNL A   1      46.918  26.961  26.406  1.00  0.00    -0.248 NA
ATOM     54  C   UNL A   1      47.689  25.012  25.373  1.00  0.00     0.031 C 
ATOM     55  C   UNL A   1      49.418  30.567  27.118  1.00  0.00     0.029 A 
ATOM     56  C   UNL A   1      48.658  29.431  26.882  1.00  0.00     0.049 A 
ATOM     57  H   UNL A   1      46.617  29.093  27.289  1.00  0.00     0.167 HD
ATOM     58  C   UNL A   1      48.263  27.114  26.087  1.00  0.00     0.074 A 
ATOM     59  C   UNL A   1      48.693  25.870  25.481  1.00  0.00     0.031 C 
ATOM     60  C   UNL A   1      49.072  28.186  26.285  1.00  0.00     0.031 A 
BRANCH  47  61
ATOM     61  C   UNL A   1      46.254  33.049  28.869  1.00  0.00    -0.014 A 
ATOM     62  C   UNL A   1      46.021  34.129  27.999  1.00  0.00     0.010 A 
ATOM     63  C   UNL A   1      46.544  33.310  30.221  1.00  0.00     0.010 A 
ATOM     64  C   UNL A   1      46.115  35.445  28.464  1.00  0.00     0.020 A 
ATOM     65  C   UNL A   1      46.611  34.623  30.696  1.00  0.00     0.020 A 
ATOM     66  C   UNL A   1      46.411  35.683  29.810  1.00  0.00     0.054 A 
BRANCH  66  67
ATOM     67  S   UNL A   1      46.503  37.400  30.389  1.00  0.00     0.124 S 
ATOM     68  O   UNL A   1      46.900  37.226  31.785  1.00  0.00    -0.237 OA
ATOM     69  O   UNL A   1      47.520  37.978  29.514  1.00  0.00    -0.237 OA
ATOM     70  O   UNL A   1      45.148  37.908  30.187  1.00  0.00    -0.744 OA
ENDBRANCH  66  67
ENDBRANCH  47  61
BRANCH  48  71
ATOM     71  C   UNL A   1      45.101  23.649  25.635  1.00  0.00    -0.014 A 
ATOM     72  C   UNL A   1      44.917  23.405  24.263  1.00  0.00     0.010 A 
ATOM     73  C   UNL A   1      45.125  22.558  26.525  1.00  0.00     0.010 A 
ATOM     74  C   UNL A   1      44.745  22.099  23.792  1.00  0.00     0.020 A 
ATOM     75  C   UNL A   1      44.982  21.250  26.055  1.00  0.00     0.020 A 
ATOM     76  C   UNL A   1      44.781  21.030  24.691  1.00  0.00     0.054 A 
BRANCH  76  77
ATOM     77  S   UNL A   1      44.605  19.342  24.049  1.00  0.00     0.124 S 
ATOM     78  O   UNL A   1      44.461  19.575  22.616  1.00  0.00    -0.237 OA
ATOM     79  O   UNL A   1      45.856  18.715  24.466  1.00  0.00    -0.237 OA
ATOM     80  O   UNL A   1      43.410  18.842  24.725  1.00  0.00    -0.744 OA
ENDBRANCH  76  77
ENDBRANCH  48  71
BRANCH  60  81
ATOM     81  C   UNL A   1      50.519  28.050  25.889  1.00  0.00    -0.014 A 
ATOM     82  C   UNL A   1      50.968  28.408  24.606  1.00  0.00     0.010 A 
ATOM     83  C   UNL A   1      51.458  27.617  26.845  1.00  0.00     0.010 A 
ATOM     84  C   UNL A   1      52.323  28.308  24.277  1.00  0.00     0.020 A 
ATOM     85  C   UNL A   1      52.817  27.544  26.531  1.00  0.00     0.020 A 
ATOM     86  C   UNL A   1      53.239  27.877  25.243  1.00  0.00     0.054 A 
BRANCH  86  87
ATOM     87  S   UNL A   1      54.998  27.804  24.808  1.00  0.00     0.124 S 
ATOM     88  O   UNL A   1      55.640  27.910  26.115  1.00  0.00    -0.237 OA
ATOM     89  O   UNL A   1      55.113  26.502  24.154  1.00  0.00    -0.237 OA
ATOM     90  O   UNL A   1      55.187  28.954  23.927  1.00  0.00    -0.744 OA
ENDBRANCH  86  87
ENDBRANCH  60  81
ENDBRANCH  34  35
ENDBRANCH  27  29
ENDBRANCH  26  27
ENDBRANCH  25  26
ENDBRANCH  24  25
ENDBRANCH   1  24
TORSDOF 20
ENDMDL
MODEL 3
REMARK VINA RESULT:      -9.8      7.250     14.284
REMARK SMILES CCc1ccc2nc(NC(=O)/C=C/C(=O)OCCOCCOC(=O)c3ccc(-c4c5nc(c(-c6ccc(S(=O)(=O)[O-])cc6)c6ccc([nH]6)c(-c6ccc(S(=O)(=O)[O-])cc6)c6nc(c(-c7ccc(S(=O)(=O)[O-])cc7)c7ccc4[nH]7)C=C6)C=C5)cc3)sc2c1
REMARK SMILES IDX 19 1 18 2 17 3 16 4 14 5 15 6 13 7 12 8 10 9 9 10 11 12 8 13
REMARK SMILES IDX 3 14 4 15 87 16 5 17 86 18 6 19 85 20 7 21 2 22 1 23 20 24
REMARK SMILES IDX 21 25 22 26 23 27 24 28 25 29 26 30 84 31 27 32 83 33 28 34
REMARK SMILES IDX 29 35 30 36 77 37 31 38 82 39 76 40 78 41 32 42 81 43 75 44
REMARK SMILES IDX 74 45 33 47 63 48 44 49 62 50 45 51 48 52 61 53 79 54 46 55
REMARK SMILES IDX 47 56 60 58 80 59 49 60 34 61 35 62 43 63 36 64 42 65 37 66
REMARK SMILES IDX 38 67 39 68 40 69 41 70 64 71 65 72 73 73 66 74 72 75 67 76
REMARK SMILES IDX 68 77 69 78 70 79 71 80 50 81 51 82 59 83 52 84 58 85 53 86
REMARK SMILES IDX 54 87 55 88 56 89 57 90
REMARK H PARENT 9 11 78 46 48 57
REMARK Flexibility Score: inf
ROOT
ATOM      1  O   UNL A   1      39.626  21.149  25.968  1.00  0.00    -0.374 OA
ENDROOT
BRANCH   1   2
ATOM      2  C   UNL A   1      38.451  21.965  25.950  1.00  0.00     0.202 C 
BRANCH   2   3
ATOM      3  C   UNL A   1      37.411  21.663  24.866  1.00  0.00     0.261 C 
BRANCH   3   4
ATOM      4  O   UNL A   1      36.455  22.732  24.808  1.00  0.00    -0.460 OA
BRANCH   4   5
ATOM      5  C   UNL A   1      36.087  23.120  23.569  1.00  0.00     0.331 C 
ATOM      6  O   UNL A   1      36.705  22.937  22.526  1.00  0.00    -0.247 OA
BRANCH   5   7
ATOM      7  C   UNL A   1      34.729  23.680  23.659  1.00  0.00     0.099 C 
ATOM      8  C   UNL A   1      33.932  23.643  22.585  1.00  0.00     0.079 C 
BRANCH   8   9
ATOM      9  C   UNL A   1      32.493  23.944  22.703  1.00  0.00     0.250 C 
ATOM     10  N   UNL A   1      31.585  22.941  22.888  1.00  0.00    -0.298 N 
ATOM     11  H   UNL A   1      30.638  23.189  22.787  1.00  0.00     0.172 HD
ATOM     12  O   UNL A   1      32.103  25.097  22.527  1.00  0.00    -0.270 OA
BRANCH  10  13
ATOM     13  C   UNL A   1      31.839  21.635  23.197  1.00  0.00     0.190 A 
ATOM     14  C   UNL A   1      33.160  17.371  24.747  1.00  0.00    -0.047 A 
ATOM     15  C   UNL A   1      33.052  17.195  23.364  1.00  0.00     0.006 A 
ATOM     16  C   UNL A   1      32.864  18.620  25.322  1.00  0.00     0.025 A 
ATOM     17  C   UNL A   1      32.631  18.241  22.539  1.00  0.00     0.030 A 
ATOM     18  C   UNL A   1      32.473  19.675  24.476  1.00  0.00     0.057 A 
ATOM     19  C   UNL A   1      32.343  19.498  23.098  1.00  0.00     0.084 A 
ATOM     20  S   UNL A   1      32.106  21.322  24.854  1.00  0.00    -0.097 S 
ATOM     21  N   UNL A   1      31.954  20.616  22.391  1.00  0.00    -0.220 NA
BRANCH  14  22
ATOM     22  C   UNL A   1      33.612  16.214  25.605  1.00  0.00     0.032 C 
ATOM     23  C   UNL A   1      34.955  15.656  25.157  1.00  0.00     0.009 C 
ENDBRANCH  14  22
ENDBRANCH  10  13
ENDBRANCH   8   9
ENDBRANCH   5   7
ENDBRANCH   4   5
ENDBRANCH   3   4
ENDBRANCH   2   3
ENDBRANCH   1   2
BRANCH   1  24
ATOM     24  C   UNL A   1      40.708  21.544  26.808  1.00  0.00     0.202 C 
BRANCH  24  25
ATOM     25  C   UNL A   1      41.486  22.821  26.449  1.00  0.00     0.261 C 
BRANCH  25  26
ATOM     26  O   UNL A   1      40.695  24.020  26.465  1.00  0.00    -0.460 OA
BRANCH  26  27
ATOM     27  C   UNL A   1      41.386  25.160  26.224  1.00  0.00     0.338 C 
ATOM     28  O   UNL A   1      41.817  25.551  25.146  1.00  0.00    -0.246 OA
BRANCH  27  29
ATOM     29  C   UNL A   1      41.411  25.999  27.433  1.00  0.00     0.060 A 
ATOM     30  C   UNL A   1      40.358  25.866  28.347  1.00  0.00     0.016 A 
ATOM     31  C   UNL A   1      42.407  26.958  27.629  1.00  0.00     0.016 A 
ATOM     32  C   UNL A   1      40.287  26.704  29.457  1.00  0.00     0.010 A 
ATOM     33  C   UNL A   1      42.325  27.809  28.735  1.00  0.00     0.010 A 
ATOM     34  C   UNL A   1      41.253  27.702  29.641  1.00  0.00    -0.014 A 
BRANCH  34  35
ATOM     35  C   UNL A   1      41.068  28.714  30.708  1.00  0.00     0.031 A 
ATOM     36  C   UNL A   1      41.971  28.681  31.910  1.00  0.00     0.074 A 
ATOM     37  C   UNL A   1      40.119  29.662  30.595  1.00  0.00     0.049 A 
ATOM     38  N   UNL A   1      41.959  29.440  32.974  1.00  0.00    -0.248 NA
ATOM     39  C   UNL A   1      43.026  27.655  31.912  1.00  0.00     0.031 C 
ATOM     40  C   UNL A   1      39.217  29.823  29.454  1.00  0.00     0.029 A 
ATOM     41  N   UNL A   1      39.756  30.666  31.456  1.00  0.00    -0.354 N 
ATOM     42  C   UNL A   1      42.994  28.977  33.778  1.00  0.00     0.074 A 
ATOM     43  C   UNL A   1      43.596  27.856  33.091  1.00  0.00     0.031 C 
ATOM     44  C   UNL A   1      38.396  30.859  29.691  1.00  0.00     0.029 A 
ATOM     45  C   UNL A   1      38.689  31.411  31.012  1.00  0.00     0.049 A 
ATOM     46  H   UNL A   1      40.214  30.836  32.309  1.00  0.00     0.167 HD
ATOM     47  C   UNL A   1      43.407  29.448  34.980  1.00  0.00     0.031 A 
ATOM     48  C   UNL A   1      38.011  32.408  31.615  1.00  0.00     0.031 A 
ATOM     49  C   UNL A   1      42.791  30.555  35.664  1.00  0.00     0.049 A 
ATOM     50  C   UNL A   1      38.441  32.866  32.984  1.00  0.00     0.074 A 
ATOM     51  C   UNL A   1      43.142  31.117  36.879  1.00  0.00     0.029 A 
ATOM     52  N   UNL A   1      41.694  31.263  35.197  1.00  0.00    -0.354 N 
ATOM     53  N   UNL A   1      39.435  32.433  33.723  1.00  0.00    -0.248 NA
ATOM     54  C   UNL A   1      37.663  33.952  33.597  1.00  0.00     0.031 C 
ATOM     55  C   UNL A   1      42.219  32.124  37.176  1.00  0.00     0.029 A 
ATOM     56  C   UNL A   1      41.337  32.238  36.112  1.00  0.00     0.049 A 
ATOM     57  H   UNL A   1      41.236  31.096  34.342  1.00  0.00     0.167 HD
ATOM     58  C   UNL A   1      39.423  33.217  34.873  1.00  0.00     0.074 A 
ATOM     59  C   UNL A   1      38.329  34.156  34.726  1.00  0.00     0.031 C 
ATOM     60  C   UNL A   1      40.247  33.169  35.950  1.00  0.00     0.031 A 
BRANCH  47  61
ATOM     61  C   UNL A   1      44.555  28.738  35.650  1.00  0.00    -0.014 A 
ATOM     62  C   UNL A   1      45.888  29.124  35.420  1.00  0.00     0.010 A 
ATOM     63  C   UNL A   1      44.292  27.694  36.556  1.00  0.00     0.010 A 
ATOM     64  C   UNL A   1      46.938  28.453  36.056  1.00  0.00     0.020 A 
ATOM     65  C   UNL A   1      45.337  27.040  37.215  1.00  0.00     0.020 A 
ATOM     66  C   UNL A   1      46.655  27.414  36.948  1.00  0.00     0.054 A 
BRANCH  66  67
ATOM     67  S   UNL A   1      48.036  26.578  37.774  1.00  0.00     0.124 S 
ATOM     68  O   UNL A   1      48.591  25.769  36.691  1.00  0.00    -0.237 OA
ATOM     69  O   UNL A   1      48.869  27.694  38.215  1.00  0.00    -0.237 OA
ATOM     70  O   UNL A   1      47.393  25.823  38.847  1.00  0.00    -0.744 OA
ENDBRANCH  66  67
ENDBRANCH  47  61
BRANCH  48  71
ATOM     71  C   UNL A   1      36.843  33.031  30.932  1.00  0.00    -0.014 A 
ATOM     72  C   UNL A   1      35.530  32.685  31.292  1.00  0.00     0.010 A 
ATOM     73  C   UNL A   1      37.043  33.984  29.915  1.00  0.00     0.010 A 
ATOM     74  C   UNL A   1      34.438  33.265  30.639  1.00  0.00     0.020 A 
ATOM     75  C   UNL A   1      35.956  34.589  29.280  1.00  0.00     0.020 A 
ATOM     76  C   UNL A   1      34.659  34.217  29.638  1.00  0.00     0.054 A 
BRANCH  76  77
ATOM     77  S   UNL A   1      33.227  34.994  28.840  1.00  0.00     0.124 S 
ATOM     78  O   UNL A   1      32.420  35.395  29.988  1.00  0.00    -0.237 OA
ATOM     79  O   UNL A   1      33.839  36.082  28.084  1.00  0.00    -0.237 OA
ATOM     80  O   UNL A   1      32.664  33.918  28.026  1.00  0.00    -0.744 OA
ENDBRANCH  76  77
ENDBRANCH  48  71
BRANCH  60  81
ATOM     81  C   UNL A   1      40.034  34.189  37.038  1.00  0.00    -0.014 A 
ATOM     82  C   UNL A   1      40.614  35.468  36.971  1.00  0.00     0.010 A 
ATOM     83  C   UNL A   1      39.182  33.879  38.115  1.00  0.00     0.010 A 
ATOM     84  C   UNL A   1      40.369  36.407  37.977  1.00  0.00     0.020 A 
ATOM     85  C   UNL A   1      38.910  34.826  39.106  1.00  0.00     0.020 A 
ATOM     86  C   UNL A   1      39.517  36.080  39.037  1.00  0.00     0.054 A 
BRANCH  86  87
ATOM     87  S   UNL A   1      39.175  37.334  40.303  1.00  0.00     0.124 S 
ATOM     88  O   UNL A   1      40.507  37.874  40.563  1.00  0.00    -0.237 OA
ATOM     89  O   UNL A   1      38.253  38.238  39.618  1.00  0.00    -0.237 OA
ATOM     90  O   UNL A   1      38.589  36.570  41.401  1.00  0.00    -0.744 OA
ENDBRANCH  86  87
ENDBRANCH  60  81
ENDBRANCH  34  35
ENDBRANCH  27  29
ENDBRANCH  26  27
ENDBRANCH  25  26
ENDBRANCH  24  25
ENDBRANCH   1  24
TORSDOF 20
ENDMDL
