MODEL 1
REMARK VINA RESULT:     -10.3      0.000      0.000
REMARK SMILES C[C@@H](C(=O)OCCOCCOC(=O)c1ccc(-c2c3nc(c(-c4ccc(S(=O)(=O)[O-])cc4)c4ccc([nH]4)c(-c4ccc(S(=O)(=O)[O-])cc4)c4nc(c(-c5ccc(S(=O)(=O)[O-])cc5)c5ccc2[nH]5)C=C4)C=C3)cc1)c1ccc(-c2ccccc2)cc1
REMARK SMILES IDX 9 1 8 2 7 3 6 4 5 5 3 6 4 7 2 8 1 9 74 10 75 11 85 12 76 13
REMARK SMILES IDX 84 14 77 15 78 16 79 17 83 18 80 19 82 20 81 21 10 22 11 23
REMARK SMILES IDX 12 24 13 25 14 26 15 27 73 28 16 29 72 30 17 31 18 32 19 33
REMARK SMILES IDX 66 34 20 35 71 36 65 37 67 38 21 39 70 40 64 41 63 42 22 44
REMARK SMILES IDX 52 45 33 46 51 47 34 48 37 49 50 50 68 51 35 52 36 53 49 55
REMARK SMILES IDX 69 56 38 57 23 58 24 59 32 60 25 61 31 62 26 63 27 64 28 65
REMARK SMILES IDX 29 66 30 67 53 68 54 69 62 70 55 71 61 72 56 73 57 74 58 75
REMARK SMILES IDX 59 76 60 77 39 78 40 79 48 80 41 81 47 82 42 83 43 84 44 85
REMARK SMILES IDX 45 86 46 87
REMARK H PARENT 67 43 37 54
REMARK Flexibility Score: inf
ROOT
ATOM      1  C   UNL A   1      38.716  22.097  26.037  1.00  0.00     0.202 C 
ENDROOT
BRANCH   1   2
ATOM      2  O   UNL A   1      37.445  22.686  25.760  1.00  0.00    -0.374 OA
BRANCH   2   3
ATOM      3  C   UNL A   1      36.379  21.795  25.416  1.00  0.00     0.202 C 
BRANCH   3   4
ATOM      4  C   UNL A   1      35.539  22.207  24.203  1.00  0.00     0.261 C 
BRANCH   4   5
ATOM      5  O   UNL A   1      34.143  22.177  24.543  1.00  0.00    -0.463 OA
BRANCH   5   6
ATOM      6  C   UNL A   1      33.316  22.893  23.736  1.00  0.00     0.313 C 
ATOM      7  O   UNL A   1      33.441  22.976  22.519  1.00  0.00    -0.252 OA
BRANCH   6   8
ATOM      8  C   UNL A   1      32.151  23.526  24.504  1.00  0.00     0.126 C 
ATOM      9  C   UNL A   1      30.841  23.655  23.717  1.00  0.00     0.025 C 
BRANCH   8  10
ATOM     10  C   UNL A   1      32.516  24.864  25.146  1.00  0.00    -0.034 A 
ATOM     11  C   UNL A   1      33.674  25.533  24.726  1.00  0.00     0.005 A 
ATOM     12  C   UNL A   1      31.740  25.459  26.153  1.00  0.00     0.005 A 
ATOM     13  C   UNL A   1      34.022  26.775  25.269  1.00  0.00     0.009 A 
ATOM     14  C   UNL A   1      32.094  26.698  26.699  1.00  0.00     0.009 A 
ATOM     15  C   UNL A   1      33.229  27.383  26.253  1.00  0.00    -0.018 A 
BRANCH  15  16
ATOM     16  C   UNL A   1      33.550  28.723  26.762  1.00  0.00    -0.018 A 
ATOM     17  C   UNL A   1      34.856  29.027  27.180  1.00  0.00     0.009 A 
ATOM     18  C   UNL A   1      32.580  29.735  26.826  1.00  0.00     0.009 A 
ATOM     19  C   UNL A   1      35.183  30.301  27.649  1.00  0.00     0.001 A 
ATOM     20  C   UNL A   1      32.905  31.009  27.298  1.00  0.00     0.001 A 
ATOM     21  C   UNL A   1      34.207  31.292  27.709  1.00  0.00     0.000 A 
ENDBRANCH  15  16
ENDBRANCH   8  10
ENDBRANCH   6   8
ENDBRANCH   5   6
ENDBRANCH   4   5
ENDBRANCH   3   4
ENDBRANCH   2   3
ENDBRANCH   1   2
BRANCH   1  22
ATOM     22  C   UNL A   1      39.817  23.031  26.551  1.00  0.00     0.261 C 
BRANCH  22  23
ATOM     23  O   UNL A   1      39.430  24.414  26.482  1.00  0.00    -0.460 OA
BRANCH  23  24
ATOM     24  C   UNL A   1      40.465  25.280  26.380  1.00  0.00     0.338 C 
ATOM     25  O   UNL A   1      41.129  25.521  25.379  1.00  0.00    -0.246 OA
BRANCH  24  26
ATOM     26  C   UNL A   1      40.590  26.068  27.620  1.00  0.00     0.060 A 
ATOM     27  C   UNL A   1      39.560  25.943  28.562  1.00  0.00     0.016 A 
ATOM     28  C   UNL A   1      41.649  26.952  27.837  1.00  0.00     0.016 A 
ATOM     29  C   UNL A   1      39.554  26.746  29.699  1.00  0.00     0.010 A 
ATOM     30  C   UNL A   1      41.636  27.765  28.977  1.00  0.00     0.010 A 
ATOM     31  C   UNL A   1      40.569  27.692  29.890  1.00  0.00    -0.014 A 
BRANCH  31  32
ATOM     32  C   UNL A   1      40.417  28.709  30.957  1.00  0.00     0.031 A 
ATOM     33  C   UNL A   1      41.311  28.631  32.165  1.00  0.00     0.074 A 
ATOM     34  C   UNL A   1      39.530  29.713  30.831  1.00  0.00     0.049 A 
ATOM     35  N   UNL A   1      41.360  29.414  33.211  1.00  0.00    -0.248 NA
ATOM     36  C   UNL A   1      42.282  27.523  32.195  1.00  0.00     0.031 C 
ATOM     37  C   UNL A   1      38.645  29.920  29.686  1.00  0.00     0.029 A 
ATOM     38  N   UNL A   1      39.234  30.749  31.680  1.00  0.00    -0.354 N 
ATOM     39  C   UNL A   1      42.356  28.891  34.028  1.00  0.00     0.074 A 
ATOM     40  C   UNL A   1      42.869  27.710  33.369  1.00  0.00     0.031 C 
ATOM     41  C   UNL A   1      37.902  31.019  29.904  1.00  0.00     0.029 A 
ATOM     42  C   UNL A   1      38.237  31.574  31.215  1.00  0.00     0.049 A 
ATOM     43  H   UNL A   1      39.692  30.889  32.540  1.00  0.00     0.167 HD
ATOM     44  C   UNL A   1      42.806  29.354  35.217  1.00  0.00     0.031 A 
ATOM     45  C   UNL A   1      37.654  32.644  31.788  1.00  0.00     0.031 A 
ATOM     46  C   UNL A   1      42.287  30.524  35.874  1.00  0.00     0.049 A 
ATOM     47  C   UNL A   1      38.123  33.101  33.144  1.00  0.00     0.074 A 
ATOM     48  C   UNL A   1      42.688  31.087  37.073  1.00  0.00     0.029 A 
ATOM     49  N   UNL A   1      41.247  31.305  35.393  1.00  0.00    -0.354 N 
ATOM     50  N   UNL A   1      39.084  32.610  33.892  1.00  0.00    -0.248 NA
ATOM     51  C   UNL A   1      37.435  34.259  33.731  1.00  0.00     0.031 C 
ATOM     52  C   UNL A   1      41.853  32.177  37.343  1.00  0.00     0.029 A 
ATOM     53  C   UNL A   1      40.972  32.327  36.283  1.00  0.00     0.049 A 
ATOM     54  H   UNL A   1      40.775  31.154  34.542  1.00  0.00     0.167 HD
ATOM     55  C   UNL A   1      39.132  33.416  35.024  1.00  0.00     0.074 A 
ATOM     56  C   UNL A   1      38.112  34.432  34.858  1.00  0.00     0.031 C 
ATOM     57  C   UNL A   1      39.950  33.328  36.103  1.00  0.00     0.031 A 
BRANCH  44  58
ATOM     58  C   UNL A   1      43.892  28.568  35.903  1.00  0.00    -0.014 A 
ATOM     59  C   UNL A   1      43.591  27.462  36.719  1.00  0.00     0.010 A 
ATOM     60  C   UNL A   1      45.238  28.926  35.704  1.00  0.00     0.010 A 
ATOM     61  C   UNL A   1      44.615  26.753  37.354  1.00  0.00     0.020 A 
ATOM     62  C   UNL A   1      46.265  28.205  36.318  1.00  0.00     0.020 A 
ATOM     63  C   UNL A   1      45.946  27.133  37.153  1.00  0.00     0.054 A 
BRANCH  63  64
ATOM     64  S   UNL A   1      47.257  26.188  37.978  1.00  0.00     0.124 S 
ATOM     65  O   UNL A   1      47.078  24.858  37.401  1.00  0.00    -0.237 OA
ATOM     66  O   UNL A   1      48.468  26.894  37.566  1.00  0.00    -0.237 OA
ATOM     67  O   UNL A   1      46.926  26.301  39.396  1.00  0.00    -0.744 OA
ENDBRANCH  63  64
ENDBRANCH  44  58
BRANCH  45  68
ATOM     68  C   UNL A   1      36.549  33.353  31.086  1.00  0.00    -0.014 A 
ATOM     69  C   UNL A   1      36.799  34.097  29.921  1.00  0.00     0.010 A 
ATOM     70  C   UNL A   1      35.233  33.279  31.581  1.00  0.00     0.010 A 
ATOM     71  C   UNL A   1      35.757  34.767  29.271  1.00  0.00     0.020 A 
ATOM     72  C   UNL A   1      34.186  33.924  30.920  1.00  0.00     0.020 A 
ATOM     73  C   UNL A   1      34.455  34.672  29.774  1.00  0.00     0.054 A 
BRANCH  73  74
ATOM     74  S   UNL A   1      33.110  35.502  28.882  1.00  0.00     0.124 S 
ATOM     75  O   UNL A   1      32.480  34.389  28.179  1.00  0.00    -0.237 OA
ATOM     76  O   UNL A   1      32.329  36.092  29.966  1.00  0.00    -0.237 OA
ATOM     77  O   UNL A   1      33.808  36.465  28.033  1.00  0.00    -0.744 OA
ENDBRANCH  73  74
ENDBRANCH  45  68
BRANCH  57  78
ATOM     78  C   UNL A   1      39.801  34.375  37.175  1.00  0.00    -0.014 A 
ATOM     79  C   UNL A   1      39.027  34.135  38.324  1.00  0.00     0.010 A 
ATOM     80  C   UNL A   1      40.496  35.592  37.056  1.00  0.00     0.010 A 
ATOM     81  C   UNL A   1      38.927  35.110  39.322  1.00  0.00     0.020 A 
ATOM     82  C   UNL A   1      40.419  36.558  38.062  1.00  0.00     0.020 A 
ATOM     83  C   UNL A   1      39.623  36.316  39.183  1.00  0.00     0.054 A 
BRANCH  83  84
ATOM     84  S   UNL A   1      39.512  37.547  40.511  1.00  0.00     0.124 S 
ATOM     85  O   UNL A   1      38.637  38.554  39.918  1.00  0.00    -0.237 OA
ATOM     86  O   UNL A   1      38.933  36.781  41.612  1.00  0.00    -0.237 OA
ATOM     87  O   UNL A   1      40.897  37.965  40.713  1.00  0.00    -0.744 OA
ENDBRANCH  83  84
ENDBRANCH  57  78
ENDBRANCH  31  32
ENDBRANCH  24  26
ENDBRANCH  23  24
ENDBRANCH  22  23
ENDBRANCH   1  22
TORSDOF 19
ENDMDL
MODEL 2
REMARK VINA RESULT:     -10.0      1.729      3.967
REMARK SMILES C[C@@H](C(=O)OCCOCCOC(=O)c1ccc(-c2c3nc(c(-c4ccc(S(=O)(=O)[O-])cc4)c4ccc([nH]4)c(-c4ccc(S(=O)(=O)[O-])cc4)c4nc(c(-c5ccc(S(=O)(=O)[O-])cc5)c5ccc2[nH]5)C=C4)C=C3)cc1)c1ccc(-c2ccccc2)cc1
REMARK SMILES IDX 9 1 8 2 7 3 6 4 5 5 3 6 4 7 2 8 1 9 74 10 75 11 85 12 76 13
REMARK SMILES IDX 84 14 77 15 78 16 79 17 83 18 80 19 82 20 81 21 10 22 11 23
REMARK SMILES IDX 12 24 13 25 14 26 15 27 73 28 16 29 72 30 17 31 18 32 19 33
REMARK SMILES IDX 66 34 20 35 71 36 65 37 67 38 21 39 70 40 64 41 63 42 22 44
REMARK SMILES IDX 52 45 33 46 51 47 34 48 37 49 50 50 68 51 35 52 36 53 49 55
REMARK SMILES IDX 69 56 38 57 23 58 24 59 32 60 25 61 31 62 26 63 27 64 28 65
REMARK SMILES IDX 29 66 30 67 53 68 54 69 62 70 55 71 61 72 56 73 57 74 58 75
REMARK SMILES IDX 59 76 60 77 39 78 40 79 48 80 41 81 47 82 42 83 43 84 44 85
REMARK SMILES IDX 45 86 46 87
REMARK H PARENT 67 43 37 54
REMARK Flexibility Score: inf
ROOT
ATOM      1  C   UNL A   1      37.658  22.795  25.411  1.00  0.00     0.202 C 
ENDROOT
BRANCH   1   2
ATOM      2  O   UNL A   1      36.380  23.272  25.831  1.00  0.00    -0.374 OA
BRANCH   2   3
ATOM      3  C   UNL A   1      35.517  23.792  24.814  1.00  0.00     0.202 C 
BRANCH   3   4
ATOM      4  C   UNL A   1      34.659  24.992  25.225  1.00  0.00     0.261 C 
BRANCH   4   5
ATOM      5  O   UNL A   1      33.711  25.294  24.188  1.00  0.00    -0.463 OA
BRANCH   5   6
ATOM      6  C   UNL A   1      32.404  25.081  24.493  1.00  0.00     0.313 C 
ATOM      7  O   UNL A   1      31.799  25.666  25.385  1.00  0.00    -0.252 OA
BRANCH   6   8
ATOM      8  C   UNL A   1      31.735  24.084  23.541  1.00  0.00     0.126 C 
ATOM      9  C   UNL A   1      30.221  24.261  23.366  1.00  0.00     0.025 C 
BRANCH   8  10
ATOM     10  C   UNL A   1      32.062  22.629  23.875  1.00  0.00    -0.034 A 
ATOM     11  C   UNL A   1      32.231  21.706  22.834  1.00  0.00     0.005 A 
ATOM     12  C   UNL A   1      32.197  22.167  25.194  1.00  0.00     0.005 A 
ATOM     13  C   UNL A   1      32.563  20.374  23.104  1.00  0.00     0.009 A 
ATOM     14  C   UNL A   1      32.522  20.832  25.461  1.00  0.00     0.009 A 
ATOM     15  C   UNL A   1      32.728  19.920  24.420  1.00  0.00    -0.018 A 
BRANCH  15  16
ATOM     16  C   UNL A   1      33.156  18.543  24.698  1.00  0.00    -0.018 A 
ATOM     17  C   UNL A   1      34.415  18.092  24.267  1.00  0.00     0.009 A 
ATOM     18  C   UNL A   1      32.341  17.651  25.412  1.00  0.00     0.009 A 
ATOM     19  C   UNL A   1      34.846  16.793  24.539  1.00  0.00     0.001 A 
ATOM     20  C   UNL A   1      32.770  16.349  25.682  1.00  0.00     0.001 A 
ATOM     21  C   UNL A   1      34.022  15.920  25.246  1.00  0.00     0.000 A 
ENDBRANCH  15  16
ENDBRANCH   8  10
ENDBRANCH   6   8
ENDBRANCH   5   6
ENDBRANCH   4   5
ENDBRANCH   3   4
ENDBRANCH   2   3
ENDBRANCH   1   2
BRANCH   1  22
ATOM     22  C   UNL A   1      38.865  23.199  26.265  1.00  0.00     0.261 C 
BRANCH  22  23
ATOM     23  O   UNL A   1      38.914  24.616  26.497  1.00  0.00    -0.460 OA
BRANCH  23  24
ATOM     24  C   UNL A   1      40.163  25.138  26.513  1.00  0.00     0.338 C 
ATOM     25  O   UNL A   1      40.996  25.085  25.616  1.00  0.00    -0.246 OA
BRANCH  24  26
ATOM     26  C   UNL A   1      40.350  25.970  27.716  1.00  0.00     0.060 A 
ATOM     27  C   UNL A   1      39.416  25.816  28.750  1.00  0.00     0.016 A 
ATOM     28  C   UNL A   1      41.369  26.919  27.815  1.00  0.00     0.016 A 
ATOM     29  C   UNL A   1      39.463  26.653  29.861  1.00  0.00     0.010 A 
ATOM     30  C   UNL A   1      41.410  27.764  28.929  1.00  0.00     0.010 A 
ATOM     31  C   UNL A   1      40.432  27.659  29.936  1.00  0.00    -0.014 A 
BRANCH  31  32
ATOM     32  C   UNL A   1      40.315  28.699  30.985  1.00  0.00     0.031 A 
ATOM     33  C   UNL A   1      41.229  28.629  32.179  1.00  0.00     0.074 A 
ATOM     34  C   UNL A   1      39.441  29.713  30.856  1.00  0.00     0.049 A 
ATOM     35  N   UNL A   1      41.309  29.432  33.209  1.00  0.00    -0.248 NA
ATOM     36  C   UNL A   1      42.184  27.508  32.214  1.00  0.00     0.031 C 
ATOM     37  C   UNL A   1      38.539  29.913  29.723  1.00  0.00     0.029 A 
ATOM     38  N   UNL A   1      39.176  30.771  31.689  1.00  0.00    -0.354 N 
ATOM     39  C   UNL A   1      42.311  28.909  34.018  1.00  0.00     0.074 A 
ATOM     40  C   UNL A   1      42.794  27.708  33.373  1.00  0.00     0.031 C 
ATOM     41  C   UNL A   1      37.817  31.027  29.933  1.00  0.00     0.029 A 
ATOM     42  C   UNL A   1      38.184  31.601  31.226  1.00  0.00     0.049 A 
ATOM     43  H   UNL A   1      39.652  30.920  32.538  1.00  0.00     0.167 HD
ATOM     44  C   UNL A   1      42.790  29.387  35.190  1.00  0.00     0.031 A 
ATOM     45  C   UNL A   1      37.627  32.692  31.789  1.00  0.00     0.031 A 
ATOM     46  C   UNL A   1      42.300  30.578  35.834  1.00  0.00     0.049 A 
ATOM     47  C   UNL A   1      38.128  33.166  33.128  1.00  0.00     0.074 A 
ATOM     48  C   UNL A   1      42.731  31.157  37.014  1.00  0.00     0.029 A 
ATOM     49  N   UNL A   1      41.263  31.365  35.356  1.00  0.00    -0.354 N 
ATOM     50  N   UNL A   1      39.094  32.675  33.868  1.00  0.00    -0.248 NA
ATOM     51  C   UNL A   1      37.468  34.346  33.704  1.00  0.00     0.031 C 
ATOM     52  C   UNL A   1      41.917  32.265  37.277  1.00  0.00     0.029 A 
ATOM     53  C   UNL A   1      41.021  32.408  36.231  1.00  0.00     0.049 A 
ATOM     54  H   UNL A   1      40.774  31.206  34.516  1.00  0.00     0.167 HD
ATOM     55  C   UNL A   1      39.175  33.502  34.983  1.00  0.00     0.074 A 
ATOM     56  C   UNL A   1      38.168  34.530  34.815  1.00  0.00     0.031 C 
ATOM     57  C   UNL A   1      40.011  33.421  36.049  1.00  0.00     0.031 A 
BRANCH  44  58
ATOM     58  C   UNL A   1      43.875  28.598  35.872  1.00  0.00    -0.014 A 
ATOM     59  C   UNL A   1      43.571  27.558  36.769  1.00  0.00     0.010 A 
ATOM     60  C   UNL A   1      45.223  28.883  35.587  1.00  0.00     0.010 A 
ATOM     61  C   UNL A   1      44.595  26.845  37.399  1.00  0.00     0.020 A 
ATOM     62  C   UNL A   1      46.249  28.156  36.195  1.00  0.00     0.020 A 
ATOM     63  C   UNL A   1      45.929  27.153  37.111  1.00  0.00     0.054 A 
BRANCH  63  64
ATOM     64  S   UNL A   1      47.240  26.203  37.930  1.00  0.00     0.124 S 
ATOM     65  O   UNL A   1      46.606  24.898  38.097  1.00  0.00    -0.237 OA
ATOM     66  O   UNL A   1      48.329  26.254  36.957  1.00  0.00    -0.237 OA
ATOM     67  O   UNL A   1      47.480  26.940  39.168  1.00  0.00    -0.744 OA
ENDBRANCH  63  64
ENDBRANCH  44  58
BRANCH  45  68
ATOM     68  C   UNL A   1      36.521  33.404  31.093  1.00  0.00    -0.014 A 
ATOM     69  C   UNL A   1      36.710  33.944  29.809  1.00  0.00     0.010 A 
ATOM     70  C   UNL A   1      35.265  33.539  31.714  1.00  0.00     0.010 A 
ATOM     71  C   UNL A   1      35.668  34.618  29.164  1.00  0.00     0.020 A 
ATOM     72  C   UNL A   1      34.215  34.189  31.062  1.00  0.00     0.020 A 
ATOM     73  C   UNL A   1      34.425  34.733  29.795  1.00  0.00     0.054 A 
BRANCH  73  74
ATOM     74  S   UNL A   1      33.071  35.562  28.917  1.00  0.00     0.124 S 
ATOM     75  O   UNL A   1      33.788  36.542  28.108  1.00  0.00    -0.237 OA
ATOM     76  O   UNL A   1      32.452  34.463  28.181  1.00  0.00    -0.237 OA
ATOM     77  O   UNL A   1      32.254  36.116  29.996  1.00  0.00    -0.744 OA
ENDBRANCH  73  74
ENDBRANCH  45  68
BRANCH  57  78
ATOM     78  C   UNL A   1      39.897  34.490  37.103  1.00  0.00    -0.014 A 
ATOM     79  C   UNL A   1      40.519  35.741  36.943  1.00  0.00     0.010 A 
ATOM     80  C   UNL A   1      39.106  34.258  38.243  1.00  0.00     0.010 A 
ATOM     81  C   UNL A   1      40.376  36.730  37.921  1.00  0.00     0.020 A 
ATOM     82  C   UNL A   1      38.938  35.253  39.209  1.00  0.00     0.020 A 
ATOM     83  C   UNL A   1      39.586  36.479  39.048  1.00  0.00     0.054 A 
BRANCH  83  84
ATOM     84  S   UNL A   1      39.380  37.793  40.281  1.00  0.00     0.124 S 
ATOM     85  O   UNL A   1      40.693  38.430  40.269  1.00  0.00    -0.237 OA
ATOM     86  O   UNL A   1      38.290  38.589  39.723  1.00  0.00    -0.237 OA
ATOM     87  O   UNL A   1      39.049  37.069  41.507  1.00  0.00    -0.744 OA
ENDBRANCH  83  84
ENDBRANCH  57  78
ENDBRANCH  31  32
ENDBRANCH  24  26
ENDBRANCH  23  24
ENDBRANCH  22  23
ENDBRANCH   1  22
TORSDOF 19
ENDMDL
MODEL 3
REMARK VINA RESULT:     -10.0      4.927      9.351
REMARK SMILES C[C@@H](C(=O)OCCOCCOC(=O)c1ccc(-c2c3nc(c(-c4ccc(S(=O)(=O)[O-])cc4)c4ccc([nH]4)c(-c4ccc(S(=O)(=O)[O-])cc4)c4nc(c(-c5ccc(S(=O)(=O)[O-])cc5)c5ccc2[nH]5)C=C4)C=C3)cc1)c1ccc(-c2ccccc2)cc1
REMARK SMILES IDX 9 1 8 2 7 3 6 4 5 5 3 6 4 7 2 8 1 9 74 10 75 11 85 12 76 13
REMARK SMILES IDX 84 14 77 15 78 16 79 17 83 18 80 19 82 20 81 21 10 22 11 23
REMARK SMILES IDX 12 24 13 25 14 26 15 27 73 28 16 29 72 30 17 31 18 32 19 33
REMARK SMILES IDX 66 34 20 35 71 36 65 37 67 38 21 39 70 40 64 41 63 42 22 44
REMARK SMILES IDX 52 45 33 46 51 47 34 48 37 49 50 50 68 51 35 52 36 53 49 55
REMARK SMILES IDX 69 56 38 57 23 58 24 59 32 60 25 61 31 62 26 63 27 64 28 65
REMARK SMILES IDX 29 66 30 67 53 68 54 69 62 70 55 71 61 72 56 73 57 74 58 75
REMARK SMILES IDX 59 76 60 77 39 78 40 79 48 80 41 81 47 82 42 83 43 84 44 85
REMARK SMILES IDX 45 86 46 87
REMARK H PARENT 67 43 37 54
REMARK Flexibility Score: inf
ROOT
ATOM      1  C   UNL A   1      35.810  21.730  24.814  1.00  0.00     0.202 C 
ENDROOT
BRANCH   1   2
ATOM      2  O   UNL A   1      34.683  21.096  25.420  1.00  0.00    -0.374 OA
BRANCH   2   3
ATOM      3  C   UNL A   1      34.418  21.417  26.789  1.00  0.00     0.202 C 
BRANCH   3   4
ATOM      4  C   UNL A   1      33.496  22.618  27.020  1.00  0.00     0.261 C 
BRANCH   4   5
ATOM      5  O   UNL A   1      32.315  22.490  26.210  1.00  0.00    -0.463 OA
BRANCH   5   6
ATOM      6  C   UNL A   1      31.265  23.280  26.556  1.00  0.00     0.313 C 
ATOM      7  O   UNL A   1      30.628  23.164  27.597  1.00  0.00    -0.252 OA
BRANCH   6   8
ATOM      8  C   UNL A   1      31.010  24.395  25.536  1.00  0.00     0.126 C 
ATOM      9  C   UNL A   1      31.261  24.013  24.072  1.00  0.00     0.025 C 
BRANCH   8  10
ATOM     10  C   UNL A   1      31.742  25.693  25.877  1.00  0.00    -0.034 A 
ATOM     11  C   UNL A   1      31.041  26.733  26.504  1.00  0.00     0.005 A 
ATOM     12  C   UNL A   1      33.099  25.898  25.582  1.00  0.00     0.005 A 
ATOM     13  C   UNL A   1      31.688  27.922  26.859  1.00  0.00     0.009 A 
ATOM     14  C   UNL A   1      33.741  27.091  25.932  1.00  0.00     0.009 A 
ATOM     15  C   UNL A   1      33.051  28.113  26.591  1.00  0.00    -0.018 A 
BRANCH  15  16
ATOM     16  C   UNL A   1      33.746  29.327  27.038  1.00  0.00    -0.018 A 
ATOM     17  C   UNL A   1      33.031  30.520  27.236  1.00  0.00     0.009 A 
ATOM     18  C   UNL A   1      35.125  29.329  27.298  1.00  0.00     0.009 A 
ATOM     19  C   UNL A   1      33.674  31.678  27.678  1.00  0.00     0.001 A 
ATOM     20  C   UNL A   1      35.770  30.488  27.737  1.00  0.00     0.001 A 
ATOM     21  C   UNL A   1      35.043  31.663  27.928  1.00  0.00     0.000 A 
ENDBRANCH  15  16
ENDBRANCH   8  10
ENDBRANCH   6   8
ENDBRANCH   5   6
ENDBRANCH   4   5
ENDBRANCH   3   4
ENDBRANCH   2   3
ENDBRANCH   1   2
BRANCH   1  22
ATOM     22  C   UNL A   1      37.159  21.575  25.526  1.00  0.00     0.261 C 
BRANCH  22  23
ATOM     23  O   UNL A   1      37.736  22.844  25.876  1.00  0.00    -0.460 OA
BRANCH  23  24
ATOM     24  C   UNL A   1      38.993  22.769  26.372  1.00  0.00     0.338 C 
ATOM     25  O   UNL A   1      39.756  21.812  26.307  1.00  0.00    -0.246 OA
BRANCH  24  26
ATOM     26  C   UNL A   1      39.423  24.091  26.863  1.00  0.00     0.060 A 
ATOM     27  C   UNL A   1      40.167  24.888  25.983  1.00  0.00     0.016 A 
ATOM     28  C   UNL A   1      39.163  24.523  28.165  1.00  0.00     0.016 A 
ATOM     29  C   UNL A   1      40.706  26.094  26.421  1.00  0.00     0.010 A 
ATOM     30  C   UNL A   1      39.712  25.732  28.606  1.00  0.00     0.010 A 
ATOM     31  C   UNL A   1      40.518  26.501  27.747  1.00  0.00    -0.014 A 
BRANCH  31  32
ATOM     32  C   UNL A   1      41.303  27.644  28.270  1.00  0.00     0.031 A 
ATOM     33  C   UNL A   1      40.569  28.813  28.870  1.00  0.00     0.074 A 
ATOM     34  C   UNL A   1      42.648  27.622  28.253  1.00  0.00     0.049 A 
ATOM     35  N   UNL A   1      41.048  29.912  29.393  1.00  0.00    -0.248 NA
ATOM     36  C   UNL A   1      39.098  28.730  28.885  1.00  0.00     0.031 C 
ATOM     37  C   UNL A   1      43.469  26.525  27.743  1.00  0.00     0.029 A 
ATOM     38  N   UNL A   1      43.558  28.554  28.685  1.00  0.00    -0.354 N 
ATOM     39  C   UNL A   1      39.942  30.654  29.790  1.00  0.00     0.074 A 
ATOM     40  C   UNL A   1      38.767  29.894  29.425  1.00  0.00     0.031 C 
ATOM     41  C   UNL A   1      44.766  26.848  27.890  1.00  0.00     0.029 A 
ATOM     42  C   UNL A   1      44.865  28.184  28.476  1.00  0.00     0.049 A 
ATOM     43  H   UNL A   1      43.299  29.406  29.104  1.00  0.00     0.167 HD
ATOM     44  C   UNL A   1      39.906  31.859  30.406  1.00  0.00     0.031 A 
ATOM     45  C   UNL A   1      46.009  28.853  28.718  1.00  0.00     0.031 A 
ATOM     46  C   UNL A   1      41.078  32.617  30.759  1.00  0.00     0.049 A 
ATOM     47  C   UNL A   1      45.944  30.223  29.340  1.00  0.00     0.074 A 
ATOM     48  C   UNL A   1      41.149  33.840  31.402  1.00  0.00     0.029 A 
ATOM     49  N   UNL A   1      42.381  32.229  30.489  1.00  0.00    -0.354 N 
ATOM     50  N   UNL A   1      44.891  30.900  29.733  1.00  0.00    -0.248 NA
ATOM     51  C   UNL A   1      47.221  30.915  29.559  1.00  0.00     0.031 C 
ATOM     52  C   UNL A   1      42.495  34.216  31.473  1.00  0.00     0.029 A 
ATOM     53  C   UNL A   1      43.263  33.200  30.927  1.00  0.00     0.049 A 
ATOM     54  H   UNL A   1      42.640  31.385  30.052  1.00  0.00     0.167 HD
ATOM     55  C   UNL A   1      45.381  32.086  30.269  1.00  0.00     0.074 A 
ATOM     56  C   UNL A   1      46.825  32.028  30.161  1.00  0.00     0.031 C 
ATOM     57  C   UNL A   1      44.698  33.128  30.807  1.00  0.00     0.031 A 
BRANCH  44  58
ATOM     58  C   UNL A   1      38.553  32.449  30.702  1.00  0.00    -0.014 A 
ATOM     59  C   UNL A   1      37.888  33.262  29.766  1.00  0.00     0.010 A 
ATOM     60  C   UNL A   1      37.925  32.161  31.928  1.00  0.00     0.010 A 
ATOM     61  C   UNL A   1      36.637  33.807  30.067  1.00  0.00     0.020 A 
ATOM     62  C   UNL A   1      36.663  32.684  32.222  1.00  0.00     0.020 A 
ATOM     63  C   UNL A   1      36.034  33.519  31.296  1.00  0.00     0.054 A 
BRANCH  63  64
ATOM     64  S   UNL A   1      34.404  34.228  31.656  1.00  0.00     0.124 S 
ATOM     65  O   UNL A   1      33.843  34.388  30.317  1.00  0.00    -0.237 OA
ATOM     66  O   UNL A   1      33.780  33.195  32.480  1.00  0.00    -0.237 OA
ATOM     67  O   UNL A   1      34.714  35.473  32.353  1.00  0.00    -0.744 OA
ENDBRANCH  63  64
ENDBRANCH  44  58
BRANCH  45  68
ATOM     68  C   UNL A   1      47.318  28.242  28.357  1.00  0.00    -0.014 A 
ATOM     69  C   UNL A   1      48.074  27.545  29.315  1.00  0.00     0.010 A 
ATOM     70  C   UNL A   1      47.811  28.350  27.043  1.00  0.00     0.010 A 
ATOM     71  C   UNL A   1      49.306  26.980  28.971  1.00  0.00     0.020 A 
ATOM     72  C   UNL A   1      49.029  27.764  26.689  1.00  0.00     0.020 A 
ATOM     73  C   UNL A   1      49.774  27.091  27.657  1.00  0.00     0.054 A 
BRANCH  73  74
ATOM     74  S   UNL A   1      51.348  26.301  27.219  1.00  0.00     0.124 S 
ATOM     75  O   UNL A   1      52.181  26.621  28.373  1.00  0.00    -0.237 OA
ATOM     76  O   UNL A   1      50.968  24.898  27.079  1.00  0.00    -0.237 OA
ATOM     77  O   UNL A   1      51.724  26.963  25.971  1.00  0.00    -0.744 OA
ENDBRANCH  73  74
ENDBRANCH  45  68
BRANCH  57  78
ATOM     78  C   UNL A   1      45.503  34.278  31.352  1.00  0.00    -0.014 A 
ATOM     79  C   UNL A   1      45.970  34.278  32.678  1.00  0.00     0.010 A 
ATOM     80  C   UNL A   1      45.846  35.346  30.503  1.00  0.00     0.010 A 
ATOM     81  C   UNL A   1      46.740  35.343  33.154  1.00  0.00     0.020 A 
ATOM     82  C   UNL A   1      46.639  36.399  30.967  1.00  0.00     0.020 A 
ATOM     83  C   UNL A   1      47.069  36.397  32.295  1.00  0.00     0.054 A 
BRANCH  83  84
ATOM     84  S   UNL A   1      48.107  37.745  32.923  1.00  0.00     0.124 S 
ATOM     85  O   UNL A   1      48.193  37.425  34.345  1.00  0.00    -0.237 OA
ATOM     86  O   UNL A   1      49.345  37.579  32.165  1.00  0.00    -0.237 OA
ATOM     87  O   UNL A   1      47.344  38.949  32.601  1.00  0.00    -0.744 OA
ENDBRANCH  83  84
ENDBRANCH  57  78
ENDBRANCH  31  32
ENDBRANCH  24  26
ENDBRANCH  23  24
ENDBRANCH  22  23
ENDBRANCH   1  22
TORSDOF 19
ENDMDL
