MODEL 1
REMARK VINA RESULT:     -11.6      0.000      0.000
REMARK SMILES NS(=O)(=O)c1ccc(-c2coc(=O)n2-c2ccc(C(=O)OCCOCCOC(=O)c3ccc(-c4c5nc(c(-c6ccc(S(=O)(=O)[O-])cc6)c6ccc([nH]6)c(-c6ccc(S(=O)(=O)[O-])cc6)c6nc(c(-c7ccc(S(=O)(=O)[O-])cc7)c7ccc4[nH]7)C=C6)C=C5)cc3)cc2)cc1
REMARK SMILES IDX 23 1 22 2 21 3 19 4 20 5 18 6 15 7 16 8 91 9 17 10 90 11
REMARK SMILES IDX 14 12 9 13 10 14 11 15 12 16 13 17 8 18 5 19 6 20 93 21 7 22
REMARK SMILES IDX 92 23 2 24 3 25 4 26 1 27 24 30 25 31 26 32 27 33 28 34
REMARK SMILES IDX 29 35 30 36 31 37 89 38 32 39 88 40 33 41 34 42 35 43 82 44
REMARK SMILES IDX 36 45 87 46 81 47 83 48 37 49 86 50 80 51 79 52 38 54 68 55
REMARK SMILES IDX 49 56 67 57 50 58 53 59 66 60 84 61 51 62 52 63 65 65 85 66
REMARK SMILES IDX 54 67 39 68 40 69 48 70 41 71 47 72 42 73 43 74 44 75 45 76
REMARK SMILES IDX 46 77 69 78 70 79 78 80 71 81 77 82 72 83 73 84 74 85 75 86
REMARK SMILES IDX 76 87 55 88 56 89 64 90 57 91 63 92 58 93 59 94 60 95 61 96
REMARK SMILES IDX 62 97
REMARK H PARENT 1 28 1 29 83 53 53 64
REMARK Flexibility Score: inf
ROOT
ATOM      1  C   UNL A   1      40.697  21.075  26.383  1.00  0.00     0.202 C 
ENDROOT
BRANCH   1   2
ATOM      2  C   UNL A   1      39.312  21.706  26.541  1.00  0.00     0.261 C 
BRANCH   2   3
ATOM      3  O   UNL A   1      39.092  22.797  25.636  1.00  0.00    -0.460 OA
BRANCH   3   4
ATOM      4  C   UNL A   1      38.218  23.727  26.090  1.00  0.00     0.338 C 
ATOM      5  O   UNL A   1      38.478  24.763  26.678  1.00  0.00    -0.246 OA
BRANCH   4   6
ATOM      6  C   UNL A   1      36.853  23.406  25.631  1.00  0.00     0.060 A 
ATOM      7  C   UNL A   1      34.269  23.168  24.610  1.00  0.00     0.053 A 
ATOM      8  C   UNL A   1      35.362  23.087  23.744  1.00  0.00     0.028 A 
ATOM      9  C   UNL A   1      34.490  23.230  25.998  1.00  0.00     0.028 A 
ATOM     10  C   UNL A   1      36.650  23.239  24.254  1.00  0.00     0.018 A 
ATOM     11  C   UNL A   1      35.780  23.337  26.515  1.00  0.00     0.018 A 
BRANCH   7  12
ATOM     12  N   UNL A   1      32.973  23.371  24.087  1.00  0.00    -0.242 N 
ATOM     13  C   UNL A   1      32.075  22.408  23.714  1.00  0.00     0.095 A 
ATOM     14  C   UNL A   1      30.978  23.050  23.331  1.00  0.00     0.228 A 
ATOM     15  O   UNL A   1      31.064  24.437  23.431  1.00  0.00    -0.415 OA
ATOM     16  C   UNL A   1      32.346  24.610  23.959  1.00  0.00     0.424 A 
ATOM     17  O   UNL A   1      32.795  25.713  24.242  1.00  0.00    -0.223 OA
BRANCH  13  18
ATOM     18  C   UNL A   1      32.256  20.972  23.909  1.00  0.00     0.002 A 
ATOM     19  C   UNL A   1      32.860  18.264  24.271  1.00  0.00     0.082 A 
ATOM     20  C   UNL A   1      32.868  19.123  25.372  1.00  0.00     0.022 A 
ATOM     21  C   UNL A   1      32.529  18.740  23.000  1.00  0.00     0.022 A 
ATOM     22  C   UNL A   1      32.559  20.471  25.189  1.00  0.00     0.012 A 
ATOM     23  C   UNL A   1      32.221  20.093  22.821  1.00  0.00     0.012 A 
BRANCH  19  24
ATOM     24  S   UNL A   1      33.271  16.568  24.550  1.00  0.00     0.238 S 
ATOM     25  O   UNL A   1      33.788  16.020  23.324  1.00  0.00    -0.207 OA
ATOM     26  O   UNL A   1      32.187  15.954  25.289  1.00  0.00    -0.207 OA
BRANCH  24  27
ATOM     27  N   UNL A   1      34.572  16.611  25.612  1.00  0.00    -0.225 NA
ATOM     28  H   UNL A   1      34.287  17.065  26.479  1.00  0.00     0.137 HD
ATOM     29  H   UNL A   1      35.338  17.135  25.190  1.00  0.00     0.137 HD
ENDBRANCH  24  27
ENDBRANCH  19  24
ENDBRANCH  13  18
ENDBRANCH   7  12
ENDBRANCH   4   6
ENDBRANCH   3   4
ENDBRANCH   2   3
ENDBRANCH   1   2
BRANCH   1  30
ATOM     30  O   UNL A   1      40.787  19.688  26.056  1.00  0.00    -0.374 OA
BRANCH  30  31
ATOM     31  C   UNL A   1      42.011  18.984  26.235  1.00  0.00     0.202 C 
BRANCH  31  32
ATOM     32  C   UNL A   1      43.327  19.714  26.015  1.00  0.00     0.261 C 
BRANCH  32  33
ATOM     33  O   UNL A   1      43.515  20.071  24.656  1.00  0.00    -0.460 OA
BRANCH  33  34
ATOM     34  C   UNL A   1      44.810  20.258  24.313  1.00  0.00     0.338 C 
ATOM     35  O   UNL A   1      45.618  19.404  23.992  1.00  0.00    -0.246 OA
BRANCH  34  36
ATOM     36  C   UNL A   1      45.139  21.670  24.516  1.00  0.00     0.060 A 
ATOM     37  C   UNL A   1      46.059  21.938  25.530  1.00  0.00     0.016 A 
ATOM     38  C   UNL A   1      44.303  22.661  23.980  1.00  0.00     0.016 A 
ATOM     39  C   UNL A   1      45.929  23.124  26.212  1.00  0.00     0.010 A 
ATOM     40  C   UNL A   1      44.174  23.843  24.661  1.00  0.00     0.010 A 
ATOM     41  C   UNL A   1      44.904  23.998  25.834  1.00  0.00    -0.014 A 
BRANCH  41  42
ATOM     42  C   UNL A   1      44.632  25.130  26.685  1.00  0.00     0.031 A 
ATOM     43  C   UNL A   1      45.641  26.197  26.533  1.00  0.00     0.074 A 
ATOM     44  C   UNL A   1      43.531  25.201  27.459  1.00  0.00     0.049 A 
ATOM     45  N   UNL A   1      46.557  26.531  27.376  1.00  0.00    -0.248 NA
ATOM     46  C   UNL A   1      45.788  26.812  25.203  1.00  0.00     0.031 C 
ATOM     47  C   UNL A   1      42.351  24.331  27.485  1.00  0.00     0.029 A 
ATOM     48  N   UNL A   1      43.204  26.164  28.353  1.00  0.00    -0.354 N 
ATOM     49  C   UNL A   1      47.274  27.549  26.764  1.00  0.00     0.074 A 
ATOM     50  C   UNL A   1      46.888  27.543  25.376  1.00  0.00     0.031 C 
ATOM     51  C   UNL A   1      41.350  24.958  28.153  1.00  0.00     0.029 A 
ATOM     52  C   UNL A   1      41.867  26.190  28.727  1.00  0.00     0.049 A 
ATOM     53  H   UNL A   1      43.865  26.800  28.710  1.00  0.00     0.167 HD
ATOM     54  C   UNL A   1      47.955  28.475  27.491  1.00  0.00     0.031 A 
ATOM     55  C   UNL A   1      41.247  27.197  29.398  1.00  0.00     0.031 A 
ATOM     56  C   UNL A   1      48.114  28.059  28.859  1.00  0.00     0.049 A 
ATOM     57  C   UNL A   1      42.321  27.988  30.060  1.00  0.00     0.074 A 
ATOM     58  C   UNL A   1      48.784  27.024  29.481  1.00  0.00     0.029 A 
ATOM     59  N   UNL A   1      47.173  28.505  29.760  1.00  0.00    -0.354 N 
ATOM     60  N   UNL A   1      43.079  27.505  31.007  1.00  0.00    -0.248 NA
ATOM     61  C   UNL A   1      42.887  29.112  29.325  1.00  0.00     0.031 C 
ATOM     62  C   UNL A   1      47.907  26.592  30.517  1.00  0.00     0.029 A 
ATOM     63  C   UNL A   1      46.791  27.434  30.528  1.00  0.00     0.049 A 
ATOM     64  H   UNL A   1      46.836  29.426  29.840  1.00  0.00     0.167 HD
ATOM     65  C   UNL A   1      44.357  27.963  30.716  1.00  0.00     0.074 A 
ATOM     66  C   UNL A   1      44.165  29.003  29.704  1.00  0.00     0.031 C 
ATOM     67  C   UNL A   1      45.469  27.268  31.100  1.00  0.00     0.031 A 
BRANCH  54  68
ATOM     68  C   UNL A   1      48.119  29.904  27.056  1.00  0.00    -0.014 A 
ATOM     69  C   UNL A   1      49.400  30.483  27.104  1.00  0.00     0.010 A 
ATOM     70  C   UNL A   1      47.025  30.773  26.861  1.00  0.00     0.010 A 
ATOM     71  C   UNL A   1      49.568  31.872  27.023  1.00  0.00     0.020 A 
ATOM     72  C   UNL A   1      47.185  32.152  26.738  1.00  0.00     0.020 A 
ATOM     73  C   UNL A   1      48.455  32.696  26.853  1.00  0.00     0.054 A 
BRANCH  73  74
ATOM     74  S   UNL A   1      48.674  34.490  26.856  1.00  0.00     0.124 S 
ATOM     75  O   UNL A   1      48.582  34.809  25.435  1.00  0.00    -0.237 OA
ATOM     76  O   UNL A   1      47.555  34.935  27.682  1.00  0.00    -0.237 OA
ATOM     77  O   UNL A   1      49.995  34.673  27.454  1.00  0.00    -0.744 OA
ENDBRANCH  73  74
ENDBRANCH  54  68
BRANCH  55  78
ATOM     78  C   UNL A   1      39.887  27.751  29.141  1.00  0.00    -0.014 A 
ATOM     79  C   UNL A   1      38.904  27.795  30.150  1.00  0.00     0.010 A 
ATOM     80  C   UNL A   1      39.651  28.507  27.973  1.00  0.00     0.010 A 
ATOM     81  C   UNL A   1      37.758  28.606  30.017  1.00  0.00     0.020 A 
ATOM     82  C   UNL A   1      38.514  29.315  27.833  1.00  0.00     0.020 A 
ATOM     83  C   UNL A   1      37.581  29.378  28.865  1.00  0.00     0.054 A 
BRANCH  83  84
ATOM     84  S   UNL A   1      36.195  30.556  28.769  1.00  0.00     0.124 S 
ATOM     85  O   UNL A   1      35.906  30.814  30.176  1.00  0.00    -0.237 OA
ATOM     86  O   UNL A   1      36.776  31.672  28.028  1.00  0.00    -0.237 OA
ATOM     87  O   UNL A   1      35.161  29.812  28.051  1.00  0.00    -0.744 OA
ENDBRANCH  83  84
ENDBRANCH  55  78
BRANCH  67  88
ATOM     88  C   UNL A   1      45.300  26.097  32.045  1.00  0.00    -0.014 A 
ATOM     89  C   UNL A   1      44.844  24.821  31.653  1.00  0.00     0.010 A 
ATOM     90  C   UNL A   1      45.807  26.253  33.346  1.00  0.00     0.010 A 
ATOM     91  C   UNL A   1      44.883  23.738  32.549  1.00  0.00     0.020 A 
ATOM     92  C   UNL A   1      45.865  25.178  34.235  1.00  0.00     0.020 A 
ATOM     93  C   UNL A   1      45.398  23.926  33.836  1.00  0.00     0.054 A 
BRANCH  93  94
ATOM     94  S   UNL A   1      45.504  22.520  34.981  1.00  0.00     0.124 S 
ATOM     95  O   UNL A   1      45.586  23.177  36.283  1.00  0.00    -0.237 OA
ATOM     96  O   UNL A   1      44.265  21.792  34.721  1.00  0.00    -0.237 OA
ATOM     97  O   UNL A   1      46.720  21.822  34.565  1.00  0.00    -0.744 OA
ENDBRANCH  93  94
ENDBRANCH  67  88
ENDBRANCH  41  42
ENDBRANCH  34  36
ENDBRANCH  33  34
ENDBRANCH  32  33
ENDBRANCH  31  32
ENDBRANCH  30  31
ENDBRANCH   1  30
TORSDOF 21
ENDMDL
MODEL 2
REMARK VINA RESULT:     -10.9      3.710      4.978
REMARK SMILES NS(=O)(=O)c1ccc(-c2coc(=O)n2-c2ccc(C(=O)OCCOCCOC(=O)c3ccc(-c4c5nc(c(-c6ccc(S(=O)(=O)[O-])cc6)c6ccc([nH]6)c(-c6ccc(S(=O)(=O)[O-])cc6)c6nc(c(-c7ccc(S(=O)(=O)[O-])cc7)c7ccc4[nH]7)C=C6)C=C5)cc3)cc2)cc1
REMARK SMILES IDX 23 1 22 2 21 3 19 4 20 5 18 6 15 7 16 8 91 9 17 10 90 11
REMARK SMILES IDX 14 12 9 13 10 14 11 15 12 16 13 17 8 18 5 19 6 20 93 21 7 22
REMARK SMILES IDX 92 23 2 24 3 25 4 26 1 27 24 30 25 31 26 32 27 33 28 34
REMARK SMILES IDX 29 35 30 36 31 37 89 38 32 39 88 40 33 41 34 42 35 43 82 44
REMARK SMILES IDX 36 45 87 46 81 47 83 48 37 49 86 50 80 51 79 52 38 54 68 55
REMARK SMILES IDX 49 56 67 57 50 58 53 59 66 60 84 61 51 62 52 63 65 65 85 66
REMARK SMILES IDX 54 67 39 68 40 69 48 70 41 71 47 72 42 73 43 74 44 75 45 76
REMARK SMILES IDX 46 77 69 78 70 79 78 80 71 81 77 82 72 83 73 84 74 85 75 86
REMARK SMILES IDX 76 87 55 88 56 89 64 90 57 91 63 92 58 93 59 94 60 95 61 96
REMARK SMILES IDX 62 97
REMARK H PARENT 1 28 1 29 83 53 53 64
REMARK Flexibility Score: inf
ROOT
ATOM      1  C   UNL A   1      41.269  21.785  26.185  1.00  0.00     0.202 C 
ENDROOT
BRANCH   1   2
ATOM      2  C   UNL A   1      39.886  21.787  26.839  1.00  0.00     0.261 C 
BRANCH   2   3
ATOM      3  O   UNL A   1      38.913  22.518  26.081  1.00  0.00    -0.460 OA
BRANCH   3   4
ATOM      4  C   UNL A   1      38.093  21.741  25.334  1.00  0.00     0.338 C 
ATOM      5  O   UNL A   1      38.187  20.541  25.137  1.00  0.00    -0.246 OA
BRANCH   4   6
ATOM      6  C   UNL A   1      36.921  22.520  24.891  1.00  0.00     0.060 A 
ATOM      7  C   UNL A   1      34.487  23.696  24.206  1.00  0.00     0.053 A 
ATOM      8  C   UNL A   1      34.921  23.733  25.534  1.00  0.00     0.028 A 
ATOM      9  C   UNL A   1      35.345  23.190  23.212  1.00  0.00     0.028 A 
ATOM     10  C   UNL A   1      36.122  23.115  25.877  1.00  0.00     0.018 A 
ATOM     11  C   UNL A   1      36.568  22.611  23.547  1.00  0.00     0.018 A 
BRANCH   7  12
ATOM     12  N   UNL A   1      33.141  23.991  23.900  1.00  0.00    -0.242 N 
ATOM     13  C   UNL A   1      32.128  23.093  23.692  1.00  0.00     0.095 A 
ATOM     14  C   UNL A   1      31.031  23.812  23.485  1.00  0.00     0.228 A 
ATOM     15  O   UNL A   1      31.229  25.189  23.550  1.00  0.00    -0.415 OA
ATOM     16  C   UNL A   1      32.589  25.270  23.858  1.00  0.00     0.424 A 
ATOM     17  O   UNL A   1      33.155  26.339  24.048  1.00  0.00    -0.223 OA
BRANCH  13  18
ATOM     18  C   UNL A   1      32.237  21.649  23.875  1.00  0.00     0.002 A 
ATOM     19  C   UNL A   1      32.704  18.912  24.227  1.00  0.00     0.082 A 
ATOM     20  C   UNL A   1      32.701  19.758  25.338  1.00  0.00     0.022 A 
ATOM     21  C   UNL A   1      32.453  19.417  22.948  1.00  0.00     0.022 A 
ATOM     22  C   UNL A   1      32.460  21.120  25.161  1.00  0.00     0.012 A 
ATOM     23  C   UNL A   1      32.212  20.784  22.775  1.00  0.00     0.012 A 
BRANCH  19  24
ATOM     24  S   UNL A   1      33.028  17.196  24.501  1.00  0.00     0.238 S 
ATOM     25  O   UNL A   1      33.150  16.549  23.222  1.00  0.00    -0.207 OA
ATOM     26  O   UNL A   1      32.133  16.726  25.537  1.00  0.00    -0.207 OA
BRANCH  24  27
ATOM     27  N   UNL A   1      34.564  17.153  25.179  1.00  0.00    -0.225 NA
ATOM     28  H   UNL A   1      35.263  17.273  24.445  1.00  0.00     0.137 HD
ATOM     29  H   UNL A   1      34.707  16.255  25.640  1.00  0.00     0.137 HD
ENDBRANCH  24  27
ENDBRANCH  19  24
ENDBRANCH  13  18
ENDBRANCH   7  12
ENDBRANCH   4   6
ENDBRANCH   3   4
ENDBRANCH   2   3
ENDBRANCH   1   2
BRANCH   1  30
ATOM     30  O   UNL A   1      42.423  21.916  27.016  1.00  0.00    -0.374 OA
BRANCH  30  31
ATOM     31  C   UNL A   1      43.322  23.004  26.833  1.00  0.00     0.202 C 
BRANCH  31  32
ATOM     32  C   UNL A   1      43.068  23.998  25.709  1.00  0.00     0.261 C 
BRANCH  32  33
ATOM     33  O   UNL A   1      43.224  25.338  26.142  1.00  0.00    -0.460 OA
BRANCH  33  34
ATOM     34  C   UNL A   1      44.358  25.927  25.698  1.00  0.00     0.338 C 
ATOM     35  O   UNL A   1      45.268  25.403  25.078  1.00  0.00    -0.246 OA
BRANCH  34  36
ATOM     36  C   UNL A   1      44.389  27.302  26.201  1.00  0.00     0.060 A 
ATOM     37  C   UNL A   1      44.999  27.480  27.442  1.00  0.00     0.016 A 
ATOM     38  C   UNL A   1      43.538  28.266  25.637  1.00  0.00     0.016 A 
ATOM     39  C   UNL A   1      44.519  28.483  28.251  1.00  0.00     0.010 A 
ATOM     40  C   UNL A   1      43.060  29.264  26.444  1.00  0.00     0.010 A 
ATOM     41  C   UNL A   1      43.472  29.277  27.772  1.00  0.00    -0.014 A 
BRANCH  41  42
ATOM     42  C   UNL A   1      42.827  30.177  28.698  1.00  0.00     0.031 A 
ATOM     43  C   UNL A   1      43.684  31.328  29.044  1.00  0.00     0.074 A 
ATOM     44  C   UNL A   1      41.559  29.994  29.115  1.00  0.00     0.049 A 
ATOM     45  N   UNL A   1      44.283  31.545  30.164  1.00  0.00    -0.248 NA
ATOM     46  C   UNL A   1      44.099  32.222  27.950  1.00  0.00     0.031 C 
ATOM     47  C   UNL A   1      40.547  29.048  28.636  1.00  0.00     0.029 A 
ATOM     48  N   UNL A   1      40.874  30.715  30.033  1.00  0.00    -0.354 N 
ATOM     49  C   UNL A   1      44.993  32.724  29.985  1.00  0.00     0.074 A 
ATOM     50  C   UNL A   1      45.001  32.984  28.568  1.00  0.00     0.031 C 
ATOM     51  C   UNL A   1      39.326  29.436  29.084  1.00  0.00     0.029 A 
ATOM     52  C   UNL A   1      39.495  30.554  29.998  1.00  0.00     0.049 A 
ATOM     53  H   UNL A   1      41.320  31.310  30.678  1.00  0.00     0.167 HD
ATOM     54  C   UNL A   1      45.318  33.525  31.035  1.00  0.00     0.031 A 
ATOM     55  C   UNL A   1      38.585  31.343  30.630  1.00  0.00     0.031 A 
ATOM     56  C   UNL A   1      45.156  32.841  32.290  1.00  0.00     0.049 A 
ATOM     57  C   UNL A   1      39.321  32.057  31.710  1.00  0.00     0.074 A 
ATOM     58  C   UNL A   1      45.768  31.753  32.882  1.00  0.00     0.029 A 
ATOM     59  N   UNL A   1      43.956  33.008  32.942  1.00  0.00    -0.354 N 
ATOM     60  N   UNL A   1      39.853  31.443  32.732  1.00  0.00    -0.248 NA
ATOM     61  C   UNL A   1      39.906  33.352  31.390  1.00  0.00     0.031 C 
ATOM     62  C   UNL A   1      44.712  31.042  33.519  1.00  0.00     0.029 A 
ATOM     63  C   UNL A   1      43.530  31.770  33.356  1.00  0.00     0.049 A 
ATOM     64  H   UNL A   1      43.487  33.861  33.086  1.00  0.00     0.167 HD
ATOM     65  C   UNL A   1      41.087  32.053  32.917  1.00  0.00     0.074 A 
ATOM     66  C   UNL A   1      41.036  33.267  32.100  1.00  0.00     0.031 C 
ATOM     67  C   UNL A   1      42.138  31.382  33.476  1.00  0.00     0.031 A 
BRANCH  54  68
ATOM     68  C   UNL A   1      45.397  35.022  30.935  1.00  0.00    -0.014 A 
ATOM     69  C   UNL A   1      44.206  35.768  30.998  1.00  0.00     0.010 A 
ATOM     70  C   UNL A   1      46.561  35.699  30.513  1.00  0.00     0.010 A 
ATOM     71  C   UNL A   1      44.172  37.110  30.597  1.00  0.00     0.020 A 
ATOM     72  C   UNL A   1      46.547  37.045  30.152  1.00  0.00     0.020 A 
ATOM     73  C   UNL A   1      45.343  37.734  30.165  1.00  0.00     0.054 A 
BRANCH  73  74
ATOM     74  S   UNL A   1      45.266  39.432  29.551  1.00  0.00     0.124 S 
ATOM     75  O   UNL A   1      46.444  40.031  30.170  1.00  0.00    -0.237 OA
ATOM     76  O   UNL A   1      45.335  39.240  28.105  1.00  0.00    -0.237 OA
ATOM     77  O   UNL A   1      43.981  39.918  30.049  1.00  0.00    -0.744 OA
ENDBRANCH  73  74
ENDBRANCH  54  68
BRANCH  55  78
ATOM     78  C   UNL A   1      37.283  31.829  30.091  1.00  0.00    -0.014 A 
ATOM     79  C   UNL A   1      36.137  31.928  30.906  1.00  0.00     0.010 A 
ATOM     80  C   UNL A   1      37.244  32.475  28.837  1.00  0.00     0.010 A 
ATOM     81  C   UNL A   1      35.019  32.688  30.503  1.00  0.00     0.020 A 
ATOM     82  C   UNL A   1      36.137  33.231  28.430  1.00  0.00     0.020 A 
ATOM     83  C   UNL A   1      35.036  33.352  29.274  1.00  0.00     0.054 A 
BRANCH  83  84
ATOM     84  S   UNL A   1      33.670  34.473  28.832  1.00  0.00     0.124 S 
ATOM     85  O   UNL A   1      34.374  35.607  28.239  1.00  0.00    -0.237 OA
ATOM     86  O   UNL A   1      32.881  33.666  27.906  1.00  0.00    -0.237 OA
ATOM     87  O   UNL A   1      33.022  34.749  30.114  1.00  0.00    -0.744 OA
ENDBRANCH  83  84
ENDBRANCH  55  78
BRANCH  67  88
ATOM     88  C   UNL A   1      41.882  30.027  34.101  1.00  0.00    -0.014 A 
ATOM     89  C   UNL A   1      41.904  28.809  33.389  1.00  0.00     0.010 A 
ATOM     90  C   UNL A   1      41.802  29.979  35.503  1.00  0.00     0.010 A 
ATOM     91  C   UNL A   1      41.834  27.580  34.068  1.00  0.00     0.020 A 
ATOM     92  C   UNL A   1      41.750  28.761  36.185  1.00  0.00     0.020 A 
ATOM     93  C   UNL A   1      41.760  27.567  35.465  1.00  0.00     0.054 A 
BRANCH  93  94
ATOM     94  S   UNL A   1      41.725  25.983  36.354  1.00  0.00     0.124 S 
ATOM     95  O   UNL A   1      40.536  25.337  35.803  1.00  0.00    -0.237 OA
ATOM     96  O   UNL A   1      43.000  25.374  35.985  1.00  0.00    -0.237 OA
ATOM     97  O   UNL A   1      41.620  26.373  37.759  1.00  0.00    -0.744 OA
ENDBRANCH  93  94
ENDBRANCH  67  88
ENDBRANCH  41  42
ENDBRANCH  34  36
ENDBRANCH  33  34
ENDBRANCH  32  33
ENDBRANCH  31  32
ENDBRANCH  30  31
ENDBRANCH   1  30
TORSDOF 21
ENDMDL
MODEL 3
REMARK VINA RESULT:     -10.7      9.247     14.339
REMARK SMILES NS(=O)(=O)c1ccc(-c2coc(=O)n2-c2ccc(C(=O)OCCOCCOC(=O)c3ccc(-c4c5nc(c(-c6ccc(S(=O)(=O)[O-])cc6)c6ccc([nH]6)c(-c6ccc(S(=O)(=O)[O-])cc6)c6nc(c(-c7ccc(S(=O)(=O)[O-])cc7)c7ccc4[nH]7)C=C6)C=C5)cc3)cc2)cc1
REMARK SMILES IDX 23 1 22 2 21 3 19 4 20 5 18 6 15 7 16 8 91 9 17 10 90 11
REMARK SMILES IDX 14 12 9 13 10 14 11 15 12 16 13 17 8 18 5 19 6 20 93 21 7 22
REMARK SMILES IDX 92 23 2 24 3 25 4 26 1 27 24 30 25 31 26 32 27 33 28 34
REMARK SMILES IDX 29 35 30 36 31 37 89 38 32 39 88 40 33 41 34 42 35 43 82 44
REMARK SMILES IDX 36 45 87 46 81 47 83 48 37 49 86 50 80 51 79 52 38 54 68 55
REMARK SMILES IDX 49 56 67 57 50 58 53 59 66 60 84 61 51 62 52 63 65 65 85 66
REMARK SMILES IDX 54 67 39 68 40 69 48 70 41 71 47 72 42 73 43 74 44 75 45 76
REMARK SMILES IDX 46 77 69 78 70 79 78 80 71 81 77 82 72 83 73 84 74 85 75 86
REMARK SMILES IDX 76 87 55 88 56 89 64 90 57 91 63 92 58 93 59 94 60 95 61 96
REMARK SMILES IDX 62 97
REMARK H PARENT 1 28 1 29 83 53 53 64
REMARK Flexibility Score: inf
ROOT
ATOM      1  C   UNL A   1      39.336  30.858  33.315  1.00  0.00     0.202 C 
ENDROOT
BRANCH   1   2
ATOM      2  C   UNL A   1      38.146  31.250  34.193  1.00  0.00     0.261 C 
BRANCH   2   3
ATOM      3  O   UNL A   1      38.067  32.663  34.425  1.00  0.00    -0.460 OA
BRANCH   3   4
ATOM      4  C   UNL A   1      36.930  33.061  35.045  1.00  0.00     0.338 C 
ATOM      5  O   UNL A   1      36.681  33.011  36.237  1.00  0.00    -0.246 OA
BRANCH   4   6
ATOM      6  C   UNL A   1      36.042  33.744  34.085  1.00  0.00     0.060 A 
ATOM      7  C   UNL A   1      34.469  34.750  32.014  1.00  0.00     0.053 A 
ATOM      8  C   UNL A   1      34.045  33.619  32.714  1.00  0.00     0.028 A 
ATOM      9  C   UNL A   1      35.611  35.447  32.452  1.00  0.00     0.028 A 
ATOM     10  C   UNL A   1      34.850  33.100  33.726  1.00  0.00     0.018 A 
ATOM     11  C   UNL A   1      36.395  34.955  33.494  1.00  0.00     0.018 A 
BRANCH   7  12
ATOM     12  N   UNL A   1      33.867  35.079  30.779  1.00  0.00    -0.242 N 
ATOM     13  C   UNL A   1      34.139  34.525  29.558  1.00  0.00     0.095 A 
ATOM     14  C   UNL A   1      33.307  35.097  28.696  1.00  0.00     0.228 A 
ATOM     15  O   UNL A   1      32.445  36.031  29.268  1.00  0.00    -0.415 OA
ATOM     16  C   UNL A   1      32.804  35.966  30.616  1.00  0.00     0.424 A 
ATOM     17  O   UNL A   1      32.232  36.620  31.479  1.00  0.00    -0.223 OA
BRANCH  13  18
ATOM     18  C   UNL A   1      35.030  33.390  29.331  1.00  0.00     0.002 A 
ATOM     19  C   UNL A   1      36.714  31.162  29.150  1.00  0.00     0.082 A 
ATOM     20  C   UNL A   1      35.330  30.984  29.100  1.00  0.00     0.022 A 
ATOM     21  C   UNL A   1      37.262  32.443  29.265  1.00  0.00     0.022 A 
ATOM     22  C   UNL A   1      34.493  32.097  29.182  1.00  0.00     0.012 A 
ATOM     23  C   UNL A   1      36.419  33.556  29.349  1.00  0.00     0.012 A 
BRANCH  19  24
ATOM     24  S   UNL A   1      37.733  29.721  29.056  1.00  0.00     0.238 S 
ATOM     25  O   UNL A   1      37.556  29.126  27.758  1.00  0.00    -0.207 OA
ATOM     26  O   UNL A   1      37.580  28.976  30.289  1.00  0.00    -0.207 OA
BRANCH  24  27
ATOM     27  N   UNL A   1      39.307  30.307  29.076  1.00  0.00    -0.225 NA
ATOM     28  H   UNL A   1      39.452  30.917  28.272  1.00  0.00     0.137 HD
ATOM     29  H   UNL A   1      39.961  29.526  29.032  1.00  0.00     0.137 HD
ENDBRANCH  24  27
ENDBRANCH  19  24
ENDBRANCH  13  18
ENDBRANCH   7  12
ENDBRANCH   4   6
ENDBRANCH   3   4
ENDBRANCH   2   3
ENDBRANCH   1   2
BRANCH   1  30
ATOM     30  O   UNL A   1      40.566  31.565  33.469  1.00  0.00    -0.374 OA
BRANCH  30  31
ATOM     31  C   UNL A   1      41.040  32.421  32.435  1.00  0.00     0.202 C 
BRANCH  31  32
ATOM     32  C   UNL A   1      40.043  33.258  31.648  1.00  0.00     0.261 C 
BRANCH  32  33
ATOM     33  O   UNL A   1      40.438  33.423  30.297  1.00  0.00    -0.460 OA
BRANCH  33  34
ATOM     34  C   UNL A   1      40.211  34.664  29.809  1.00  0.00     0.338 C 
ATOM     35  O   UNL A   1      39.203  35.336  29.943  1.00  0.00    -0.246 OA
BRANCH  34  36
ATOM     36  C   UNL A   1      41.344  35.038  28.960  1.00  0.00     0.060 A 
ATOM     37  C   UNL A   1      42.540  35.302  29.628  1.00  0.00     0.016 A 
ATOM     38  C   UNL A   1      41.114  35.453  27.639  1.00  0.00     0.016 A 
ATOM     39  C   UNL A   1      43.382  36.240  29.080  1.00  0.00     0.010 A 
ATOM     40  C   UNL A   1      41.954  36.388  27.095  1.00  0.00     0.010 A 
ATOM     41  C   UNL A   1      43.004  36.851  27.879  1.00  0.00    -0.014 A 
BRANCH  41  42
ATOM     42  C   UNL A   1      43.774  37.983  27.425  1.00  0.00     0.031 A 
ATOM     43  C   UNL A   1      45.212  37.668  27.308  1.00  0.00     0.074 A 
ATOM     44  C   UNL A   1      43.200  39.153  27.082  1.00  0.00     0.049 A 
ATOM     45  N   UNL A   1      46.165  38.076  28.074  1.00  0.00    -0.248 NA
ATOM     46  C   UNL A   1      45.603  36.605  26.367  1.00  0.00     0.031 C 
ATOM     47  C   UNL A   1      41.782  39.481  26.910  1.00  0.00     0.029 A 
ATOM     48  N   UNL A   1      43.813  40.304  26.719  1.00  0.00    -0.354 N 
ATOM     49  C   UNL A   1      47.318  37.480  27.584  1.00  0.00     0.074 A 
ATOM     50  C   UNL A   1      46.890  36.449  26.674  1.00  0.00     0.031 C 
ATOM     51  C   UNL A   1      41.674  40.652  26.232  1.00  0.00     0.029 A 
ATOM     52  C   UNL A   1      43.002  41.222  26.065  1.00  0.00     0.049 A 
ATOM     53  H   UNL A   1      44.764  40.478  26.904  1.00  0.00     0.167 HD
ATOM     54  C   UNL A   1      48.544  38.036  27.782  1.00  0.00     0.031 A 
ATOM     55  C   UNL A   1      43.428  42.320  25.386  1.00  0.00     0.031 A 
ATOM     56  C   UNL A   1      48.506  39.047  28.804  1.00  0.00     0.049 A 
ATOM     57  C   UNL A   1      44.803  42.614  25.877  1.00  0.00     0.074 A 
ATOM     58  C   UNL A   1      48.251  39.037  30.161  1.00  0.00     0.029 A 
ATOM     59  N   UNL A   1      48.332  40.348  28.389  1.00  0.00    -0.354 N 
ATOM     60  N   UNL A   1      45.056  42.981  27.104  1.00  0.00    -0.248 NA
ATOM     61  C   UNL A   1      45.921  42.004  25.169  1.00  0.00     0.031 C 
ATOM     62  C   UNL A   1      47.481  40.212  30.396  1.00  0.00     0.029 A 
ATOM     63  C   UNL A   1      47.378  40.919  29.194  1.00  0.00     0.049 A 
ATOM     64  H   UNL A   1      48.807  40.790  27.650  1.00  0.00     0.167 HD
ATOM     65  C   UNL A   1      46.200  42.280  27.463  1.00  0.00     0.074 A 
ATOM     66  C   UNL A   1      46.725  41.744  26.206  1.00  0.00     0.031 C 
ATOM     67  C   UNL A   1      46.458  41.953  28.764  1.00  0.00     0.031 A 
BRANCH  54  68
ATOM     68  C   UNL A   1      49.663  37.937  26.783  1.00  0.00    -0.014 A 
ATOM     69  C   UNL A   1      49.452  37.202  25.602  1.00  0.00     0.010 A 
ATOM     70  C   UNL A   1      50.990  38.308  27.085  1.00  0.00     0.010 A 
ATOM     71  C   UNL A   1      50.528  36.807  24.797  1.00  0.00     0.020 A 
ATOM     72  C   UNL A   1      52.063  37.955  26.268  1.00  0.00     0.020 A 
ATOM     73  C   UNL A   1      51.828  37.177  25.145  1.00  0.00     0.054 A 
BRANCH  73  74
ATOM     74  S   UNL A   1      53.215  36.572  24.157  1.00  0.00     0.124 S 
ATOM     75  O   UNL A   1      54.065  35.958  25.173  1.00  0.00    -0.237 OA
ATOM     76  O   UNL A   1      52.558  35.649  23.236  1.00  0.00    -0.237 OA
ATOM     77  O   UNL A   1      53.751  37.783  23.541  1.00  0.00    -0.744 OA
ENDBRANCH  73  74
ENDBRANCH  54  68
BRANCH  55  78
ATOM     78  C   UNL A   1      42.918  42.831  24.082  1.00  0.00    -0.014 A 
ATOM     79  C   UNL A   1      43.446  43.993  23.485  1.00  0.00     0.010 A 
ATOM     80  C   UNL A   1      42.103  42.004  23.279  1.00  0.00     0.010 A 
ATOM     81  C   UNL A   1      43.213  44.286  22.125  1.00  0.00     0.020 A 
ATOM     82  C   UNL A   1      41.866  42.288  21.928  1.00  0.00     0.020 A 
ATOM     83  C   UNL A   1      42.439  43.418  21.349  1.00  0.00     0.054 A 
BRANCH  83  84
ATOM     84  S   UNL A   1      42.283  43.702  19.557  1.00  0.00     0.124 S 
ATOM     85  O   UNL A   1      42.590  42.386  19.004  1.00  0.00    -0.237 OA
ATOM     86  O   UNL A   1      40.896  44.136  19.422  1.00  0.00    -0.237 OA
ATOM     87  O   UNL A   1      43.281  44.735  19.284  1.00  0.00    -0.744 OA
ENDBRANCH  83  84
ENDBRANCH  55  78
BRANCH  67  88
ATOM     88  C   UNL A   1      45.591  42.559  29.848  1.00  0.00    -0.014 A 
ATOM     89  C   UNL A   1      44.215  42.289  30.005  1.00  0.00     0.010 A 
ATOM     90  C   UNL A   1      46.249  43.282  30.857  1.00  0.00     0.010 A 
ATOM     91  C   UNL A   1      43.519  42.747  31.138  1.00  0.00     0.020 A 
ATOM     92  C   UNL A   1      45.568  43.724  31.993  1.00  0.00     0.020 A 
ATOM     93  C   UNL A   1      44.205  43.461  32.127  1.00  0.00     0.054 A 
BRANCH  93  94
ATOM     94  S   UNL A   1      43.326  44.007  33.620  1.00  0.00     0.124 S 
ATOM     95  O   UNL A   1      43.267  42.785  34.418  1.00  0.00    -0.237 OA
ATOM     96  O   UNL A   1      44.194  45.059  34.144  1.00  0.00    -0.237 OA
ATOM     97  O   UNL A   1      42.037  44.477  33.114  1.00  0.00    -0.744 OA
ENDBRANCH  93  94
ENDBRANCH  67  88
ENDBRANCH  41  42
ENDBRANCH  34  36
ENDBRANCH  33  34
ENDBRANCH  32  33
ENDBRANCH  31  32
ENDBRANCH  30  31
ENDBRANCH   1  30
TORSDOF 21
ENDMDL
