MODEL 1
REMARK VINA RESULT:      -9.4      0.000      0.000
REMARK SMILES C=C[C@@H](C)Oc1cnc2ccccc2c1C(=O)OCCOCCOC(=O)c1ccc(-c2c3nc(c(-c4ccc(S(=O)(=O)[O-])cc4)c4ccc([nH]4)c(-c4ccc(S(=O)(=O)[O-])cc4)c4nc(c(-c5ccc(S(=O)(=O)[O-])cc5)c5ccc2[nH]5)C=C4)C=C3)cc1
REMARK SMILES IDX 21 1 20 2 19 3 18 4 16 5 17 6 15 7 6 8 7 9 8 10 14 11 9 12
REMARK SMILES IDX 13 13 10 14 12 15 11 16 5 17 3 18 4 19 2 20 1 21 22 22 23 23
REMARK SMILES IDX 24 24 25 25 26 26 27 27 28 28 86 29 29 30 85 31 30 32 31 33
REMARK SMILES IDX 32 34 79 35 33 36 84 37 78 38 80 39 34 40 83 41 77 42 76 43
REMARK SMILES IDX 35 45 65 46 46 47 64 48 47 49 50 50 63 51 81 52 48 53 49 54
REMARK SMILES IDX 62 56 82 57 51 58 36 59 37 60 45 61 38 62 44 63 39 64 40 65
REMARK SMILES IDX 41 66 42 67 43 68 66 69 67 70 75 71 68 72 74 73 69 74 70 75
REMARK SMILES IDX 71 76 72 77 73 78 52 79 53 80 61 81 54 82 60 83 55 84 56 85
REMARK SMILES IDX 57 86 58 87 59 88
REMARK H PARENT 80 44 50 55
REMARK Flexibility Score: inf
ROOT
ATOM      1  O   UNL A   1      33.667  23.613  25.979  1.00  0.00    -0.374 OA
ENDROOT
BRANCH   1   2
ATOM      2  C   UNL A   1      32.941  24.195  24.893  1.00  0.00     0.202 C 
BRANCH   2   3
ATOM      3  C   UNL A   1      32.194  25.489  25.214  1.00  0.00     0.261 C 
BRANCH   3   4
ATOM      4  O   UNL A   1      31.915  26.202  23.999  1.00  0.00    -0.460 OA
BRANCH   4   5
ATOM      5  C   UNL A   1      32.724  27.255  23.753  1.00  0.00     0.342 C 
ATOM      6  O   UNL A   1      33.681  27.282  22.993  1.00  0.00    -0.246 OA
BRANCH   5   7
ATOM      7  C   UNL A   1      32.234  28.444  24.474  1.00  0.00     0.113 A 
ATOM      8  C   UNL A   1      31.047  29.034  24.020  1.00  0.00     0.153 A 
ATOM      9  C   UNL A   1      30.658  30.196  24.654  1.00  0.00     0.159 A 
ATOM     10  N   UNL A   1      31.371  30.809  25.626  1.00  0.00    -0.252 NA
ATOM     11  C   UNL A   1      32.967  28.995  25.558  1.00  0.00     0.018 A 
ATOM     12  C   UNL A   1      32.483  30.211  26.081  1.00  0.00     0.071 A 
ATOM     13  C   UNL A   1      34.117  28.413  26.153  1.00  0.00     0.011 A 
ATOM     14  C   UNL A   1      33.165  30.815  27.127  1.00  0.00     0.029 A 
ATOM     15  C   UNL A   1      34.759  29.019  27.232  1.00  0.00     0.001 A 
ATOM     16  C   UNL A   1      34.290  30.232  27.712  1.00  0.00     0.002 A 
BRANCH   8  17
ATOM     17  O   UNL A   1      30.206  28.341  23.196  1.00  0.00    -0.484 OA
BRANCH  17  18
ATOM     18  C   UNL A   1      28.844  28.085  23.582  1.00  0.00     0.192 C 
ATOM     19  C   UNL A   1      28.540  26.602  23.772  1.00  0.00     0.057 C 
BRANCH  18  20
ATOM     20  C   UNL A   1      27.813  28.763  22.712  1.00  0.00     0.009 C 
ATOM     21  C   UNL A   1      27.780  30.077  22.453  1.00  0.00     0.008 C 
ENDBRANCH  18  20
ENDBRANCH  17  18
ENDBRANCH   8  17
ENDBRANCH   5   7
ENDBRANCH   4   5
ENDBRANCH   3   4
ENDBRANCH   2   3
ENDBRANCH   1   2
BRANCH   1  22
ATOM     22  C   UNL A   1      35.007  23.191  25.728  1.00  0.00     0.202 C 
BRANCH  22  23
ATOM     23  C   UNL A   1      36.101  24.260  25.839  1.00  0.00     0.261 C 
BRANCH  23  24
ATOM     24  O   UNL A   1      37.325  23.889  25.182  1.00  0.00    -0.460 OA
BRANCH  24  25
ATOM     25  C   UNL A   1      38.234  23.295  25.993  1.00  0.00     0.338 C 
ATOM     26  O   UNL A   1      38.485  22.101  26.066  1.00  0.00    -0.246 OA
BRANCH  25  27
ATOM     27  C   UNL A   1      39.038  24.310  26.701  1.00  0.00     0.060 A 
ATOM     28  C   UNL A   1      38.834  24.441  28.080  1.00  0.00     0.016 A 
ATOM     29  C   UNL A   1      39.888  25.185  26.022  1.00  0.00     0.016 A 
ATOM     30  C   UNL A   1      39.424  25.493  28.776  1.00  0.00     0.010 A 
ATOM     31  C   UNL A   1      40.476  26.247  26.721  1.00  0.00     0.010 A 
ATOM     32  C   UNL A   1      40.205  26.431  28.090  1.00  0.00    -0.014 A 
BRANCH  32  33
ATOM     33  C   UNL A   1      40.572  27.697  28.771  1.00  0.00     0.031 A 
ATOM     34  C   UNL A   1      41.950  27.829  29.363  1.00  0.00     0.074 A 
ATOM     35  C   UNL A   1      39.715  28.731  28.821  1.00  0.00     0.049 A 
ATOM     36  N   UNL A   1      42.493  28.847  29.981  1.00  0.00    -0.248 NA
ATOM     37  C   UNL A   1      42.833  26.658  29.240  1.00  0.00     0.031 C 
ATOM     38  C   UNL A   1      38.367  28.741  28.254  1.00  0.00     0.029 A 
ATOM     39  N   UNL A   1      39.858  29.978  29.377  1.00  0.00    -0.354 N 
ATOM     40  C   UNL A   1      43.777  28.437  30.325  1.00  0.00     0.074 A 
ATOM     41  C   UNL A   1      43.917  27.069  29.877  1.00  0.00     0.031 C 
ATOM     42  C   UNL A   1      37.802  29.936  28.500  1.00  0.00     0.029 A 
ATOM     43  C   UNL A   1      38.739  30.764  29.258  1.00  0.00     0.049 A 
ATOM     44  H   UNL A   1      40.684  30.279  29.820  1.00  0.00     0.167 HD
ATOM     45  C   UNL A   1      44.755  29.138  30.948  1.00  0.00     0.031 A 
ATOM     46  C   UNL A   1      38.493  32.007  29.716  1.00  0.00     0.031 A 
ATOM     47  C   UNL A   1      44.608  30.491  31.414  1.00  0.00     0.049 A 
ATOM     48  C   UNL A   1      39.575  32.755  30.449  1.00  0.00     0.074 A 
ATOM     49  C   UNL A   1      45.538  31.287  32.059  1.00  0.00     0.029 A 
ATOM     50  N   UNL A   1      43.451  31.246  31.290  1.00  0.00    -0.354 N 
ATOM     51  N   UNL A   1      40.789  32.361  30.750  1.00  0.00    -0.248 NA
ATOM     52  C   UNL A   1      39.258  34.122  30.886  1.00  0.00     0.031 C 
ATOM     53  C   UNL A   1      44.927  32.510  32.365  1.00  0.00     0.029 A 
ATOM     54  C   UNL A   1      43.637  32.494  31.860  1.00  0.00     0.049 A 
ATOM     55  H   UNL A   1      42.620  30.939  30.859  1.00  0.00     0.167 HD
ATOM     56  C   UNL A   1      41.392  33.440  31.387  1.00  0.00     0.074 A 
ATOM     57  C   UNL A   1      40.410  34.506  31.420  1.00  0.00     0.031 C 
ATOM     58  C   UNL A   1      42.648  33.543  31.891  1.00  0.00     0.031 A 
BRANCH  45  59
ATOM     59  C   UNL A   1      46.057  28.420  31.193  1.00  0.00    -0.014 A 
ATOM     60  C   UNL A   1      46.264  27.664  32.361  1.00  0.00     0.010 A 
ATOM     61  C   UNL A   1      47.093  28.516  30.248  1.00  0.00     0.010 A 
ATOM     62  C   UNL A   1      47.504  27.070  32.609  1.00  0.00     0.020 A 
ATOM     63  C   UNL A   1      48.326  27.900  30.479  1.00  0.00     0.020 A 
ATOM     64  C   UNL A   1      48.533  27.203  31.671  1.00  0.00     0.054 A 
BRANCH  64  65
ATOM     65  S   UNL A   1      50.142  26.445  32.025  1.00  0.00     0.124 S 
ATOM     66  O   UNL A   1      50.945  26.907  30.896  1.00  0.00    -0.237 OA
ATOM     67  O   UNL A   1      50.492  27.020  33.322  1.00  0.00    -0.237 OA
ATOM     68  O   UNL A   1      49.853  25.013  32.040  1.00  0.00    -0.744 OA
ENDBRANCH  64  65
ENDBRANCH  45  59
BRANCH  46  69
ATOM     69  C   UNL A   1      37.156  32.617  29.488  1.00  0.00    -0.014 A 
ATOM     70  C   UNL A   1      36.172  32.592  30.491  1.00  0.00     0.010 A 
ATOM     71  C   UNL A   1      36.878  33.268  28.272  1.00  0.00     0.010 A 
ATOM     72  C   UNL A   1      34.935  33.211  30.283  1.00  0.00     0.020 A 
ATOM     73  C   UNL A   1      35.653  33.908  28.069  1.00  0.00     0.020 A 
ATOM     74  C   UNL A   1      34.686  33.872  29.075  1.00  0.00     0.054 A 
BRANCH  74  75
ATOM     75  S   UNL A   1      33.111  34.746  28.862  1.00  0.00     0.124 S 
ATOM     76  O   UNL A   1      33.550  36.053  28.386  1.00  0.00    -0.237 OA
ATOM     77  O   UNL A   1      32.419  33.914  27.880  1.00  0.00    -0.237 OA
ATOM     78  O   UNL A   1      32.526  34.729  30.201  1.00  0.00    -0.744 OA
ENDBRANCH  74  75
ENDBRANCH  46  69
BRANCH  58  79
ATOM     79  C   UNL A   1      43.050  34.865  32.491  1.00  0.00    -0.014 A 
ATOM     80  C   UNL A   1      43.641  35.874  31.712  1.00  0.00     0.010 A 
ATOM     81  C   UNL A   1      42.783  35.116  33.850  1.00  0.00     0.010 A 
ATOM     82  C   UNL A   1      43.992  37.098  32.290  1.00  0.00     0.020 A 
ATOM     83  C   UNL A   1      43.110  36.346  34.425  1.00  0.00     0.020 A 
ATOM     84  C   UNL A   1      43.727  37.324  33.645  1.00  0.00     0.054 A 
BRANCH  84  85
ATOM     85  S   UNL A   1      44.161  38.932  34.367  1.00  0.00     0.124 S 
ATOM     86  O   UNL A   1      43.066  39.778  33.901  1.00  0.00    -0.237 OA
ATOM     87  O   UNL A   1      44.171  38.649  35.801  1.00  0.00    -0.237 OA
ATOM     88  O   UNL A   1      45.470  39.229  33.788  1.00  0.00    -0.744 OA
ENDBRANCH  84  85
ENDBRANCH  58  79
ENDBRANCH  32  33
ENDBRANCH  25  27
ENDBRANCH  24  25
ENDBRANCH  23  24
ENDBRANCH  22  23
ENDBRANCH   1  22
TORSDOF 20
ENDMDL
MODEL 2
REMARK VINA RESULT:      -9.2      3.898      5.594
REMARK SMILES C=C[C@@H](C)Oc1cnc2ccccc2c1C(=O)OCCOCCOC(=O)c1ccc(-c2c3nc(c(-c4ccc(S(=O)(=O)[O-])cc4)c4ccc([nH]4)c(-c4ccc(S(=O)(=O)[O-])cc4)c4nc(c(-c5ccc(S(=O)(=O)[O-])cc5)c5ccc2[nH]5)C=C4)C=C3)cc1
REMARK SMILES IDX 21 1 20 2 19 3 18 4 16 5 17 6 15 7 6 8 7 9 8 10 14 11 9 12
REMARK SMILES IDX 13 13 10 14 12 15 11 16 5 17 3 18 4 19 2 20 1 21 22 22 23 23
REMARK SMILES IDX 24 24 25 25 26 26 27 27 28 28 86 29 29 30 85 31 30 32 31 33
REMARK SMILES IDX 32 34 79 35 33 36 84 37 78 38 80 39 34 40 83 41 77 42 76 43
REMARK SMILES IDX 35 45 65 46 46 47 64 48 47 49 50 50 63 51 81 52 48 53 49 54
REMARK SMILES IDX 62 56 82 57 51 58 36 59 37 60 45 61 38 62 44 63 39 64 40 65
REMARK SMILES IDX 41 66 42 67 43 68 66 69 67 70 75 71 68 72 74 73 69 74 70 75
REMARK SMILES IDX 71 76 72 77 73 78 52 79 53 80 61 81 54 82 60 83 55 84 56 85
REMARK SMILES IDX 57 86 58 87 59 88
REMARK H PARENT 80 44 50 55
REMARK Flexibility Score: inf
ROOT
ATOM      1  O   UNL A   1      38.398  22.358  25.429  1.00  0.00    -0.374 OA
ENDROOT
BRANCH   1   2
ATOM      2  C   UNL A   1      37.429  23.318  25.860  1.00  0.00     0.202 C 
BRANCH   2   3
ATOM      3  C   UNL A   1      36.355  23.679  24.834  1.00  0.00     0.261 C 
BRANCH   3   4
ATOM      4  O   UNL A   1      35.301  24.415  25.476  1.00  0.00    -0.460 OA
BRANCH   4   5
ATOM      5  C   UNL A   1      34.309  24.827  24.657  1.00  0.00     0.342 C 
ATOM      6  O   UNL A   1      34.333  24.860  23.435  1.00  0.00    -0.246 OA
BRANCH   5   7
ATOM      7  C   UNL A   1      33.110  25.158  25.447  1.00  0.00     0.113 A 
ATOM      8  C   UNL A   1      32.123  24.171  25.573  1.00  0.00     0.153 A 
ATOM      9  C   UNL A   1      30.973  24.536  26.242  1.00  0.00     0.159 A 
ATOM     10  N   UNL A   1      30.730  25.777  26.721  1.00  0.00    -0.252 NA
ATOM     11  C   UNL A   1      32.944  26.448  26.019  1.00  0.00     0.018 A 
ATOM     12  C   UNL A   1      31.701  26.700  26.632  1.00  0.00     0.071 A 
ATOM     13  C   UNL A   1      33.926  27.472  26.035  1.00  0.00     0.011 A 
ATOM     14  C   UNL A   1      31.464  27.948  27.191  1.00  0.00     0.029 A 
ATOM     15  C   UNL A   1      33.679  28.703  26.642  1.00  0.00     0.001 A 
ATOM     16  C   UNL A   1      32.438  28.947  27.209  1.00  0.00     0.002 A 
BRANCH   8  17
ATOM     17  O   UNL A   1      32.415  22.867  25.290  1.00  0.00    -0.484 OA
BRANCH  17  18
ATOM     18  C   UNL A   1      32.753  21.944  26.341  1.00  0.00     0.192 C 
ATOM     19  C   UNL A   1      33.000  22.624  27.684  1.00  0.00     0.057 C 
BRANCH  18  20
ATOM     20  C   UNL A   1      33.858  20.978  25.988  1.00  0.00     0.009 C 
ATOM     21  C   UNL A   1      34.215  20.652  24.738  1.00  0.00     0.008 C 
ENDBRANCH  18  20
ENDBRANCH  17  18
ENDBRANCH   8  17
ENDBRANCH   5   7
ENDBRANCH   4   5
ENDBRANCH   3   4
ENDBRANCH   2   3
ENDBRANCH   1   2
BRANCH   1  22
ATOM     22  C   UNL A   1      37.952  21.020  25.215  1.00  0.00     0.202 C 
BRANCH  22  23
ATOM     23  C   UNL A   1      38.978  19.903  25.443  1.00  0.00     0.261 C 
BRANCH  23  24
ATOM     24  O   UNL A   1      39.892  20.184  26.516  1.00  0.00    -0.460 OA
BRANCH  24  25
ATOM     25  C   UNL A   1      41.181  19.859  26.249  1.00  0.00     0.338 C 
ATOM     26  O   UNL A   1      41.592  18.808  25.779  1.00  0.00    -0.246 OA
BRANCH  25  27
ATOM     27  C   UNL A   1      42.063  21.025  26.448  1.00  0.00     0.060 A 
ATOM     28  C   UNL A   1      42.346  21.395  27.769  1.00  0.00     0.016 A 
ATOM     29  C   UNL A   1      42.512  21.804  25.380  1.00  0.00     0.016 A 
ATOM     30  C   UNL A   1      43.020  22.586  28.031  1.00  0.00     0.010 A 
ATOM     31  C   UNL A   1      43.184  23.004  25.644  1.00  0.00     0.010 A 
ATOM     32  C   UNL A   1      43.396  23.422  26.971  1.00  0.00    -0.014 A 
BRANCH  32  33
ATOM     33  C   UNL A   1      43.833  24.807  27.269  1.00  0.00     0.031 A 
ATOM     34  C   UNL A   1      45.275  25.177  27.045  1.00  0.00     0.074 A 
ATOM     35  C   UNL A   1      42.956  25.737  27.684  1.00  0.00     0.049 A 
ATOM     36  N   UNL A   1      45.872  26.328  27.216  1.00  0.00    -0.248 NA
ATOM     37  C   UNL A   1      46.161  24.104  26.565  1.00  0.00     0.031 C 
ATOM     38  C   UNL A   1      41.527  25.514  27.902  1.00  0.00     0.029 A 
ATOM     39  N   UNL A   1      43.143  27.061  27.993  1.00  0.00    -0.354 N 
ATOM     40  C   UNL A   1      47.202  26.118  26.869  1.00  0.00     0.074 A 
ATOM     41  C   UNL A   1      47.330  24.722  26.513  1.00  0.00     0.031 C 
ATOM     42  C   UNL A   1      40.968  26.664  28.320  1.00  0.00     0.029 A 
ATOM     43  C   UNL A   1      42.001  27.694  28.417  1.00  0.00     0.049 A 
ATOM     44  H   UNL A   1      44.015  27.514  27.918  1.00  0.00     0.167 HD
ATOM     45  C   UNL A   1      48.225  27.007  26.839  1.00  0.00     0.031 A 
ATOM     46  C   UNL A   1      41.811  28.957  28.846  1.00  0.00     0.031 A 
ATOM     47  C   UNL A   1      48.103  28.390  27.215  1.00  0.00     0.049 A 
ATOM     48  C   UNL A   1      42.968  29.920  28.853  1.00  0.00     0.074 A 
ATOM     49  C   UNL A   1      49.079  29.371  27.222  1.00  0.00     0.029 A 
ATOM     50  N   UNL A   1      46.932  28.987  27.658  1.00  0.00    -0.354 N 
ATOM     51  N   UNL A   1      44.216  29.710  28.505  1.00  0.00    -0.248 NA
ATOM     52  C   UNL A   1      42.687  31.293  29.292  1.00  0.00     0.031 C 
ATOM     53  C   UNL A   1      48.507  30.551  27.713  1.00  0.00     0.029 A 
ATOM     54  C   UNL A   1      47.163  30.319  27.957  1.00  0.00     0.049 A 
ATOM     55  H   UNL A   1      46.064  28.530  27.745  1.00  0.00     0.167 HD
ATOM     56  C   UNL A   1      44.863  30.933  28.655  1.00  0.00     0.074 A 
ATOM     57  C   UNL A   1      43.866  31.877  29.119  1.00  0.00     0.031 C 
ATOM     58  C   UNL A   1      46.162  31.247  28.423  1.00  0.00     0.031 A 
BRANCH  45  59
ATOM     59  C   UNL A   1      49.573  26.481  26.421  1.00  0.00    -0.014 A 
ATOM     60  C   UNL A   1      50.378  25.749  27.312  1.00  0.00     0.010 A 
ATOM     61  C   UNL A   1      50.047  26.736  25.122  1.00  0.00     0.010 A 
ATOM     62  C   UNL A   1      51.659  25.336  26.934  1.00  0.00     0.020 A 
ATOM     63  C   UNL A   1      51.317  26.301  24.730  1.00  0.00     0.020 A 
ATOM     64  C   UNL A   1      52.125  25.627  25.648  1.00  0.00     0.054 A 
BRANCH  64  65
ATOM     65  S   UNL A   1      53.799  25.103  25.186  1.00  0.00     0.124 S 
ATOM     66  O   UNL A   1      54.615  25.808  26.171  1.00  0.00    -0.237 OA
ATOM     67  O   UNL A   1      53.739  23.652  25.344  1.00  0.00    -0.237 OA
ATOM     68  O   UNL A   1      53.941  25.571  23.810  1.00  0.00    -0.744 OA
ENDBRANCH  64  65
ENDBRANCH  45  59
BRANCH  46  69
ATOM     69  C   UNL A   1      40.460  29.375  29.305  1.00  0.00    -0.014 A 
ATOM     70  C   UNL A   1      40.099  29.288  30.661  1.00  0.00     0.010 A 
ATOM     71  C   UNL A   1      39.539  29.909  28.384  1.00  0.00     0.010 A 
ATOM     72  C   UNL A   1      38.843  29.730  31.087  1.00  0.00     0.020 A 
ATOM     73  C   UNL A   1      38.293  30.373  28.810  1.00  0.00     0.020 A 
ATOM     74  C   UNL A   1      37.950  30.277  30.161  1.00  0.00     0.054 A 
BRANCH  74  75
ATOM     75  S   UNL A   1      36.362  30.928  30.750  1.00  0.00     0.124 S 
ATOM     76  O   UNL A   1      35.510  30.756  29.579  1.00  0.00    -0.237 OA
ATOM     77  O   UNL A   1      36.065  30.055  31.884  1.00  0.00    -0.237 OA
ATOM     78  O   UNL A   1      36.672  32.311  31.105  1.00  0.00    -0.744 OA
ENDBRANCH  74  75
ENDBRANCH  46  69
BRANCH  58  79
ATOM     79  C   UNL A   1      46.578  32.680  28.629  1.00  0.00    -0.014 A 
ATOM     80  C   UNL A   1      46.445  33.636  27.608  1.00  0.00     0.010 A 
ATOM     81  C   UNL A   1      47.067  33.082  29.886  1.00  0.00     0.010 A 
ATOM     82  C   UNL A   1      46.826  34.963  27.829  1.00  0.00     0.020 A 
ATOM     83  C   UNL A   1      47.424  34.412  30.119  1.00  0.00     0.020 A 
ATOM     84  C   UNL A   1      47.317  35.341  29.084  1.00  0.00     0.054 A 
BRANCH  84  85
ATOM     85  S   UNL A   1      47.775  37.076  29.359  1.00  0.00     0.124 S 
ATOM     86  O   UNL A   1      47.982  37.555  27.996  1.00  0.00    -0.237 OA
ATOM     87  O   UNL A   1      46.601  37.614  30.043  1.00  0.00    -0.237 OA
ATOM     88  O   UNL A   1      48.981  36.989  30.181  1.00  0.00    -0.744 OA
ENDBRANCH  84  85
ENDBRANCH  58  79
ENDBRANCH  32  33
ENDBRANCH  25  27
ENDBRANCH  24  25
ENDBRANCH  23  24
ENDBRANCH  22  23
ENDBRANCH   1  22
TORSDOF 20
ENDMDL
MODEL 3
REMARK VINA RESULT:      -9.1      4.189      9.874
REMARK SMILES C=C[C@@H](C)Oc1cnc2ccccc2c1C(=O)OCCOCCOC(=O)c1ccc(-c2c3nc(c(-c4ccc(S(=O)(=O)[O-])cc4)c4ccc([nH]4)c(-c4ccc(S(=O)(=O)[O-])cc4)c4nc(c(-c5ccc(S(=O)(=O)[O-])cc5)c5ccc2[nH]5)C=C4)C=C3)cc1
REMARK SMILES IDX 21 1 20 2 19 3 18 4 16 5 17 6 15 7 6 8 7 9 8 10 14 11 9 12
REMARK SMILES IDX 13 13 10 14 12 15 11 16 5 17 3 18 4 19 2 20 1 21 22 22 23 23
REMARK SMILES IDX 24 24 25 25 26 26 27 27 28 28 86 29 29 30 85 31 30 32 31 33
REMARK SMILES IDX 32 34 79 35 33 36 84 37 78 38 80 39 34 40 83 41 77 42 76 43
REMARK SMILES IDX 35 45 65 46 46 47 64 48 47 49 50 50 63 51 81 52 48 53 49 54
REMARK SMILES IDX 62 56 82 57 51 58 36 59 37 60 45 61 38 62 44 63 39 64 40 65
REMARK SMILES IDX 41 66 42 67 43 68 66 69 67 70 75 71 68 72 74 73 69 74 70 75
REMARK SMILES IDX 71 76 72 77 73 78 52 79 53 80 61 81 54 82 60 83 55 84 56 85
REMARK SMILES IDX 57 86 58 87 59 88
REMARK H PARENT 80 44 50 55
REMARK Flexibility Score: inf
ROOT
ATOM      1  O   UNL A   1      38.484  22.323  25.719  1.00  0.00    -0.374 OA
ENDROOT
BRANCH   1   2
ATOM      2  C   UNL A   1      37.730  23.528  25.877  1.00  0.00     0.202 C 
BRANCH   2   3
ATOM      3  C   UNL A   1      36.210  23.368  25.834  1.00  0.00     0.261 C 
BRANCH   3   4
ATOM      4  O   UNL A   1      35.861  21.993  26.063  1.00  0.00    -0.460 OA
BRANCH   4   5
ATOM      5  C   UNL A   1      34.624  21.792  26.568  1.00  0.00     0.342 C 
ATOM      6  O   UNL A   1      34.336  21.578  27.736  1.00  0.00    -0.246 OA
BRANCH   5   7
ATOM      7  C   UNL A   1      33.615  21.963  25.507  1.00  0.00     0.113 A 
ATOM      8  C   UNL A   1      33.626  21.047  24.448  1.00  0.00     0.153 A 
ATOM      9  C   UNL A   1      32.731  21.282  23.425  1.00  0.00     0.159 A 
ATOM     10  N   UNL A   1      31.904  22.350  23.365  1.00  0.00    -0.252 NA
ATOM     11  C   UNL A   1      32.697  23.047  25.539  1.00  0.00     0.018 A 
ATOM     12  C   UNL A   1      31.873  23.196  24.406  1.00  0.00     0.071 A 
ATOM     13  C   UNL A   1      32.540  23.959  26.615  1.00  0.00     0.011 A 
ATOM     14  C   UNL A   1      30.968  24.247  24.363  1.00  0.00     0.029 A 
ATOM     15  C   UNL A   1      31.593  24.982  26.565  1.00  0.00     0.001 A 
ATOM     16  C   UNL A   1      30.815  25.136  25.428  1.00  0.00     0.002 A 
BRANCH   8  17
ATOM     17  O   UNL A   1      34.291  19.860  24.572  1.00  0.00    -0.484 OA
BRANCH  17  18
ATOM     18  C   UNL A   1      33.587  18.609  24.474  1.00  0.00     0.192 C 
ATOM     19  C   UNL A   1      32.720  18.308  25.694  1.00  0.00     0.057 C 
BRANCH  18  20
ATOM     20  C   UNL A   1      34.457  17.433  24.099  1.00  0.00     0.009 C 
ATOM     21  C   UNL A   1      34.181  16.565  23.116  1.00  0.00     0.008 C 
ENDBRANCH  18  20
ENDBRANCH  17  18
ENDBRANCH   8  17
ENDBRANCH   5   7
ENDBRANCH   4   5
ENDBRANCH   3   4
ENDBRANCH   2   3
ENDBRANCH   1   2
BRANCH   1  22
ATOM     22  C   UNL A   1      39.737  22.234  26.395  1.00  0.00     0.202 C 
BRANCH  22  23
ATOM     23  C   UNL A   1      40.034  23.310  27.447  1.00  0.00     0.261 C 
BRANCH  23  24
ATOM     24  O   UNL A   1      41.251  24.031  27.193  1.00  0.00    -0.460 OA
BRANCH  24  25
ATOM     25  C   UNL A   1      41.074  25.211  26.550  1.00  0.00     0.338 C 
ATOM     26  O   UNL A   1      41.103  25.403  25.343  1.00  0.00    -0.246 OA
BRANCH  25  27
ATOM     27  C   UNL A   1      40.668  26.265  27.501  1.00  0.00     0.060 A 
ATOM     28  C   UNL A   1      41.439  27.434  27.528  1.00  0.00     0.016 A 
ATOM     29  C   UNL A   1      39.633  26.075  28.418  1.00  0.00     0.016 A 
ATOM     30  C   UNL A   1      41.224  28.389  28.519  1.00  0.00     0.010 A 
ATOM     31  C   UNL A   1      39.422  27.032  29.418  1.00  0.00     0.010 A 
ATOM     32  C   UNL A   1      40.249  28.168  29.500  1.00  0.00    -0.014 A 
BRANCH  32  33
ATOM     33  C   UNL A   1      40.235  29.030  30.707  1.00  0.00     0.031 A 
ATOM     34  C   UNL A   1      39.230  30.147  30.788  1.00  0.00     0.074 A 
ATOM     35  C   UNL A   1      41.067  28.796  31.736  1.00  0.00     0.049 A 
ATOM     36  N   UNL A   1      39.022  31.007  31.752  1.00  0.00    -0.248 NA
ATOM     37  C   UNL A   1      38.340  30.316  29.628  1.00  0.00     0.031 C 
ATOM     38  C   UNL A   1      42.059  27.724  31.794  1.00  0.00     0.029 A 
ATOM     39  N   UNL A   1      41.205  29.450  32.934  1.00  0.00    -0.354 N 
ATOM     40  C   UNL A   1      37.983  31.821  31.313  1.00  0.00     0.074 A 
ATOM     41  C   UNL A   1      37.628  31.373  29.984  1.00  0.00     0.031 C 
ATOM     42  C   UNL A   1      42.712  27.800  32.968  1.00  0.00     0.029 A 
ATOM     43  C   UNL A   1      42.197  28.936  33.731  1.00  0.00     0.049 A 
ATOM     44  H   UNL A   1      40.645  30.216  33.197  1.00  0.00     0.167 HD
ATOM     45  C   UNL A   1      37.371  32.843  31.960  1.00  0.00     0.031 A 
ATOM     46  C   UNL A   1      42.648  29.340  34.935  1.00  0.00     0.031 A 
ATOM     47  C   UNL A   1      37.738  33.303  33.272  1.00  0.00     0.049 A 
ATOM     48  C   UNL A   1      41.989  30.508  35.620  1.00  0.00     0.074 A 
ATOM     49  C   UNL A   1      37.183  34.332  34.013  1.00  0.00     0.029 A 
ATOM     50  N   UNL A   1      38.763  32.767  34.038  1.00  0.00    -0.354 N 
ATOM     51  N   UNL A   1      40.996  31.256  35.199  1.00  0.00    -0.248 NA
ATOM     52  C   UNL A   1      42.500  30.873  36.948  1.00  0.00     0.031 C 
ATOM     53  C   UNL A   1      37.902  34.446  35.208  1.00  0.00     0.029 A 
ATOM     54  C   UNL A   1      38.867  33.452  35.237  1.00  0.00     0.049 A 
ATOM     55  H   UNL A   1      39.332  32.009  33.769  1.00  0.00     0.167 HD
ATOM     56  C   UNL A   1      40.743  32.162  36.223  1.00  0.00     0.074 A 
ATOM     57  C   UNL A   1      41.683  31.863  37.286  1.00  0.00     0.031 C 
ATOM     58  C   UNL A   1      39.812  33.147  36.283  1.00  0.00     0.031 A 
BRANCH  45  59
ATOM     59  C   UNL A   1      36.266  33.552  31.221  1.00  0.00    -0.014 A 
ATOM     60  C   UNL A   1      36.359  33.810  29.842  1.00  0.00     0.010 A 
ATOM     61  C   UNL A   1      35.124  33.980  31.922  1.00  0.00     0.010 A 
ATOM     62  C   UNL A   1      35.361  34.538  29.188  1.00  0.00     0.020 A 
ATOM     63  C   UNL A   1      34.110  34.684  31.266  1.00  0.00     0.020 A 
ATOM     64  C   UNL A   1      34.248  34.982  29.909  1.00  0.00     0.054 A 
BRANCH  64  65
ATOM     65  S   UNL A   1      32.976  35.946  29.046  1.00  0.00     0.124 S 
ATOM     66  O   UNL A   1      32.139  36.396  30.155  1.00  0.00    -0.237 OA
ATOM     67  O   UNL A   1      33.756  36.990  28.385  1.00  0.00    -0.237 OA
ATOM     68  O   UNL A   1      32.355  34.975  28.150  1.00  0.00    -0.744 OA
ENDBRANCH  64  65
ENDBRANCH  45  59
BRANCH  46  69
ATOM     69  C   UNL A   1      43.790  28.624  35.564  1.00  0.00    -0.014 A 
ATOM     70  C   UNL A   1      45.113  29.044  35.345  1.00  0.00     0.010 A 
ATOM     71  C   UNL A   1      43.548  27.539  36.427  1.00  0.00     0.010 A 
ATOM     72  C   UNL A   1      46.175  28.392  35.981  1.00  0.00     0.020 A 
ATOM     73  C   UNL A   1      44.604  26.901  37.082  1.00  0.00     0.020 A 
ATOM     74  C   UNL A   1      45.913  27.329  36.851  1.00  0.00     0.054 A 
BRANCH  74  75
ATOM     75  S   UNL A   1      47.297  26.558  37.736  1.00  0.00     0.124 S 
ATOM     76  O   UNL A   1      48.390  26.709  36.782  1.00  0.00    -0.237 OA
ATOM     77  O   UNL A   1      47.393  27.375  38.944  1.00  0.00    -0.237 OA
ATOM     78  O   UNL A   1      46.840  25.188  37.957  1.00  0.00    -0.744 OA
ENDBRANCH  74  75
ENDBRANCH  46  69
BRANCH  58  79
ATOM     79  C   UNL A   1      39.734  33.954  37.552  1.00  0.00    -0.014 A 
ATOM     80  C   UNL A   1      40.413  35.177  37.687  1.00  0.00     0.010 A 
ATOM     81  C   UNL A   1      38.925  33.499  38.610  1.00  0.00     0.010 A 
ATOM     82  C   UNL A   1      40.313  35.914  38.871  1.00  0.00     0.020 A 
ATOM     83  C   UNL A   1      38.802  34.245  39.785  1.00  0.00     0.020 A 
ATOM     84  C   UNL A   1      39.510  35.440  39.914  1.00  0.00     0.054 A 
BRANCH  84  85
ATOM     85  S   UNL A   1      39.369  36.429  41.430  1.00  0.00     0.124 S 
ATOM     86  O   UNL A   1      38.950  37.726  40.907  1.00  0.00    -0.237 OA
ATOM     87  O   UNL A   1      38.357  35.703  42.195  1.00  0.00    -0.237 OA
ATOM     88  O   UNL A   1      40.716  36.389  41.995  1.00  0.00    -0.744 OA
ENDBRANCH  84  85
ENDBRANCH  58  79
ENDBRANCH  32  33
ENDBRANCH  25  27
ENDBRANCH  24  25
ENDBRANCH  23  24
ENDBRANCH  22  23
ENDBRANCH   1  22
TORSDOF 20
ENDMDL
