MODEL 1
REMARK VINA RESULT:      -9.9      0.000      0.000
REMARK SMILES O=C(C[C@@H]1CN(C(=O)[C@H]2C[C@H](O)C[NH2+]2)CCO1)OCCOCCOC(=O)c1ccc(-c2c3nc(c(-c4ccc(S(=O)(=O)[O-])cc4)c4ccc([nH]4)c(-c4ccc(S(=O)(=O)[O-])cc4)c4nc(c(-c5ccc(S(=O)(=O)[O-])cc5)c5ccc2[nH]5)C=C4)C=C3)cc1
REMARK SMILES IDX 20 1 19 2 18 3 2 4 1 5 3 6 4 7 5 8 17 9 6 10 16 11 15 12
REMARK SMILES IDX 7 13 8 14 9 15 10 16 14 17 11 18 13 19 12 22 21 24 22 25
REMARK SMILES IDX 23 26 24 27 25 28 26 29 27 30 28 31 86 32 29 33 85 34 30 35
REMARK SMILES IDX 31 36 32 37 79 38 33 39 84 40 78 41 80 42 34 43 83 44 77 45
REMARK SMILES IDX 76 46 35 48 65 49 46 50 64 51 47 52 50 53 63 54 81 55 48 56
REMARK SMILES IDX 49 57 62 59 82 60 51 61 36 62 37 63 45 64 38 65 44 66 39 67
REMARK SMILES IDX 40 68 41 69 42 70 43 71 66 72 67 73 75 74 68 75 74 76 69 77
REMARK SMILES IDX 70 78 71 79 72 80 73 81 52 82 53 83 61 84 54 85 60 86 55 87
REMARK SMILES IDX 56 88 57 89 58 90 59 91
REMARK H PARENT 14 20 14 21 12 23 80 47 50 58
REMARK Flexibility Score: inf
ROOT
ATOM      1  C   UNL A   1      31.200  28.623  23.647  1.00  0.00     0.202 C 
ENDROOT
BRANCH   1   2
ATOM      2  C   UNL A   1      31.592  27.726  22.471  1.00  0.00     0.261 C 
BRANCH   2   3
ATOM      3  O   UNL A   1      31.993  26.377  22.747  1.00  0.00    -0.463 OA
BRANCH   3   4
ATOM      4  C   UNL A   1      33.249  25.898  22.786  1.00  0.00     0.308 C 
ATOM      5  O   UNL A   1      33.786  25.503  21.754  1.00  0.00    -0.252 OA
BRANCH   4   6
ATOM      6  C   UNL A   1      33.975  25.838  24.094  1.00  0.00     0.156 C 
BRANCH   6   7
ATOM      7  C   UNL A   1      33.531  24.731  25.041  1.00  0.00     0.148 C 
ATOM      8  C   UNL A   1      33.287  23.367  24.356  1.00  0.00     0.152 C 
ATOM      9  O   UNL A   1      32.325  25.202  25.684  1.00  0.00    -0.374 OA
ATOM     10  N   UNL A   1      32.745  22.402  25.314  1.00  0.00    -0.333 N 
ATOM     11  C   UNL A   1      31.846  24.259  26.654  1.00  0.00     0.182 C 
ATOM     12  C   UNL A   1      31.550  22.907  26.003  1.00  0.00     0.148 C 
BRANCH  10  13
ATOM     13  C   UNL A   1      33.177  21.114  25.591  1.00  0.00     0.281 C 
ATOM     14  O   UNL A   1      34.209  20.944  26.255  1.00  0.00    -0.268 OA
BRANCH  13  15
ATOM     15  C   UNL A   1      32.459  19.863  25.026  1.00  0.00     0.275 C 
ATOM     16  C   UNL A   1      32.263  19.741  23.516  1.00  0.00     0.113 C 
ATOM     17  N   UNL A   1      33.110  18.610  25.498  1.00  0.00    -0.334 N 
ATOM     18  C   UNL A   1      32.741  18.332  23.176  1.00  0.00     0.175 C 
ATOM     19  C   UNL A   1      32.711  17.599  24.513  1.00  0.00     0.293 C 
ATOM     20  H   UNL A   1      32.777  18.358  26.429  1.00  0.00     0.347 HD
ATOM     21  H   UNL A   1      34.123  18.702  25.573  1.00  0.00     0.347 HD
BRANCH  18  22
ATOM     22  O   UNL A   1      31.944  17.707  22.189  1.00  0.00    -0.387 OA
ATOM     23  H   UNL A   1      31.583  18.380  21.591  1.00  0.00     0.211 HD
ENDBRANCH  18  22
ENDBRANCH  13  15
ENDBRANCH  10  13
ENDBRANCH   6   7
ENDBRANCH   4   6
ENDBRANCH   3   4
ENDBRANCH   2   3
ENDBRANCH   1   2
BRANCH   1  24
ATOM     24  O   UNL A   1      31.369  28.150  24.971  1.00  0.00    -0.374 OA
BRANCH  24  25
ATOM     25  C   UNL A   1      31.879  29.017  25.976  1.00  0.00     0.202 C 
BRANCH  25  26
ATOM     26  C   UNL A   1      32.623  28.401  27.161  1.00  0.00     0.261 C 
BRANCH  26  27
ATOM     27  O   UNL A   1      34.037  28.657  27.147  1.00  0.00    -0.460 OA
BRANCH  27  28
ATOM     28  C   UNL A   1      34.410  29.849  27.667  1.00  0.00     0.338 C 
ATOM     29  O   UNL A   1      33.693  30.826  27.845  1.00  0.00    -0.246 OA
BRANCH  28  30
ATOM     30  C   UNL A   1      35.810  29.805  28.123  1.00  0.00     0.060 A 
ATOM     31  C   UNL A   1      36.820  29.981  27.168  1.00  0.00     0.016 A 
ATOM     32  C   UNL A   1      36.129  29.482  29.444  1.00  0.00     0.016 A 
ATOM     33  C   UNL A   1      38.155  29.786  27.524  1.00  0.00     0.010 A 
ATOM     34  C   UNL A   1      37.467  29.278  29.795  1.00  0.00     0.010 A 
ATOM     35  C   UNL A   1      38.482  29.395  28.829  1.00  0.00    -0.014 A 
BRANCH  35  36
ATOM     36  C   UNL A   1      39.871  28.995  29.160  1.00  0.00     0.031 A 
ATOM     37  C   UNL A   1      40.795  29.999  29.796  1.00  0.00     0.074 A 
ATOM     38  C   UNL A   1      40.304  27.749  28.893  1.00  0.00     0.049 A 
ATOM     39  N   UNL A   1      42.056  29.872  30.118  1.00  0.00    -0.248 NA
ATOM     40  C   UNL A   1      40.223  31.319  30.108  1.00  0.00     0.031 C 
ATOM     41  C   UNL A   1      39.497  26.683  28.302  1.00  0.00     0.029 A 
ATOM     42  N   UNL A   1      41.538  27.179  29.075  1.00  0.00    -0.354 N 
ATOM     43  C   UNL A   1      42.433  31.095  30.661  1.00  0.00     0.074 A 
ATOM     44  C   UNL A   1      41.272  31.956  30.610  1.00  0.00     0.031 C 
ATOM     45  C   UNL A   1      40.263  25.588  28.158  1.00  0.00     0.029 A 
ATOM     46  C   UNL A   1      41.620  25.888  28.613  1.00  0.00     0.049 A 
ATOM     47  H   UNL A   1      42.293  27.650  29.495  1.00  0.00     0.167 HD
ATOM     48  C   UNL A   1      43.638  31.465  31.160  1.00  0.00     0.031 A 
ATOM     49  C   UNL A   1      42.674  25.053  28.537  1.00  0.00     0.031 A 
ATOM     50  C   UNL A   1      44.795  30.612  31.197  1.00  0.00     0.049 A 
ATOM     51  C   UNL A   1      44.020  25.512  29.036  1.00  0.00     0.074 A 
ATOM     52  C   UNL A   1      46.053  30.892  31.705  1.00  0.00     0.029 A 
ATOM     53  N   UNL A   1      44.843  29.320  30.699  1.00  0.00    -0.354 N 
ATOM     54  N   UNL A   1      44.350  26.659  29.582  1.00  0.00    -0.248 NA
ATOM     55  C   UNL A   1      45.135  24.561  28.911  1.00  0.00     0.031 C 
ATOM     56  C   UNL A   1      46.876  29.785  31.468  1.00  0.00     0.029 A 
ATOM     57  C   UNL A   1      46.116  28.798  30.861  1.00  0.00     0.049 A 
ATOM     58  H   UNL A   1      44.085  28.843  30.292  1.00  0.00     0.167 HD
ATOM     59  C   UNL A   1      45.704  26.559  29.884  1.00  0.00     0.074 A 
ATOM     60  C   UNL A   1      46.128  25.236  29.476  1.00  0.00     0.031 C 
ATOM     61  C   UNL A   1      46.523  27.479  30.449  1.00  0.00     0.031 A 
BRANCH  48  62
ATOM     62  C   UNL A   1      43.776  32.869  31.683  1.00  0.00    -0.014 A 
ATOM     63  C   UNL A   1      43.549  33.164  33.039  1.00  0.00     0.010 A 
ATOM     64  C   UNL A   1      44.203  33.895  30.820  1.00  0.00     0.010 A 
ATOM     65  C   UNL A   1      43.724  34.466  33.517  1.00  0.00     0.020 A 
ATOM     66  C   UNL A   1      44.399  35.193  31.299  1.00  0.00     0.020 A 
ATOM     67  C   UNL A   1      44.147  35.472  32.644  1.00  0.00     0.054 A 
BRANCH  67  68
ATOM     68  S   UNL A   1      44.406  37.144  33.300  1.00  0.00     0.124 S 
ATOM     69  O   UNL A   1      44.976  37.835  32.146  1.00  0.00    -0.237 OA
ATOM     70  O   UNL A   1      43.055  37.554  33.674  1.00  0.00    -0.237 OA
ATOM     71  O   UNL A   1      45.323  36.940  34.419  1.00  0.00    -0.744 OA
ENDBRANCH  67  68
ENDBRANCH  48  62
BRANCH  49  72
ATOM     72  C   UNL A   1      42.515  23.704  27.930  1.00  0.00    -0.014 A 
ATOM     73  C   UNL A   1      42.214  22.588  28.728  1.00  0.00     0.010 A 
ATOM     74  C   UNL A   1      42.683  23.531  26.544  1.00  0.00     0.010 A 
ATOM     75  C   UNL A   1      42.106  21.317  28.154  1.00  0.00     0.020 A 
ATOM     76  C   UNL A   1      42.550  22.267  25.963  1.00  0.00     0.020 A 
ATOM     77  C   UNL A   1      42.277  21.166  26.776  1.00  0.00     0.054 A 
BRANCH  77  78
ATOM     78  S   UNL A   1      42.093  19.516  26.043  1.00  0.00     0.124 S 
ATOM     79  O   UNL A   1      40.648  19.423  25.866  1.00  0.00    -0.237 OA
ATOM     80  O   UNL A   1      42.877  19.627  24.814  1.00  0.00    -0.237 OA
ATOM     81  O   UNL A   1      42.663  18.630  27.056  1.00  0.00    -0.744 OA
ENDBRANCH  77  78
ENDBRANCH  49  72
BRANCH  61  82
ATOM     82  C   UNL A   1      47.954  27.080  30.689  1.00  0.00    -0.014 A 
ATOM     83  C   UNL A   1      48.978  27.481  29.813  1.00  0.00     0.010 A 
ATOM     84  C   UNL A   1      48.285  26.337  31.838  1.00  0.00     0.010 A 
ATOM     85  C   UNL A   1      50.304  27.121  30.065  1.00  0.00     0.020 A 
ATOM     86  C   UNL A   1      49.613  25.997  32.106  1.00  0.00     0.020 A 
ATOM     87  C   UNL A   1      50.613  26.379  31.210  1.00  0.00     0.054 A 
BRANCH  87  88
ATOM     88  S   UNL A   1      52.347  25.957  31.539  1.00  0.00     0.124 S 
ATOM     89  O   UNL A   1      52.912  25.925  30.193  1.00  0.00    -0.237 OA
ATOM     90  O   UNL A   1      52.794  27.064  32.382  1.00  0.00    -0.237 OA
ATOM     91  O   UNL A   1      52.266  24.663  32.213  1.00  0.00    -0.744 OA
ENDBRANCH  87  88
ENDBRANCH  61  82
ENDBRANCH  35  36
ENDBRANCH  28  30
ENDBRANCH  27  28
ENDBRANCH  26  27
ENDBRANCH  25  26
ENDBRANCH  24  25
ENDBRANCH   1  24
TORSDOF 21
ENDMDL
MODEL 2
REMARK VINA RESULT:      -9.4      3.022      4.337
REMARK SMILES O=C(C[C@@H]1CN(C(=O)[C@H]2C[C@H](O)C[NH2+]2)CCO1)OCCOCCOC(=O)c1ccc(-c2c3nc(c(-c4ccc(S(=O)(=O)[O-])cc4)c4ccc([nH]4)c(-c4ccc(S(=O)(=O)[O-])cc4)c4nc(c(-c5ccc(S(=O)(=O)[O-])cc5)c5ccc2[nH]5)C=C4)C=C3)cc1
REMARK SMILES IDX 20 1 19 2 18 3 2 4 1 5 3 6 4 7 5 8 17 9 6 10 16 11 15 12
REMARK SMILES IDX 7 13 8 14 9 15 10 16 14 17 11 18 13 19 12 22 21 24 22 25
REMARK SMILES IDX 23 26 24 27 25 28 26 29 27 30 28 31 86 32 29 33 85 34 30 35
REMARK SMILES IDX 31 36 32 37 79 38 33 39 84 40 78 41 80 42 34 43 83 44 77 45
REMARK SMILES IDX 76 46 35 48 65 49 46 50 64 51 47 52 50 53 63 54 81 55 48 56
REMARK SMILES IDX 49 57 62 59 82 60 51 61 36 62 37 63 45 64 38 65 44 66 39 67
REMARK SMILES IDX 40 68 41 69 42 70 43 71 66 72 67 73 75 74 68 75 74 76 69 77
REMARK SMILES IDX 70 78 71 79 72 80 73 81 52 82 53 83 61 84 54 85 60 86 55 87
REMARK SMILES IDX 56 88 57 89 58 90 59 91
REMARK H PARENT 14 20 14 21 12 23 80 47 50 58
REMARK Flexibility Score: inf
ROOT
ATOM      1  C   UNL A   1      34.491  32.328  28.173  1.00  0.00     0.202 C 
ENDROOT
BRANCH   1   2
ATOM      2  C   UNL A   1      34.484  30.901  27.620  1.00  0.00     0.261 C 
BRANCH   2   3
ATOM      3  O   UNL A   1      33.249  30.369  27.122  1.00  0.00    -0.463 OA
BRANCH   3   4
ATOM      4  C   UNL A   1      32.892  29.075  27.060  1.00  0.00     0.308 C 
ATOM      5  O   UNL A   1      31.805  28.716  27.506  1.00  0.00    -0.252 OA
BRANCH   4   6
ATOM      6  C   UNL A   1      33.835  28.079  26.459  1.00  0.00     0.156 C 
BRANCH   6   7
ATOM      7  C   UNL A   1      33.228  27.140  25.425  1.00  0.00     0.148 C 
ATOM      8  C   UNL A   1      33.491  25.641  25.694  1.00  0.00     0.152 C 
ATOM      9  O   UNL A   1      33.773  27.532  24.145  1.00  0.00    -0.374 OA
ATOM     10  N   UNL A   1      32.983  24.825  24.590  1.00  0.00    -0.333 N 
ATOM     11  C   UNL A   1      33.219  26.750  23.077  1.00  0.00     0.182 C 
ATOM     12  C   UNL A   1      33.500  25.261  23.287  1.00  0.00     0.148 C 
BRANCH  10  13
ATOM     13  C   UNL A   1      32.156  23.712  24.639  1.00  0.00     0.281 C 
ATOM     14  O   UNL A   1      30.929  23.858  24.554  1.00  0.00    -0.268 OA
BRANCH  13  15
ATOM     15  C   UNL A   1      32.706  22.285  24.882  1.00  0.00     0.275 C 
ATOM     16  C   UNL A   1      34.153  21.976  24.505  1.00  0.00     0.113 C 
ATOM     17  N   UNL A   1      32.511  21.867  26.298  1.00  0.00    -0.334 N 
ATOM     18  C   UNL A   1      34.733  21.279  25.733  1.00  0.00     0.175 C 
ATOM     19  C   UNL A   1      33.505  20.810  26.505  1.00  0.00     0.293 C 
ATOM     20  H   UNL A   1      31.566  21.508  26.441  1.00  0.00     0.347 HD
ATOM     21  H   UNL A   1      32.624  22.642  26.951  1.00  0.00     0.347 HD
BRANCH  18  22
ATOM     22  O   UNL A   1      35.610  20.221  25.399  1.00  0.00    -0.387 OA
ATOM     23  H   UNL A   1      36.526  20.496  25.564  1.00  0.00     0.211 HD
ENDBRANCH  18  22
ENDBRANCH  13  15
ENDBRANCH  10  13
ENDBRANCH   6   7
ENDBRANCH   4   6
ENDBRANCH   3   4
ENDBRANCH   2   3
ENDBRANCH   1   2
BRANCH   1  24
ATOM     24  O   UNL A   1      35.699  32.879  28.665  1.00  0.00    -0.374 OA
BRANCH  24  25
ATOM     25  C   UNL A   1      35.778  33.335  30.010  1.00  0.00     0.202 C 
BRANCH  25  26
ATOM     26  C   UNL A   1      35.334  32.389  31.127  1.00  0.00     0.261 C 
BRANCH  26  27
ATOM     27  O   UNL A   1      36.406  31.600  31.670  1.00  0.00    -0.460 OA
BRANCH  27  28
ATOM     28  C   UNL A   1      36.631  30.425  31.037  1.00  0.00     0.338 C 
ATOM     29  O   UNL A   1      35.799  29.569  30.764  1.00  0.00    -0.246 OA
BRANCH  28  30
ATOM     30  C   UNL A   1      38.032  30.334  30.591  1.00  0.00     0.060 A 
ATOM     31  C   UNL A   1      38.285  30.306  29.213  1.00  0.00     0.016 A 
ATOM     32  C   UNL A   1      39.073  30.164  31.507  1.00  0.00     0.016 A 
ATOM     33  C   UNL A   1      39.576  30.058  28.747  1.00  0.00     0.010 A 
ATOM     34  C   UNL A   1      40.364  29.906  31.038  1.00  0.00     0.010 A 
ATOM     35  C   UNL A   1      40.615  29.817  29.657  1.00  0.00    -0.014 A 
BRANCH  35  36
ATOM     36  C   UNL A   1      41.938  29.360  29.171  1.00  0.00     0.031 A 
ATOM     37  C   UNL A   1      43.069  30.348  29.070  1.00  0.00     0.074 A 
ATOM     38  C   UNL A   1      42.129  28.074  28.821  1.00  0.00     0.049 A 
ATOM     39  N   UNL A   1      44.285  30.169  28.624  1.00  0.00    -0.248 NA
ATOM     40  C   UNL A   1      42.791  31.719  29.529  1.00  0.00     0.031 C 
ATOM     41  C   UNL A   1      41.119  27.019  28.897  1.00  0.00     0.029 A 
ATOM     42  N   UNL A   1      43.239  27.445  28.317  1.00  0.00    -0.354 N 
ATOM     43  C   UNL A   1      44.917  31.402  28.740  1.00  0.00     0.074 A 
ATOM     44  C   UNL A   1      43.944  32.326  29.282  1.00  0.00     0.031 C 
ATOM     45  C   UNL A   1      41.655  25.872  28.444  1.00  0.00     0.029 A 
ATOM     46  C   UNL A   1      43.029  26.122  28.013  1.00  0.00     0.049 A 
ATOM     47  H   UNL A   1      44.103  27.898  28.186  1.00  0.00     0.167 HD
ATOM     48  C   UNL A   1      46.192  31.734  28.425  1.00  0.00     0.031 A 
ATOM     49  C   UNL A   1      43.842  25.222  27.426  1.00  0.00     0.031 A 
ATOM     50  C   UNL A   1      47.154  30.818  27.874  1.00  0.00     0.049 A 
ATOM     51  C   UNL A   1      45.235  25.633  27.023  1.00  0.00     0.074 A 
ATOM     52  C   UNL A   1      48.478  31.056  27.544  1.00  0.00     0.029 A 
ATOM     53  N   UNL A   1      46.896  29.493  27.559  1.00  0.00    -0.354 N 
ATOM     54  N   UNL A   1      45.828  26.795  27.174  1.00  0.00    -0.248 NA
ATOM     55  C   UNL A   1      46.068  24.611  26.372  1.00  0.00     0.031 C 
ATOM     56  C   UNL A   1      49.006  29.888  26.983  1.00  0.00     0.029 A 
ATOM     57  C   UNL A   1      48.026  28.909  27.012  1.00  0.00     0.049 A 
ATOM     58  H   UNL A   1      46.037  29.035  27.704  1.00  0.00     0.167 HD
ATOM     59  C   UNL A   1      47.109  26.634  26.658  1.00  0.00     0.074 A 
ATOM     60  C   UNL A   1      47.211  25.263  26.205  1.00  0.00     0.031 C 
ATOM     61  C   UNL A   1      48.112  27.542  26.566  1.00  0.00     0.031 A 
BRANCH  48  62
ATOM     62  C   UNL A   1      46.618  33.160  28.644  1.00  0.00    -0.014 A 
ATOM     63  C   UNL A   1      46.518  34.114  27.615  1.00  0.00     0.010 A 
ATOM     64  C   UNL A   1      47.063  33.568  29.915  1.00  0.00     0.010 A 
ATOM     65  C   UNL A   1      46.879  35.444  27.848  1.00  0.00     0.020 A 
ATOM     66  C   UNL A   1      47.404  34.900  30.158  1.00  0.00     0.020 A 
ATOM     67  C   UNL A   1      47.320  35.829  29.117  1.00  0.00     0.054 A 
BRANCH  67  68
ATOM     68  S   UNL A   1      47.742  37.571  29.403  1.00  0.00     0.124 S 
ATOM     69  O   UNL A   1      47.815  37.627  30.860  1.00  0.00    -0.237 OA
ATOM     70  O   UNL A   1      49.015  37.711  28.703  1.00  0.00    -0.237 OA
ATOM     71  O   UNL A   1      46.624  38.300  28.808  1.00  0.00    -0.744 OA
ENDBRANCH  67  68
ENDBRANCH  48  62
BRANCH  49  72
ATOM     72  C   UNL A   1      43.352  23.846  27.146  1.00  0.00    -0.014 A 
ATOM     73  C   UNL A   1      43.246  22.898  28.177  1.00  0.00     0.010 A 
ATOM     74  C   UNL A   1      43.005  23.475  25.834  1.00  0.00     0.010 A 
ATOM     75  C   UNL A   1      42.822  21.594  27.898  1.00  0.00     0.020 A 
ATOM     76  C   UNL A   1      42.556  22.181  25.555  1.00  0.00     0.020 A 
ATOM     77  C   UNL A   1      42.483  21.245  26.588  1.00  0.00     0.054 A 
BRANCH  77  78
ATOM     78  S   UNL A   1      41.896  19.561  26.251  1.00  0.00     0.124 S 
ATOM     79  O   UNL A   1      42.641  19.218  25.044  1.00  0.00    -0.237 OA
ATOM     80  O   UNL A   1      42.284  18.842  27.462  1.00  0.00    -0.237 OA
ATOM     81  O   UNL A   1      40.456  19.734  26.075  1.00  0.00    -0.744 OA
ENDBRANCH  77  78
ENDBRANCH  49  72
BRANCH  61  82
ATOM     82  C   UNL A   1      49.419  27.075  25.982  1.00  0.00    -0.014 A 
ATOM     83  C   UNL A   1      49.680  27.187  24.605  1.00  0.00     0.010 A 
ATOM     84  C   UNL A   1      50.418  26.568  26.832  1.00  0.00     0.010 A 
ATOM     85  C   UNL A   1      50.909  26.771  24.084  1.00  0.00     0.020 A 
ATOM     86  C   UNL A   1      51.656  26.173  26.318  1.00  0.00     0.020 A 
ATOM     87  C   UNL A   1      51.888  26.264  24.944  1.00  0.00     0.054 A 
BRANCH  87  88
ATOM     88  S   UNL A   1      53.490  25.767  24.252  1.00  0.00     0.124 S 
ATOM     89  O   UNL A   1      53.262  25.922  22.818  1.00  0.00    -0.237 OA
ATOM     90  O   UNL A   1      54.412  26.731  24.849  1.00  0.00    -0.237 OA
ATOM     91  O   UNL A   1      53.654  24.391  24.714  1.00  0.00    -0.744 OA
ENDBRANCH  87  88
ENDBRANCH  61  82
ENDBRANCH  35  36
ENDBRANCH  28  30
ENDBRANCH  27  28
ENDBRANCH  26  27
ENDBRANCH  25  26
ENDBRANCH  24  25
ENDBRANCH   1  24
TORSDOF 21
ENDMDL
MODEL 3
REMARK VINA RESULT:      -9.4      4.453      9.412
REMARK SMILES O=C(C[C@@H]1CN(C(=O)[C@H]2C[C@H](O)C[NH2+]2)CCO1)OCCOCCOC(=O)c1ccc(-c2c3nc(c(-c4ccc(S(=O)(=O)[O-])cc4)c4ccc([nH]4)c(-c4ccc(S(=O)(=O)[O-])cc4)c4nc(c(-c5ccc(S(=O)(=O)[O-])cc5)c5ccc2[nH]5)C=C4)C=C3)cc1
REMARK SMILES IDX 20 1 19 2 18 3 2 4 1 5 3 6 4 7 5 8 17 9 6 10 16 11 15 12
REMARK SMILES IDX 7 13 8 14 9 15 10 16 14 17 11 18 13 19 12 22 21 24 22 25
REMARK SMILES IDX 23 26 24 27 25 28 26 29 27 30 28 31 86 32 29 33 85 34 30 35
REMARK SMILES IDX 31 36 32 37 79 38 33 39 84 40 78 41 80 42 34 43 83 44 77 45
REMARK SMILES IDX 76 46 35 48 65 49 46 50 64 51 47 52 50 53 63 54 81 55 48 56
REMARK SMILES IDX 49 57 62 59 82 60 51 61 36 62 37 63 45 64 38 65 44 66 39 67
REMARK SMILES IDX 40 68 41 69 42 70 43 71 66 72 67 73 75 74 68 75 74 76 69 77
REMARK SMILES IDX 70 78 71 79 72 80 73 81 52 82 53 83 61 84 54 85 60 86 55 87
REMARK SMILES IDX 56 88 57 89 58 90 59 91
REMARK H PARENT 14 20 14 21 12 23 80 47 50 58
REMARK Flexibility Score: inf
ROOT
ATOM      1  C   UNL A   1      32.602  29.484  25.746  1.00  0.00     0.202 C 
ENDROOT
BRANCH   1   2
ATOM      2  C   UNL A   1      31.438  28.858  24.976  1.00  0.00     0.261 C 
BRANCH   2   3
ATOM      3  O   UNL A   1      31.738  27.969  23.892  1.00  0.00    -0.463 OA
BRANCH   3   4
ATOM      4  C   UNL A   1      30.904  27.574  22.914  1.00  0.00     0.308 C 
ATOM      5  O   UNL A   1      30.416  28.404  22.151  1.00  0.00    -0.252 OA
BRANCH   4   6
ATOM      6  C   UNL A   1      30.566  26.122  22.776  1.00  0.00     0.156 C 
BRANCH   6   7
ATOM      7  C   UNL A   1      31.129  25.210  23.858  1.00  0.00     0.148 C 
ATOM      8  C   UNL A   1      31.126  23.709  23.490  1.00  0.00     0.152 C 
ATOM      9  O   UNL A   1      30.338  25.446  25.044  1.00  0.00    -0.374 OA
ATOM     10  N   UNL A   1      31.564  22.901  24.629  1.00  0.00    -0.333 N 
ATOM     11  C   UNL A   1      30.822  24.680  26.157  1.00  0.00     0.182 C 
ATOM     12  C   UNL A   1      30.791  23.182  25.845  1.00  0.00     0.148 C 
BRANCH  10  13
ATOM     13  C   UNL A   1      32.538  21.914  24.673  1.00  0.00     0.281 C 
ATOM     14  O   UNL A   1      33.729  22.223  24.538  1.00  0.00    -0.268 OA
BRANCH  13  15
ATOM     15  C   UNL A   1      32.185  20.411  24.803  1.00  0.00     0.275 C 
ATOM     16  C   UNL A   1      32.324  19.510  23.578  1.00  0.00     0.113 C 
ATOM     17  N   UNL A   1      32.941  19.775  25.917  1.00  0.00    -0.334 N 
ATOM     18  C   UNL A   1      33.105  18.297  24.074  1.00  0.00     0.175 C 
ATOM     19  C   UNL A   1      32.938  18.346  25.590  1.00  0.00     0.293 C 
ATOM     20  H   UNL A   1      32.478  19.943  26.810  1.00  0.00     0.347 HD
ATOM     21  H   UNL A   1      33.885  20.151  26.010  1.00  0.00     0.347 HD
BRANCH  18  22
ATOM     22  O   UNL A   1      32.650  17.084  23.511  1.00  0.00    -0.387 OA
ATOM     23  H   UNL A   1      33.327  16.399  23.627  1.00  0.00     0.211 HD
ENDBRANCH  18  22
ENDBRANCH  13  15
ENDBRANCH  10  13
ENDBRANCH   6   7
ENDBRANCH   4   6
ENDBRANCH   3   4
ENDBRANCH   2   3
ENDBRANCH   1   2
BRANCH   1  24
ATOM     24  O   UNL A   1      32.340  30.486  26.712  1.00  0.00    -0.374 OA
BRANCH  24  25
ATOM     25  C   UNL A   1      31.511  31.593  26.382  1.00  0.00     0.202 C 
BRANCH  25  26
ATOM     26  C   UNL A   1      31.811  32.946  27.028  1.00  0.00     0.261 C 
BRANCH  26  27
ATOM     27  O   UNL A   1      33.108  33.012  27.646  1.00  0.00    -0.460 OA
BRANCH  27  28
ATOM     28  C   UNL A   1      33.336  34.121  28.386  1.00  0.00     0.338 C 
ATOM     29  O   UNL A   1      32.674  35.152  28.383  1.00  0.00    -0.246 OA
BRANCH  28  30
ATOM     30  C   UNL A   1      34.452  33.904  29.322  1.00  0.00     0.060 A 
ATOM     31  C   UNL A   1      35.747  34.219  28.890  1.00  0.00     0.016 A 
ATOM     32  C   UNL A   1      34.246  33.294  30.562  1.00  0.00     0.016 A 
ATOM     33  C   UNL A   1      36.846  33.879  29.679  1.00  0.00     0.010 A 
ATOM     34  C   UNL A   1      35.349  32.946  31.347  1.00  0.00     0.010 A 
ATOM     35  C   UNL A   1      36.655  33.205  30.893  1.00  0.00    -0.014 A 
BRANCH  35  36
ATOM     36  C   UNL A   1      37.819  32.668  31.637  1.00  0.00     0.031 A 
ATOM     37  C   UNL A   1      38.583  31.503  31.068  1.00  0.00     0.074 A 
ATOM     38  C   UNL A   1      38.190  33.213  32.810  1.00  0.00     0.049 A 
ATOM     39  N   UNL A   1      39.596  30.850  31.578  1.00  0.00    -0.248 NA
ATOM     40  C   UNL A   1      38.147  31.006  29.752  1.00  0.00     0.031 C 
ATOM     41  C   UNL A   1      37.544  34.358  33.451  1.00  0.00     0.029 A 
ATOM     42  N   UNL A   1      39.195  32.862  33.676  1.00  0.00    -0.354 N 
ATOM     43  C   UNL A   1      39.914  29.862  30.653  1.00  0.00     0.074 A 
ATOM     44  C   UNL A   1      38.977  29.989  29.559  1.00  0.00     0.031 C 
ATOM     45  C   UNL A   1      38.164  34.609  34.618  1.00  0.00     0.029 A 
ATOM     46  C   UNL A   1      39.222  33.621  34.821  1.00  0.00     0.049 A 
ATOM     47  H   UNL A   1      39.833  32.136  33.494  1.00  0.00     0.167 HD
ATOM     48  C   UNL A   1      40.900  28.935  30.711  1.00  0.00     0.031 A 
ATOM     49  C   UNL A   1      39.994  33.514  35.920  1.00  0.00     0.031 A 
ATOM     50  C   UNL A   1      41.823  28.801  31.806  1.00  0.00     0.049 A 
ATOM     51  C   UNL A   1      41.039  32.430  35.989  1.00  0.00     0.074 A 
ATOM     52  C   UNL A   1      42.870  27.906  31.943  1.00  0.00     0.029 A 
ATOM     53  N   UNL A   1      41.804  29.574  32.956  1.00  0.00    -0.354 N 
ATOM     54  N   UNL A   1      41.351  31.527  35.089  1.00  0.00    -0.248 NA
ATOM     55  C   UNL A   1      41.837  32.354  37.221  1.00  0.00     0.031 C 
ATOM     56  C   UNL A   1      43.454  28.104  33.200  1.00  0.00     0.029 A 
ATOM     57  C   UNL A   1      42.802  29.158  33.821  1.00  0.00     0.049 A 
ATOM     58  H   UNL A   1      41.175  30.309  33.133  1.00  0.00     0.167 HD
ATOM     59  C   UNL A   1      42.396  30.791  35.639  1.00  0.00     0.074 A 
ATOM     60  C   UNL A   1      42.672  31.363  36.940  1.00  0.00     0.031 C 
ATOM     61  C   UNL A   1      43.066  29.736  35.114  1.00  0.00     0.031 A 
BRANCH  48  62
ATOM     62  C   UNL A   1      41.017  27.967  29.565  1.00  0.00    -0.014 A 
ATOM     63  C   UNL A   1      42.035  28.100  28.603  1.00  0.00     0.010 A 
ATOM     64  C   UNL A   1      40.138  26.871  29.486  1.00  0.00     0.010 A 
ATOM     65  C   UNL A   1      42.155  27.167  27.569  1.00  0.00     0.020 A 
ATOM     66  C   UNL A   1      40.268  25.925  28.466  1.00  0.00     0.020 A 
ATOM     67  C   UNL A   1      41.270  26.086  27.507  1.00  0.00     0.054 A 
BRANCH  67  68
ATOM     68  S   UNL A   1      41.476  24.868  26.177  1.00  0.00     0.124 S 
ATOM     69  O   UNL A   1      41.497  25.719  24.990  1.00  0.00    -0.237 OA
ATOM     70  O   UNL A   1      42.745  24.233  26.517  1.00  0.00    -0.237 OA
ATOM     71  O   UNL A   1      40.300  24.011  26.307  1.00  0.00    -0.744 OA
ENDBRANCH  67  68
ENDBRANCH  48  62
BRANCH  49  72
ATOM     72  C   UNL A   1      39.785  34.435  37.069  1.00  0.00    -0.014 A 
ATOM     73  C   UNL A   1      40.356  35.719  37.073  1.00  0.00     0.010 A 
ATOM     74  C   UNL A   1      39.025  34.018  38.177  1.00  0.00     0.010 A 
ATOM     75  C   UNL A   1      40.188  36.563  38.176  1.00  0.00     0.020 A 
ATOM     76  C   UNL A   1      38.833  34.869  39.270  1.00  0.00     0.020 A 
ATOM     77  C   UNL A   1      39.430  36.131  39.267  1.00  0.00     0.054 A 
BRANCH  77  78
ATOM     78  S   UNL A   1      39.189  37.255  40.671  1.00  0.00     0.124 S 
ATOM     79  O   UNL A   1      38.308  38.267  40.100  1.00  0.00    -0.237 OA
ATOM     80  O   UNL A   1      38.586  36.381  41.675  1.00  0.00    -0.237 OA
ATOM     81  O   UNL A   1      40.545  37.701  40.983  1.00  0.00    -0.744 OA
ENDBRANCH  77  78
ENDBRANCH  49  72
BRANCH  61  82
ATOM     82  C   UNL A   1      44.185  29.149  35.931  1.00  0.00    -0.014 A 
ATOM     83  C   UNL A   1      45.487  29.676  35.866  1.00  0.00     0.010 A 
ATOM     84  C   UNL A   1      43.917  28.089  36.817  1.00  0.00     0.010 A 
ATOM     85  C   UNL A   1      46.508  29.133  36.650  1.00  0.00     0.020 A 
ATOM     86  C   UNL A   1      44.929  27.560  37.620  1.00  0.00     0.020 A 
ATOM     87  C   UNL A   1      46.223  28.077  37.521  1.00  0.00     0.054 A 
BRANCH  87  88
ATOM     88  S   UNL A   1      47.555  27.414  38.560  1.00  0.00     0.124 S 
ATOM     89  O   UNL A   1      47.130  26.031  38.753  1.00  0.00    -0.237 OA
ATOM     90  O   UNL A   1      48.738  27.596  37.721  1.00  0.00    -0.237 OA
ATOM     91  O   UNL A   1      47.512  28.254  39.755  1.00  0.00    -0.744 OA
ENDBRANCH  87  88
ENDBRANCH  61  82
ENDBRANCH  35  36
ENDBRANCH  28  30
ENDBRANCH  27  28
ENDBRANCH  26  27
ENDBRANCH  25  26
ENDBRANCH  24  25
ENDBRANCH   1  24
TORSDOF 21
ENDMDL
