MODEL 1
REMARK VINA RESULT:     -10.9      0.000      0.000
REMARK SMILES Cc1ccc(C)c([C@@H](C)[C@](C)(O)C(=O)OCCOCCOC(=O)c2ccc(-c3c4nc(c(-c5ccc(S(=O)(=O)[O-])cc5)c5ccc([nH]5)c(-c5ccc(S(=O)(=O)[O-])cc5)c5nc(c(-c6ccc(S(=O)(=O)[O-])cc6)c6ccc3[nH]6)C=C5)C=C4)cc2)c1
REMARK SMILES IDX 19 1 18 2 17 3 16 4 15 5 13 6 14 7 10 8 11 9 8 10 9 11 7 12
REMARK SMILES IDX 1 13 2 14 3 15 84 16 4 17 5 18 6 19 12 20 20 22 21 23 22 24
REMARK SMILES IDX 23 25 24 26 25 27 83 28 26 29 82 30 27 31 28 32 29 33 76 34
REMARK SMILES IDX 30 35 81 36 75 37 77 38 31 39 80 40 74 41 73 42 32 44 62 45
REMARK SMILES IDX 43 46 61 47 44 48 47 49 60 50 78 51 45 52 46 53 59 55 79 56
REMARK SMILES IDX 48 57 33 58 34 59 42 60 35 61 41 62 36 63 37 64 38 65 39 66
REMARK SMILES IDX 40 67 63 68 64 69 72 70 65 71 71 72 66 73 67 74 68 75 69 76
REMARK SMILES IDX 70 77 49 78 50 79 58 80 51 81 57 82 52 83 53 84 54 85 55 86
REMARK SMILES IDX 56 87
REMARK H PARENT 12 21 77 43 47 54
REMARK Flexibility Score: inf
ROOT
ATOM      1  C   UNL A   1      35.585  21.533  24.787  1.00  0.00     0.202 C 
ENDROOT
BRANCH   1   2
ATOM      2  O   UNL A   1      34.805  20.832  25.750  1.00  0.00    -0.374 OA
BRANCH   2   3
ATOM      3  C   UNL A   1      33.763  21.563  26.382  1.00  0.00     0.202 C 
BRANCH   3   4
ATOM      4  C   UNL A   1      32.581  21.640  25.421  1.00  0.00     0.261 C 
BRANCH   4   5
ATOM      5  O   UNL A   1      31.541  22.571  25.808  1.00  0.00    -0.461 OA
BRANCH   5   6
ATOM      6  C   UNL A   1      31.277  23.606  24.956  1.00  0.00     0.338 C 
ATOM      7  O   UNL A   1      30.912  23.477  23.809  1.00  0.00    -0.249 OA
BRANCH   6   8
ATOM      8  C   UNL A   1      31.483  25.001  25.620  1.00  0.00     0.165 C 
ATOM      9  C   UNL A   1      30.059  25.573  25.891  1.00  0.00     0.055 C 
BRANCH   8  10
ATOM     10  C   UNL A   1      32.495  25.943  24.835  1.00  0.00     0.059 C 
ATOM     11  C   UNL A   1      33.886  25.337  24.560  1.00  0.00     0.016 C 
BRANCH  10  12
ATOM     12  C   UNL A   1      32.657  27.382  25.329  1.00  0.00    -0.039 A 
ATOM     13  C   UNL A   1      34.944  29.335  27.751  1.00  0.00     0.044 C 
ATOM     14  C   UNL A   1      33.894  28.993  26.742  1.00  0.00    -0.051 A 
ATOM     15  C   UNL A   1      33.100  30.016  26.256  1.00  0.00     0.004 A 
ATOM     16  C   UNL A   1      33.660  27.683  26.287  1.00  0.00     0.007 A 
ATOM     17  C   UNL A   1      32.131  29.725  25.311  1.00  0.00     0.004 A 
ATOM     18  C   UNL A   1      31.864  28.427  24.850  1.00  0.00    -0.048 A 
ATOM     19  C   UNL A   1      30.804  28.222  23.811  1.00  0.00     0.044 C 
ENDBRANCH  10  12
ENDBRANCH   8  10
BRANCH   8  20
ATOM     20  O   UNL A   1      32.072  24.768  26.925  1.00  0.00    -0.378 OA
ATOM     21  H   UNL A   1      31.912  23.850  27.193  1.00  0.00     0.212 HD
ENDBRANCH   8  20
ENDBRANCH   6   8
ENDBRANCH   5   6
ENDBRANCH   4   5
ENDBRANCH   3   4
ENDBRANCH   2   3
ENDBRANCH   1   2
BRANCH   1  22
ATOM     22  C   UNL A   1      37.053  21.147  24.948  1.00  0.00     0.261 C 
BRANCH  22  23
ATOM     23  O   UNL A   1      37.572  21.679  26.184  1.00  0.00    -0.460 OA
BRANCH  23  24
ATOM     24  C   UNL A   1      38.925  21.824  26.189  1.00  0.00     0.338 C 
ATOM     25  O   UNL A   1      39.719  20.914  25.986  1.00  0.00    -0.246 OA
BRANCH  24  26
ATOM     26  C   UNL A   1      39.292  23.219  26.584  1.00  0.00     0.060 A 
ATOM     27  C   UNL A   1      38.309  24.216  26.606  1.00  0.00     0.016 A 
ATOM     28  C   UNL A   1      40.625  23.572  26.826  1.00  0.00     0.016 A 
ATOM     29  C   UNL A   1      38.660  25.545  26.893  1.00  0.00     0.010 A 
ATOM     30  C   UNL A   1      40.978  24.904  27.033  1.00  0.00     0.010 A 
ATOM     31  C   UNL A   1      40.004  25.916  27.072  1.00  0.00    -0.014 A 
BRANCH  31  32
ATOM     32  C   UNL A   1      40.454  27.181  27.714  1.00  0.00     0.031 A 
ATOM     33  C   UNL A   1      41.778  27.473  27.170  1.00  0.00     0.074 A 
ATOM     34  C   UNL A   1      40.250  27.894  28.861  1.00  0.00     0.049 A 
ATOM     35  N   UNL A   1      42.864  27.147  27.794  1.00  0.00    -0.248 NA
ATOM     36  C   UNL A   1      41.957  27.885  25.776  1.00  0.00     0.031 C 
ATOM     37  C   UNL A   1      39.709  27.495  30.149  1.00  0.00     0.029 A 
ATOM     38  N   UNL A   1      40.010  29.273  28.891  1.00  0.00    -0.354 N 
ATOM     39  C   UNL A   1      43.828  27.785  27.063  1.00  0.00     0.074 A 
ATOM     40  C   UNL A   1      43.293  27.912  25.722  1.00  0.00     0.031 C 
ATOM     41  C   UNL A   1      38.949  28.469  30.681  1.00  0.00     0.029 A 
ATOM     42  C   UNL A   1      39.071  29.678  29.861  1.00  0.00     0.049 A 
ATOM     43  H   UNL A   1      40.460  29.907  28.288  1.00  0.00     0.167 HD
ATOM     44  C   UNL A   1      44.637  28.639  27.738  1.00  0.00     0.031 A 
ATOM     45  C   UNL A   1      38.990  30.861  30.525  1.00  0.00     0.031 A 
ATOM     46  C   UNL A   1      44.703  28.387  29.162  1.00  0.00     0.049 A 
ATOM     47  C   UNL A   1      40.297  31.129  31.161  1.00  0.00     0.074 A 
ATOM     48  C   UNL A   1      45.074  27.314  29.946  1.00  0.00     0.029 A 
ATOM     49  N   UNL A   1      43.987  29.240  29.971  1.00  0.00    -0.354 N 
ATOM     50  N   UNL A   1      40.772  30.476  32.184  1.00  0.00    -0.248 NA
ATOM     51  C   UNL A   1      41.263  31.940  30.429  1.00  0.00     0.031 C 
ATOM     52  C   UNL A   1      44.505  27.518  31.234  1.00  0.00     0.029 A 
ATOM     53  C   UNL A   1      43.804  28.720  31.235  1.00  0.00     0.049 A 
ATOM     54  H   UNL A   1      43.646  30.117  29.680  1.00  0.00     0.167 HD
ATOM     55  C   UNL A   1      42.129  30.404  31.917  1.00  0.00     0.074 A 
ATOM     56  C   UNL A   1      42.391  31.459  30.951  1.00  0.00     0.031 C 
ATOM     57  C   UNL A   1      42.836  29.270  32.179  1.00  0.00     0.031 A 
BRANCH  44  58
ATOM     58  C   UNL A   1      44.930  29.980  27.146  1.00  0.00    -0.014 A 
ATOM     59  C   UNL A   1      46.256  30.365  26.943  1.00  0.00     0.010 A 
ATOM     60  C   UNL A   1      43.917  30.949  26.960  1.00  0.00     0.010 A 
ATOM     61  C   UNL A   1      46.550  31.663  26.511  1.00  0.00     0.020 A 
ATOM     62  C   UNL A   1      44.191  32.220  26.477  1.00  0.00     0.020 A 
ATOM     63  C   UNL A   1      45.514  32.572  26.268  1.00  0.00     0.054 A 
BRANCH  63  64
ATOM     64  S   UNL A   1      45.904  34.238  25.697  1.00  0.00     0.124 S 
ATOM     65  O   UNL A   1      45.061  34.347  24.511  1.00  0.00    -0.237 OA
ATOM     66  O   UNL A   1      45.509  35.057  26.840  1.00  0.00    -0.237 OA
ATOM     67  O   UNL A   1      47.342  34.183  25.445  1.00  0.00    -0.744 OA
ENDBRANCH  63  64
ENDBRANCH  44  58
BRANCH  45  68
ATOM     68  C   UNL A   1      37.782  31.706  30.675  1.00  0.00    -0.014 A 
ATOM     69  C   UNL A   1      36.519  31.123  30.890  1.00  0.00     0.010 A 
ATOM     70  C   UNL A   1      37.876  33.111  30.758  1.00  0.00     0.010 A 
ATOM     71  C   UNL A   1      35.422  31.896  31.297  1.00  0.00     0.020 A 
ATOM     72  C   UNL A   1      36.781  33.892  31.157  1.00  0.00     0.020 A 
ATOM     73  C   UNL A   1      35.571  33.273  31.468  1.00  0.00     0.054 A 
BRANCH  73  74
ATOM     74  S   UNL A   1      34.229  34.214  32.253  1.00  0.00     0.124 S 
ATOM     75  O   UNL A   1      33.427  34.638  31.110  1.00  0.00    -0.237 OA
ATOM     76  O   UNL A   1      33.610  33.216  33.122  1.00  0.00    -0.237 OA
ATOM     77  O   UNL A   1      34.929  35.288  32.957  1.00  0.00    -0.744 OA
ENDBRANCH  73  74
ENDBRANCH  45  68
BRANCH  57  78
ATOM     78  C   UNL A   1      42.491  28.470  33.416  1.00  0.00    -0.014 A 
ATOM     79  C   UNL A   1      41.441  27.541  33.508  1.00  0.00     0.010 A 
ATOM     80  C   UNL A   1      43.323  28.631  34.541  1.00  0.00     0.010 A 
ATOM     81  C   UNL A   1      41.236  26.787  34.673  1.00  0.00     0.020 A 
ATOM     82  C   UNL A   1      43.137  27.875  35.703  1.00  0.00     0.020 A 
ATOM     83  C   UNL A   1      42.094  26.952  35.762  1.00  0.00     0.054 A 
BRANCH  83  84
ATOM     84  S   UNL A   1      41.857  25.928  37.241  1.00  0.00     0.124 S 
ATOM     85  O   UNL A   1      42.065  24.576  36.730  1.00  0.00    -0.237 OA
ATOM     86  O   UNL A   1      42.891  26.426  38.144  1.00  0.00    -0.237 OA
ATOM     87  O   UNL A   1      40.488  26.227  37.656  1.00  0.00    -0.744 OA
ENDBRANCH  83  84
ENDBRANCH  57  78
ENDBRANCH  31  32
ENDBRANCH  24  26
ENDBRANCH  23  24
ENDBRANCH  22  23
ENDBRANCH   1  22
TORSDOF 20
ENDMDL
MODEL 2
REMARK VINA RESULT:     -10.7      4.013     10.914
REMARK SMILES Cc1ccc(C)c([C@@H](C)[C@](C)(O)C(=O)OCCOCCOC(=O)c2ccc(-c3c4nc(c(-c5ccc(S(=O)(=O)[O-])cc5)c5ccc([nH]5)c(-c5ccc(S(=O)(=O)[O-])cc5)c5nc(c(-c6ccc(S(=O)(=O)[O-])cc6)c6ccc3[nH]6)C=C5)C=C4)cc2)c1
REMARK SMILES IDX 19 1 18 2 17 3 16 4 15 5 13 6 14 7 10 8 11 9 8 10 9 11 7 12
REMARK SMILES IDX 1 13 2 14 3 15 84 16 4 17 5 18 6 19 12 20 20 22 21 23 22 24
REMARK SMILES IDX 23 25 24 26 25 27 83 28 26 29 82 30 27 31 28 32 29 33 76 34
REMARK SMILES IDX 30 35 81 36 75 37 77 38 31 39 80 40 74 41 73 42 32 44 62 45
REMARK SMILES IDX 43 46 61 47 44 48 47 49 60 50 78 51 45 52 46 53 59 55 79 56
REMARK SMILES IDX 48 57 33 58 34 59 42 60 35 61 41 62 36 63 37 64 38 65 39 66
REMARK SMILES IDX 40 67 63 68 64 69 72 70 65 71 71 72 66 73 67 74 68 75 69 76
REMARK SMILES IDX 70 77 49 78 50 79 58 80 51 81 57 82 52 83 53 84 54 85 55 86
REMARK SMILES IDX 56 87
REMARK H PARENT 12 21 77 43 47 54
REMARK Flexibility Score: inf
ROOT
ATOM      1  C   UNL A   1      33.459  35.082  28.838  1.00  0.00     0.202 C 
ENDROOT
BRANCH   1   2
ATOM      2  O   UNL A   1      32.882  34.857  30.120  1.00  0.00    -0.374 OA
BRANCH   2   3
ATOM      3  C   UNL A   1      32.402  36.002  30.813  1.00  0.00     0.202 C 
BRANCH   3   4
ATOM      4  C   UNL A   1      33.593  36.715  31.445  1.00  0.00     0.261 C 
BRANCH   4   5
ATOM      5  O   UNL A   1      34.621  35.838  31.967  1.00  0.00    -0.461 OA
BRANCH   5   6
ATOM      6  C   UNL A   1      34.604  35.581  33.308  1.00  0.00     0.338 C 
ATOM      7  O   UNL A   1      34.341  36.397  34.163  1.00  0.00    -0.249 OA
BRANCH   6   8
ATOM      8  C   UNL A   1      34.950  34.098  33.642  1.00  0.00     0.165 C 
ATOM      9  C   UNL A   1      35.232  34.047  35.174  1.00  0.00     0.055 C 
BRANCH   8  10
ATOM     10  C   UNL A   1      36.056  33.466  32.691  1.00  0.00     0.059 C 
ATOM     11  C   UNL A   1      35.839  31.986  32.317  1.00  0.00     0.016 C 
BRANCH  10  12
ATOM     12  C   UNL A   1      37.524  33.688  33.059  1.00  0.00    -0.039 A 
ATOM     13  C   UNL A   1      39.858  32.995  36.057  1.00  0.00     0.044 C 
ATOM     14  C   UNL A   1      39.341  33.412  34.716  1.00  0.00    -0.051 A 
ATOM     15  C   UNL A   1      40.231  33.975  33.821  1.00  0.00     0.004 A 
ATOM     16  C   UNL A   1      37.992  33.283  34.336  1.00  0.00     0.007 A 
ATOM     17  C   UNL A   1      39.778  34.357  32.570  1.00  0.00     0.004 A 
ATOM     18  C   UNL A   1      38.438  34.256  32.168  1.00  0.00    -0.048 A 
ATOM     19  C   UNL A   1      38.054  34.680  30.784  1.00  0.00     0.044 C 
ENDBRANCH  10  12
ENDBRANCH   8  10
BRANCH   8  20
ATOM     20  O   UNL A   1      33.743  33.321  33.435  1.00  0.00    -0.378 OA
ATOM     21  H   UNL A   1      33.460  33.404  32.511  1.00  0.00     0.212 HD
ENDBRANCH   8  20
ENDBRANCH   6   8
ENDBRANCH   5   6
ENDBRANCH   4   5
ENDBRANCH   3   4
ENDBRANCH   2   3
ENDBRANCH   1   2
BRANCH   1  22
ATOM     22  C   UNL A   1      33.195  33.870  27.947  1.00  0.00     0.261 C 
BRANCH  22  23
ATOM     23  O   UNL A   1      34.436  33.202  27.640  1.00  0.00    -0.460 OA
BRANCH  23  24
ATOM     24  C   UNL A   1      34.321  31.848  27.561  1.00  0.00     0.338 C 
ATOM     25  O   UNL A   1      33.320  31.261  27.168  1.00  0.00    -0.246 OA
BRANCH  24  26
ATOM     26  C   UNL A   1      35.542  31.194  28.123  1.00  0.00     0.060 A 
ATOM     27  C   UNL A   1      35.557  29.808  28.321  1.00  0.00     0.016 A 
ATOM     28  C   UNL A   1      36.632  31.956  28.559  1.00  0.00     0.016 A 
ATOM     29  C   UNL A   1      36.667  29.195  28.926  1.00  0.00     0.010 A 
ATOM     30  C   UNL A   1      37.696  31.353  29.228  1.00  0.00     0.010 A 
ATOM     31  C   UNL A   1      37.735  29.962  29.425  1.00  0.00    -0.014 A 
BRANCH  31  32
ATOM     32  C   UNL A   1      39.083  29.423  29.750  1.00  0.00     0.031 A 
ATOM     33  C   UNL A   1      39.277  29.635  31.183  1.00  0.00     0.074 A 
ATOM     34  C   UNL A   1      40.284  29.188  29.144  1.00  0.00     0.049 A 
ATOM     35  N   UNL A   1      39.928  30.655  31.644  1.00  0.00    -0.248 NA
ATOM     36  C   UNL A   1      38.516  28.877  32.178  1.00  0.00     0.031 C 
ATOM     37  C   UNL A   1      40.852  29.720  27.917  1.00  0.00     0.029 A 
ATOM     38  N   UNL A   1      41.003  27.994  29.271  1.00  0.00    -0.354 N 
ATOM     39  C   UNL A   1      40.056  30.349  32.970  1.00  0.00     0.074 A 
ATOM     40  C   UNL A   1      38.935  29.487  33.292  1.00  0.00     0.031 C 
ATOM     41  C   UNL A   1      41.550  28.779  27.255  1.00  0.00     0.029 A 
ATOM     42  C   UNL A   1      41.651  27.578  28.090  1.00  0.00     0.049 A 
ATOM     43  H   UNL A   1      41.054  27.488  30.114  1.00  0.00     0.167 HD
ATOM     44  C   UNL A   1      41.317  30.321  33.469  1.00  0.00     0.031 A 
ATOM     45  C   UNL A   1      42.793  26.852  27.957  1.00  0.00     0.031 A 
ATOM     46  C   UNL A   1      42.274  31.083  32.695  1.00  0.00     0.049 A 
ATOM     47  C   UNL A   1      43.860  27.515  28.734  1.00  0.00     0.074 A 
ATOM     48  C   UNL A   1      42.386  32.404  32.310  1.00  0.00     0.029 A 
ATOM     49  N   UNL A   1      43.127  30.362  31.890  1.00  0.00    -0.354 N 
ATOM     50  N   UNL A   1      44.425  28.644  28.408  1.00  0.00    -0.248 NA
ATOM     51  C   UNL A   1      44.086  27.074  30.106  1.00  0.00     0.031 C 
ATOM     52  C   UNL A   1      43.284  32.446  31.208  1.00  0.00     0.029 A 
ATOM     53  C   UNL A   1      43.729  31.155  30.936  1.00  0.00     0.049 A 
ATOM     54  H   UNL A   1      43.287  29.396  31.986  1.00  0.00     0.167 HD
ATOM     55  C   UNL A   1      44.634  29.263  29.628  1.00  0.00     0.074 A 
ATOM     56  C   UNL A   1      44.586  28.198  30.618  1.00  0.00     0.031 C 
ATOM     57  C   UNL A   1      44.429  30.601  29.781  1.00  0.00     0.031 A 
BRANCH  44  58
ATOM     58  C   UNL A   1      41.723  29.185  34.351  1.00  0.00    -0.014 A 
ATOM     59  C   UNL A   1      42.356  29.452  35.567  1.00  0.00     0.010 A 
ATOM     60  C   UNL A   1      41.659  27.842  33.913  1.00  0.00     0.010 A 
ATOM     61  C   UNL A   1      42.855  28.401  36.341  1.00  0.00     0.020 A 
ATOM     62  C   UNL A   1      42.098  26.787  34.698  1.00  0.00     0.020 A 
ATOM     63  C   UNL A   1      42.708  27.078  35.908  1.00  0.00     0.054 A 
BRANCH  63  64
ATOM     64  S   UNL A   1      43.343  25.729  36.923  1.00  0.00     0.124 S 
ATOM     65  O   UNL A   1      42.423  24.649  36.584  1.00  0.00    -0.237 OA
ATOM     66  O   UNL A   1      44.709  25.585  36.426  1.00  0.00    -0.237 OA
ATOM     67  O   UNL A   1      43.233  26.248  38.284  1.00  0.00    -0.744 OA
ENDBRANCH  63  64
ENDBRANCH  44  58
BRANCH  45  68
ATOM     68  C   UNL A   1      42.980  25.652  27.108  1.00  0.00    -0.014 A 
ATOM     69  C   UNL A   1      43.442  25.773  25.784  1.00  0.00     0.010 A 
ATOM     70  C   UNL A   1      42.846  24.352  27.638  1.00  0.00     0.010 A 
ATOM     71  C   UNL A   1      43.877  24.652  25.061  1.00  0.00     0.020 A 
ATOM     72  C   UNL A   1      43.271  23.225  26.918  1.00  0.00     0.020 A 
ATOM     73  C   UNL A   1      43.827  23.387  25.650  1.00  0.00     0.054 A 
BRANCH  73  74
ATOM     74  S   UNL A   1      44.640  21.993  24.814  1.00  0.00     0.124 S 
ATOM     75  O   UNL A   1      43.751  20.877  25.118  1.00  0.00    -0.237 OA
ATOM     76  O   UNL A   1      44.653  22.426  23.418  1.00  0.00    -0.237 OA
ATOM     77  O   UNL A   1      45.956  21.934  25.448  1.00  0.00    -0.744 OA
ENDBRANCH  73  74
ENDBRANCH  45  68
BRANCH  57  78
ATOM     78  C   UNL A   1      44.798  31.525  28.641  1.00  0.00    -0.014 A 
ATOM     79  C   UNL A   1      43.884  32.108  27.748  1.00  0.00     0.010 A 
ATOM     80  C   UNL A   1      46.158  31.868  28.505  1.00  0.00     0.010 A 
ATOM     81  C   UNL A   1      44.306  33.015  26.763  1.00  0.00     0.020 A 
ATOM     82  C   UNL A   1      46.588  32.780  27.535  1.00  0.00     0.020 A 
ATOM     83  C   UNL A   1      45.658  33.353  26.669  1.00  0.00     0.054 A 
BRANCH  83  84
ATOM     84  S   UNL A   1      46.183  34.571  25.432  1.00  0.00     0.124 S 
ATOM     85  O   UNL A   1      45.381  34.210  24.266  1.00  0.00    -0.237 OA
ATOM     86  O   UNL A   1      45.837  35.841  26.066  1.00  0.00    -0.237 OA
ATOM     87  O   UNL A   1      47.618  34.330  25.293  1.00  0.00    -0.744 OA
ENDBRANCH  83  84
ENDBRANCH  57  78
ENDBRANCH  31  32
ENDBRANCH  24  26
ENDBRANCH  23  24
ENDBRANCH  22  23
ENDBRANCH   1  22
TORSDOF 20
ENDMDL
MODEL 3
REMARK VINA RESULT:     -10.4      2.675      9.572
REMARK SMILES Cc1ccc(C)c([C@@H](C)[C@](C)(O)C(=O)OCCOCCOC(=O)c2ccc(-c3c4nc(c(-c5ccc(S(=O)(=O)[O-])cc5)c5ccc([nH]5)c(-c5ccc(S(=O)(=O)[O-])cc5)c5nc(c(-c6ccc(S(=O)(=O)[O-])cc6)c6ccc3[nH]6)C=C5)C=C4)cc2)c1
REMARK SMILES IDX 19 1 18 2 17 3 16 4 15 5 13 6 14 7 10 8 11 9 8 10 9 11 7 12
REMARK SMILES IDX 1 13 2 14 3 15 84 16 4 17 5 18 6 19 12 20 20 22 21 23 22 24
REMARK SMILES IDX 23 25 24 26 25 27 83 28 26 29 82 30 27 31 28 32 29 33 76 34
REMARK SMILES IDX 30 35 81 36 75 37 77 38 31 39 80 40 74 41 73 42 32 44 62 45
REMARK SMILES IDX 43 46 61 47 44 48 47 49 60 50 78 51 45 52 46 53 59 55 79 56
REMARK SMILES IDX 48 57 33 58 34 59 42 60 35 61 41 62 36 63 37 64 38 65 39 66
REMARK SMILES IDX 40 67 63 68 64 69 72 70 65 71 71 72 66 73 67 74 68 75 69 76
REMARK SMILES IDX 70 77 49 78 50 79 58 80 51 81 57 82 52 83 53 84 54 85 55 86
REMARK SMILES IDX 56 87
REMARK H PARENT 12 21 77 43 47 54
REMARK Flexibility Score: inf
ROOT
ATOM      1  C   UNL A   1      31.568  29.982  25.978  1.00  0.00     0.202 C 
ENDROOT
BRANCH   1   2
ATOM      2  O   UNL A   1      31.229  29.485  24.687  1.00  0.00    -0.374 OA
BRANCH   2   3
ATOM      3  C   UNL A   1      31.080  28.077  24.564  1.00  0.00     0.202 C 
BRANCH   3   4
ATOM      4  C   UNL A   1      31.335  27.447  25.930  1.00  0.00     0.261 C 
BRANCH   4   5
ATOM      5  O   UNL A   1      31.056  26.028  26.009  1.00  0.00    -0.461 OA
BRANCH   5   6
ATOM      6  C   UNL A   1      32.124  25.176  25.986  1.00  0.00     0.338 C 
ATOM      7  O   UNL A   1      33.272  25.506  26.184  1.00  0.00    -0.249 OA
BRANCH   6   8
ATOM      8  C   UNL A   1      31.712  23.702  25.688  1.00  0.00     0.165 C 
ATOM      9  C   UNL A   1      31.889  22.918  27.023  1.00  0.00     0.055 C 
BRANCH   8  10
ATOM     10  C   UNL A   1      32.412  23.089  24.400  1.00  0.00     0.059 C 
ATOM     11  C   UNL A   1      31.530  23.021  23.136  1.00  0.00     0.016 C 
BRANCH  10  12
ATOM     12  C   UNL A   1      33.170  21.769  24.560  1.00  0.00    -0.039 A 
ATOM     13  C   UNL A   1      32.413  17.989  24.331  1.00  0.00     0.044 C 
ATOM     14  C   UNL A   1      33.124  19.296  24.490  1.00  0.00    -0.051 A 
ATOM     15  C   UNL A   1      34.480  19.272  24.759  1.00  0.00     0.004 A 
ATOM     16  C   UNL A   1      32.475  20.541  24.405  1.00  0.00     0.007 A 
ATOM     17  C   UNL A   1      35.161  20.469  24.897  1.00  0.00     0.004 A 
ATOM     18  C   UNL A   1      34.539  21.725  24.833  1.00  0.00    -0.048 A 
ATOM     19  C   UNL A   1      35.370  22.963  24.977  1.00  0.00     0.044 C 
ENDBRANCH  10  12
ENDBRANCH   8  10
BRANCH   8  20
ATOM     20  O   UNL A   1      30.288  23.705  25.415  1.00  0.00    -0.378 OA
ATOM     21  H   UNL A   1      30.044  24.535  24.977  1.00  0.00     0.212 HD
ENDBRANCH   8  20
ENDBRANCH   6   8
ENDBRANCH   5   6
ENDBRANCH   4   5
ENDBRANCH   3   4
ENDBRANCH   2   3
ENDBRANCH   1   2
BRANCH   1  22
ATOM     22  C   UNL A   1      33.069  30.260  26.033  1.00  0.00     0.261 C 
BRANCH  22  23
ATOM     23  O   UNL A   1      33.547  30.124  27.387  1.00  0.00    -0.460 OA
BRANCH  23  24
ATOM     24  C   UNL A   1      34.255  31.201  27.825  1.00  0.00     0.338 C 
ATOM     25  O   UNL A   1      33.826  32.348  27.848  1.00  0.00    -0.246 OA
BRANCH  24  26
ATOM     26  C   UNL A   1      35.653  30.794  28.164  1.00  0.00     0.060 A 
ATOM     27  C   UNL A   1      36.576  31.761  28.581  1.00  0.00     0.016 A 
ATOM     28  C   UNL A   1      36.090  29.479  27.964  1.00  0.00     0.016 A 
ATOM     29  C   UNL A   1      37.912  31.403  28.820  1.00  0.00     0.010 A 
ATOM     30  C   UNL A   1      37.433  29.146  28.128  1.00  0.00     0.010 A 
ATOM     31  C   UNL A   1      38.370  30.100  28.559  1.00  0.00    -0.014 A 
BRANCH  31  32
ATOM     32  C   UNL A   1      39.634  29.525  29.094  1.00  0.00     0.031 A 
ATOM     33  C   UNL A   1      39.615  29.758  30.537  1.00  0.00     0.074 A 
ATOM     34  C   UNL A   1      40.905  29.241  28.681  1.00  0.00     0.049 A 
ATOM     35  N   UNL A   1      40.222  30.765  31.077  1.00  0.00    -0.248 NA
ATOM     36  C   UNL A   1      38.686  29.043  31.414  1.00  0.00     0.031 C 
ATOM     37  C   UNL A   1      41.671  29.732  27.549  1.00  0.00     0.029 A 
ATOM     38  N   UNL A   1      41.556  28.028  28.934  1.00  0.00    -0.354 N 
ATOM     39  C   UNL A   1      40.136  30.480  32.412  1.00  0.00     0.074 A 
ATOM     40  C   UNL A   1      38.951  29.660  32.570  1.00  0.00     0.031 C 
ATOM     41  C   UNL A   1      42.429  28.758  27.015  1.00  0.00     0.029 A 
ATOM     42  C   UNL A   1      42.362  27.571  27.871  1.00  0.00     0.049 A 
ATOM     43  H   UNL A   1      41.461  27.537  29.781  1.00  0.00     0.167 HD
ATOM     44  C   UNL A   1      41.305  30.423  33.098  1.00  0.00     0.031 A 
ATOM     45  C   UNL A   1      43.486  26.807  27.924  1.00  0.00     0.031 A 
ATOM     46  C   UNL A   1      42.393  31.140  32.469  1.00  0.00     0.049 A 
ATOM     47  C   UNL A   1      44.444  27.452  28.846  1.00  0.00     0.074 A 
ATOM     48  C   UNL A   1      42.607  32.449  32.088  1.00  0.00     0.029 A 
ATOM     49  N   UNL A   1      43.334  30.378  31.814  1.00  0.00    -0.354 N 
ATOM     50  N   UNL A   1      45.089  28.556  28.595  1.00  0.00    -0.248 NA
ATOM     51  C   UNL A   1      44.443  27.029  30.242  1.00  0.00     0.031 C 
ATOM     52  C   UNL A   1      43.664  32.442  31.135  1.00  0.00     0.029 A 
ATOM     53  C   UNL A   1      44.101  31.134  30.952  1.00  0.00     0.049 A 
ATOM     54  H   UNL A   1      43.446  29.409  31.946  1.00  0.00     0.167 HD
ATOM     55  C   UNL A   1      45.131  29.191  29.824  1.00  0.00     0.074 A 
ATOM     56  C   UNL A   1      44.897  28.147  30.809  1.00  0.00     0.031 C 
ATOM     57  C   UNL A   1      44.950  30.537  29.926  1.00  0.00     0.031 A 
BRANCH  44  58
ATOM     58  C   UNL A   1      41.533  29.292  34.047  1.00  0.00    -0.014 A 
ATOM     59  C   UNL A   1      41.312  27.981  33.620  1.00  0.00     0.010 A 
ATOM     60  C   UNL A   1      41.784  29.512  35.422  1.00  0.00     0.010 A 
ATOM     61  C   UNL A   1      41.396  26.924  34.531  1.00  0.00     0.020 A 
ATOM     62  C   UNL A   1      41.928  28.469  36.323  1.00  0.00     0.020 A 
ATOM     63  C   UNL A   1      41.719  27.176  35.870  1.00  0.00     0.054 A 
BRANCH  63  64
ATOM     64  S   UNL A   1      41.840  25.803  37.034  1.00  0.00     0.124 S 
ATOM     65  O   UNL A   1      42.516  24.793  36.226  1.00  0.00    -0.237 OA
ATOM     66  O   UNL A   1      42.624  26.384  38.118  1.00  0.00    -0.237 OA
ATOM     67  O   UNL A   1      40.446  25.515  37.365  1.00  0.00    -0.744 OA
ENDBRANCH  63  64
ENDBRANCH  44  58
BRANCH  45  68
ATOM     68  C   UNL A   1      43.759  25.586  27.131  1.00  0.00    -0.014 A 
ATOM     69  C   UNL A   1      43.597  25.587  25.732  1.00  0.00     0.010 A 
ATOM     70  C   UNL A   1      44.329  24.440  27.723  1.00  0.00     0.010 A 
ATOM     71  C   UNL A   1      44.100  24.542  24.942  1.00  0.00     0.020 A 
ATOM     72  C   UNL A   1      44.826  23.387  26.940  1.00  0.00     0.020 A 
ATOM     73  C   UNL A   1      44.749  23.466  25.550  1.00  0.00     0.054 A 
BRANCH  73  74
ATOM     74  S   UNL A   1      45.629  22.265  24.507  1.00  0.00     0.124 S 
ATOM     75  O   UNL A   1      44.555  21.704  23.693  1.00  0.00    -0.237 OA
ATOM     76  O   UNL A   1      46.587  23.108  23.795  1.00  0.00    -0.237 OA
ATOM     77  O   UNL A   1      46.225  21.344  25.474  1.00  0.00    -0.744 OA
ENDBRANCH  73  74
ENDBRANCH  45  68
BRANCH  57  78
ATOM     78  C   UNL A   1      45.519  31.428  28.843  1.00  0.00    -0.014 A 
ATOM     79  C   UNL A   1      44.860  31.769  27.651  1.00  0.00     0.010 A 
ATOM     80  C   UNL A   1      46.784  32.000  29.079  1.00  0.00     0.010 A 
ATOM     81  C   UNL A   1      45.432  32.664  26.733  1.00  0.00     0.020 A 
ATOM     82  C   UNL A   1      47.359  32.903  28.178  1.00  0.00     0.020 A 
ATOM     83  C   UNL A   1      46.677  33.233  27.008  1.00  0.00     0.054 A 
BRANCH  83  84
ATOM     84  S   UNL A   1      47.379  34.434  25.844  1.00  0.00     0.124 S 
ATOM     85  O   UNL A   1      46.352  34.514  24.809  1.00  0.00    -0.237 OA
ATOM     86  O   UNL A   1      47.535  35.628  26.670  1.00  0.00    -0.237 OA
ATOM     87  O   UNL A   1      48.634  33.815  25.420  1.00  0.00    -0.744 OA
ENDBRANCH  83  84
ENDBRANCH  57  78
ENDBRANCH  31  32
ENDBRANCH  24  26
ENDBRANCH  23  24
ENDBRANCH  22  23
ENDBRANCH   1  22
TORSDOF 20
ENDMDL
