MODEL 1
REMARK VINA RESULT:     -12.7      0.000      0.000
REMARK SMILES O=C(OCCOCCOC(=O)c1ccc(N2C(=O)[C@@H]3N=NC(c4ccccc4)=C3[C@H]2c2cccc(Br)c2)cc1)c1ccc(-c2c3nc(c(-c4ccc(S(=O)(=O)[O-])cc4)c4ccc([nH]4)c(-c4ccc(S(=O)(=O)[O-])cc4)c4nc(c(-c5ccc(S(=O)(=O)[O-])cc5)c5ccc2[nH]5)C=C4)C=C3)cc1
REMARK SMILES IDX 5 1 4 2 3 3 2 4 1 5 40 6 41 7 99 8 42 9 98 10 43 11 44 12
REMARK SMILES IDX 45 13 92 14 46 15 97 16 91 17 93 18 47 19 96 20 90 21 89 22
REMARK SMILES IDX 48 24 78 25 59 26 77 27 60 28 63 29 76 30 94 31 61 32 62 33
REMARK SMILES IDX 75 35 95 36 64 37 49 38 50 39 58 40 51 41 57 42 52 43 53 44
REMARK SMILES IDX 54 45 55 46 56 47 79 48 80 49 88 50 81 51 87 52 82 53 83 54
REMARK SMILES IDX 84 55 85 56 86 57 65 58 66 59 74 60 67 61 73 62 68 63 69 64
REMARK SMILES IDX 70 65 71 66 72 67 6 68 7 69 8 70 9 71 10 72 11 73 12 74
REMARK SMILES IDX 13 75 39 76 14 77 38 78 15 79 16 80 17 81 30 82 19 83 18 84
REMARK SMILES IDX 29 85 20 86 22 87 21 88 31 89 32 90 37 91 33 92 35 93 34 94
REMARK SMILES IDX 36 95 23 96 24 97 28 98 25 99 27 100 26 101
REMARK H PARENT 93 23 63 34
REMARK Flexibility Score: inf
ROOT
ATOM      1  C   UNL A   1      33.579  28.575  27.238  1.00  0.00     0.202 C 
ENDROOT
BRANCH   1   2
ATOM      2  C   UNL A   1      34.865  29.390  27.125  1.00  0.00     0.261 C 
BRANCH   2   3
ATOM      3  O   UNL A   1      35.457  29.740  28.388  1.00  0.00    -0.460 OA
BRANCH   3   4
ATOM      4  C   UNL A   1      36.717  30.174  28.602  1.00  0.00     0.338 C 
ATOM      5  O   UNL A   1      36.896  31.278  29.117  1.00  0.00    -0.246 OA
BRANCH   4   6
ATOM      6  C   UNL A   1      37.881  29.262  28.441  1.00  0.00     0.060 A 
ATOM      7  C   UNL A   1      38.322  28.334  29.381  1.00  0.00     0.016 A 
ATOM      8  C   UNL A   1      38.654  29.472  27.284  1.00  0.00     0.016 A 
ATOM      9  C   UNL A   1      39.611  27.842  29.311  1.00  0.00     0.010 A 
ATOM     10  C   UNL A   1      39.922  28.932  27.175  1.00  0.00     0.010 A 
ATOM     11  C   UNL A   1      40.430  28.209  28.245  1.00  0.00    -0.014 A 
BRANCH  11  12
ATOM     12  C   UNL A   1      41.804  27.741  28.260  1.00  0.00     0.031 A 
ATOM     13  C   UNL A   1      41.970  26.355  27.748  1.00  0.00     0.074 A 
ATOM     14  C   UNL A   1      42.831  28.520  28.654  1.00  0.00     0.049 A 
ATOM     15  N   UNL A   1      42.314  25.304  28.414  1.00  0.00    -0.248 NA
ATOM     16  C   UNL A   1      41.529  26.074  26.373  1.00  0.00     0.031 C 
ATOM     17  C   UNL A   1      42.833  29.956  28.949  1.00  0.00     0.029 A 
ATOM     18  N   UNL A   1      44.144  28.193  28.773  1.00  0.00    -0.354 N 
ATOM     19  C   UNL A   1      42.335  24.258  27.496  1.00  0.00     0.074 A 
ATOM     20  C   UNL A   1      41.694  24.753  26.304  1.00  0.00     0.031 C 
ATOM     21  C   UNL A   1      44.107  30.412  28.945  1.00  0.00     0.029 A 
ATOM     22  C   UNL A   1      45.008  29.281  28.810  1.00  0.00     0.049 A 
ATOM     23  H   UNL A   1      44.457  27.261  28.830  1.00  0.00     0.167 HD
ATOM     24  C   UNL A   1      43.074  23.135  27.708  1.00  0.00     0.031 A 
ATOM     25  C   UNL A   1      46.360  29.245  28.674  1.00  0.00     0.031 A 
ATOM     26  C   UNL A   1      43.476  23.015  29.084  1.00  0.00     0.049 A 
ATOM     27  C   UNL A   1      46.784  27.856  28.990  1.00  0.00     0.074 A 
ATOM     28  C   UNL A   1      42.803  22.859  30.279  1.00  0.00     0.029 A 
ATOM     29  N   UNL A   1      44.736  23.457  29.407  1.00  0.00    -0.354 N 
ATOM     30  N   UNL A   1      46.655  27.326  30.176  1.00  0.00    -0.248 NA
ATOM     31  C   UNL A   1      46.881  26.909  27.889  1.00  0.00     0.031 C 
ATOM     32  C   UNL A   1      43.518  23.673  31.204  1.00  0.00     0.029 A 
ATOM     33  C   UNL A   1      44.627  24.211  30.546  1.00  0.00     0.049 A 
ATOM     34  H   UNL A   1      45.566  23.268  28.911  1.00  0.00     0.167 HD
ATOM     35  C   UNL A   1      46.223  26.027  29.940  1.00  0.00     0.074 A 
ATOM     36  C   UNL A   1      46.454  25.805  28.511  1.00  0.00     0.031 C 
ATOM     37  C   UNL A   1      45.465  25.351  30.851  1.00  0.00     0.031 A 
BRANCH  24  38
ATOM     38  C   UNL A   1      43.770  22.378  26.607  1.00  0.00    -0.014 A 
ATOM     39  C   UNL A   1      43.118  21.271  26.027  1.00  0.00     0.010 A 
ATOM     40  C   UNL A   1      45.144  22.532  26.330  1.00  0.00     0.010 A 
ATOM     41  C   UNL A   1      43.826  20.323  25.276  1.00  0.00     0.020 A 
ATOM     42  C   UNL A   1      45.850  21.616  25.550  1.00  0.00     0.020 A 
ATOM     43  C   UNL A   1      45.193  20.497  25.057  1.00  0.00     0.054 A 
BRANCH  43  44
ATOM     44  S   UNL A   1      46.119  19.213  24.182  1.00  0.00     0.124 S 
ATOM     45  O   UNL A   1      47.361  19.907  23.856  1.00  0.00    -0.237 OA
ATOM     46  O   UNL A   1      46.223  18.165  25.192  1.00  0.00    -0.237 OA
ATOM     47  O   UNL A   1      45.262  18.891  23.042  1.00  0.00    -0.744 OA
ENDBRANCH  43  44
ENDBRANCH  24  38
BRANCH  25  48
ATOM     48  C   UNL A   1      47.211  30.194  27.904  1.00  0.00    -0.014 A 
ATOM     49  C   UNL A   1      46.646  31.191  27.084  1.00  0.00     0.010 A 
ATOM     50  C   UNL A   1      48.586  30.302  28.200  1.00  0.00     0.010 A 
ATOM     51  C   UNL A   1      47.416  32.279  26.625  1.00  0.00     0.020 A 
ATOM     52  C   UNL A   1      49.359  31.378  27.744  1.00  0.00     0.020 A 
ATOM     53  C   UNL A   1      48.766  32.375  26.975  1.00  0.00     0.054 A 
BRANCH  53  54
ATOM     54  S   UNL A   1      49.712  33.862  26.525  1.00  0.00     0.124 S 
ATOM     55  O   UNL A   1      51.008  33.608  27.148  1.00  0.00    -0.237 OA
ATOM     56  O   UNL A   1      49.694  33.823  25.065  1.00  0.00    -0.237 OA
ATOM     57  O   UNL A   1      48.943  34.954  27.121  1.00  0.00    -0.744 OA
ENDBRANCH  53  54
ENDBRANCH  25  48
BRANCH  37  58
ATOM     58  C   UNL A   1      45.299  25.930  32.238  1.00  0.00    -0.014 A 
ATOM     59  C   UNL A   1      44.256  26.801  32.610  1.00  0.00     0.010 A 
ATOM     60  C   UNL A   1      46.119  25.396  33.248  1.00  0.00     0.010 A 
ATOM     61  C   UNL A   1      44.042  27.126  33.961  1.00  0.00     0.020 A 
ATOM     62  C   UNL A   1      45.901  25.700  34.592  1.00  0.00     0.020 A 
ATOM     63  C   UNL A   1      44.866  26.565  34.944  1.00  0.00     0.054 A 
BRANCH  63  64
ATOM     64  S   UNL A   1      44.542  26.911  36.698  1.00  0.00     0.124 S 
ATOM     65  O   UNL A   1      43.206  27.499  36.664  1.00  0.00    -0.237 OA
ATOM     66  O   UNL A   1      44.632  25.589  37.313  1.00  0.00    -0.237 OA
ATOM     67  O   UNL A   1      45.612  27.833  37.075  1.00  0.00    -0.744 OA
ENDBRANCH  63  64
ENDBRANCH  37  58
ENDBRANCH  11  12
ENDBRANCH   4   6
ENDBRANCH   3   4
ENDBRANCH   2   3
ENDBRANCH   1   2
BRANCH   1  68
ATOM     68  O   UNL A   1      33.059  28.017  26.037  1.00  0.00    -0.374 OA
BRANCH  68  69
ATOM     69  C   UNL A   1      33.663  28.449  24.814  1.00  0.00     0.202 C 
BRANCH  69  70
ATOM     70  C   UNL A   1      32.770  29.061  23.725  1.00  0.00     0.261 C 
BRANCH  70  71
ATOM     71  O   UNL A   1      32.652  28.239  22.543  1.00  0.00    -0.460 OA
BRANCH  71  72
ATOM     72  C   UNL A   1      31.478  27.583  22.415  1.00  0.00     0.338 C 
ATOM     73  O   UNL A   1      30.440  28.020  21.926  1.00  0.00    -0.246 OA
BRANCH  72  74
ATOM     74  C   UNL A   1      31.620  26.160  22.780  1.00  0.00     0.060 A 
ATOM     75  C   UNL A   1      30.555  25.568  23.460  1.00  0.00     0.018 A 
ATOM     76  C   UNL A   1      32.793  25.430  22.553  1.00  0.00     0.018 A 
ATOM     77  C   UNL A   1      30.671  24.263  23.930  1.00  0.00     0.027 A 
ATOM     78  C   UNL A   1      32.922  24.122  23.065  1.00  0.00     0.027 A 
ATOM     79  C   UNL A   1      31.867  23.539  23.773  1.00  0.00     0.045 A 
BRANCH  79  80
ATOM     80  N   UNL A   1      31.948  22.204  24.299  1.00  0.00    -0.299 N 
ATOM     81  C   UNL A   1      31.542  22.108  25.677  1.00  0.00     0.259 C 
ATOM     82  C   UNL A   1      33.211  21.435  24.100  1.00  0.00     0.152 C 
ATOM     83  C   UNL A   1      32.630  21.398  26.430  1.00  0.00     0.248 C 
ATOM     84  O   UNL A   1      30.521  22.575  26.162  1.00  0.00    -0.271 OA
ATOM     85  C   UNL A   1      33.744  21.623  25.474  1.00  0.00     0.021 C 
ATOM     86  N   UNL A   1      33.136  22.052  27.639  1.00  0.00    -0.170 NA
ATOM     87  C   UNL A   1      34.786  22.024  26.200  1.00  0.00     0.097 C 
ATOM     88  N   UNL A   1      34.382  22.246  27.507  1.00  0.00    -0.154 NA
BRANCH  82  89
ATOM     89  C   UNL A   1      33.028  19.904  23.928  1.00  0.00    -0.020 A 
ATOM     90  C   UNL A   1      32.214  19.468  22.855  1.00  0.00     0.006 A 
ATOM     91  C   UNL A   1      33.772  18.932  24.606  1.00  0.00     0.022 A 
ATOM     92  C   UNL A   1      32.345  18.203  22.295  1.00  0.00     0.002 A 
ATOM     93  C   UNL A   1      33.827  17.625  24.092  1.00  0.00     0.018 A 
ATOM     94  C   UNL A   1      33.179  17.281  22.903  1.00  0.00     0.016 A 
ATOM     95  Br  UNL A   1      34.839  16.296  24.979  1.00  0.00    -0.051 Br
ENDBRANCH  82  89
BRANCH  87  96
ATOM     96  C   UNL A   1      36.182  22.329  25.860  1.00  0.00     0.002 A 
ATOM     97  C   UNL A   1      37.058  21.328  25.410  1.00  0.00     0.010 A 
ATOM     98  C   UNL A   1      36.726  23.543  26.298  1.00  0.00     0.010 A 
ATOM     99  C   UNL A   1      38.444  21.502  25.493  1.00  0.00     0.001 A 
ATOM    100  C   UNL A   1      38.110  23.712  26.388  1.00  0.00     0.001 A 
ATOM    101  C   UNL A   1      38.967  22.680  26.015  1.00  0.00     0.000 A 
ENDBRANCH  87  96
ENDBRANCH  79  80
ENDBRANCH  72  74
ENDBRANCH  71  72
ENDBRANCH  70  71
ENDBRANCH  69  70
ENDBRANCH  68  69
ENDBRANCH   1  68
TORSDOF 20
ENDMDL
MODEL 2
REMARK VINA RESULT:     -11.7      2.331      7.339
REMARK SMILES O=C(OCCOCCOC(=O)c1ccc(N2C(=O)[C@@H]3N=NC(c4ccccc4)=C3[C@H]2c2cccc(Br)c2)cc1)c1ccc(-c2c3nc(c(-c4ccc(S(=O)(=O)[O-])cc4)c4ccc([nH]4)c(-c4ccc(S(=O)(=O)[O-])cc4)c4nc(c(-c5ccc(S(=O)(=O)[O-])cc5)c5ccc2[nH]5)C=C4)C=C3)cc1
REMARK SMILES IDX 5 1 4 2 3 3 2 4 1 5 40 6 41 7 99 8 42 9 98 10 43 11 44 12
REMARK SMILES IDX 45 13 92 14 46 15 97 16 91 17 93 18 47 19 96 20 90 21 89 22
REMARK SMILES IDX 48 24 78 25 59 26 77 27 60 28 63 29 76 30 94 31 61 32 62 33
REMARK SMILES IDX 75 35 95 36 64 37 49 38 50 39 58 40 51 41 57 42 52 43 53 44
REMARK SMILES IDX 54 45 55 46 56 47 79 48 80 49 88 50 81 51 87 52 82 53 83 54
REMARK SMILES IDX 84 55 85 56 86 57 65 58 66 59 74 60 67 61 73 62 68 63 69 64
REMARK SMILES IDX 70 65 71 66 72 67 6 68 7 69 8 70 9 71 10 72 11 73 12 74
REMARK SMILES IDX 13 75 39 76 14 77 38 78 15 79 16 80 17 81 30 82 19 83 18 84
REMARK SMILES IDX 29 85 20 86 22 87 21 88 31 89 32 90 37 91 33 92 35 93 34 94
REMARK SMILES IDX 36 95 23 96 24 97 28 98 25 99 27 100 26 101
REMARK H PARENT 93 23 63 34
REMARK Flexibility Score: inf
ROOT
ATOM      1  C   UNL A   1      33.330  32.902  27.565  1.00  0.00     0.202 C 
ENDROOT
BRANCH   1   2
ATOM      2  C   UNL A   1      34.329  33.252  28.665  1.00  0.00     0.261 C 
BRANCH   2   3
ATOM      3  O   UNL A   1      34.172  32.485  29.872  1.00  0.00    -0.460 OA
BRANCH   3   4
ATOM      4  C   UNL A   1      35.145  32.118  30.733  1.00  0.00     0.338 C 
ATOM      5  O   UNL A   1      34.939  32.195  31.944  1.00  0.00    -0.246 OA
BRANCH   4   6
ATOM      6  C   UNL A   1      36.366  31.416  30.258  1.00  0.00     0.060 A 
ATOM      7  C   UNL A   1      36.517  30.036  30.143  1.00  0.00     0.016 A 
ATOM      8  C   UNL A   1      37.487  32.238  30.037  1.00  0.00     0.016 A 
ATOM      9  C   UNL A   1      37.782  29.483  30.086  1.00  0.00     0.010 A 
ATOM     10  C   UNL A   1      38.751  31.692  29.917  1.00  0.00     0.010 A 
ATOM     11  C   UNL A   1      38.896  30.319  30.053  1.00  0.00    -0.014 A 
BRANCH  11  12
ATOM     12  C   UNL A   1      40.207  29.694  30.085  1.00  0.00     0.031 A 
ATOM     13  C   UNL A   1      40.716  29.444  31.459  1.00  0.00     0.074 A 
ATOM     14  C   UNL A   1      40.866  29.333  28.966  1.00  0.00     0.049 A 
ATOM     15  N   UNL A   1      41.716  30.012  32.046  1.00  0.00    -0.248 NA
ATOM     16  C   UNL A   1      39.909  28.590  32.344  1.00  0.00     0.031 C 
ATOM     17  C   UNL A   1      40.380  29.307  27.583  1.00  0.00     0.029 A 
ATOM     18  N   UNL A   1      42.110  28.802  28.851  1.00  0.00    -0.354 N 
ATOM     19  C   UNL A   1      41.796  29.437  33.310  1.00  0.00     0.074 A 
ATOM     20  C   UNL A   1      40.574  28.694  33.495  1.00  0.00     0.031 C 
ATOM     21  C   UNL A   1      41.210  28.546  26.831  1.00  0.00     0.029 A 
ATOM     22  C   UNL A   1      42.359  28.172  27.637  1.00  0.00     0.049 A 
ATOM     23  H   UNL A   1      42.781  28.859  29.569  1.00  0.00     0.167 HD
ATOM     24  C   UNL A   1      42.955  29.434  34.023  1.00  0.00     0.031 A 
ATOM     25  C   UNL A   1      43.405  27.354  27.350  1.00  0.00     0.031 A 
ATOM     26  C   UNL A   1      43.901  30.385  33.504  1.00  0.00     0.049 A 
ATOM     27  C   UNL A   1      44.467  27.653  28.346  1.00  0.00     0.074 A 
ATOM     28  C   UNL A   1      43.923  31.759  33.377  1.00  0.00     0.029 A 
ATOM     29  N   UNL A   1      44.861  29.905  32.645  1.00  0.00    -0.354 N 
ATOM     30  N   UNL A   1      45.082  28.803  28.406  1.00  0.00    -0.248 NA
ATOM     31  C   UNL A   1      44.490  26.867  29.571  1.00  0.00     0.031 C 
ATOM     32  C   UNL A   1      44.536  31.996  32.114  1.00  0.00     0.029 A 
ATOM     33  C   UNL A   1      44.926  30.765  31.580  1.00  0.00     0.049 A 
ATOM     34  H   UNL A   1      45.403  29.092  32.772  1.00  0.00     0.167 HD
ATOM     35  C   UNL A   1      45.188  29.079  29.762  1.00  0.00     0.074 A 
ATOM     36  C   UNL A   1      44.874  27.816  30.432  1.00  0.00     0.031 C 
ATOM     37  C   UNL A   1      45.243  30.361  30.227  1.00  0.00     0.031 A 
BRANCH  24  38
ATOM     38  C   UNL A   1      43.379  28.297  34.917  1.00  0.00    -0.014 A 
ATOM     39  C   UNL A   1      42.512  27.884  35.948  1.00  0.00     0.010 A 
ATOM     40  C   UNL A   1      44.706  27.824  34.965  1.00  0.00     0.010 A 
ATOM     41  C   UNL A   1      42.974  27.104  37.016  1.00  0.00     0.020 A 
ATOM     42  C   UNL A   1      45.166  27.013  36.003  1.00  0.00     0.020 A 
ATOM     43  C   UNL A   1      44.305  26.687  37.042  1.00  0.00     0.054 A 
BRANCH  43  44
ATOM     44  S   UNL A   1      44.918  25.775  38.478  1.00  0.00     0.124 S 
ATOM     45  O   UNL A   1      44.597  24.397  38.118  1.00  0.00    -0.237 OA
ATOM     46  O   UNL A   1      46.337  26.116  38.476  1.00  0.00    -0.237 OA
ATOM     47  O   UNL A   1      44.149  26.329  39.590  1.00  0.00    -0.744 OA
ENDBRANCH  43  44
ENDBRANCH  24  38
BRANCH  25  48
ATOM     48  C   UNL A   1      43.366  26.088  26.565  1.00  0.00    -0.014 A 
ATOM     49  C   UNL A   1      44.196  25.890  25.445  1.00  0.00     0.010 A 
ATOM     50  C   UNL A   1      42.710  24.956  27.093  1.00  0.00     0.010 A 
ATOM     51  C   UNL A   1      44.402  24.603  24.908  1.00  0.00     0.020 A 
ATOM     52  C   UNL A   1      42.905  23.674  26.564  1.00  0.00     0.020 A 
ATOM     53  C   UNL A   1      43.768  23.498  25.486  1.00  0.00     0.054 A 
BRANCH  53  54
ATOM     54  S   UNL A   1      44.167  21.821  24.902  1.00  0.00     0.124 S 
ATOM     55  O   UNL A   1      44.347  22.024  23.468  1.00  0.00    -0.237 OA
ATOM     56  O   UNL A   1      45.379  21.502  25.652  1.00  0.00    -0.237 OA
ATOM     57  O   UNL A   1      42.990  21.038  25.273  1.00  0.00    -0.744 OA
ENDBRANCH  53  54
ENDBRANCH  25  48
BRANCH  37  58
ATOM     58  C   UNL A   1      45.440  31.489  29.239  1.00  0.00    -0.014 A 
ATOM     59  C   UNL A   1      46.698  31.909  28.762  1.00  0.00     0.010 A 
ATOM     60  C   UNL A   1      44.284  31.993  28.618  1.00  0.00     0.010 A 
ATOM     61  C   UNL A   1      46.789  32.813  27.689  1.00  0.00     0.020 A 
ATOM     62  C   UNL A   1      44.368  32.877  27.542  1.00  0.00     0.020 A 
ATOM     63  C   UNL A   1      45.620  33.286  27.081  1.00  0.00     0.054 A 
BRANCH  63  64
ATOM     64  S   UNL A   1      45.732  34.385  25.640  1.00  0.00     0.124 S 
ATOM     65  O   UNL A   1      47.158  34.360  25.332  1.00  0.00    -0.237 OA
ATOM     66  O   UNL A   1      44.865  33.731  24.663  1.00  0.00    -0.237 OA
ATOM     67  O   UNL A   1      45.231  35.665  26.138  1.00  0.00    -0.744 OA
ENDBRANCH  63  64
ENDBRANCH  37  58
ENDBRANCH  11  12
ENDBRANCH   4   6
ENDBRANCH   3   4
ENDBRANCH   2   3
ENDBRANCH   1   2
BRANCH   1  68
ATOM     68  O   UNL A   1      32.957  31.534  27.442  1.00  0.00    -0.374 OA
BRANCH  68  69
ATOM     69  C   UNL A   1      31.913  31.234  26.510  1.00  0.00     0.202 C 
BRANCH  69  70
ATOM     70  C   UNL A   1      31.761  29.790  26.011  1.00  0.00     0.261 C 
BRANCH  70  71
ATOM     71  O   UNL A   1      32.189  29.601  24.645  1.00  0.00    -0.460 OA
BRANCH  71  72
ATOM     72  C   UNL A   1      31.345  28.884  23.873  1.00  0.00     0.338 C 
ATOM     73  O   UNL A   1      30.621  29.314  22.979  1.00  0.00    -0.246 OA
BRANCH  72  74
ATOM     74  C   UNL A   1      31.511  27.436  24.101  1.00  0.00     0.060 A 
ATOM     75  C   UNL A   1      30.493  26.598  23.644  1.00  0.00     0.018 A 
ATOM     76  C   UNL A   1      32.585  26.899  24.822  1.00  0.00     0.018 A 
ATOM     77  C   UNL A   1      30.537  25.236  23.926  1.00  0.00     0.027 A 
ATOM     78  C   UNL A   1      32.605  25.524  25.141  1.00  0.00     0.027 A 
ATOM     79  C   UNL A   1      31.570  24.689  24.709  1.00  0.00     0.045 A 
BRANCH  79  80
ATOM     80  N   UNL A   1      31.557  23.281  24.996  1.00  0.00    -0.299 N 
ATOM     81  C   UNL A   1      31.288  22.983  26.378  1.00  0.00     0.259 C 
ATOM     82  C   UNL A   1      32.700  22.446  24.522  1.00  0.00     0.152 C 
ATOM     83  C   UNL A   1      32.365  22.057  26.868  1.00  0.00     0.248 C 
ATOM     84  O   UNL A   1      30.381  23.450  27.054  1.00  0.00    -0.271 OA
ATOM     85  C   UNL A   1      33.391  22.342  25.833  1.00  0.00     0.021 C 
ATOM     86  N   UNL A   1      33.063  22.440  28.097  1.00  0.00    -0.170 NA
ATOM     87  C   UNL A   1      34.540  22.513  26.482  1.00  0.00     0.097 C 
ATOM     88  N   UNL A   1      34.302  22.540  27.847  1.00  0.00    -0.154 NA
BRANCH  82  89
ATOM     89  C   UNL A   1      32.332  20.993  24.126  1.00  0.00    -0.020 A 
ATOM     90  C   UNL A   1      32.025  20.752  22.765  1.00  0.00     0.006 A 
ATOM     91  C   UNL A   1      32.492  19.877  24.954  1.00  0.00     0.022 A 
ATOM     92  C   UNL A   1      32.156  19.494  22.189  1.00  0.00     0.002 A 
ATOM     93  C   UNL A   1      32.528  18.594  24.382  1.00  0.00     0.018 A 
ATOM     94  C   UNL A   1      32.435  18.409  23.000  1.00  0.00     0.016 A 
ATOM     95  Br  UNL A   1      32.760  17.069  25.477  1.00  0.00    -0.051 Br
ENDBRANCH  82  89
BRANCH  87  96
ATOM     96  C   UNL A   1      35.918  22.744  26.030  1.00  0.00     0.002 A 
ATOM     97  C   UNL A   1      36.705  21.696  25.527  1.00  0.00     0.010 A 
ATOM     98  C   UNL A   1      36.554  23.933  26.407  1.00  0.00     0.010 A 
ATOM     99  C   UNL A   1      38.101  21.800  25.498  1.00  0.00     0.001 A 
ATOM    100  C   UNL A   1      37.948  24.034  26.386  1.00  0.00     0.001 A 
ATOM    101  C   UNL A   1      38.721  22.956  25.962  1.00  0.00     0.000 A 
ENDBRANCH  87  96
ENDBRANCH  79  80
ENDBRANCH  72  74
ENDBRANCH  71  72
ENDBRANCH  70  71
ENDBRANCH  69  70
ENDBRANCH  68  69
ENDBRANCH   1  68
TORSDOF 20
ENDMDL
MODEL 3
REMARK VINA RESULT:     -11.7      5.774     12.458
REMARK SMILES O=C(OCCOCCOC(=O)c1ccc(N2C(=O)[C@@H]3N=NC(c4ccccc4)=C3[C@H]2c2cccc(Br)c2)cc1)c1ccc(-c2c3nc(c(-c4ccc(S(=O)(=O)[O-])cc4)c4ccc([nH]4)c(-c4ccc(S(=O)(=O)[O-])cc4)c4nc(c(-c5ccc(S(=O)(=O)[O-])cc5)c5ccc2[nH]5)C=C4)C=C3)cc1
REMARK SMILES IDX 5 1 4 2 3 3 2 4 1 5 40 6 41 7 99 8 42 9 98 10 43 11 44 12
REMARK SMILES IDX 45 13 92 14 46 15 97 16 91 17 93 18 47 19 96 20 90 21 89 22
REMARK SMILES IDX 48 24 78 25 59 26 77 27 60 28 63 29 76 30 94 31 61 32 62 33
REMARK SMILES IDX 75 35 95 36 64 37 49 38 50 39 58 40 51 41 57 42 52 43 53 44
REMARK SMILES IDX 54 45 55 46 56 47 79 48 80 49 88 50 81 51 87 52 82 53 83 54
REMARK SMILES IDX 84 55 85 56 86 57 65 58 66 59 74 60 67 61 73 62 68 63 69 64
REMARK SMILES IDX 70 65 71 66 72 67 6 68 7 69 8 70 9 71 10 72 11 73 12 74
REMARK SMILES IDX 13 75 39 76 14 77 38 78 15 79 16 80 17 81 30 82 19 83 18 84
REMARK SMILES IDX 29 85 20 86 22 87 21 88 31 89 32 90 37 91 33 92 35 93 34 94
REMARK SMILES IDX 36 95 23 96 24 97 28 98 25 99 27 100 26 101
REMARK H PARENT 93 23 63 34
REMARK Flexibility Score: inf
ROOT
ATOM      1  C   UNL A   1      34.085  34.658  29.093  1.00  0.00     0.202 C 
ENDROOT
BRANCH   1   2
ATOM      2  C   UNL A   1      33.896  33.602  28.007  1.00  0.00     0.261 C 
BRANCH   2   3
ATOM      3  O   UNL A   1      35.087  32.858  27.693  1.00  0.00    -0.460 OA
BRANCH   3   4
ATOM      4  C   UNL A   1      35.251  31.520  27.769  1.00  0.00     0.338 C 
ATOM      5  O   UNL A   1      34.502  30.782  27.129  1.00  0.00    -0.246 OA
BRANCH   4   6
ATOM      6  C   UNL A   1      36.450  30.930  28.422  1.00  0.00     0.060 A 
ATOM      7  C   UNL A   1      37.474  31.644  29.038  1.00  0.00     0.016 A 
ATOM      8  C   UNL A   1      36.592  29.537  28.273  1.00  0.00     0.016 A 
ATOM      9  C   UNL A   1      38.703  31.047  29.246  1.00  0.00     0.010 A 
ATOM     10  C   UNL A   1      37.799  28.919  28.538  1.00  0.00     0.010 A 
ATOM     11  C   UNL A   1      38.878  29.703  28.919  1.00  0.00    -0.014 A 
BRANCH  11  12
ATOM     12  C   UNL A   1      40.209  29.142  29.069  1.00  0.00     0.031 A 
ATOM     13  C   UNL A   1      40.649  29.015  30.483  1.00  0.00     0.074 A 
ATOM     14  C   UNL A   1      40.945  28.731  28.017  1.00  0.00     0.049 A 
ATOM     15  N   UNL A   1      41.590  29.668  31.079  1.00  0.00    -0.248 NA
ATOM     16  C   UNL A   1      39.828  28.192  31.385  1.00  0.00     0.031 C 
ATOM     17  C   UNL A   1      40.540  28.584  26.615  1.00  0.00     0.029 A 
ATOM     18  N   UNL A   1      42.214  28.249  28.009  1.00  0.00    -0.354 N 
ATOM     19  C   UNL A   1      41.620  29.190  32.385  1.00  0.00     0.074 A 
ATOM     20  C   UNL A   1      40.422  28.408  32.559  1.00  0.00     0.031 C 
ATOM     21  C   UNL A   1      41.441  27.808  25.968  1.00  0.00     0.029 A 
ATOM     22  C   UNL A   1      42.557  27.545  26.860  1.00  0.00     0.049 A 
ATOM     23  H   UNL A   1      42.840  28.388  28.756  1.00  0.00     0.167 HD
ATOM     24  C   UNL A   1      42.737  29.291  33.157  1.00  0.00     0.031 A 
ATOM     25  C   UNL A   1      43.650  26.756  26.692  1.00  0.00     0.031 A 
ATOM     26  C   UNL A   1      43.671  30.243  32.620  1.00  0.00     0.049 A 
ATOM     27  C   UNL A   1      44.640  27.173  27.718  1.00  0.00     0.074 A 
ATOM     28  C   UNL A   1      43.644  31.604  32.392  1.00  0.00     0.029 A 
ATOM     29  N   UNL A   1      44.697  29.746  31.853  1.00  0.00    -0.354 N 
ATOM     30  N   UNL A   1      45.203  28.351  27.725  1.00  0.00    -0.248 NA
ATOM     31  C   UNL A   1      44.626  26.480  28.998  1.00  0.00     0.031 C 
ATOM     32  C   UNL A   1      44.318  31.776  31.150  1.00  0.00     0.029 A 
ATOM     33  C   UNL A   1      44.788  30.529  30.732  1.00  0.00     0.049 A 
ATOM     34  H   UNL A   1      45.264  28.969  32.069  1.00  0.00     0.167 HD
ATOM     35  C   UNL A   1      45.221  28.729  29.061  1.00  0.00     0.074 A 
ATOM     36  C   UNL A   1      44.921  27.505  29.806  1.00  0.00     0.031 C 
ATOM     37  C   UNL A   1      45.198  30.043  29.431  1.00  0.00     0.031 A 
BRANCH  24  38
ATOM     38  C   UNL A   1      43.155  28.241  34.155  1.00  0.00    -0.014 A 
ATOM     39  C   UNL A   1      43.124  28.558  35.527  1.00  0.00     0.010 A 
ATOM     40  C   UNL A   1      43.849  27.072  33.780  1.00  0.00     0.010 A 
ATOM     41  C   UNL A   1      43.822  27.787  36.466  1.00  0.00     0.020 A 
ATOM     42  C   UNL A   1      44.514  26.275  34.712  1.00  0.00     0.020 A 
ATOM     43  C   UNL A   1      44.526  26.658  36.046  1.00  0.00     0.054 A 
BRANCH  43  44
ATOM     44  S   UNL A   1      45.513  25.733  37.247  1.00  0.00     0.124 S 
ATOM     45  O   UNL A   1      45.298  24.355  36.816  1.00  0.00    -0.237 OA
ATOM     46  O   UNL A   1      46.852  26.267  37.021  1.00  0.00    -0.237 OA
ATOM     47  O   UNL A   1      44.912  26.091  38.531  1.00  0.00    -0.744 OA
ENDBRANCH  43  44
ENDBRANCH  24  38
BRANCH  25  48
ATOM     48  C   UNL A   1      43.708  25.437  26.003  1.00  0.00    -0.014 A 
ATOM     49  C   UNL A   1      44.774  25.098  25.147  1.00  0.00     0.010 A 
ATOM     50  C   UNL A   1      42.851  24.393  26.414  1.00  0.00     0.010 A 
ATOM     51  C   UNL A   1      45.002  23.761  24.761  1.00  0.00     0.020 A 
ATOM     52  C   UNL A   1      43.069  23.063  26.032  1.00  0.00     0.020 A 
ATOM     53  C   UNL A   1      44.157  22.748  25.224  1.00  0.00     0.054 A 
BRANCH  53  54
ATOM     54  S   UNL A   1      44.553  21.008  24.866  1.00  0.00     0.124 S 
ATOM     55  O   UNL A   1      45.871  20.856  25.476  1.00  0.00    -0.237 OA
ATOM     56  O   UNL A   1      43.465  20.291  25.527  1.00  0.00    -0.237 OA
ATOM     57  O   UNL A   1      44.535  20.944  23.406  1.00  0.00    -0.744 OA
ENDBRANCH  53  54
ENDBRANCH  25  48
BRANCH  37  58
ATOM     58  C   UNL A   1      45.404  31.104  28.374  1.00  0.00    -0.014 A 
ATOM     59  C   UNL A   1      44.415  31.503  27.453  1.00  0.00     0.010 A 
ATOM     60  C   UNL A   1      46.582  31.866  28.465  1.00  0.00     0.010 A 
ATOM     61  C   UNL A   1      44.606  32.638  26.646  1.00  0.00     0.020 A 
ATOM     62  C   UNL A   1      46.770  33.003  27.680  1.00  0.00     0.020 A 
ATOM     63  C   UNL A   1      45.783  33.386  26.772  1.00  0.00     0.054 A 
BRANCH  63  64
ATOM     64  S   UNL A   1      45.999  34.902  25.796  1.00  0.00     0.124 S 
ATOM     65  O   UNL A   1      47.438  35.134  25.884  1.00  0.00    -0.237 OA
ATOM     66  O   UNL A   1      45.504  34.514  24.477  1.00  0.00    -0.237 OA
ATOM     67  O   UNL A   1      45.171  35.885  26.492  1.00  0.00    -0.744 OA
ENDBRANCH  63  64
ENDBRANCH  37  58
ENDBRANCH  11  12
ENDBRANCH   4   6
ENDBRANCH   3   4
ENDBRANCH   2   3
ENDBRANCH   1   2
BRANCH   1  68
ATOM     68  O   UNL A   1      33.645  34.322  30.405  1.00  0.00    -0.374 OA
BRANCH  68  69
ATOM     69  C   UNL A   1      34.593  33.665  31.251  1.00  0.00     0.202 C 
BRANCH  69  70
ATOM     70  C   UNL A   1      34.102  33.044  32.567  1.00  0.00     0.261 C 
BRANCH  70  71
ATOM     71  O   UNL A   1      35.136  32.904  33.564  1.00  0.00    -0.460 OA
BRANCH  71  72
ATOM     72  C   UNL A   1      35.492  34.049  34.187  1.00  0.00     0.338 C 
ATOM     73  O   UNL A   1      34.740  34.932  34.589  1.00  0.00    -0.246 OA
BRANCH  72  74
ATOM     74  C   UNL A   1      36.932  34.057  34.508  1.00  0.00     0.060 A 
ATOM     75  C   UNL A   1      37.297  33.696  35.806  1.00  0.00     0.018 A 
ATOM     76  C   UNL A   1      37.910  34.491  33.604  1.00  0.00     0.018 A 
ATOM     77  C   UNL A   1      38.628  33.790  36.204  1.00  0.00     0.027 A 
ATOM     78  C   UNL A   1      39.251  34.623  34.023  1.00  0.00     0.027 A 
ATOM     79  C   UNL A   1      39.612  34.290  35.333  1.00  0.00     0.045 A 
BRANCH  79  80
ATOM     80  N   UNL A   1      40.968  34.394  35.798  1.00  0.00    -0.299 N 
ATOM     81  C   UNL A   1      41.352  35.739  36.141  1.00  0.00     0.259 C 
ATOM     82  C   UNL A   1      42.050  33.760  34.990  1.00  0.00     0.152 C 
ATOM     83  C   UNL A   1      42.632  36.050  35.419  1.00  0.00     0.248 C 
ATOM     84  O   UNL A   1      40.718  36.513  36.844  1.00  0.00    -0.271 OA
ATOM     85  C   UNL A   1      42.549  35.011  34.362  1.00  0.00     0.021 C 
ATOM     86  N   UNL A   1      42.665  37.282  34.627  1.00  0.00    -0.170 NA
ATOM     87  C   UNL A   1      42.846  35.618  33.215  1.00  0.00     0.097 C 
ATOM     88  N   UNL A   1      42.933  36.985  33.423  1.00  0.00    -0.154 NA
BRANCH  82  89
ATOM     89  C   UNL A   1      43.241  33.199  35.810  1.00  0.00    -0.020 A 
ATOM     90  C   UNL A   1      42.936  32.561  37.036  1.00  0.00     0.006 A 
ATOM     91  C   UNL A   1      44.551  33.082  35.334  1.00  0.00     0.022 A 
ATOM     92  C   UNL A   1      43.784  31.623  37.612  1.00  0.00     0.002 A 
ATOM     93  C   UNL A   1      45.441  32.204  35.976  1.00  0.00     0.018 A 
ATOM     94  C   UNL A   1      45.038  31.423  37.062  1.00  0.00     0.016 A 
ATOM     95  Br  UNL A   1      47.213  32.013  35.342  1.00  0.00    -0.051 Br
ENDBRANCH  82  89
BRANCH  87  96
ATOM     96  C   UNL A   1      43.007  35.131  31.839  1.00  0.00     0.002 A 
ATOM     97  C   UNL A   1      44.100  35.525  31.050  1.00  0.00     0.010 A 
ATOM     98  C   UNL A   1      41.906  34.542  31.206  1.00  0.00     0.010 A 
ATOM     99  C   UNL A   1      44.047  35.424  29.655  1.00  0.00     0.001 A 
ATOM    100  C   UNL A   1      41.850  34.449  29.812  1.00  0.00     0.001 A 
ATOM    101  C   UNL A   1      42.907  34.919  29.037  1.00  0.00     0.000 A 
ENDBRANCH  87  96
ENDBRANCH  79  80
ENDBRANCH  72  74
ENDBRANCH  71  72
ENDBRANCH  70  71
ENDBRANCH  69  70
ENDBRANCH  68  69
ENDBRANCH   1  68
TORSDOF 20
ENDMDL
