MODEL 1
REMARK VINA RESULT:     -11.6      0.000      0.000
REMARK SMILES O=C(OCCOCCOC(=O)c1ccc(-c2c3nc(c(-c4ccc(S(=O)(=O)[O-])cc4)c4ccc([nH]4)c(-c4ccc(S(=O)(=O)[O-])cc4)c4nc(c(-c5ccc(S(=O)(=O)[O-])cc5)c5ccc2[nH]5)C=C4)C=C3)cc1)C1=Cc2cc(Cl)c(Cl)cc2O[C@@H]1C(F)(F)F
REMARK SMILES IDX 7 1 6 2 5 3 4 4 3 5 2 6 1 7 72 8 73 9 83 10 74 11 82 12
REMARK SMILES IDX 75 13 81 14 76 15 80 16 77 17 78 18 79 19 84 20 85 21 86 22
REMARK SMILES IDX 87 23 8 24 9 25 10 26 11 27 12 28 13 29 71 30 14 31 70 32
REMARK SMILES IDX 15 33 16 34 17 35 64 36 18 37 69 38 63 39 65 40 19 41 68 42
REMARK SMILES IDX 62 43 61 44 20 46 50 47 31 48 49 49 32 50 35 51 48 52 66 53
REMARK SMILES IDX 33 54 34 55 47 57 67 58 36 59 21 60 22 61 30 62 23 63 29 64
REMARK SMILES IDX 24 65 25 66 26 67 27 68 28 69 51 70 52 71 60 72 53 73 59 74
REMARK SMILES IDX 54 75 55 76 56 77 57 78 58 79 37 80 38 81 46 82 39 83 45 84
REMARK SMILES IDX 40 85 41 86 42 87 43 88 44 89
REMARK H PARENT 65 45 35 56
REMARK Flexibility Score: inf
ROOT
ATOM      1  C   UNL A   1      34.389  33.572  29.702  1.00  0.00     0.202 C 
ENDROOT
BRANCH   1   2
ATOM      2  O   UNL A   1      34.514  32.958  28.402  1.00  0.00    -0.374 OA
BRANCH   2   3
ATOM      3  C   UNL A   1      34.052  31.484  27.888  1.00  0.00     0.202 C 
BRANCH   3   4
ATOM      4  C   UNL A   1      32.207  30.873  26.924  1.00  0.00     0.261 C 
BRANCH   4   5
ATOM      5  O   UNL A   1      32.078  30.233  25.516  1.00  0.00    -0.460 OA
BRANCH   5   6
ATOM      6  C   UNL A   1      31.585  28.993  25.551  1.00  0.00     0.338 C 
ATOM      7  O   UNL A   1      31.374  28.259  26.483  1.00  0.00    -0.246 OA
BRANCH   6   8
ATOM      8  C   UNL A   1      31.729  28.751  24.138  1.00  0.00     0.087 C 
ATOM      9  C   UNL A   1      32.883  27.860  23.873  1.00  0.00     0.027 C 
ATOM     10  C   UNL A   1      29.877  28.301  23.784  1.00  0.00     0.316 C 
ATOM     11  C   UNL A   1      32.713  26.128  23.375  1.00  0.00     0.019 A 
ATOM     12  O   UNL A   1      29.671  26.442  23.311  1.00  0.00    -0.475 OA
ATOM     13  C   UNL A   1      33.831  25.343  23.346  1.00  0.00     0.034 A 
ATOM     14  C   UNL A   1      31.159  25.392  23.154  1.00  0.00     0.129 A 
ATOM     15  C   UNL A   1      33.592  23.968  23.202  1.00  0.00     0.060 A 
ATOM     16  C   UNL A   1      31.011  24.033  23.113  1.00  0.00     0.069 A 
ATOM     17  Cl  UNL A   1      35.041  22.995  23.149  1.00  0.00    -0.083 Cl
ATOM     18  C   UNL A   1      32.264  23.347  23.139  1.00  0.00     0.063 A 
ATOM     19  Cl  UNL A   1      32.211  21.613  23.182  1.00  0.00    -0.083 Cl
BRANCH  10  20
ATOM     20  C   UNL A   1      29.450  29.625  23.016  1.00  0.00     0.430 C 
ATOM     21  F   UNL A   1      30.204  29.936  21.945  1.00  0.00    -0.167 F 
ATOM     22  F   UNL A   1      28.195  29.420  22.516  1.00  0.00    -0.167 F 
ATOM     23  F   UNL A   1      29.332  30.726  23.792  1.00  0.00    -0.167 F 
ENDBRANCH  10  20
ENDBRANCH   6   8
ENDBRANCH   5   6
ENDBRANCH   4   5
ENDBRANCH   3   4
ENDBRANCH   2   3
ENDBRANCH   1   2
BRANCH   1  24
ATOM     24  C   UNL A   1      35.011  32.785  30.855  1.00  0.00     0.261 C 
BRANCH  24  25
ATOM     25  O   UNL A   1      36.300  32.291  30.513  1.00  0.00    -0.460 OA
BRANCH  25  26
ATOM     26  C   UNL A   1      36.592  31.114  31.110  1.00  0.00     0.338 C 
ATOM     27  O   UNL A   1      35.984  30.574  32.020  1.00  0.00    -0.246 OA
BRANCH  26  28
ATOM     28  C   UNL A   1      37.798  30.545  30.487  1.00  0.00     0.060 A 
ATOM     29  C   UNL A   1      38.816  30.121  31.342  1.00  0.00     0.016 A 
ATOM     30  C   UNL A   1      37.934  30.433  29.096  1.00  0.00     0.016 A 
ATOM     31  C   UNL A   1      39.972  29.574  30.808  1.00  0.00     0.010 A 
ATOM     32  C   UNL A   1      39.095  29.885  28.559  1.00  0.00     0.010 A 
ATOM     33  C   UNL A   1      40.115  29.458  29.419  1.00  0.00    -0.014 A 
BRANCH  33  34
ATOM     34  C   UNL A   1      41.422  29.050  28.882  1.00  0.00     0.031 A 
ATOM     35  C   UNL A   1      42.507  30.077  28.860  1.00  0.00     0.074 A 
ATOM     36  C   UNL A   1      41.638  27.781  28.497  1.00  0.00     0.049 A 
ATOM     37  N   UNL A   1      43.758  29.943  28.516  1.00  0.00    -0.248 NA
ATOM     38  C   UNL A   1      42.134  31.440  29.280  1.00  0.00     0.031 C 
ATOM     39  C   UNL A   1      40.636  26.718  28.499  1.00  0.00     0.029 A 
ATOM     40  N   UNL A   1      42.776  27.168  28.052  1.00  0.00    -0.354 N 
ATOM     41  C   UNL A   1      44.325  31.196  28.693  1.00  0.00     0.074 A 
ATOM     42  C   UNL A   1      43.279  32.088  29.139  1.00  0.00     0.031 C 
ATOM     43  C   UNL A   1      41.217  25.566  28.124  1.00  0.00     0.029 A 
ATOM     44  C   UNL A   1      42.612  25.828  27.788  1.00  0.00     0.049 A 
ATOM     45  H   UNL A   1      43.632  27.639  27.932  1.00  0.00     0.167 HD
ATOM     46  C   UNL A   1      45.610  31.562  28.500  1.00  0.00     0.031 A 
ATOM     47  C   UNL A   1      43.492  24.929  27.305  1.00  0.00     0.031 A 
ATOM     48  C   UNL A   1      46.623  30.670  28.006  1.00  0.00     0.049 A 
ATOM     49  C   UNL A   1      44.895  25.395  27.012  1.00  0.00     0.074 A 
ATOM     50  C   UNL A   1      47.953  30.940  27.748  1.00  0.00     0.029 A 
ATOM     51  N   UNL A   1      46.410  29.338  27.681  1.00  0.00    -0.354 N 
ATOM     52  N   UNL A   1      45.433  26.577  27.212  1.00  0.00    -0.248 NA
ATOM     53  C   UNL A   1      45.810  24.408  26.427  1.00  0.00     0.031 C 
ATOM     54  C   UNL A   1      48.529  29.789  27.202  1.00  0.00     0.029 A 
ATOM     55  C   UNL A   1      47.579  28.779  27.196  1.00  0.00     0.049 A 
ATOM     56  H   UNL A   1      45.555  28.861  27.782  1.00  0.00     0.167 HD
ATOM     57  C   UNL A   1      46.757  26.465  26.802  1.00  0.00     0.074 A 
ATOM     58  C   UNL A   1      46.944  25.093  26.374  1.00  0.00     0.031 C 
ATOM     59  C   UNL A   1      47.732  27.409  26.774  1.00  0.00     0.031 A 
BRANCH  46  60
ATOM     60  C   UNL A   1      45.972  32.992  28.784  1.00  0.00    -0.014 A 
ATOM     61  C   UNL A   1      45.965  33.959  27.763  1.00  0.00     0.010 A 
ATOM     62  C   UNL A   1      46.285  33.382  30.098  1.00  0.00     0.010 A 
ATOM     63  C   UNL A   1      46.278  35.290  28.050  1.00  0.00     0.020 A 
ATOM     64  C   UNL A   1      46.570  34.716  30.394  1.00  0.00     0.020 A 
ATOM     65  C   UNL A   1      46.570  35.661  29.366  1.00  0.00     0.054 A 
BRANCH  65  66
ATOM     66  S   UNL A   1      46.909  37.407  29.718  1.00  0.00     0.124 S 
ATOM     67  O   UNL A   1      45.849  38.078  28.969  1.00  0.00    -0.237 OA
ATOM     68  O   UNL A   1      46.785  37.466  31.172  1.00  0.00    -0.237 OA
ATOM     69  O   UNL A   1      48.260  37.610  29.200  1.00  0.00    -0.744 OA
ENDBRANCH  65  66
ENDBRANCH  46  60
BRANCH  47  70
ATOM     70  C   UNL A   1      43.071  23.527  27.019  1.00  0.00    -0.014 A 
ATOM     71  C   UNL A   1      42.849  22.606  28.058  1.00  0.00     0.010 A 
ATOM     72  C   UNL A   1      42.939  23.091  25.688  1.00  0.00     0.010 A 
ATOM     73  C   UNL A   1      42.549  21.270  27.772  1.00  0.00     0.020 A 
ATOM     74  C   UNL A   1      42.600  21.766  25.397  1.00  0.00     0.020 A 
ATOM     75  C   UNL A   1      42.429  20.858  26.441  1.00  0.00     0.054 A 
BRANCH  75  76
ATOM     76  S   UNL A   1      42.035  19.123  26.091  1.00  0.00     0.124 S 
ATOM     77  O   UNL A   1      40.609  19.188  25.791  1.00  0.00    -0.237 OA
ATOM     78  O   UNL A   1      42.909  18.824  24.959  1.00  0.00    -0.237 OA
ATOM     79  O   UNL A   1      42.382  18.437  27.334  1.00  0.00    -0.744 OA
ENDBRANCH  75  76
ENDBRANCH  47  70
BRANCH  59  80
ATOM     80  C   UNL A   1      49.095  26.974  26.300  1.00  0.00    -0.014 A 
ATOM     81  C   UNL A   1      49.880  26.079  27.046  1.00  0.00     0.010 A 
ATOM     82  C   UNL A   1      49.578  27.446  25.064  1.00  0.00     0.010 A 
ATOM     83  C   UNL A   1      51.145  25.702  26.591  1.00  0.00     0.020 A 
ATOM     84  C   UNL A   1      50.825  27.040  24.587  1.00  0.00     0.020 A 
ATOM     85  C   UNL A   1      51.610  26.187  25.363  1.00  0.00     0.054 A 
BRANCH  85  86
ATOM     86  S   UNL A   1      53.247  25.665  24.786  1.00  0.00     0.124 S 
ATOM     87  O   UNL A   1      53.346  24.315  25.334  1.00  0.00    -0.237 OA
ATOM     88  O   UNL A   1      53.112  25.747  23.334  1.00  0.00    -0.237 OA
ATOM     89  O   UNL A   1      54.153  26.646  25.379  1.00  0.00    -0.744 OA
ENDBRANCH  85  86
ENDBRANCH  59  80
ENDBRANCH  33  34
ENDBRANCH  26  28
ENDBRANCH  25  26
ENDBRANCH  24  25
ENDBRANCH   1  24
TORSDOF 18
ENDMDL
MODEL 2
REMARK VINA RESULT:     -11.5      6.423     12.114
REMARK SMILES O=C(OCCOCCOC(=O)c1ccc(-c2c3nc(c(-c4ccc(S(=O)(=O)[O-])cc4)c4ccc([nH]4)c(-c4ccc(S(=O)(=O)[O-])cc4)c4nc(c(-c5ccc(S(=O)(=O)[O-])cc5)c5ccc2[nH]5)C=C4)C=C3)cc1)C1=Cc2cc(Cl)c(Cl)cc2O[C@@H]1C(F)(F)F
REMARK SMILES IDX 7 1 6 2 5 3 4 4 3 5 2 6 1 7 72 8 73 9 83 10 74 11 82 12
REMARK SMILES IDX 75 13 81 14 76 15 80 16 77 17 78 18 79 19 84 20 85 21 86 22
REMARK SMILES IDX 87 23 8 24 9 25 10 26 11 27 12 28 13 29 71 30 14 31 70 32
REMARK SMILES IDX 15 33 16 34 17 35 64 36 18 37 69 38 63 39 65 40 19 41 68 42
REMARK SMILES IDX 62 43 61 44 20 46 50 47 31 48 49 49 32 50 35 51 48 52 66 53
REMARK SMILES IDX 33 54 34 55 47 57 67 58 36 59 21 60 22 61 30 62 23 63 29 64
REMARK SMILES IDX 24 65 25 66 26 67 27 68 28 69 51 70 52 71 60 72 53 73 59 74
REMARK SMILES IDX 54 75 55 76 56 77 57 78 58 79 37 80 38 81 46 82 39 83 45 84
REMARK SMILES IDX 40 85 41 86 42 87 43 88 44 89
REMARK H PARENT 65 45 35 56
REMARK Flexibility Score: inf
ROOT
ATOM      1  C   UNL A   1      42.551  21.748  25.893  1.00  0.00     0.202 C 
ENDROOT
BRANCH   1   2
ATOM      2  O   UNL A   1      41.265  21.106  25.767  1.00  0.00    -0.374 OA
BRANCH   2   3
ATOM      3  C   UNL A   1      39.798  21.580  26.293  1.00  0.00     0.202 C 
BRANCH   3   4
ATOM      4  C   UNL A   1      37.924  21.726  25.212  1.00  0.00     0.261 C 
BRANCH   4   5
ATOM      5  O   UNL A   1      36.570  22.219  25.789  1.00  0.00    -0.460 OA
BRANCH   5   6
ATOM      6  C   UNL A   1      35.773  22.755  24.860  1.00  0.00     0.338 C 
ATOM      7  O   UNL A   1      36.038  23.380  23.866  1.00  0.00    -0.246 OA
BRANCH   6   8
ATOM      8  C   UNL A   1      34.562  22.624  25.632  1.00  0.00     0.087 C 
ATOM      9  C   UNL A   1      34.173  23.926  26.222  1.00  0.00     0.027 C 
ATOM     10  C   UNL A   1      33.536  21.658  24.301  1.00  0.00     0.316 C 
ATOM     11  C   UNL A   1      32.778  24.913  25.626  1.00  0.00     0.019 A 
ATOM     12  O   UNL A   1      32.081  22.722  23.610  1.00  0.00    -0.475 OA
ATOM     13  C   UNL A   1      32.624  26.184  26.107  1.00  0.00     0.034 A 
ATOM     14  C   UNL A   1      31.779  24.381  24.312  1.00  0.00     0.129 A 
ATOM     15  C   UNL A   1      31.687  26.972  25.421  1.00  0.00     0.060 A 
ATOM     16  C   UNL A   1      30.957  25.245  23.644  1.00  0.00     0.069 A 
ATOM     17  Cl  UNL A   1      31.499  28.582  26.072  1.00  0.00    -0.083 Cl
ATOM     18  C   UNL A   1      30.938  26.547  24.234  1.00  0.00     0.063 A 
ATOM     19  Cl  UNL A   1      30.000  27.763  23.425  1.00  0.00    -0.083 Cl
BRANCH  10  20
ATOM     20  C   UNL A   1      33.545  20.223  24.984  1.00  0.00     0.430 C 
ATOM     21  F   UNL A   1      33.409  20.224  26.322  1.00  0.00    -0.167 F 
ATOM     22  F   UNL A   1      32.455  19.543  24.518  1.00  0.00    -0.167 F 
ATOM     23  F   UNL A   1      34.598  19.440  24.660  1.00  0.00    -0.167 F 
ENDBRANCH  10  20
ENDBRANCH   6   8
ENDBRANCH   5   6
ENDBRANCH   4   5
ENDBRANCH   3   4
ENDBRANCH   2   3
ENDBRANCH   1   2
BRANCH   1  24
ATOM     24  C   UNL A   1      42.584  23.222  25.490  1.00  0.00     0.261 C 
BRANCH  24  25
ATOM     25  O   UNL A   1      42.270  24.069  26.588  1.00  0.00    -0.460 OA
BRANCH  25  26
ATOM     26  C   UNL A   1      41.913  25.317  26.210  1.00  0.00     0.338 C 
ATOM     27  O   UNL A   1      41.729  25.723  25.075  1.00  0.00    -0.246 OA
BRANCH  26  28
ATOM     28  C   UNL A   1      41.771  26.160  27.408  1.00  0.00     0.060 A 
ATOM     29  C   UNL A   1      40.658  25.930  28.219  1.00  0.00     0.016 A 
ATOM     30  C   UNL A   1      42.702  27.157  27.732  1.00  0.00     0.016 A 
ATOM     31  C   UNL A   1      40.477  26.693  29.363  1.00  0.00     0.010 A 
ATOM     32  C   UNL A   1      42.520  27.923  28.879  1.00  0.00     0.010 A 
ATOM     33  C   UNL A   1      41.403  27.690  29.691  1.00  0.00    -0.014 A 
BRANCH  33  34
ATOM     34  C   UNL A   1      41.085  28.601  30.801  1.00  0.00     0.031 A 
ATOM     35  C   UNL A   1      41.932  28.511  32.030  1.00  0.00     0.074 A 
ATOM     36  C   UNL A   1      40.116  29.523  30.674  1.00  0.00     0.049 A 
ATOM     37  N   UNL A   1      41.906  29.254  33.101  1.00  0.00    -0.248 NA
ATOM     38  C   UNL A   1      42.942  27.438  32.056  1.00  0.00     0.031 C 
ATOM     39  C   UNL A   1      39.254  29.684  29.505  1.00  0.00     0.029 A 
ATOM     40  N   UNL A   1      39.709  30.511  31.528  1.00  0.00    -0.354 N 
ATOM     41  C   UNL A   1      42.905  28.751  33.921  1.00  0.00     0.074 A 
ATOM     42  C   UNL A   1      43.495  27.619  33.245  1.00  0.00     0.031 C 
ATOM     43  C   UNL A   1      38.452  30.745  29.693  1.00  0.00     0.029 A 
ATOM     44  C   UNL A   1      38.695  31.292  31.024  1.00  0.00     0.049 A 
ATOM     45  H   UNL A   1      40.103  30.649  32.419  1.00  0.00     0.167 HD
ATOM     46  C   UNL A   1      43.292  29.203  35.134  1.00  0.00     0.031 A 
ATOM     47  C   UNL A   1      38.031  32.316  31.592  1.00  0.00     0.031 A 
ATOM     48  C   UNL A   1      42.656  30.300  35.810  1.00  0.00     0.049 A 
ATOM     49  C   UNL A   1      38.426  32.735  32.985  1.00  0.00     0.074 A 
ATOM     50  C   UNL A   1      42.949  30.827  37.053  1.00  0.00     0.029 A 
ATOM     51  N   UNL A   1      41.588  31.026  35.304  1.00  0.00    -0.354 N 
ATOM     52  N   UNL A   1      39.395  32.273  33.744  1.00  0.00    -0.248 NA
ATOM     53  C   UNL A   1      37.640  33.810  33.600  1.00  0.00     0.031 C 
ATOM     54  C   UNL A   1      42.013  31.828  37.328  1.00  0.00     0.029 A 
ATOM     55  C   UNL A   1      41.188  31.979  36.224  1.00  0.00     0.049 A 
ATOM     56  H   UNL A   1      41.176  30.885  34.421  1.00  0.00     0.167 HD
ATOM     57  C   UNL A   1      39.350  33.022  34.914  1.00  0.00     0.074 A 
ATOM     58  C   UNL A   1      38.280  33.986  34.748  1.00  0.00     0.031 C 
ATOM     59  C   UNL A   1      40.116  32.923  36.030  1.00  0.00     0.031 A 
BRANCH  46  60
ATOM     60  C   UNL A   1      44.422  28.484  35.811  1.00  0.00    -0.014 A 
ATOM     61  C   UNL A   1      45.755  28.902  35.643  1.00  0.00     0.010 A 
ATOM     62  C   UNL A   1      44.146  27.397  36.660  1.00  0.00     0.010 A 
ATOM     63  C   UNL A   1      46.792  28.237  36.302  1.00  0.00     0.020 A 
ATOM     64  C   UNL A   1      45.176  26.749  37.343  1.00  0.00     0.020 A 
ATOM     65  C   UNL A   1      46.494  27.170  37.154  1.00  0.00     0.054 A 
BRANCH  65  66
ATOM     66  S   UNL A   1      47.854  26.369  38.046  1.00  0.00     0.124 S 
ATOM     67  O   UNL A   1      48.570  27.516  38.599  1.00  0.00    -0.237 OA
ATOM     68  O   UNL A   1      47.150  25.539  39.018  1.00  0.00    -0.237 OA
ATOM     69  O   UNL A   1      48.568  25.636  37.003  1.00  0.00    -0.744 OA
ENDBRANCH  65  66
ENDBRANCH  46  60
BRANCH  47  70
ATOM     70  C   UNL A   1      36.899  32.980  30.882  1.00  0.00    -0.014 A 
ATOM     71  C   UNL A   1      37.124  34.028  29.972  1.00  0.00     0.010 A 
ATOM     72  C   UNL A   1      35.574  32.593  31.155  1.00  0.00     0.010 A 
ATOM     73  C   UNL A   1      36.049  34.704  29.387  1.00  0.00     0.020 A 
ATOM     74  C   UNL A   1      34.497  33.239  30.543  1.00  0.00     0.020 A 
ATOM     75  C   UNL A   1      34.740  34.306  29.678  1.00  0.00     0.054 A 
BRANCH  75  76
ATOM     76  S   UNL A   1      33.360  35.193  28.906  1.00  0.00     0.124 S 
ATOM     77  O   UNL A   1      34.053  36.151  28.051  1.00  0.00    -0.237 OA
ATOM     78  O   UNL A   1      32.647  34.123  28.212  1.00  0.00    -0.237 OA
ATOM     79  O   UNL A   1      32.646  35.771  30.044  1.00  0.00    -0.744 OA
ENDBRANCH  75  76
ENDBRANCH  47  70
BRANCH  59  80
ATOM     80  C   UNL A   1      39.846  33.908  37.138  1.00  0.00    -0.014 A 
ATOM     81  C   UNL A   1      39.021  33.579  38.227  1.00  0.00     0.010 A 
ATOM     82  C   UNL A   1      40.461  35.174  37.101  1.00  0.00     0.010 A 
ATOM     83  C   UNL A   1      38.776  34.514  39.234  1.00  0.00     0.020 A 
ATOM     84  C   UNL A   1      40.251  36.097  38.126  1.00  0.00     0.020 A 
ATOM     85  C   UNL A   1      39.392  35.769  39.177  1.00  0.00     0.054 A 
BRANCH  85  86
ATOM     86  S   UNL A   1      39.073  36.957  40.507  1.00  0.00     0.124 S 
ATOM     87  O   UNL A   1      38.303  36.154  41.453  1.00  0.00    -0.237 OA
ATOM     88  O   UNL A   1      40.421  37.319  40.940  1.00  0.00    -0.237 OA
ATOM     89  O   UNL A   1      38.328  38.026  39.848  1.00  0.00    -0.744 OA
ENDBRANCH  85  86
ENDBRANCH  59  80
ENDBRANCH  33  34
ENDBRANCH  26  28
ENDBRANCH  25  26
ENDBRANCH  24  25
ENDBRANCH   1  24
TORSDOF 18
ENDMDL
MODEL 3
REMARK VINA RESULT:     -11.4      5.291      9.815
REMARK SMILES O=C(OCCOCCOC(=O)c1ccc(-c2c3nc(c(-c4ccc(S(=O)(=O)[O-])cc4)c4ccc([nH]4)c(-c4ccc(S(=O)(=O)[O-])cc4)c4nc(c(-c5ccc(S(=O)(=O)[O-])cc5)c5ccc2[nH]5)C=C4)C=C3)cc1)C1=Cc2cc(Cl)c(Cl)cc2O[C@@H]1C(F)(F)F
REMARK SMILES IDX 7 1 6 2 5 3 4 4 3 5 2 6 1 7 72 8 73 9 83 10 74 11 82 12
REMARK SMILES IDX 75 13 81 14 76 15 80 16 77 17 78 18 79 19 84 20 85 21 86 22
REMARK SMILES IDX 87 23 8 24 9 25 10 26 11 27 12 28 13 29 71 30 14 31 70 32
REMARK SMILES IDX 15 33 16 34 17 35 64 36 18 37 69 38 63 39 65 40 19 41 68 42
REMARK SMILES IDX 62 43 61 44 20 46 50 47 31 48 49 49 32 50 35 51 48 52 66 53
REMARK SMILES IDX 33 54 34 55 47 57 67 58 36 59 21 60 22 61 30 62 23 63 29 64
REMARK SMILES IDX 24 65 25 66 26 67 27 68 28 69 51 70 52 71 60 72 53 73 59 74
REMARK SMILES IDX 54 75 55 76 56 77 57 78 58 79 37 80 38 81 46 82 39 83 45 84
REMARK SMILES IDX 40 85 41 86 42 87 43 88 44 89
REMARK H PARENT 65 45 35 56
REMARK Flexibility Score: inf
ROOT
ATOM      1  C   UNL A   1      33.617  28.602  24.091  1.00  0.00     0.202 C 
ENDROOT
BRANCH   1   2
ATOM      2  O   UNL A   1      32.784  27.599  23.472  1.00  0.00    -0.374 OA
BRANCH   2   3
ATOM      3  C   UNL A   1      31.421  26.888  24.009  1.00  0.00     0.202 C 
BRANCH   3   4
ATOM      4  C   UNL A   1      31.096  25.688  25.785  1.00  0.00     0.261 C 
BRANCH   4   5
ATOM      5  O   UNL A   1      32.197  25.120  26.721  1.00  0.00    -0.460 OA
BRANCH   5   6
ATOM      6  C   UNL A   1      32.482  23.839  26.473  1.00  0.00     0.338 C 
ATOM      7  O   UNL A   1      32.367  22.862  27.168  1.00  0.00    -0.246 OA
BRANCH   6   8
ATOM      8  C   UNL A   1      33.254  24.101  25.285  1.00  0.00     0.087 C 
ATOM      9  C   UNL A   1      34.606  24.595  25.636  1.00  0.00     0.027 C 
ATOM     10  C   UNL A   1      32.885  22.423  24.387  1.00  0.00     0.316 C 
ATOM     11  C   UNL A   1      36.107  23.598  25.467  1.00  0.00     0.019 A 
ATOM     12  O   UNL A   1      34.464  21.322  24.254  1.00  0.00    -0.475 OA
ATOM     13  C   UNL A   1      37.272  24.075  25.999  1.00  0.00     0.034 A 
ATOM     14  C   UNL A   1      36.061  21.976  24.855  1.00  0.00     0.129 A 
ATOM     15  C   UNL A   1      38.325  23.150  26.058  1.00  0.00     0.060 A 
ATOM     16  C   UNL A   1      37.105  21.114  25.037  1.00  0.00     0.069 A 
ATOM     17  Cl  UNL A   1      39.805  23.795  26.725  1.00  0.00    -0.083 Cl
ATOM     18  C   UNL A   1      38.233  21.744  25.648  1.00  0.00     0.063 A 
ATOM     19  Cl  UNL A   1      39.596  20.733  26.015  1.00  0.00    -0.083 Cl
BRANCH  10  20
ATOM     20  C   UNL A   1      31.892  22.961  23.268  1.00  0.00     0.430 C 
ATOM     21  F   UNL A   1      32.360  23.983  22.530  1.00  0.00    -0.167 F 
ATOM     22  F   UNL A   1      31.692  21.944  22.377  1.00  0.00    -0.167 F 
ATOM     23  F   UNL A   1      30.653  23.279  23.705  1.00  0.00    -0.167 F 
ENDBRANCH  10  20
ENDBRANCH   6   8
ENDBRANCH   5   6
ENDBRANCH   4   5
ENDBRANCH   3   4
ENDBRANCH   2   3
ENDBRANCH   1   2
BRANCH   1  24
ATOM     24  C   UNL A   1      33.447  28.744  25.603  1.00  0.00     0.261 C 
BRANCH  24  25
ATOM     25  O   UNL A   1      34.698  28.940  26.252  1.00  0.00    -0.460 OA
BRANCH  25  26
ATOM     26  C   UNL A   1      34.685  29.971  27.126  1.00  0.00     0.338 C 
ATOM     27  O   UNL A   1      33.869  30.874  27.195  1.00  0.00    -0.246 OA
BRANCH  26  28
ATOM     28  C   UNL A   1      35.845  29.852  28.025  1.00  0.00     0.060 A 
ATOM     29  C   UNL A   1      37.100  30.138  27.485  1.00  0.00     0.016 A 
ATOM     30  C   UNL A   1      35.710  29.463  29.366  1.00  0.00     0.016 A 
ATOM     31  C   UNL A   1      38.226  30.045  28.290  1.00  0.00     0.010 A 
ATOM     32  C   UNL A   1      36.840  29.369  30.172  1.00  0.00     0.010 A 
ATOM     33  C   UNL A   1      38.098  29.658  29.630  1.00  0.00    -0.014 A 
BRANCH  33  34
ATOM     34  C   UNL A   1      39.322  29.389  30.399  1.00  0.00     0.031 A 
ATOM     35  C   UNL A   1      40.225  28.308  29.899  1.00  0.00     0.074 A 
ATOM     36  C   UNL A   1      39.639  30.141  31.466  1.00  0.00     0.049 A 
ATOM     37  N   UNL A   1      41.393  27.940  30.348  1.00  0.00    -0.248 NA
ATOM     38  C   UNL A   1      39.749  27.536  28.737  1.00  0.00     0.031 C 
ATOM     39  C   UNL A   1      38.819  31.220  32.011  1.00  0.00     0.029 A 
ATOM     40  N   UNL A   1      40.747  30.126  32.269  1.00  0.00    -0.354 N 
ATOM     41  C   UNL A   1      41.799  26.908  29.516  1.00  0.00     0.074 A 
ATOM     42  C   UNL A   1      40.741  26.680  28.558  1.00  0.00     0.031 C 
ATOM     43  C   UNL A   1      39.475  31.801  33.029  1.00  0.00     0.029 A 
ATOM     44  C   UNL A   1      40.728  31.087  33.252  1.00  0.00     0.049 A 
ATOM     45  H   UNL A   1      41.487  29.487  32.154  1.00  0.00     0.167 HD
ATOM     46  C   UNL A   1      42.957  26.215  29.554  1.00  0.00     0.031 A 
ATOM     47  C   UNL A   1      41.618  31.339  34.231  1.00  0.00     0.031 A 
ATOM     48  C   UNL A   1      43.973  26.424  30.549  1.00  0.00     0.049 A 
ATOM     49  C   UNL A   1      42.857  30.484  34.301  1.00  0.00     0.074 A 
ATOM     50  C   UNL A   1      45.177  25.762  30.699  1.00  0.00     0.029 A 
ATOM     51  N   UNL A   1      43.894  27.358  31.573  1.00  0.00    -0.354 N 
ATOM     52  N   UNL A   1      43.249  29.527  33.490  1.00  0.00    -0.248 NA
ATOM     53  C   UNL A   1      43.775  30.740  35.418  1.00  0.00     0.031 C 
ATOM     54  C   UNL A   1      45.795  26.249  31.854  1.00  0.00     0.029 A 
ATOM     55  C   UNL A   1      45.015  27.269  32.378  1.00  0.00     0.049 A 
ATOM     56  H   UNL A   1      43.151  27.989  31.706  1.00  0.00     0.167 HD
ATOM     57  C   UNL A   1      44.472  29.088  33.985  1.00  0.00     0.074 A 
ATOM     58  C   UNL A   1      44.767  29.905  35.145  1.00  0.00     0.031 C 
ATOM     59  C   UNL A   1      45.279  28.096  33.530  1.00  0.00     0.031 A 
BRANCH  46  60
ATOM     60  C   UNL A   1      43.159  25.147  28.518  1.00  0.00    -0.014 A 
ATOM     61  C   UNL A   1      43.727  25.447  27.267  1.00  0.00     0.010 A 
ATOM     62  C   UNL A   1      42.812  23.817  28.813  1.00  0.00     0.010 A 
ATOM     63  C   UNL A   1      43.932  24.437  26.324  1.00  0.00     0.020 A 
ATOM     64  C   UNL A   1      43.041  22.800  27.885  1.00  0.00     0.020 A 
ATOM     65  C   UNL A   1      43.595  23.118  26.644  1.00  0.00     0.054 A 
BRANCH  65  66
ATOM     66  S   UNL A   1      43.933  21.820  25.424  1.00  0.00     0.124 S 
ATOM     67  O   UNL A   1      45.367  21.605  25.600  1.00  0.00    -0.237 OA
ATOM     68  O   UNL A   1      43.073  20.730  25.877  1.00  0.00    -0.237 OA
ATOM     69  O   UNL A   1      43.548  22.428  24.153  1.00  0.00    -0.744 OA
ENDBRANCH  65  66
ENDBRANCH  46  60
BRANCH  47  70
ATOM     70  C   UNL A   1      41.355  32.396  35.249  1.00  0.00    -0.014 A 
ATOM     71  C   UNL A   1      40.625  32.117  36.419  1.00  0.00     0.010 A 
ATOM     72  C   UNL A   1      41.795  33.714  35.024  1.00  0.00     0.010 A 
ATOM     73  C   UNL A   1      40.304  33.139  37.318  1.00  0.00     0.020 A 
ATOM     74  C   UNL A   1      41.511  34.731  35.939  1.00  0.00     0.020 A 
ATOM     75  C   UNL A   1      40.748  34.442  37.070  1.00  0.00     0.054 A 
BRANCH  75  76
ATOM     76  S   UNL A   1      40.324  35.753  38.249  1.00  0.00     0.124 S 
ATOM     77  O   UNL A   1      41.613  36.031  38.873  1.00  0.00    -0.237 OA
ATOM     78  O   UNL A   1      39.802  36.803  37.378  1.00  0.00    -0.237 OA
ATOM     79  O   UNL A   1      39.331  35.124  39.117  1.00  0.00    -0.744 OA
ENDBRANCH  75  76
ENDBRANCH  47  70
BRANCH  59  80
ATOM     80  C   UNL A   1      46.573  27.870  34.268  1.00  0.00    -0.014 A 
ATOM     81  C   UNL A   1      46.658  26.963  35.339  1.00  0.00     0.010 A 
ATOM     82  C   UNL A   1      47.732  28.554  33.854  1.00  0.00     0.010 A 
ATOM     83  C   UNL A   1      47.866  26.782  36.016  1.00  0.00     0.020 A 
ATOM     84  C   UNL A   1      48.950  28.346  34.503  1.00  0.00     0.020 A 
ATOM     85  C   UNL A   1      49.005  27.476  35.593  1.00  0.00     0.054 A 
BRANCH  85  86
ATOM     86  S   UNL A   1      50.565  27.207  36.475  1.00  0.00     0.124 S 
ATOM     87  O   UNL A   1      50.104  26.958  37.838  1.00  0.00    -0.237 OA
ATOM     88  O   UNL A   1      51.128  26.052  35.781  1.00  0.00    -0.237 OA
ATOM     89  O   UNL A   1      51.293  28.459  36.283  1.00  0.00    -0.744 OA
ENDBRANCH  85  86
ENDBRANCH  59  80
ENDBRANCH  33  34
ENDBRANCH  26  28
ENDBRANCH  25  26
ENDBRANCH  24  25
ENDBRANCH   1  24
TORSDOF 18
ENDMDL
