MODEL 1
REMARK VINA RESULT:     -10.8      0.000      0.000
REMARK SMILES CC1(C)CCC[C@H]1NC(=O)N[C@@H]1COC[C@@]1(C)C(=O)OCCOCCOC(=O)c1ccc(-c2c3nc(c(-c4ccc(S(=O)(=O)[O-])cc4)c4ccc([nH]4)c(-c4ccc(S(=O)(=O)[O-])cc4)c4nc(c(-c5ccc(S(=O)(=O)[O-])cc5)c5ccc2[nH]5)C=C4)C=C3)cc1
REMARK SMILES IDX 24 1 23 2 22 3 21 4 20 5 18 6 19 7 16 8 12 9 13 10 14 11
REMARK SMILES IDX 15 12 17 13 11 14 8 15 9 16 10 18 7 20 1 21 2 22 3 23 4 24
REMARK SMILES IDX 5 25 6 26 25 27 26 28 27 29 28 30 29 31 30 32 88 33 31 34
REMARK SMILES IDX 87 35 32 36 33 37 34 38 81 39 35 40 86 41 80 42 82 43 36 44
REMARK SMILES IDX 85 45 79 46 78 47 37 49 67 50 48 51 66 52 49 53 52 54 65 55
REMARK SMILES IDX 83 56 50 57 51 58 64 60 84 61 53 62 38 63 39 64 47 65 40 66
REMARK SMILES IDX 46 67 41 68 42 69 43 70 44 71 45 72 68 73 69 74 77 75 70 76
REMARK SMILES IDX 76 77 71 78 72 79 73 80 74 81 75 82 54 83 55 84 63 85 56 86
REMARK SMILES IDX 62 87 57 88 58 89 59 90 60 91 61 92
REMARK H PARENT 8 17 11 19 82 48 52 59
REMARK Flexibility Score: inf
ROOT
ATOM      1  C   UNL A   1      40.641  21.564  26.142  1.00  0.00     0.202 C 
ENDROOT
BRANCH   1   2
ATOM      2  O   UNL A   1      39.390  22.026  26.648  1.00  0.00    -0.374 OA
BRANCH   2   3
ATOM      3  C   UNL A   1      38.236  21.877  25.811  1.00  0.00     0.202 C 
BRANCH   3   4
ATOM      4  C   UNL A   1      37.540  23.212  25.483  1.00  0.00     0.261 C 
BRANCH   4   5
ATOM      5  O   UNL A   1      36.145  23.096  25.829  1.00  0.00    -0.463 OA
BRANCH   5   6
ATOM      6  C   UNL A   1      35.281  22.599  24.905  1.00  0.00     0.316 C 
ATOM      7  O   UNL A   1      35.383  22.785  23.701  1.00  0.00    -0.251 OA
BRANCH   6   8
ATOM      8  C   UNL A   1      34.248  21.677  25.574  1.00  0.00     0.111 C 
ATOM      9  C   UNL A   1      32.802  21.908  25.128  1.00  0.00     0.129 C 
ATOM     10  C   UNL A   1      32.395  20.684  24.320  1.00  0.00     0.186 C 
ATOM     11  O   UNL A   1      33.350  19.655  24.567  1.00  0.00    -0.378 OA
ATOM     12  C   UNL A   1      34.552  20.258  25.062  1.00  0.00     0.181 C 
ATOM     13  C   UNL A   1      34.395  21.833  27.088  1.00  0.00     0.028 C 
BRANCH   9  14
ATOM     14  N   UNL A   1      31.807  22.275  26.166  1.00  0.00    -0.332 N 
ATOM     15  N   UNL A   1      31.029  24.545  26.162  1.00  0.00    -0.335 N 
ATOM     16  C   UNL A   1      31.069  23.291  26.613  1.00  0.00     0.315 C 
ATOM     17  H   UNL A   1      30.273  25.039  26.557  1.00  0.00     0.165 HD
ATOM     18  O   UNL A   1      30.304  23.026  27.547  1.00  0.00    -0.249 OA
ATOM     19  H   UNL A   1      31.627  21.485  26.725  1.00  0.00     0.165 HD
BRANCH  15  20
ATOM     20  C   UNL A   1      31.790  25.393  25.249  1.00  0.00     0.089 C 
ATOM     21  C   UNL A   1      29.426  26.306  24.403  1.00  0.00     0.013 C 
ATOM     22  C   UNL A   1      30.949  26.504  24.509  1.00  0.00    -0.015 C 
ATOM     23  C   UNL A   1      31.497  26.700  23.076  1.00  0.00     0.013 C 
ATOM     24  C   UNL A   1      31.220  27.761  25.347  1.00  0.00     0.008 C 
ATOM     25  C   UNL A   1      32.676  27.642  25.744  1.00  0.00     0.003 C 
ATOM     26  C   UNL A   1      32.873  26.159  26.039  1.00  0.00     0.025 C 
ENDBRANCH  15  20
ENDBRANCH   9  14
ENDBRANCH   6   8
ENDBRANCH   5   6
ENDBRANCH   4   5
ENDBRANCH   3   4
ENDBRANCH   2   3
ENDBRANCH   1   2
BRANCH   1  27
ATOM     27  C   UNL A   1      41.835  22.533  26.205  1.00  0.00     0.261 C 
BRANCH  27  28
ATOM     28  O   UNL A   1      41.448  23.918  26.260  1.00  0.00    -0.460 OA
BRANCH  28  29
ATOM     29  C   UNL A   1      42.364  24.715  26.865  1.00  0.00     0.338 C 
ATOM     30  O   UNL A   1      43.570  24.706  26.672  1.00  0.00    -0.246 OA
BRANCH  29  31
ATOM     31  C   UNL A   1      41.724  25.742  27.714  1.00  0.00     0.060 A 
ATOM     32  C   UNL A   1      42.479  26.894  27.962  1.00  0.00     0.016 A 
ATOM     33  C   UNL A   1      40.490  25.559  28.347  1.00  0.00     0.016 A 
ATOM     34  C   UNL A   1      42.047  27.825  28.902  1.00  0.00     0.010 A 
ATOM     35  C   UNL A   1      40.052  26.506  29.289  1.00  0.00     0.010 A 
ATOM     36  C   UNL A   1      40.853  27.618  29.607  1.00  0.00    -0.014 A 
BRANCH  36  37
ATOM     37  C   UNL A   1      40.565  28.507  30.766  1.00  0.00     0.031 A 
ATOM     38  C   UNL A   1      41.434  28.430  31.995  1.00  0.00     0.074 A 
ATOM     39  C   UNL A   1      39.623  29.466  30.673  1.00  0.00     0.049 A 
ATOM     40  N   UNL A   1      41.458  29.217  33.042  1.00  0.00    -0.248 NA
ATOM     41  C   UNL A   1      42.408  27.328  32.051  1.00  0.00     0.031 C 
ATOM     42  C   UNL A   1      38.737  29.670  29.527  1.00  0.00     0.029 A 
ATOM     43  N   UNL A   1      39.277  30.465  31.548  1.00  0.00    -0.354 N 
ATOM     44  C   UNL A   1      42.451  28.712  33.875  1.00  0.00     0.074 A 
ATOM     45  C   UNL A   1      42.975  27.525  33.233  1.00  0.00     0.031 C 
ATOM     46  C   UNL A   1      37.965  30.746  29.760  1.00  0.00     0.029 A 
ATOM     47  C   UNL A   1      38.287  31.294  31.075  1.00  0.00     0.049 A 
ATOM     48  H   UNL A   1      39.697  30.578  32.431  1.00  0.00     0.167 HD
ATOM     49  C   UNL A   1      42.900  29.196  35.059  1.00  0.00     0.031 A 
ATOM     50  C   UNL A   1      37.708  32.376  31.633  1.00  0.00     0.031 A 
ATOM     51  C   UNL A   1      42.373  30.368  35.708  1.00  0.00     0.049 A 
ATOM     52  C   UNL A   1      38.187  32.865  32.975  1.00  0.00     0.074 A 
ATOM     53  C   UNL A   1      42.772  30.942  36.904  1.00  0.00     0.029 A 
ATOM     54  N   UNL A   1      41.332  31.143  35.223  1.00  0.00    -0.354 N 
ATOM     55  N   UNL A   1      39.153  32.395  33.729  1.00  0.00    -0.248 NA
ATOM     56  C   UNL A   1      37.510  34.045  33.532  1.00  0.00     0.031 C 
ATOM     57  C   UNL A   1      41.935  32.031  37.167  1.00  0.00     0.029 A 
ATOM     58  C   UNL A   1      41.057  32.175  36.105  1.00  0.00     0.049 A 
ATOM     59  H   UNL A   1      40.858  30.984  34.374  1.00  0.00     0.167 HD
ATOM     60  C   UNL A   1      39.217  33.240  34.834  1.00  0.00     0.074 A 
ATOM     61  C   UNL A   1      38.205  34.257  34.640  1.00  0.00     0.031 C 
ATOM     62  C   UNL A   1      40.043  33.180  35.908  1.00  0.00     0.031 A 
BRANCH  49  63
ATOM     63  C   UNL A   1      44.005  28.435  35.746  1.00  0.00    -0.014 A 
ATOM     64  C   UNL A   1      45.357  28.747  35.516  1.00  0.00     0.010 A 
ATOM     65  C   UNL A   1      43.684  27.414  36.659  1.00  0.00     0.010 A 
ATOM     66  C   UNL A   1      46.369  28.024  36.155  1.00  0.00     0.020 A 
ATOM     67  C   UNL A   1      44.693  26.706  37.320  1.00  0.00     0.020 A 
ATOM     68  C   UNL A   1      46.029  27.004  37.050  1.00  0.00     0.054 A 
BRANCH  68  69
ATOM     69  S   UNL A   1      47.361  26.088  37.873  1.00  0.00     0.124 S 
ATOM     70  O   UNL A   1      48.549  26.634  37.221  1.00  0.00    -0.237 OA
ATOM     71  O   UNL A   1      47.188  26.459  39.275  1.00  0.00    -0.237 OA
ATOM     72  O   UNL A   1      47.067  24.692  37.560  1.00  0.00    -0.744 OA
ENDBRANCH  68  69
ENDBRANCH  49  63
BRANCH  50  73
ATOM     73  C   UNL A   1      36.607  33.080  30.919  1.00  0.00    -0.014 A 
ATOM     74  C   UNL A   1      35.274  32.968  31.353  1.00  0.00     0.010 A 
ATOM     75  C   UNL A   1      36.893  33.870  29.790  1.00  0.00     0.010 A 
ATOM     76  C   UNL A   1      34.246  33.616  30.662  1.00  0.00     0.020 A 
ATOM     77  C   UNL A   1      35.872  34.543  29.114  1.00  0.00     0.020 A 
ATOM     78  C   UNL A   1      34.553  34.402  29.547  1.00  0.00     0.054 A 
BRANCH  78  79
ATOM     79  S   UNL A   1      33.211  35.278  28.696  1.00  0.00     0.124 S 
ATOM     80  O   UNL A   1      32.478  35.870  29.811  1.00  0.00    -0.237 OA
ATOM     81  O   UNL A   1      33.938  36.217  27.845  1.00  0.00    -0.237 OA
ATOM     82  O   UNL A   1      32.510  34.216  27.979  1.00  0.00    -0.744 OA
ENDBRANCH  78  79
ENDBRANCH  50  73
BRANCH  62  83
ATOM     83  C   UNL A   1      39.914  34.267  36.945  1.00  0.00    -0.014 A 
ATOM     84  C   UNL A   1      40.613  35.481  36.827  1.00  0.00     0.010 A 
ATOM     85  C   UNL A   1      39.052  34.079  38.041  1.00  0.00     0.010 A 
ATOM     86  C   UNL A   1      40.489  36.468  37.810  1.00  0.00     0.020 A 
ATOM     87  C   UNL A   1      38.901  35.075  39.011  1.00  0.00     0.020 A 
ATOM     88  C   UNL A   1      39.637  36.256  38.898  1.00  0.00     0.054 A 
BRANCH  88  89
ATOM     89  S   UNL A   1      39.480  37.557  40.153  1.00  0.00     0.124 S 
ATOM     90  O   UNL A   1      39.056  36.797  41.326  1.00  0.00    -0.237 OA
ATOM     91  O   UNL A   1      40.830  38.110  40.215  1.00  0.00    -0.237 OA
ATOM     92  O   UNL A   1      38.471  38.455  39.595  1.00  0.00    -0.744 OA
ENDBRANCH  88  89
ENDBRANCH  62  83
ENDBRANCH  36  37
ENDBRANCH  29  31
ENDBRANCH  28  29
ENDBRANCH  27  28
ENDBRANCH   1  27
TORSDOF 19
ENDMDL
MODEL 2
REMARK VINA RESULT:     -10.7      1.993      8.919
REMARK SMILES CC1(C)CCC[C@H]1NC(=O)N[C@@H]1COC[C@@]1(C)C(=O)OCCOCCOC(=O)c1ccc(-c2c3nc(c(-c4ccc(S(=O)(=O)[O-])cc4)c4ccc([nH]4)c(-c4ccc(S(=O)(=O)[O-])cc4)c4nc(c(-c5ccc(S(=O)(=O)[O-])cc5)c5ccc2[nH]5)C=C4)C=C3)cc1
REMARK SMILES IDX 24 1 23 2 22 3 21 4 20 5 18 6 19 7 16 8 12 9 13 10 14 11
REMARK SMILES IDX 15 12 17 13 11 14 8 15 9 16 10 18 7 20 1 21 2 22 3 23 4 24
REMARK SMILES IDX 5 25 6 26 25 27 26 28 27 29 28 30 29 31 30 32 88 33 31 34
REMARK SMILES IDX 87 35 32 36 33 37 34 38 81 39 35 40 86 41 80 42 82 43 36 44
REMARK SMILES IDX 85 45 79 46 78 47 37 49 67 50 48 51 66 52 49 53 52 54 65 55
REMARK SMILES IDX 83 56 50 57 51 58 64 60 84 61 53 62 38 63 39 64 47 65 40 66
REMARK SMILES IDX 46 67 41 68 42 69 43 70 44 71 45 72 68 73 69 74 77 75 70 76
REMARK SMILES IDX 76 77 71 78 72 79 73 80 74 81 75 82 54 83 55 84 63 85 56 86
REMARK SMILES IDX 62 87 57 88 58 89 59 90 60 91 61 92
REMARK H PARENT 8 17 11 19 82 48 52 59
REMARK Flexibility Score: inf
ROOT
ATOM      1  C   UNL A   1      31.414  31.691  26.584  1.00  0.00     0.202 C 
ENDROOT
BRANCH   1   2
ATOM      2  O   UNL A   1      32.240  30.558  26.845  1.00  0.00    -0.374 OA
BRANCH   2   3
ATOM      3  C   UNL A   1      32.514  29.668  25.757  1.00  0.00     0.202 C 
BRANCH   3   4
ATOM      4  C   UNL A   1      31.291  29.409  24.854  1.00  0.00     0.261 C 
BRANCH   4   5
ATOM      5  O   UNL A   1      31.057  27.987  24.801  1.00  0.00    -0.463 OA
BRANCH   5   6
ATOM      6  C   UNL A   1      31.559  27.281  23.754  1.00  0.00     0.316 C 
ATOM      7  O   UNL A   1      31.850  27.770  22.672  1.00  0.00    -0.251 OA
BRANCH   6   8
ATOM      8  C   UNL A   1      31.823  25.822  24.165  1.00  0.00     0.111 C 
ATOM      9  C   UNL A   1      30.567  24.957  24.292  1.00  0.00     0.129 C 
ATOM     10  C   UNL A   1      30.613  23.952  23.151  1.00  0.00     0.186 C 
ATOM     11  O   UNL A   1      31.934  23.953  22.614  1.00  0.00    -0.378 OA
ATOM     12  C   UNL A   1      32.575  25.180  22.987  1.00  0.00     0.181 C 
ATOM     13  C   UNL A   1      32.619  25.843  25.470  1.00  0.00     0.028 C 
BRANCH   9  14
ATOM     14  N   UNL A   1      30.289  24.328  25.608  1.00  0.00    -0.332 N 
ATOM     15  N   UNL A   1      31.657  22.455  26.221  1.00  0.00    -0.335 N 
ATOM     16  C   UNL A   1      30.691  23.351  26.421  1.00  0.00     0.315 C 
ATOM     17  H   UNL A   1      31.861  21.963  27.050  1.00  0.00     0.165 HD
ATOM     18  O   UNL A   1      30.111  23.290  27.511  1.00  0.00    -0.249 OA
ATOM     19  H   UNL A   1      29.539  24.803  26.033  1.00  0.00     0.165 HD
BRANCH  15  20
ATOM     20  C   UNL A   1      32.497  21.994  25.118  1.00  0.00     0.089 C 
ATOM     21  C   UNL A   1      34.558  22.972  26.510  1.00  0.00     0.013 C 
ATOM     22  C   UNL A   1      34.049  22.038  25.396  1.00  0.00    -0.015 C 
ATOM     23  C   UNL A   1      34.798  22.411  24.095  1.00  0.00     0.013 C 
ATOM     24  C   UNL A   1      34.374  20.590  25.788  1.00  0.00     0.008 C 
ATOM     25  C   UNL A   1      33.496  19.750  24.885  1.00  0.00     0.003 C 
ATOM     26  C   UNL A   1      32.179  20.515  24.812  1.00  0.00     0.025 C 
ENDBRANCH  15  20
ENDBRANCH   9  14
ENDBRANCH   6   8
ENDBRANCH   5   6
ENDBRANCH   4   5
ENDBRANCH   3   4
ENDBRANCH   2   3
ENDBRANCH   1   2
BRANCH   1  27
ATOM     27  C   UNL A   1      31.993  33.081  26.903  1.00  0.00     0.261 C 
BRANCH  27  28
ATOM     28  O   UNL A   1      33.218  33.034  27.657  1.00  0.00    -0.460 OA
BRANCH  28  29
ATOM     29  C   UNL A   1      33.385  34.092  28.490  1.00  0.00     0.338 C 
ATOM     30  O   UNL A   1      32.664  35.074  28.566  1.00  0.00    -0.246 OA
BRANCH  29  31
ATOM     31  C   UNL A   1      34.493  33.870  29.443  1.00  0.00     0.060 A 
ATOM     32  C   UNL A   1      35.773  34.212  28.991  1.00  0.00     0.016 A 
ATOM     33  C   UNL A   1      34.329  33.249  30.685  1.00  0.00     0.016 A 
ATOM     34  C   UNL A   1      36.895  33.862  29.735  1.00  0.00     0.010 A 
ATOM     35  C   UNL A   1      35.464  32.905  31.439  1.00  0.00     0.010 A 
ATOM     36  C   UNL A   1      36.755  33.165  30.943  1.00  0.00    -0.014 A 
BRANCH  36  37
ATOM     37  C   UNL A   1      37.982  32.602  31.570  1.00  0.00     0.031 A 
ATOM     38  C   UNL A   1      38.436  33.121  32.911  1.00  0.00     0.074 A 
ATOM     39  C   UNL A   1      38.611  31.549  31.014  1.00  0.00     0.049 A 
ATOM     40  N   UNL A   1      39.375  32.662  33.700  1.00  0.00    -0.248 NA
ATOM     41  C   UNL A   1      37.736  34.304  33.435  1.00  0.00     0.031 C 
ATOM     42  C   UNL A   1      38.253  30.930  29.738  1.00  0.00     0.029 A 
ATOM     43  N   UNL A   1      39.665  30.795  31.469  1.00  0.00    -0.354 N 
ATOM     44  C   UNL A   1      39.374  33.494  34.815  1.00  0.00     0.074 A 
ATOM     45  C   UNL A   1      38.372  34.512  34.581  1.00  0.00     0.031 C 
ATOM     46  C   UNL A   1      39.059  29.875  29.524  1.00  0.00     0.029 A 
ATOM     47  C   UNL A   1      39.999  29.755  30.636  1.00  0.00     0.049 A 
ATOM     48  H   UNL A   1      40.136  30.983  32.313  1.00  0.00     0.167 HD
ATOM     49  C   UNL A   1      40.126  33.414  35.941  1.00  0.00     0.031 A 
ATOM     50  C   UNL A   1      40.951  28.807  30.754  1.00  0.00     0.031 A 
ATOM     51  C   UNL A   1      41.133  32.412  36.174  1.00  0.00     0.049 A 
ATOM     52  C   UNL A   1      41.811  28.769  31.991  1.00  0.00     0.074 A 
ATOM     53  C   UNL A   1      41.936  32.243  37.289  1.00  0.00     0.029 A 
ATOM     54  N   UNL A   1      41.479  31.412  35.279  1.00  0.00    -0.354 N 
ATOM     55  N   UNL A   1      41.768  29.542  33.050  1.00  0.00    -0.248 NA
ATOM     56  C   UNL A   1      42.834  27.716  32.056  1.00  0.00     0.031 C 
ATOM     57  C   UNL A   1      42.807  31.176  37.043  1.00  0.00     0.029 A 
ATOM     58  C   UNL A   1      42.501  30.639  35.803  1.00  0.00     0.049 A 
ATOM     59  H   UNL A   1      41.060  31.273  34.398  1.00  0.00     0.167 HD
ATOM     60  C   UNL A   1      42.740  29.050  33.918  1.00  0.00     0.074 A 
ATOM     61  C   UNL A   1      43.338  27.904  33.266  1.00  0.00     0.031 C 
ATOM     62  C   UNL A   1      43.098  29.503  35.145  1.00  0.00     0.031 A 
BRANCH  49  63
ATOM     63  C   UNL A   1      39.903  34.463  37.000  1.00  0.00    -0.014 A 
ATOM     64  C   UNL A   1      39.057  34.223  38.097  1.00  0.00     0.010 A 
ATOM     65  C   UNL A   1      40.576  35.695  36.911  1.00  0.00     0.010 A 
ATOM     66  C   UNL A   1      38.855  35.212  39.066  1.00  0.00     0.020 A 
ATOM     67  C   UNL A   1      40.398  36.676  37.892  1.00  0.00     0.020 A 
ATOM     68  C   UNL A   1      39.524  36.434  38.953  1.00  0.00     0.054 A 
BRANCH  68  69
ATOM     69  S   UNL A   1      39.253  37.696  40.228  1.00  0.00     0.124 S 
ATOM     70  O   UNL A   1      38.182  38.495  39.638  1.00  0.00    -0.237 OA
ATOM     71  O   UNL A   1      38.873  36.900  41.392  1.00  0.00    -0.237 OA
ATOM     72  O   UNL A   1      40.546  38.368  40.332  1.00  0.00    -0.744 OA
ENDBRANCH  68  69
ENDBRANCH  49  63
BRANCH  50  73
ATOM     73  C   UNL A   1      41.140  27.805  29.668  1.00  0.00    -0.014 A 
ATOM     74  C   UNL A   1      40.196  26.786  29.451  1.00  0.00     0.010 A 
ATOM     75  C   UNL A   1      42.279  27.868  28.844  1.00  0.00     0.010 A 
ATOM     76  C   UNL A   1      40.396  25.839  28.442  1.00  0.00     0.020 A 
ATOM     77  C   UNL A   1      42.468  26.940  27.816  1.00  0.00     0.020 A 
ATOM     78  C   UNL A   1      41.530  25.924  27.629  1.00  0.00     0.054 A 
BRANCH  78  79
ATOM     79  S   UNL A   1      41.744  24.717  26.292  1.00  0.00     0.124 S 
ATOM     80  O   UNL A   1      41.535  25.539  25.104  1.00  0.00    -0.237 OA
ATOM     81  O   UNL A   1      43.110  24.247  26.506  1.00  0.00    -0.237 OA
ATOM     82  O   UNL A   1      40.705  23.724  26.557  1.00  0.00    -0.744 OA
ENDBRANCH  78  79
ENDBRANCH  50  73
BRANCH  62  83
ATOM     83  C   UNL A   1      44.165  28.738  35.884  1.00  0.00    -0.014 A 
ATOM     84  C   UNL A   1      43.846  27.651  36.716  1.00  0.00     0.010 A 
ATOM     85  C   UNL A   1      45.516  29.096  35.716  1.00  0.00     0.010 A 
ATOM     86  C   UNL A   1      44.853  26.966  37.404  1.00  0.00     0.020 A 
ATOM     87  C   UNL A   1      46.528  28.395  36.378  1.00  0.00     0.020 A 
ATOM     88  C   UNL A   1      46.188  27.347  37.234  1.00  0.00     0.054 A 
BRANCH  88  89
ATOM     89  S   UNL A   1      47.479  26.433  38.124  1.00  0.00     0.124 S 
ATOM     90  O   UNL A   1      47.548  25.188  37.363  1.00  0.00    -0.237 OA
ATOM     91  O   UNL A   1      48.639  27.311  37.999  1.00  0.00    -0.237 OA
ATOM     92  O   UNL A   1      46.943  26.307  39.477  1.00  0.00    -0.744 OA
ENDBRANCH  88  89
ENDBRANCH  62  83
ENDBRANCH  36  37
ENDBRANCH  29  31
ENDBRANCH  28  29
ENDBRANCH  27  28
ENDBRANCH   1  27
TORSDOF 19
ENDMDL
MODEL 3
REMARK VINA RESULT:     -10.5      6.620     12.424
REMARK SMILES CC1(C)CCC[C@H]1NC(=O)N[C@@H]1COC[C@@]1(C)C(=O)OCCOCCOC(=O)c1ccc(-c2c3nc(c(-c4ccc(S(=O)(=O)[O-])cc4)c4ccc([nH]4)c(-c4ccc(S(=O)(=O)[O-])cc4)c4nc(c(-c5ccc(S(=O)(=O)[O-])cc5)c5ccc2[nH]5)C=C4)C=C3)cc1
REMARK SMILES IDX 24 1 23 2 22 3 21 4 20 5 18 6 19 7 16 8 12 9 13 10 14 11
REMARK SMILES IDX 15 12 17 13 11 14 8 15 9 16 10 18 7 20 1 21 2 22 3 23 4 24
REMARK SMILES IDX 5 25 6 26 25 27 26 28 27 29 28 30 29 31 30 32 88 33 31 34
REMARK SMILES IDX 87 35 32 36 33 37 34 38 81 39 35 40 86 41 80 42 82 43 36 44
REMARK SMILES IDX 85 45 79 46 78 47 37 49 67 50 48 51 66 52 49 53 52 54 65 55
REMARK SMILES IDX 83 56 50 57 51 58 64 60 84 61 53 62 38 63 39 64 47 65 40 66
REMARK SMILES IDX 46 67 41 68 42 69 43 70 44 71 45 72 68 73 69 74 77 75 70 76
REMARK SMILES IDX 76 77 71 78 72 79 73 80 74 81 75 82 54 83 55 84 63 85 56 86
REMARK SMILES IDX 62 87 57 88 58 89 59 90 60 91 61 92
REMARK H PARENT 8 17 11 19 82 48 52 59
REMARK Flexibility Score: inf
ROOT
ATOM      1  C   UNL A   1      34.974  32.257  28.910  1.00  0.00     0.202 C 
ENDROOT
BRANCH   1   2
ATOM      2  O   UNL A   1      33.862  31.562  28.349  1.00  0.00    -0.374 OA
BRANCH   2   3
ATOM      3  C   UNL A   1      34.131  30.565  27.356  1.00  0.00     0.202 C 
BRANCH   3   4
ATOM      4  C   UNL A   1      32.952  29.600  27.120  1.00  0.00     0.261 C 
BRANCH   4   5
ATOM      5  O   UNL A   1      32.672  29.561  25.706  1.00  0.00    -0.463 OA
BRANCH   5   6
ATOM      6  C   UNL A   1      32.775  28.374  25.052  1.00  0.00     0.316 C 
ATOM      7  O   UNL A   1      33.190  27.343  25.562  1.00  0.00    -0.251 OA
BRANCH   6   8
ATOM      8  C   UNL A   1      32.182  28.484  23.637  1.00  0.00     0.111 C 
ATOM      9  C   UNL A   1      31.572  27.188  23.097  1.00  0.00     0.129 C 
ATOM     10  C   UNL A   1      30.068  27.410  23.032  1.00  0.00     0.186 C 
ATOM     11  O   UNL A   1      29.822  28.809  23.154  1.00  0.00    -0.378 OA
ATOM     12  C   UNL A   1      30.968  29.421  23.759  1.00  0.00     0.181 C 
ATOM     13  C   UNL A   1      33.280  29.010  22.712  1.00  0.00     0.028 C 
BRANCH   9  14
ATOM     14  N   UNL A   1      32.132  26.630  21.841  1.00  0.00    -0.332 N 
ATOM     15  N   UNL A   1      33.186  24.480  21.989  1.00  0.00    -0.335 N 
ATOM     16  C   UNL A   1      32.766  25.568  21.345  1.00  0.00     0.315 C 
ATOM     17  H   UNL A   1      33.465  23.779  21.356  1.00  0.00     0.165 HD
ATOM     18  O   UNL A   1      32.964  25.586  20.124  1.00  0.00    -0.249 OA
ATOM     19  H   UNL A   1      31.980  27.276  21.114  1.00  0.00     0.165 HD
BRANCH  15  20
ATOM     20  C   UNL A   1      33.351  24.035  23.371  1.00  0.00     0.089 C 
ATOM     21  C   UNL A   1      30.699  23.708  23.398  1.00  0.00     0.013 C 
ATOM     22  C   UNL A   1      32.070  23.385  24.022  1.00  0.00    -0.015 C 
ATOM     23  C   UNL A   1      32.002  23.760  25.521  1.00  0.00     0.013 C 
ATOM     24  C   UNL A   1      32.330  21.879  23.873  1.00  0.00     0.008 C 
ATOM     25  C   UNL A   1      33.817  21.729  24.114  1.00  0.00     0.003 C 
ATOM     26  C   UNL A   1      34.440  22.943  23.434  1.00  0.00     0.025 C 
ENDBRANCH  15  20
ENDBRANCH   9  14
ENDBRANCH   6   8
ENDBRANCH   5   6
ENDBRANCH   4   5
ENDBRANCH   3   4
ENDBRANCH   2   3
ENDBRANCH   1   2
BRANCH   1  27
ATOM     27  C   UNL A   1      35.807  31.522  29.976  1.00  0.00     0.261 C 
BRANCH  27  28
ATOM     28  O   UNL A   1      37.081  31.060  29.492  1.00  0.00    -0.460 OA
BRANCH  28  29
ATOM     29  C   UNL A   1      37.367  29.782  29.845  1.00  0.00     0.338 C 
ATOM     30  O   UNL A   1      36.677  29.052  30.540  1.00  0.00    -0.246 OA
BRANCH  29  31
ATOM     31  C   UNL A   1      38.579  29.281  29.164  1.00  0.00     0.060 A 
ATOM     32  C   UNL A   1      39.609  28.826  29.994  1.00  0.00     0.016 A 
ATOM     33  C   UNL A   1      38.769  29.351  27.779  1.00  0.00     0.016 A 
ATOM     34  C   UNL A   1      40.857  28.520  29.458  1.00  0.00     0.010 A 
ATOM     35  C   UNL A   1      40.028  29.032  27.240  1.00  0.00     0.010 A 
ATOM     36  C   UNL A   1      41.092  28.663  28.084  1.00  0.00    -0.014 A 
BRANCH  36  37
ATOM     37  C   UNL A   1      42.497  28.563  27.603  1.00  0.00     0.031 A 
ATOM     38  C   UNL A   1      43.437  29.723  27.808  1.00  0.00     0.074 A 
ATOM     39  C   UNL A   1      42.968  27.402  27.108  1.00  0.00     0.049 A 
ATOM     40  N   UNL A   1      44.731  29.785  27.614  1.00  0.00    -0.248 NA
ATOM     41  C   UNL A   1      42.845  30.976  28.305  1.00  0.00     0.031 C 
ATOM     42  C   UNL A   1      42.173  26.194  26.889  1.00  0.00     0.029 A 
ATOM     43  N   UNL A   1      44.237  27.043  26.728  1.00  0.00    -0.354 N 
ATOM     44  C   UNL A   1      45.108  31.075  27.970  1.00  0.00     0.074 A 
ATOM     45  C   UNL A   1      43.901  31.777  28.351  1.00  0.00     0.031 C 
ATOM     46  C   UNL A   1      42.979  25.218  26.436  1.00  0.00     0.029 A 
ATOM     47  C   UNL A   1      44.340  25.735  26.315  1.00  0.00     0.049 A 
ATOM     48  H   UNL A   1      45.002  27.663  26.749  1.00  0.00     0.167 HD
ATOM     49  C   UNL A   1      46.347  31.626  27.995  1.00  0.00     0.031 A 
ATOM     50  C   UNL A   1      45.409  25.030  25.893  1.00  0.00     0.031 A 
ATOM     51  C   UNL A   1      47.549  30.937  27.606  1.00  0.00     0.049 A 
ATOM     52  C   UNL A   1      46.768  25.680  25.879  1.00  0.00     0.074 A 
ATOM     53  C   UNL A   1      48.851  31.409  27.609  1.00  0.00     0.029 A 
ATOM     54  N   UNL A   1      47.600  29.633  27.139  1.00  0.00    -0.354 N 
ATOM     55  N   UNL A   1      47.109  26.889  26.256  1.00  0.00    -0.248 NA
ATOM     56  C   UNL A   1      47.890  24.859  25.402  1.00  0.00     0.031 C 
ATOM     57  C   UNL A   1      49.680  30.408  27.091  1.00  0.00     0.029 A 
ATOM     58  C   UNL A   1      48.905  29.291  26.827  1.00  0.00     0.049 A 
ATOM     59  H   UNL A   1      46.821  29.037  27.043  1.00  0.00     0.167 HD
ATOM     60  C   UNL A   1      48.489  26.964  26.087  1.00  0.00     0.074 A 
ATOM     61  C   UNL A   1      48.919  25.673  25.592  1.00  0.00     0.031 C 
ATOM     62  C   UNL A   1      49.324  28.005  26.327  1.00  0.00     0.031 A 
BRANCH  49  63
ATOM     63  C   UNL A   1      46.458  33.063  28.437  1.00  0.00    -0.014 A 
ATOM     64  C   UNL A   1      46.593  33.400  29.795  1.00  0.00     0.010 A 
ATOM     65  C   UNL A   1      46.461  34.089  27.474  1.00  0.00     0.010 A 
ATOM     66  C   UNL A   1      46.686  34.739  30.187  1.00  0.00     0.020 A 
ATOM     67  C   UNL A   1      46.580  35.427  27.860  1.00  0.00     0.020 A 
ATOM     68  C   UNL A   1      46.674  35.745  29.216  1.00  0.00     0.054 A 
BRANCH  68  69
ATOM     69  S   UNL A   1      46.806  37.473  29.750  1.00  0.00     0.124 S 
ATOM     70  O   UNL A   1      46.610  38.192  28.494  1.00  0.00    -0.237 OA
ATOM     71  O   UNL A   1      45.719  37.594  30.718  1.00  0.00    -0.237 OA
ATOM     72  O   UNL A   1      48.151  37.560  30.313  1.00  0.00    -0.744 OA
ENDBRANCH  68  69
ENDBRANCH  49  63
BRANCH  50  73
ATOM     73  C   UNL A   1      45.239  23.618  25.450  1.00  0.00    -0.014 A 
ATOM     74  C   UNL A   1      45.028  23.304  24.095  1.00  0.00     0.010 A 
ATOM     75  C   UNL A   1      45.285  22.575  26.393  1.00  0.00     0.010 A 
ATOM     76  C   UNL A   1      44.849  21.977  23.695  1.00  0.00     0.020 A 
ATOM     77  C   UNL A   1      45.135  21.244  25.993  1.00  0.00     0.020 A 
ATOM     78  C   UNL A   1      44.906  20.955  24.647  1.00  0.00     0.054 A 
BRANCH  78  79
ATOM     79  S   UNL A   1      44.724  19.235  24.100  1.00  0.00     0.124 S 
ATOM     80  O   UNL A   1      44.508  19.393  22.665  1.00  0.00    -0.237 OA
ATOM     81  O   UNL A   1      46.002  18.643  24.487  1.00  0.00    -0.237 OA
ATOM     82  O   UNL A   1      43.570  18.755  24.857  1.00  0.00    -0.744 OA
ENDBRANCH  78  79
ENDBRANCH  50  73
BRANCH  62  83
ATOM     83  C   UNL A   1      50.797  27.784  26.091  1.00  0.00    -0.014 A 
ATOM     84  C   UNL A   1      51.391  28.061  24.848  1.00  0.00     0.010 A 
ATOM     85  C   UNL A   1      51.604  27.319  27.146  1.00  0.00     0.010 A 
ATOM     86  C   UNL A   1      52.756  27.832  24.649  1.00  0.00     0.020 A 
ATOM     87  C   UNL A   1      52.975  27.117  26.961  1.00  0.00     0.020 A 
ATOM     88  C   UNL A   1      53.538  27.356  25.706  1.00  0.00     0.054 A 
BRANCH  88  89
ATOM     89  S   UNL A   1      55.311  27.083  25.429  1.00  0.00     0.124 S 
ATOM     90  O   UNL A   1      55.786  28.435  25.150  1.00  0.00    -0.237 OA
ATOM     91  O   UNL A   1      55.750  26.511  26.698  1.00  0.00    -0.237 OA
ATOM     92  O   UNL A   1      55.346  26.164  24.293  1.00  0.00    -0.744 OA
ENDBRANCH  88  89
ENDBRANCH  62  83
ENDBRANCH  36  37
ENDBRANCH  29  31
ENDBRANCH  28  29
ENDBRANCH  27  28
ENDBRANCH   1  27
TORSDOF 19
ENDMDL
