MODEL 1
REMARK VINA RESULT:      -9.7      0.000      0.000
REMARK SMILES C[C@@H]1[C@@H](C(=O)OCCOCCOC(=O)c2ccc(-c3c4nc(c(-c5ccc(S(=O)(=O)[O-])cc5)c5ccc([nH]5)c(-c5ccc(S(=O)(=O)[O-])cc5)c5nc(c(-c6ccc(S(=O)(=O)[O-])cc6)c6ccc3[nH]6)C=C5)C=C4)cc2)CCN1c1ccc(C(F)(F)F)cc1C#N
REMARK SMILES IDX 10 1 9 2 8 3 7 4 6 5 4 6 5 7 3 8 1 9 2 10 77 11 75 12 76 13
REMARK SMILES IDX 78 14 79 15 87 16 80 17 86 18 81 19 88 20 89 21 82 22 83 23
REMARK SMILES IDX 84 24 85 25 11 26 12 27 13 28 14 29 15 30 16 31 74 32 17 33
REMARK SMILES IDX 73 34 18 35 19 36 20 37 67 38 21 39 72 40 66 41 68 42 22 43
REMARK SMILES IDX 71 44 65 45 64 46 23 48 53 49 34 50 52 51 35 52 38 53 51 54
REMARK SMILES IDX 69 55 36 56 37 57 50 59 70 60 39 61 24 62 25 63 33 64 26 65
REMARK SMILES IDX 32 66 27 67 28 68 29 69 30 70 31 71 54 72 55 73 63 74 56 75
REMARK SMILES IDX 62 76 57 77 58 78 59 79 60 80 61 81 40 82 41 83 49 84 42 85
REMARK SMILES IDX 48 86 43 87 44 88 45 89 46 90 47 91
REMARK H PARENT 68 47 38 58
REMARK Flexibility Score: inf
ROOT
ATOM      1  C   UNL A   1      31.938  29.277  25.913  1.00  0.00     0.202 C 
ENDROOT
BRANCH   1   2
ATOM      2  O   UNL A   1      31.420  29.423  24.594  1.00  0.00    -0.374 OA
BRANCH   2   3
ATOM      3  C   UNL A   1      31.930  28.608  23.544  1.00  0.00     0.202 C 
BRANCH   3   4
ATOM      4  C   UNL A   1      33.294  27.930  23.706  1.00  0.00     0.261 C 
BRANCH   4   5
ATOM      5  O   UNL A   1      33.217  26.511  23.528  1.00  0.00    -0.463 OA
BRANCH   5   6
ATOM      6  C   UNL A   1      33.384  25.805  24.681  1.00  0.00     0.311 C 
ATOM      7  O   UNL A   1      33.932  26.242  25.683  1.00  0.00    -0.252 OA
BRANCH   6   8
ATOM      8  C   UNL A   1      32.678  24.466  24.585  1.00  0.00     0.123 C 
ATOM      9  C   UNL A   1      32.398  22.415  26.034  1.00  0.00     0.032 C 
ATOM     10  C   UNL A   1      33.380  23.469  25.521  1.00  0.00     0.093 C 
ATOM     11  N   UNL A   1      34.407  22.853  24.653  1.00  0.00    -0.367 N 
ATOM     12  C   UNL A   1      32.814  23.832  23.211  1.00  0.00     0.039 C 
ATOM     13  C   UNL A   1      34.227  23.267  23.250  1.00  0.00     0.118 C 
BRANCH  11  14
ATOM     14  C   UNL A   1      35.703  22.735  25.151  1.00  0.00     0.055 A 
ATOM     15  C   UNL A   1      36.449  23.874  25.512  1.00  0.00     0.028 A 
ATOM     16  C   UNL A   1      36.323  21.484  25.311  1.00  0.00     0.076 A 
ATOM     17  C   UNL A   1      37.774  23.784  25.949  1.00  0.00     0.015 A 
ATOM     18  C   UNL A   1      37.654  21.392  25.758  1.00  0.00     0.034 A 
ATOM     19  C   UNL A   1      38.400  22.541  26.057  1.00  0.00     0.057 A 
BRANCH  16  20
ATOM     20  C   UNL A   1      35.644  20.257  24.988  1.00  0.00     0.101 C 
ATOM     21  N   UNL A   1      35.038  19.310  24.713  1.00  0.00    -0.192 NA
ENDBRANCH  16  20
BRANCH  19  22
ATOM     22  C   UNL A   1      39.850  22.453  26.457  1.00  0.00     0.416 C 
ATOM     23  F   UNL A   1      40.530  21.516  25.739  1.00  0.00    -0.166 F 
ATOM     24  F   UNL A   1      40.521  23.623  26.279  1.00  0.00    -0.166 F 
ATOM     25  F   UNL A   1      40.030  22.116  27.765  1.00  0.00    -0.166 F 
ENDBRANCH  19  22
ENDBRANCH  11  14
ENDBRANCH   6   8
ENDBRANCH   5   6
ENDBRANCH   4   5
ENDBRANCH   3   4
ENDBRANCH   2   3
ENDBRANCH   1   2
BRANCH   1  26
ATOM     26  C   UNL A   1      32.587  30.469  26.635  1.00  0.00     0.261 C 
BRANCH  26  27
ATOM     27  O   UNL A   1      33.614  30.107  27.570  1.00  0.00    -0.460 OA
BRANCH  27  28
ATOM     28  C   UNL A   1      34.634  31.002  27.640  1.00  0.00     0.338 C 
ATOM     29  O   UNL A   1      34.557  32.213  27.524  1.00  0.00    -0.246 OA
BRANCH  28  30
ATOM     30  C   UNL A   1      35.863  30.328  28.092  1.00  0.00     0.060 A 
ATOM     31  C   UNL A   1      35.840  29.697  29.343  1.00  0.00     0.016 A 
ATOM     32  C   UNL A   1      37.041  30.399  27.350  1.00  0.00     0.016 A 
ATOM     33  C   UNL A   1      37.009  29.167  29.877  1.00  0.00     0.010 A 
ATOM     34  C   UNL A   1      38.217  29.876  27.895  1.00  0.00     0.010 A 
ATOM     35  C   UNL A   1      38.214  29.291  29.174  1.00  0.00    -0.014 A 
BRANCH  35  36
ATOM     36  C   UNL A   1      39.488  28.937  29.841  1.00  0.00     0.031 A 
ATOM     37  C   UNL A   1      39.916  29.711  31.059  1.00  0.00     0.074 A 
ATOM     38  C   UNL A   1      40.239  27.918  29.384  1.00  0.00     0.049 A 
ATOM     39  N   UNL A   1      41.008  29.598  31.768  1.00  0.00    -0.248 NA
ATOM     40  C   UNL A   1      38.992  30.753  31.537  1.00  0.00     0.031 C 
ATOM     41  C   UNL A   1      39.901  27.065  28.245  1.00  0.00     0.029 A 
ATOM     42  N   UNL A   1      41.445  27.434  29.822  1.00  0.00    -0.354 N 
ATOM     43  C   UNL A   1      40.913  30.562  32.765  1.00  0.00     0.074 A 
ATOM     44  C   UNL A   1      39.671  31.273  32.549  1.00  0.00     0.031 C 
ATOM     45  C   UNL A   1      40.881  26.162  28.073  1.00  0.00     0.029 A 
ATOM     46  C   UNL A   1      41.933  26.402  29.057  1.00  0.00     0.049 A 
ATOM     47  H   UNL A   1      41.915  27.792  30.609  1.00  0.00     0.167 HD
ATOM     48  C   UNL A   1      41.780  30.829  33.771  1.00  0.00     0.031 A 
ATOM     49  C   UNL A   1      43.107  25.744  29.128  1.00  0.00     0.031 A 
ATOM     50  C   UNL A   1      43.020  30.125  33.970  1.00  0.00     0.049 A 
ATOM     51  C   UNL A   1      44.093  26.114  30.206  1.00  0.00     0.074 A 
ATOM     52  C   UNL A   1      43.960  30.305  34.969  1.00  0.00     0.029 A 
ATOM     53  N   UNL A   1      43.498  29.112  33.151  1.00  0.00    -0.354 N 
ATOM     54  N   UNL A   1      43.977  27.011  31.156  1.00  0.00    -0.248 NA
ATOM     55  C   UNL A   1      45.361  25.373  30.226  1.00  0.00     0.031 C 
ATOM     56  C   UNL A   1      45.039  29.454  34.712  1.00  0.00     0.029 A 
ATOM     57  C   UNL A   1      44.735  28.683  33.602  1.00  0.00     0.049 A 
ATOM     58  H   UNL A   1      43.027  28.752  32.365  1.00  0.00     0.167 HD
ATOM     59  C   UNL A   1      45.145  26.918  31.908  1.00  0.00     0.074 A 
ATOM     60  C   UNL A   1      45.943  25.867  31.311  1.00  0.00     0.031 C 
ATOM     61  C   UNL A   1      45.521  27.635  32.997  1.00  0.00     0.031 A 
BRANCH  48  62
ATOM     62  C   UNL A   1      41.439  31.956  34.712  1.00  0.00    -0.014 A 
ATOM     63  C   UNL A   1      41.863  33.274  34.467  1.00  0.00     0.010 A 
ATOM     64  C   UNL A   1      40.637  31.697  35.840  1.00  0.00     0.010 A 
ATOM     65  C   UNL A   1      41.524  34.304  35.348  1.00  0.00     0.020 A 
ATOM     66  C   UNL A   1      40.267  32.730  36.706  1.00  0.00     0.020 A 
ATOM     67  C   UNL A   1      40.726  34.025  36.462  1.00  0.00     0.054 A 
BRANCH  67  68
ATOM     68  S   UNL A   1      40.277  35.387  37.572  1.00  0.00     0.124 S 
ATOM     69  O   UNL A   1      39.190  34.797  38.350  1.00  0.00    -0.237 OA
ATOM     70  O   UNL A   1      41.517  35.624  38.306  1.00  0.00    -0.237 OA
ATOM     71  O   UNL A   1      39.878  36.460  36.663  1.00  0.00    -0.744 OA
ENDBRANCH  67  68
ENDBRANCH  48  62
BRANCH  49  72
ATOM     72  C   UNL A   1      43.425  24.683  28.133  1.00  0.00    -0.014 A 
ATOM     73  C   UNL A   1      44.068  24.998  26.924  1.00  0.00     0.010 A 
ATOM     74  C   UNL A   1      43.081  23.342  28.392  1.00  0.00     0.010 A 
ATOM     75  C   UNL A   1      44.344  23.999  25.986  1.00  0.00     0.020 A 
ATOM     76  C   UNL A   1      43.386  22.335  27.474  1.00  0.00     0.020 A 
ATOM     77  C   UNL A   1      44.006  22.673  26.270  1.00  0.00     0.054 A 
BRANCH  77  78
ATOM     78  S   UNL A   1      44.421  21.387  25.059  1.00  0.00     0.124 S 
ATOM     79  O   UNL A   1      44.230  22.089  23.793  1.00  0.00    -0.237 OA
ATOM     80  O   UNL A   1      45.803  21.067  25.406  1.00  0.00    -0.237 OA
ATOM     81  O   UNL A   1      43.455  20.328  25.340  1.00  0.00    -0.744 OA
ENDBRANCH  77  78
ENDBRANCH  49  72
BRANCH  61  82
ATOM     82  C   UNL A   1      46.834  27.280  33.648  1.00  0.00    -0.014 A 
ATOM     83  C   UNL A   1      46.979  26.121  34.431  1.00  0.00     0.010 A 
ATOM     84  C   UNL A   1      47.959  28.098  33.424  1.00  0.00     0.010 A 
ATOM     85  C   UNL A   1      48.214  25.806  35.006  1.00  0.00     0.020 A 
ATOM     86  C   UNL A   1      49.202  27.768  33.968  1.00  0.00     0.020 A 
ATOM     87  C   UNL A   1      49.317  26.631  34.770  1.00  0.00     0.054 A 
BRANCH  87  88
ATOM     88  S   UNL A   1      50.917  26.177  35.494  1.00  0.00     0.124 S 
ATOM     89  O   UNL A   1      51.189  24.895  34.850  1.00  0.00    -0.237 OA
ATOM     90  O   UNL A   1      51.778  27.283  35.084  1.00  0.00    -0.237 OA
ATOM     91  O   UNL A   1      50.643  26.106  36.928  1.00  0.00    -0.744 OA
ENDBRANCH  87  88
ENDBRANCH  61  82
ENDBRANCH  35  36
ENDBRANCH  28  30
ENDBRANCH  27  28
ENDBRANCH  26  27
ENDBRANCH   1  26
TORSDOF 20
ENDMDL
MODEL 2
REMARK VINA RESULT:      -9.7      3.905      7.464
REMARK SMILES C[C@@H]1[C@@H](C(=O)OCCOCCOC(=O)c2ccc(-c3c4nc(c(-c5ccc(S(=O)(=O)[O-])cc5)c5ccc([nH]5)c(-c5ccc(S(=O)(=O)[O-])cc5)c5nc(c(-c6ccc(S(=O)(=O)[O-])cc6)c6ccc3[nH]6)C=C5)C=C4)cc2)CCN1c1ccc(C(F)(F)F)cc1C#N
REMARK SMILES IDX 10 1 9 2 8 3 7 4 6 5 4 6 5 7 3 8 1 9 2 10 77 11 75 12 76 13
REMARK SMILES IDX 78 14 79 15 87 16 80 17 86 18 81 19 88 20 89 21 82 22 83 23
REMARK SMILES IDX 84 24 85 25 11 26 12 27 13 28 14 29 15 30 16 31 74 32 17 33
REMARK SMILES IDX 73 34 18 35 19 36 20 37 67 38 21 39 72 40 66 41 68 42 22 43
REMARK SMILES IDX 71 44 65 45 64 46 23 48 53 49 34 50 52 51 35 52 38 53 51 54
REMARK SMILES IDX 69 55 36 56 37 57 50 59 70 60 39 61 24 62 25 63 33 64 26 65
REMARK SMILES IDX 32 66 27 67 28 68 29 69 30 70 31 71 54 72 55 73 63 74 56 75
REMARK SMILES IDX 62 76 57 77 58 78 59 79 60 80 61 81 40 82 41 83 49 84 42 85
REMARK SMILES IDX 48 86 43 87 44 88 45 89 46 90 47 91
REMARK H PARENT 68 47 38 58
REMARK Flexibility Score: inf
ROOT
ATOM      1  C   UNL A   1      34.898  33.402  30.049  1.00  0.00     0.202 C 
ENDROOT
BRANCH   1   2
ATOM      2  O   UNL A   1      36.314  33.246  30.061  1.00  0.00    -0.374 OA
BRANCH   2   3
ATOM      3  C   UNL A   1      37.087  33.915  31.051  1.00  0.00     0.202 C 
BRANCH   3   4
ATOM      4  C   UNL A   1      37.629  33.128  32.249  1.00  0.00     0.261 C 
BRANCH   4   5
ATOM      5  O   UNL A   1      37.824  33.958  33.399  1.00  0.00    -0.463 OA
BRANCH   5   6
ATOM      6  C   UNL A   1      37.184  33.507  34.514  1.00  0.00     0.311 C 
ATOM      7  O   UNL A   1      36.231  32.740  34.498  1.00  0.00    -0.252 OA
BRANCH   6   8
ATOM      8  C   UNL A   1      37.904  33.980  35.762  1.00  0.00     0.123 C 
ATOM      9  C   UNL A   1      40.268  34.585  36.415  1.00  0.00     0.032 C 
ATOM     10  C   UNL A   1      39.388  33.595  35.653  1.00  0.00     0.093 C 
ATOM     11  N   UNL A   1      39.438  32.256  36.280  1.00  0.00    -0.367 N 
ATOM     12  C   UNL A   1      37.432  33.263  37.015  1.00  0.00     0.039 C 
ATOM     13  C   UNL A   1      38.149  31.924  36.914  1.00  0.00     0.118 C 
BRANCH  11  14
ATOM     14  C   UNL A   1      40.133  31.247  35.617  1.00  0.00     0.055 A 
ATOM     15  C   UNL A   1      39.633  30.679  34.429  1.00  0.00     0.028 A 
ATOM     16  C   UNL A   1      41.355  30.748  36.103  1.00  0.00     0.076 A 
ATOM     17  C   UNL A   1      40.279  29.619  33.785  1.00  0.00     0.015 A 
ATOM     18  C   UNL A   1      42.008  29.687  35.451  1.00  0.00     0.034 A 
ATOM     19  C   UNL A   1      41.466  29.096  34.301  1.00  0.00     0.057 A 
BRANCH  16  20
ATOM     20  C   UNL A   1      41.961  31.270  37.299  1.00  0.00     0.101 C 
ATOM     21  N   UNL A   1      42.477  31.743  38.221  1.00  0.00    -0.192 NA
ENDBRANCH  16  20
BRANCH  19  22
ATOM     22  C   UNL A   1      42.120  27.907  33.647  1.00  0.00     0.416 C 
ATOM     23  F   UNL A   1      41.792  26.734  34.258  1.00  0.00    -0.166 F 
ATOM     24  F   UNL A   1      41.768  27.761  32.341  1.00  0.00    -0.166 F 
ATOM     25  F   UNL A   1      43.481  27.962  33.662  1.00  0.00    -0.166 F 
ENDBRANCH  19  22
ENDBRANCH  11  14
ENDBRANCH   6   8
ENDBRANCH   5   6
ENDBRANCH   4   5
ENDBRANCH   3   4
ENDBRANCH   2   3
ENDBRANCH   1   2
BRANCH   1  26
ATOM     26  C   UNL A   1      34.090  33.114  28.774  1.00  0.00     0.261 C 
BRANCH  26  27
ATOM     27  O   UNL A   1      34.785  32.327  27.796  1.00  0.00    -0.460 OA
BRANCH  27  28
ATOM     28  C   UNL A   1      34.546  30.993  27.893  1.00  0.00     0.338 C 
ATOM     29  O   UNL A   1      33.497  30.417  27.664  1.00  0.00    -0.246 OA
BRANCH  28  30
ATOM     30  C   UNL A   1      35.810  30.272  28.122  1.00  0.00     0.060 A 
ATOM     31  C   UNL A   1      36.046  29.759  29.405  1.00  0.00     0.016 A 
ATOM     32  C   UNL A   1      36.785  30.189  27.129  1.00  0.00     0.016 A 
ATOM     33  C   UNL A   1      37.279  29.194  29.712  1.00  0.00     0.010 A 
ATOM     34  C   UNL A   1      38.027  29.631  27.444  1.00  0.00     0.010 A 
ATOM     35  C   UNL A   1      38.292  29.165  28.745  1.00  0.00    -0.014 A 
BRANCH  35  36
ATOM     36  C   UNL A   1      39.666  28.777  29.138  1.00  0.00     0.031 A 
ATOM     37  C   UNL A   1      40.518  29.767  29.887  1.00  0.00     0.074 A 
ATOM     38  C   UNL A   1      40.137  27.549  28.857  1.00  0.00     0.049 A 
ATOM     39  N   UNL A   1      41.757  29.653  30.288  1.00  0.00    -0.248 NA
ATOM     40  C   UNL A   1      39.892  31.056  30.224  1.00  0.00     0.031 C 
ATOM     41  C   UNL A   1      39.386  26.490  28.182  1.00  0.00     0.029 A 
ATOM     42  N   UNL A   1      41.365  26.989  29.101  1.00  0.00    -0.354 N 
ATOM     43  C   UNL A   1      42.066  30.857  30.909  1.00  0.00     0.074 A 
ATOM     44  C   UNL A   1      40.894  31.700  30.804  1.00  0.00     0.031 C 
ATOM     45  C   UNL A   1      40.173  25.408  28.064  1.00  0.00     0.029 A 
ATOM     46  C   UNL A   1      41.492  25.711  28.612  1.00  0.00     0.049 A 
ATOM     47  H   UNL A   1      42.085  27.457  29.581  1.00  0.00     0.167 HD
ATOM     48  C   UNL A   1      43.219  31.226  31.517  1.00  0.00     0.031 A 
ATOM     49  C   UNL A   1      42.561  24.889  28.585  1.00  0.00     0.031 A 
ATOM     50  C   UNL A   1      44.384  30.385  31.605  1.00  0.00     0.049 A 
ATOM     51  C   UNL A   1      43.859  25.354  29.194  1.00  0.00     0.074 A 
ATOM     52  C   UNL A   1      45.596  30.658  32.215  1.00  0.00     0.029 A 
ATOM     53  N   UNL A   1      44.488  29.113  31.063  1.00  0.00    -0.354 N 
ATOM     54  N   UNL A   1      44.128  26.486  29.800  1.00  0.00    -0.248 NA
ATOM     55  C   UNL A   1      44.994  24.423  29.125  1.00  0.00     0.031 C 
ATOM     56  C   UNL A   1      46.456  29.581  31.977  1.00  0.00     0.029 A 
ATOM     57  C   UNL A   1      45.754  28.601  31.293  1.00  0.00     0.049 A 
ATOM     58  H   UNL A   1      43.767  28.643  30.584  1.00  0.00     0.167 HD
ATOM     59  C   UNL A   1      45.453  26.389  30.214  1.00  0.00     0.074 A 
ATOM     60  C   UNL A   1      45.923  25.082  29.804  1.00  0.00     0.031 C 
ATOM     61  C   UNL A   1      46.211  27.298  30.878  1.00  0.00     0.031 A 
BRANCH  48  62
ATOM     62  C   UNL A   1      43.293  32.615  32.098  1.00  0.00    -0.014 A 
ATOM     63  C   UNL A   1      42.997  32.863  33.451  1.00  0.00     0.010 A 
ATOM     64  C   UNL A   1      43.714  33.685  31.285  1.00  0.00     0.010 A 
ATOM     65  C   UNL A   1      43.084  34.158  33.970  1.00  0.00     0.020 A 
ATOM     66  C   UNL A   1      43.835  34.975  31.808  1.00  0.00     0.020 A 
ATOM     67  C   UNL A   1      43.504  35.207  33.144  1.00  0.00     0.054 A 
BRANCH  67  68
ATOM     68  S   UNL A   1      43.638  36.870  33.853  1.00  0.00     0.124 S 
ATOM     69  O   UNL A   1      42.322  37.043  34.465  1.00  0.00    -0.237 OA
ATOM     70  O   UNL A   1      44.751  36.730  34.789  1.00  0.00    -0.237 OA
ATOM     71  O   UNL A   1      43.902  37.722  32.696  1.00  0.00    -0.744 OA
ENDBRANCH  67  68
ENDBRANCH  48  62
BRANCH  49  72
ATOM     72  C   UNL A   1      42.455  23.552  27.940  1.00  0.00    -0.014 A 
ATOM     73  C   UNL A   1      43.034  23.312  26.682  1.00  0.00     0.010 A 
ATOM     74  C   UNL A   1      41.766  22.506  28.585  1.00  0.00     0.010 A 
ATOM     75  C   UNL A   1      42.911  22.059  26.073  1.00  0.00     0.020 A 
ATOM     76  C   UNL A   1      41.671  21.244  27.996  1.00  0.00     0.020 A 
ATOM     77  C   UNL A   1      42.235  21.032  26.737  1.00  0.00     0.054 A 
BRANCH  77  78
ATOM     78  S   UNL A   1      42.135  19.401  25.949  1.00  0.00     0.124 S 
ATOM     79  O   UNL A   1      40.702  19.267  25.708  1.00  0.00    -0.237 OA
ATOM     80  O   UNL A   1      42.965  19.577  24.760  1.00  0.00    -0.237 OA
ATOM     81  O   UNL A   1      42.688  18.499  26.957  1.00  0.00    -0.744 OA
ENDBRANCH  77  78
ENDBRANCH  49  72
BRANCH  61  82
ATOM     82  C   UNL A   1      47.617  26.898  31.246  1.00  0.00    -0.014 A 
ATOM     83  C   UNL A   1      47.906  26.254  32.463  1.00  0.00     0.010 A 
ATOM     84  C   UNL A   1      48.662  27.124  30.330  1.00  0.00     0.010 A 
ATOM     85  C   UNL A   1      49.217  25.878  32.771  1.00  0.00     0.020 A 
ATOM     86  C   UNL A   1      49.967  26.718  30.618  1.00  0.00     0.020 A 
ATOM     87  C   UNL A   1      50.238  26.110  31.845  1.00  0.00     0.054 A 
BRANCH  87  88
ATOM     88  S   UNL A   1      51.922  25.574  32.252  1.00  0.00     0.124 S 
ATOM     89  O   UNL A   1      51.715  24.177  32.623  1.00  0.00    -0.237 OA
ATOM     90  O   UNL A   1      52.638  25.792  30.997  1.00  0.00    -0.237 OA
ATOM     91  O   UNL A   1      52.314  26.456  33.348  1.00  0.00    -0.744 OA
ENDBRANCH  87  88
ENDBRANCH  61  82
ENDBRANCH  35  36
ENDBRANCH  28  30
ENDBRANCH  27  28
ENDBRANCH  26  27
ENDBRANCH   1  26
TORSDOF 20
ENDMDL
MODEL 3
REMARK VINA RESULT:      -9.6      2.192      8.074
REMARK SMILES C[C@@H]1[C@@H](C(=O)OCCOCCOC(=O)c2ccc(-c3c4nc(c(-c5ccc(S(=O)(=O)[O-])cc5)c5ccc([nH]5)c(-c5ccc(S(=O)(=O)[O-])cc5)c5nc(c(-c6ccc(S(=O)(=O)[O-])cc6)c6ccc3[nH]6)C=C5)C=C4)cc2)CCN1c1ccc(C(F)(F)F)cc1C#N
REMARK SMILES IDX 10 1 9 2 8 3 7 4 6 5 4 6 5 7 3 8 1 9 2 10 77 11 75 12 76 13
REMARK SMILES IDX 78 14 79 15 87 16 80 17 86 18 81 19 88 20 89 21 82 22 83 23
REMARK SMILES IDX 84 24 85 25 11 26 12 27 13 28 14 29 15 30 16 31 74 32 17 33
REMARK SMILES IDX 73 34 18 35 19 36 20 37 67 38 21 39 72 40 66 41 68 42 22 43
REMARK SMILES IDX 71 44 65 45 64 46 23 48 53 49 34 50 52 51 35 52 38 53 51 54
REMARK SMILES IDX 69 55 36 56 37 57 50 59 70 60 39 61 24 62 25 63 33 64 26 65
REMARK SMILES IDX 32 66 27 67 28 68 29 69 30 70 31 71 54 72 55 73 63 74 56 75
REMARK SMILES IDX 62 76 57 77 58 78 59 79 60 80 61 81 40 82 41 83 49 84 42 85
REMARK SMILES IDX 48 86 43 87 44 88 45 89 46 90 47 91
REMARK H PARENT 68 47 38 58
REMARK Flexibility Score: inf
ROOT
ATOM      1  C   UNL A   1      32.957  29.035  25.342  1.00  0.00     0.202 C 
ENDROOT
BRANCH   1   2
ATOM      2  O   UNL A   1      32.857  29.353  23.957  1.00  0.00    -0.374 OA
BRANCH   2   3
ATOM      3  C   UNL A   1      32.089  28.518  23.097  1.00  0.00     0.202 C 
BRANCH   3   4
ATOM      4  C   UNL A   1      32.335  27.006  23.091  1.00  0.00     0.261 C 
BRANCH   4   5
ATOM      5  O   UNL A   1      31.241  26.277  23.657  1.00  0.00    -0.463 OA
BRANCH   5   6
ATOM      6  C   UNL A   1      31.587  25.521  24.736  1.00  0.00     0.311 C 
ATOM      7  O   UNL A   1      32.115  25.964  25.747  1.00  0.00    -0.252 OA
BRANCH   6   8
ATOM      8  C   UNL A   1      31.102  24.095  24.557  1.00  0.00     0.123 C 
ATOM      9  C   UNL A   1      31.208  21.929  25.854  1.00  0.00     0.032 C 
ATOM     10  C   UNL A   1      31.989  23.162  25.398  1.00  0.00     0.093 C 
ATOM     11  N   UNL A   1      33.069  22.784  24.460  1.00  0.00    -0.367 N 
ATOM     12  C   UNL A   1      31.287  23.590  23.136  1.00  0.00     0.039 C 
ATOM     13  C   UNL A   1      32.774  23.262  23.098  1.00  0.00     0.118 C 
BRANCH  11  14
ATOM     14  C   UNL A   1      34.383  22.844  24.916  1.00  0.00     0.055 A 
ATOM     15  C   UNL A   1      35.003  24.079  25.188  1.00  0.00     0.028 A 
ATOM     16  C   UNL A   1      35.150  21.683  25.120  1.00  0.00     0.076 A 
ATOM     17  C   UNL A   1      36.343  24.166  25.581  1.00  0.00     0.015 A 
ATOM     18  C   UNL A   1      36.495  21.770  25.522  1.00  0.00     0.034 A 
ATOM     19  C   UNL A   1      37.111  23.011  25.732  1.00  0.00     0.057 A 
BRANCH  16  20
ATOM     20  C   UNL A   1      34.608  20.370  24.888  1.00  0.00     0.101 C 
ATOM     21  N   UNL A   1      34.223  19.288  24.746  1.00  0.00    -0.192 NA
ENDBRANCH  16  20
BRANCH  19  22
ATOM     22  C   UNL A   1      38.573  23.112  26.083  1.00  0.00     0.416 C 
ATOM     23  F   UNL A   1      39.308  22.105  25.534  1.00  0.00    -0.166 F 
ATOM     24  F   UNL A   1      39.142  24.271  25.654  1.00  0.00    -0.166 F 
ATOM     25  F   UNL A   1      38.812  23.055  27.423  1.00  0.00    -0.166 F 
ENDBRANCH  19  22
ENDBRANCH  11  14
ENDBRANCH   6   8
ENDBRANCH   5   6
ENDBRANCH   4   5
ENDBRANCH   3   4
ENDBRANCH   2   3
ENDBRANCH   1   2
BRANCH   1  26
ATOM     26  C   UNL A   1      33.141  30.146  26.389  1.00  0.00     0.261 C 
BRANCH  26  27
ATOM     27  O   UNL A   1      33.770  29.716  27.604  1.00  0.00    -0.460 OA
BRANCH  27  28
ATOM     28  C   UNL A   1      34.610  30.638  28.144  1.00  0.00     0.338 C 
ATOM     29  O   UNL A   1      34.310  31.732  28.590  1.00  0.00    -0.246 OA
BRANCH  28  30
ATOM     30  C   UNL A   1      35.951  30.053  28.319  1.00  0.00     0.060 A 
ATOM     31  C   UNL A   1      36.303  29.598  29.597  1.00  0.00     0.016 A 
ATOM     32  C   UNL A   1      36.877  30.044  27.277  1.00  0.00     0.016 A 
ATOM     33  C   UNL A   1      37.601  29.167  29.849  1.00  0.00     0.010 A 
ATOM     34  C   UNL A   1      38.184  29.622  27.536  1.00  0.00     0.010 A 
ATOM     35  C   UNL A   1      38.561  29.217  28.830  1.00  0.00    -0.014 A 
BRANCH  35  36
ATOM     36  C   UNL A   1      39.986  28.979  29.157  1.00  0.00     0.031 A 
ATOM     37  C   UNL A   1      40.607  27.656  28.797  1.00  0.00     0.074 A 
ATOM     38  C   UNL A   1      40.723  29.941  29.741  1.00  0.00     0.049 A 
ATOM     39  N   UNL A   1      41.818  27.222  29.029  1.00  0.00    -0.248 NA
ATOM     40  C   UNL A   1      39.748  26.694  28.086  1.00  0.00     0.031 C 
ATOM     41  C   UNL A   1      40.243  31.278  30.089  1.00  0.00     0.029 A 
ATOM     42  N   UNL A   1      42.033  29.935  30.148  1.00  0.00    -0.354 N 
ATOM     43  C   UNL A   1      41.864  25.933  28.508  1.00  0.00     0.074 A 
ATOM     44  C   UNL A   1      40.549  25.645  27.978  1.00  0.00     0.031 C 
ATOM     45  C   UNL A   1      41.247  31.964  30.661  1.00  0.00     0.029 A 
ATOM     46  C   UNL A   1      42.422  31.102  30.761  1.00  0.00     0.049 A 
ATOM     47  H   UNL A   1      42.635  29.168  30.013  1.00  0.00     0.167 HD
ATOM     48  C   UNL A   1      42.908  25.071  28.472  1.00  0.00     0.031 A 
ATOM     49  C   UNL A   1      43.587  31.427  31.358  1.00  0.00     0.031 A 
ATOM     50  C   UNL A   1      44.210  25.363  29.014  1.00  0.00     0.049 A 
ATOM     51  C   UNL A   1      44.708  30.420  31.378  1.00  0.00     0.074 A 
ATOM     52  C   UNL A   1      45.340  24.565  29.012  1.00  0.00     0.029 A 
ATOM     53  N   UNL A   1      44.554  26.541  29.663  1.00  0.00    -0.354 N 
ATOM     54  N   UNL A   1      44.744  29.215  30.860  1.00  0.00    -0.248 NA
ATOM     55  C   UNL A   1      45.948  30.824  32.054  1.00  0.00     0.031 C 
ATOM     56  C   UNL A   1      46.344  25.229  29.723  1.00  0.00     0.029 A 
ATOM     57  C   UNL A   1      45.868  26.476  30.095  1.00  0.00     0.049 A 
ATOM     58  H   UNL A   1      43.952  27.308  29.795  1.00  0.00     0.167 HD
ATOM     59  C   UNL A   1      46.022  28.730  31.118  1.00  0.00     0.074 A 
ATOM     60  C   UNL A   1      46.731  29.778  31.823  1.00  0.00     0.031 C 
ATOM     61  C   UNL A   1      46.563  27.527  30.797  1.00  0.00     0.031 A 
BRANCH  48  62
ATOM     62  C   UNL A   1      42.676  23.713  27.861  1.00  0.00    -0.014 A 
ATOM     63  C   UNL A   1      43.158  23.390  26.580  1.00  0.00     0.010 A 
ATOM     64  C   UNL A   1      42.002  22.725  28.605  1.00  0.00     0.010 A 
ATOM     65  C   UNL A   1      42.940  22.120  26.039  1.00  0.00     0.020 A 
ATOM     66  C   UNL A   1      41.812  21.443  28.081  1.00  0.00     0.020 A 
ATOM     67  C   UNL A   1      42.269  21.153  26.795  1.00  0.00     0.054 A 
BRANCH  67  68
ATOM     68  S   UNL A   1      42.028  19.505  26.080  1.00  0.00     0.124 S 
ATOM     69  O   UNL A   1      42.814  19.591  24.852  1.00  0.00    -0.237 OA
ATOM     70  O   UNL A   1      42.573  18.626  27.112  1.00  0.00    -0.237 OA
ATOM     71  O   UNL A   1      40.583  19.415  25.887  1.00  0.00    -0.744 OA
ENDBRANCH  67  68
ENDBRANCH  48  62
BRANCH  49  72
ATOM     72  C   UNL A   1      43.743  32.758  32.006  1.00  0.00    -0.014 A 
ATOM     73  C   UNL A   1      43.438  32.937  33.366  1.00  0.00     0.010 A 
ATOM     74  C   UNL A   1      44.199  33.861  31.258  1.00  0.00     0.010 A 
ATOM     75  C   UNL A   1      43.567  34.196  33.960  1.00  0.00     0.020 A 
ATOM     76  C   UNL A   1      44.363  35.112  31.857  1.00  0.00     0.020 A 
ATOM     77  C   UNL A   1      44.035  35.274  33.203  1.00  0.00     0.054 A 
BRANCH  77  78
ATOM     78  S   UNL A   1      44.244  36.884  34.012  1.00  0.00     0.124 S 
ATOM     79  O   UNL A   1      45.093  37.594  33.061  1.00  0.00    -0.237 OA
ATOM     80  O   UNL A   1      42.867  37.362  34.116  1.00  0.00    -0.237 OA
ATOM     81  O   UNL A   1      44.875  36.547  35.286  1.00  0.00    -0.744 OA
ENDBRANCH  77  78
ENDBRANCH  49  72
BRANCH  61  82
ATOM     82  C   UNL A   1      48.006  27.291  31.162  1.00  0.00    -0.014 A 
ATOM     83  C   UNL A   1      48.370  26.702  32.386  1.00  0.00     0.010 A 
ATOM     84  C   UNL A   1      49.015  27.616  30.235  1.00  0.00     0.010 A 
ATOM     85  C   UNL A   1      49.716  26.477  32.690  1.00  0.00     0.020 A 
ATOM     86  C   UNL A   1      50.358  27.360  30.520  1.00  0.00     0.020 A 
ATOM     87  C   UNL A   1      50.701  26.806  31.754  1.00  0.00     0.054 A 
BRANCH  87  88
ATOM     88  S   UNL A   1      52.436  26.464  32.157  1.00  0.00     0.124 S 
ATOM     89  O   UNL A   1      52.952  27.801  32.438  1.00  0.00    -0.237 OA
ATOM     90  O   UNL A   1      52.326  25.577  33.311  1.00  0.00    -0.237 OA
ATOM     91  O   UNL A   1      52.959  25.838  30.944  1.00  0.00    -0.744 OA
ENDBRANCH  87  88
ENDBRANCH  61  82
ENDBRANCH  35  36
ENDBRANCH  28  30
ENDBRANCH  27  28
ENDBRANCH  26  27
ENDBRANCH   1  26
TORSDOF 20
ENDMDL
