MODEL 1
REMARK VINA RESULT:     -11.5      0.000      0.000
REMARK SMILES Cc1cccc2c1N=CN1C2=[NH+]NC(=O)[C@@H]1CC(=O)OCCOCCOC(=O)c1ccc(-c2c3nc(c(-c4ccc(S(=O)(=O)[O-])cc4)c4ccc([nH]4)c(-c4ccc(S(=O)(=O)[O-])cc4)c4nc(c(-c5ccc(S(=O)(=O)[O-])cc5)c5ccc2[nH]5)C=C4)C=C3)cc1
REMARK SMILES IDX 24 1 23 2 22 3 21 4 20 5 18 6 19 7 17 8 16 9 1 10 2 11 3 12
REMARK SMILES IDX 7 13 4 14 6 15 8 16 5 17 11 18 9 19 10 20 12 21 13 22 14 24
REMARK SMILES IDX 15 26 25 27 26 28 27 29 28 30 29 31 30 32 88 33 31 34 87 35
REMARK SMILES IDX 32 36 33 37 34 38 81 39 35 40 86 41 80 42 82 43 36 44 85 45
REMARK SMILES IDX 79 46 78 47 37 49 67 50 48 51 66 52 49 53 52 54 65 55 83 56
REMARK SMILES IDX 50 57 51 58 64 60 84 61 53 62 38 63 39 64 47 65 40 66 46 67
REMARK SMILES IDX 41 68 42 69 43 70 44 71 45 72 68 73 69 74 77 75 70 76 76 77
REMARK SMILES IDX 71 78 72 79 73 80 74 81 75 82 54 83 55 84 63 85 56 86 62 87
REMARK SMILES IDX 57 88 58 89 59 90 60 91 61 92
REMARK H PARENT 12 23 13 25 82 48 52 59
REMARK Flexibility Score: inf
ROOT
ATOM      1  C   UNL A   1      39.004  21.459  26.024  1.00  0.00     0.202 C 
ENDROOT
BRANCH   1   2
ATOM      2  O   UNL A   1      37.792  22.207  25.878  1.00  0.00    -0.374 OA
BRANCH   2   3
ATOM      3  C   UNL A   1      36.991  21.934  24.728  1.00  0.00     0.202 C 
BRANCH   3   4
ATOM      4  C   UNL A   1      35.721  21.110  24.977  1.00  0.00     0.261 C 
BRANCH   4   5
ATOM      5  O   UNL A   1      34.576  21.639  24.283  1.00  0.00    -0.463 OA
BRANCH   5   6
ATOM      6  C   UNL A   1      33.546  21.995  25.085  1.00  0.00     0.310 C 
ATOM      7  O   UNL A   1      33.648  22.314  26.264  1.00  0.00    -0.252 OA
BRANCH   6   8
ATOM      8  C   UNL A   1      32.237  22.099  24.353  1.00  0.00     0.183 C 
BRANCH   8   9
ATOM      9  C   UNL A   1      31.320  23.279  24.669  1.00  0.00     0.286 C 
ATOM     10  C   UNL A   1      34.301  28.786  22.961  1.00  0.00     0.047 C 
ATOM     11  C   UNL A   1      33.308  28.502  24.053  1.00  0.00    -0.024 A 
ATOM     12  C   UNL A   1      32.868  29.547  24.882  1.00  0.00     0.006 A 
ATOM     13  C   UNL A   1      32.817  27.198  24.252  1.00  0.00     0.085 A 
ATOM     14  C   UNL A   1      31.926  29.315  25.882  1.00  0.00     0.001 A 
ATOM     15  C   UNL A   1      31.894  26.977  25.291  1.00  0.00     0.092 A 
ATOM     16  N   UNL A   1      33.236  26.167  23.380  1.00  0.00    -0.215 NA
ATOM     17  C   UNL A   1      31.429  28.031  26.083  1.00  0.00     0.019 A 
ATOM     18  C   UNL A   1      31.423  25.575  25.512  1.00  0.00     0.309 C 
ATOM     19  C   UNL A   1      32.759  24.988  23.600  1.00  0.00     0.317 C 
ATOM     20  N   UNL A   1      31.914  24.622  24.625  1.00  0.00    -0.202 N 
ATOM     21  N   UNL A   1      30.597  25.357  26.495  1.00  0.00    -0.169 N 
ATOM     22  N   UNL A   1      30.185  24.087  26.705  1.00  0.00    -0.193 N 
ATOM     23  H   UNL A   1      30.281  26.095  27.065  1.00  0.00     0.340 HD
ATOM     24  C   UNL A   1      30.529  23.005  25.945  1.00  0.00     0.300 C 
ATOM     25  H   UNL A   1      29.588  23.928  27.473  1.00  0.00     0.216 HD
ATOM     26  O   UNL A   1      30.120  21.882  26.249  1.00  0.00    -0.267 OA
ENDBRANCH   8   9
ENDBRANCH   6   8
ENDBRANCH   5   6
ENDBRANCH   4   5
ENDBRANCH   3   4
ENDBRANCH   2   3
ENDBRANCH   1   2
BRANCH   1  27
ATOM     27  C   UNL A   1      40.244  22.248  26.460  1.00  0.00     0.261 C 
BRANCH  27  28
ATOM     28  O   UNL A   1      39.993  23.667  26.507  1.00  0.00    -0.460 OA
BRANCH  28  29
ATOM     29  C   UNL A   1      41.106  24.421  26.674  1.00  0.00     0.338 C 
ATOM     30  O   UNL A   1      42.225  24.173  26.248  1.00  0.00    -0.246 OA
BRANCH  29  31
ATOM     31  C   UNL A   1      40.809  25.629  27.464  1.00  0.00     0.060 A 
ATOM     32  C   UNL A   1      41.642  26.754  27.416  1.00  0.00     0.016 A 
ATOM     33  C   UNL A   1      39.782  25.562  28.401  1.00  0.00     0.016 A 
ATOM     34  C   UNL A   1      41.458  27.804  28.328  1.00  0.00     0.010 A 
ATOM     35  C   UNL A   1      39.593  26.619  29.296  1.00  0.00     0.010 A 
ATOM     36  C   UNL A   1      40.445  27.738  29.295  1.00  0.00    -0.014 A 
BRANCH  36  37
ATOM     37  C   UNL A   1      40.349  28.735  30.402  1.00  0.00     0.031 A 
ATOM     38  C   UNL A   1      41.257  28.587  31.600  1.00  0.00     0.074 A 
ATOM     39  C   UNL A   1      39.458  29.747  30.379  1.00  0.00     0.049 A 
ATOM     40  N   UNL A   1      41.264  29.261  32.723  1.00  0.00    -0.248 NA
ATOM     41  C   UNL A   1      42.278  27.527  31.536  1.00  0.00     0.031 C 
ATOM     42  C   UNL A   1      38.511  30.027  29.301  1.00  0.00     0.029 A 
ATOM     43  N   UNL A   1      39.200  30.728  31.309  1.00  0.00    -0.354 N 
ATOM     44  C   UNL A   1      42.256  28.683  33.506  1.00  0.00     0.074 A 
ATOM     45  C   UNL A   1      42.806  27.581  32.751  1.00  0.00     0.031 C 
ATOM     46  C   UNL A   1      37.776  31.105  29.629  1.00  0.00     0.029 A 
ATOM     47  C   UNL A   1      38.181  31.581  30.950  1.00  0.00     0.049 A 
ATOM     48  H   UNL A   1      39.698  30.813  32.154  1.00  0.00     0.167 HD
ATOM     49  C   UNL A   1      42.698  29.048  34.732  1.00  0.00     0.031 A 
ATOM     50  C   UNL A   1      37.624  32.618  31.608  1.00  0.00     0.031 A 
ATOM     51  C   UNL A   1      42.227  30.189  35.464  1.00  0.00     0.049 A 
ATOM     52  C   UNL A   1      38.142  33.021  32.964  1.00  0.00     0.074 A 
ATOM     53  C   UNL A   1      42.686  30.677  36.675  1.00  0.00     0.029 A 
ATOM     54  N   UNL A   1      41.213  31.033  35.048  1.00  0.00    -0.354 N 
ATOM     55  N   UNL A   1      39.102  32.475  33.672  1.00  0.00    -0.248 NA
ATOM     56  C   UNL A   1      37.511  34.185  33.607  1.00  0.00     0.031 C 
ATOM     57  C   UNL A   1      41.932  31.805  37.004  1.00  0.00     0.029 A 
ATOM     58  C   UNL A   1      41.026  32.035  35.981  1.00  0.00     0.049 A 
ATOM     59  H   UNL A   1      40.701  30.934  34.212  1.00  0.00     0.167 HD
ATOM     60  C   UNL A   1      39.205  33.243  34.827  1.00  0.00     0.074 A 
ATOM     61  C   UNL A   1      38.214  34.292  34.729  1.00  0.00     0.031 C 
ATOM     62  C   UNL A   1      40.052  33.088  35.872  1.00  0.00     0.031 A 
BRANCH  49  63
ATOM     63  C   UNL A   1      43.781  28.217  35.360  1.00  0.00    -0.014 A 
ATOM     64  C   UNL A   1      45.136  28.539  35.166  1.00  0.00     0.010 A 
ATOM     65  C   UNL A   1      43.439  27.153  36.213  1.00  0.00     0.010 A 
ATOM     66  C   UNL A   1      46.133  27.795  35.800  1.00  0.00     0.020 A 
ATOM     67  C   UNL A   1      44.433  26.420  36.866  1.00  0.00     0.020 A 
ATOM     68  C   UNL A   1      45.775  26.744  36.649  1.00  0.00     0.054 A 
BRANCH  68  69
ATOM     69  S   UNL A   1      47.096  25.824  37.485  1.00  0.00     0.124 S 
ATOM     70  O   UNL A   1      46.450  24.541  37.752  1.00  0.00    -0.237 OA
ATOM     71  O   UNL A   1      48.149  25.799  36.474  1.00  0.00    -0.237 OA
ATOM     72  O   UNL A   1      47.387  26.629  38.669  1.00  0.00    -0.744 OA
ENDBRANCH  68  69
ENDBRANCH  49  63
BRANCH  50  73
ATOM     73  C   UNL A   1      36.501  33.371  30.989  1.00  0.00    -0.014 A 
ATOM     74  C   UNL A   1      35.286  33.530  31.677  1.00  0.00     0.010 A 
ATOM     75  C   UNL A   1      36.641  33.930  29.706  1.00  0.00     0.010 A 
ATOM     76  C   UNL A   1      34.225  34.225  31.088  1.00  0.00     0.020 A 
ATOM     77  C   UNL A   1      35.589  34.640  29.121  1.00  0.00     0.020 A 
ATOM     78  C   UNL A   1      34.386  34.780  29.816  1.00  0.00     0.054 A 
BRANCH  78  79
ATOM     79  S   UNL A   1      33.000  35.699  29.090  1.00  0.00     0.124 S 
ATOM     80  O   UNL A   1      33.683  36.783  28.389  1.00  0.00    -0.237 OA
ATOM     81  O   UNL A   1      32.373  34.691  28.240  1.00  0.00    -0.237 OA
ATOM     82  O   UNL A   1      32.212  36.107  30.251  1.00  0.00    -0.744 OA
ENDBRANCH  78  79
ENDBRANCH  50  73
BRANCH  62  83
ATOM     83  C   UNL A   1      39.990  34.078  37.001  1.00  0.00    -0.014 A 
ATOM     84  C   UNL A   1      40.633  35.323  36.901  1.00  0.00     0.010 A 
ATOM     85  C   UNL A   1      39.156  33.819  38.105  1.00  0.00     0.010 A 
ATOM     86  C   UNL A   1      40.432  36.299  37.879  1.00  0.00     0.020 A 
ATOM     87  C   UNL A   1      38.941  34.799  39.078  1.00  0.00     0.020 A 
ATOM     88  C   UNL A   1      39.576  36.037  38.955  1.00  0.00     0.054 A 
BRANCH  88  89
ATOM     89  S   UNL A   1      39.261  37.360  40.155  1.00  0.00     0.124 S 
ATOM     90  O   UNL A   1      38.561  36.649  41.222  1.00  0.00    -0.237 OA
ATOM     91  O   UNL A   1      40.610  37.814  40.483  1.00  0.00    -0.237 OA
ATOM     92  O   UNL A   1      38.447  38.319  39.412  1.00  0.00    -0.744 OA
ENDBRANCH  88  89
ENDBRANCH  62  83
ENDBRANCH  36  37
ENDBRANCH  29  31
ENDBRANCH  28  29
ENDBRANCH  27  28
ENDBRANCH   1  27
TORSDOF 18
ENDMDL
MODEL 2
REMARK VINA RESULT:     -11.4      1.670      2.202
REMARK SMILES Cc1cccc2c1N=CN1C2=[NH+]NC(=O)[C@@H]1CC(=O)OCCOCCOC(=O)c1ccc(-c2c3nc(c(-c4ccc(S(=O)(=O)[O-])cc4)c4ccc([nH]4)c(-c4ccc(S(=O)(=O)[O-])cc4)c4nc(c(-c5ccc(S(=O)(=O)[O-])cc5)c5ccc2[nH]5)C=C4)C=C3)cc1
REMARK SMILES IDX 24 1 23 2 22 3 21 4 20 5 18 6 19 7 17 8 16 9 1 10 2 11 3 12
REMARK SMILES IDX 7 13 4 14 6 15 8 16 5 17 11 18 9 19 10 20 12 21 13 22 14 24
REMARK SMILES IDX 15 26 25 27 26 28 27 29 28 30 29 31 30 32 88 33 31 34 87 35
REMARK SMILES IDX 32 36 33 37 34 38 81 39 35 40 86 41 80 42 82 43 36 44 85 45
REMARK SMILES IDX 79 46 78 47 37 49 67 50 48 51 66 52 49 53 52 54 65 55 83 56
REMARK SMILES IDX 50 57 51 58 64 60 84 61 53 62 38 63 39 64 47 65 40 66 46 67
REMARK SMILES IDX 41 68 42 69 43 70 44 71 45 72 68 73 69 74 77 75 70 76 76 77
REMARK SMILES IDX 71 78 72 79 73 80 74 81 75 82 54 83 55 84 63 85 56 86 62 87
REMARK SMILES IDX 57 88 58 89 59 90 60 91 61 92
REMARK H PARENT 12 23 13 25 82 48 52 59
REMARK Flexibility Score: inf
ROOT
ATOM      1  C   UNL A   1      38.910  22.208  26.065  1.00  0.00     0.202 C 
ENDROOT
BRANCH   1   2
ATOM      2  O   UNL A   1      37.556  22.568  25.766  1.00  0.00    -0.374 OA
BRANCH   2   3
ATOM      3  C   UNL A   1      36.638  21.502  25.521  1.00  0.00     0.202 C 
BRANCH   3   4
ATOM      4  C   UNL A   1      35.152  21.847  25.689  1.00  0.00     0.261 C 
BRANCH   4   5
ATOM      5  O   UNL A   1      34.428  21.787  24.446  1.00  0.00    -0.463 OA
BRANCH   5   6
ATOM      6  C   UNL A   1      34.113  22.993  23.918  1.00  0.00     0.310 C 
ATOM      7  O   UNL A   1      34.582  23.454  22.884  1.00  0.00    -0.252 OA
BRANCH   6   8
ATOM      8  C   UNL A   1      33.004  23.688  24.657  1.00  0.00     0.183 C 
BRANCH   8   9
ATOM      9  C   UNL A   1      32.540  25.053  24.153  1.00  0.00     0.286 C 
ATOM     10  C   UNL A   1      35.239  29.684  27.815  1.00  0.00     0.047 C 
ATOM     11  C   UNL A   1      33.921  29.642  27.092  1.00  0.00    -0.024 A 
ATOM     12  C   UNL A   1      33.070  30.759  27.134  1.00  0.00     0.006 A 
ATOM     13  C   UNL A   1      33.534  28.496  26.375  1.00  0.00     0.085 A 
ATOM     14  C   UNL A   1      31.858  30.758  26.448  1.00  0.00     0.001 A 
ATOM     15  C   UNL A   1      32.290  28.499  25.718  1.00  0.00     0.092 A 
ATOM     16  N   UNL A   1      34.423  27.398  26.305  1.00  0.00    -0.215 NA
ATOM     17  C   UNL A   1      31.469  29.631  25.730  1.00  0.00     0.019 A 
ATOM     18  C   UNL A   1      31.880  27.252  25.003  1.00  0.00     0.309 C 
ATOM     19  C   UNL A   1      34.025  26.368  25.636  1.00  0.00     0.317 C 
ATOM     20  N   UNL A   1      32.805  26.213  25.015  1.00  0.00    -0.202 N 
ATOM     21  N   UNL A   1      30.714  27.236  24.424  1.00  0.00    -0.169 N 
ATOM     22  N   UNL A   1      30.336  26.102  23.792  1.00  0.00    -0.193 N 
ATOM     23  H   UNL A   1      30.126  28.025  24.445  1.00  0.00     0.340 HD
ATOM     24  C   UNL A   1      31.095  24.973  23.668  1.00  0.00     0.300 C 
ATOM     25  H   UNL A   1      29.438  26.088  23.388  1.00  0.00     0.216 HD
ATOM     26  O   UNL A   1      30.637  23.980  23.097  1.00  0.00    -0.267 OA
ENDBRANCH   8   9
ENDBRANCH   6   8
ENDBRANCH   5   6
ENDBRANCH   4   5
ENDBRANCH   3   4
ENDBRANCH   2   3
ENDBRANCH   1   2
BRANCH   1  27
ATOM     27  C   UNL A   1      39.730  23.237  26.854  1.00  0.00     0.261 C 
BRANCH  27  28
ATOM     28  O   UNL A   1      39.095  24.531  26.876  1.00  0.00    -0.460 OA
BRANCH  28  29
ATOM     29  C   UNL A   1      39.950  25.568  26.707  1.00  0.00     0.338 C 
ATOM     30  O   UNL A   1      40.800  25.677  25.835  1.00  0.00    -0.246 OA
BRANCH  29  31
ATOM     31  C   UNL A   1      39.735  26.601  27.736  1.00  0.00     0.060 A 
ATOM     32  C   UNL A   1      40.278  27.885  27.606  1.00  0.00     0.016 A 
ATOM     33  C   UNL A   1      39.133  26.217  28.931  1.00  0.00     0.016 A 
ATOM     34  C   UNL A   1      40.238  28.778  28.687  1.00  0.00     0.010 A 
ATOM     35  C   UNL A   1      39.081  27.117  29.999  1.00  0.00     0.010 A 
ATOM     36  C   UNL A   1      39.658  28.396  29.905  1.00  0.00    -0.014 A 
BRANCH  36  37
ATOM     37  C   UNL A   1      39.778  29.240  31.131  1.00  0.00     0.031 A 
ATOM     38  C   UNL A   1      40.918  28.983  32.088  1.00  0.00     0.074 A 
ATOM     39  C   UNL A   1      38.884  30.206  31.425  1.00  0.00     0.049 A 
ATOM     40  N   UNL A   1      41.147  29.510  33.265  1.00  0.00    -0.248 NA
ATOM     41  C   UNL A   1      41.922  27.987  31.676  1.00  0.00     0.031 C 
ATOM     42  C   UNL A   1      37.728  30.577  30.609  1.00  0.00     0.029 A 
ATOM     43  N   UNL A   1      38.808  31.050  32.510  1.00  0.00    -0.354 N 
ATOM     44  C   UNL A   1      42.290  28.882  33.745  1.00  0.00     0.074 A 
ATOM     45  C   UNL A   1      42.690  27.910  32.754  1.00  0.00     0.031 C 
ATOM     46  C   UNL A   1      37.059  31.571  31.221  1.00  0.00     0.029 A 
ATOM     47  C   UNL A   1      37.722  31.894  32.483  1.00  0.00     0.049 A 
ATOM     48  H   UNL A   1      39.470  31.050  33.238  1.00  0.00     0.167 HD
ATOM     49  C   UNL A   1      42.972  29.109  34.892  1.00  0.00     0.031 A 
ATOM     50  C   UNL A   1      37.296  32.815  33.372  1.00  0.00     0.031 A 
ATOM     51  C   UNL A   1      42.643  30.126  35.850  1.00  0.00     0.049 A 
ATOM     52  C   UNL A   1      38.078  33.066  34.635  1.00  0.00     0.074 A 
ATOM     53  C   UNL A   1      43.335  30.478  36.996  1.00  0.00     0.029 A 
ATOM     54  N   UNL A   1      41.550  30.970  35.765  1.00  0.00    -0.354 N 
ATOM     55  N   UNL A   1      39.173  32.478  35.053  1.00  0.00    -0.248 NA
ATOM     56  C   UNL A   1      37.575  34.110  35.542  1.00  0.00     0.031 C 
ATOM     57  C   UNL A   1      42.647  31.521  37.618  1.00  0.00     0.029 A 
ATOM     58  C   UNL A   1      41.543  31.837  36.842  1.00  0.00     0.049 A 
ATOM     59  H   UNL A   1      40.877  30.955  35.046  1.00  0.00     0.167 HD
ATOM     60  C   UNL A   1      39.501  33.098  36.254  1.00  0.00     0.074 A 
ATOM     61  C   UNL A   1      38.493  34.106  36.500  1.00  0.00     0.031 C 
ATOM     62  C   UNL A   1      40.550  32.851  37.074  1.00  0.00     0.031 A 
BRANCH  49  63
ATOM     63  C   UNL A   1      44.176  28.255  35.170  1.00  0.00    -0.014 A 
ATOM     64  C   UNL A   1      45.468  28.716  34.865  1.00  0.00     0.010 A 
ATOM     65  C   UNL A   1      44.019  27.014  35.812  1.00  0.00     0.010 A 
ATOM     66  C   UNL A   1      46.584  27.938  35.179  1.00  0.00     0.020 A 
ATOM     67  C   UNL A   1      45.135  26.243  36.148  1.00  0.00     0.020 A 
ATOM     68  C   UNL A   1      46.411  26.710  35.822  1.00  0.00     0.054 A 
BRANCH  68  69
ATOM     69  S   UNL A   1      47.886  25.745  36.248  1.00  0.00     0.124 S 
ATOM     70  O   UNL A   1      48.904  26.786  36.371  1.00  0.00    -0.237 OA
ATOM     71  O   UNL A   1      47.491  25.102  37.498  1.00  0.00    -0.237 OA
ATOM     72  O   UNL A   1      48.056  24.845  35.110  1.00  0.00    -0.744 OA
ENDBRANCH  68  69
ENDBRANCH  49  63
BRANCH  50  73
ATOM     73  C   UNL A   1      36.056  33.589  33.101  1.00  0.00    -0.014 A 
ATOM     74  C   UNL A   1      36.130  34.897  32.592  1.00  0.00     0.010 A 
ATOM     75  C   UNL A   1      34.794  33.021  33.356  1.00  0.00     0.010 A 
ATOM     76  C   UNL A   1      34.964  35.629  32.352  1.00  0.00     0.020 A 
ATOM     77  C   UNL A   1      33.626  33.745  33.100  1.00  0.00     0.020 A 
ATOM     78  C   UNL A   1      33.718  35.047  32.603  1.00  0.00     0.054 A 
BRANCH  78  79
ATOM     79  S   UNL A   1      32.223  36.013  32.255  1.00  0.00     0.124 S 
ATOM     80  O   UNL A   1      31.161  35.087  32.638  1.00  0.00    -0.237 OA
ATOM     81  O   UNL A   1      32.397  37.173  33.126  1.00  0.00    -0.237 OA
ATOM     82  O   UNL A   1      32.320  36.294  30.824  1.00  0.00    -0.744 OA
ENDBRANCH  78  79
ENDBRANCH  50  73
BRANCH  62  83
ATOM     83  C   UNL A   1      40.707  33.687  38.313  1.00  0.00    -0.014 A 
ATOM     84  C   UNL A   1      41.373  34.923  38.266  1.00  0.00     0.010 A 
ATOM     85  C   UNL A   1      40.052  33.301  39.497  1.00  0.00     0.010 A 
ATOM     86  C   UNL A   1      41.368  35.767  39.379  1.00  0.00     0.020 A 
ATOM     87  C   UNL A   1      40.033  34.150  40.608  1.00  0.00     0.020 A 
ATOM     88  C   UNL A   1      40.685  35.382  40.538  1.00  0.00     0.054 A 
BRANCH  88  89
ATOM     89  S   UNL A   1      40.617  36.543  41.931  1.00  0.00     0.124 S 
ATOM     90  O   UNL A   1      41.390  35.844  42.954  1.00  0.00    -0.237 OA
ATOM     91  O   UNL A   1      41.247  37.738  41.375  1.00  0.00    -0.237 OA
ATOM     92  O   UNL A   1      39.189  36.669  42.211  1.00  0.00    -0.744 OA
ENDBRANCH  88  89
ENDBRANCH  62  83
ENDBRANCH  36  37
ENDBRANCH  29  31
ENDBRANCH  28  29
ENDBRANCH  27  28
ENDBRANCH   1  27
TORSDOF 18
ENDMDL
MODEL 3
REMARK VINA RESULT:     -11.4      3.092      4.024
REMARK SMILES Cc1cccc2c1N=CN1C2=[NH+]NC(=O)[C@@H]1CC(=O)OCCOCCOC(=O)c1ccc(-c2c3nc(c(-c4ccc(S(=O)(=O)[O-])cc4)c4ccc([nH]4)c(-c4ccc(S(=O)(=O)[O-])cc4)c4nc(c(-c5ccc(S(=O)(=O)[O-])cc5)c5ccc2[nH]5)C=C4)C=C3)cc1
REMARK SMILES IDX 24 1 23 2 22 3 21 4 20 5 18 6 19 7 17 8 16 9 1 10 2 11 3 12
REMARK SMILES IDX 7 13 4 14 6 15 8 16 5 17 11 18 9 19 10 20 12 21 13 22 14 24
REMARK SMILES IDX 15 26 25 27 26 28 27 29 28 30 29 31 30 32 88 33 31 34 87 35
REMARK SMILES IDX 32 36 33 37 34 38 81 39 35 40 86 41 80 42 82 43 36 44 85 45
REMARK SMILES IDX 79 46 78 47 37 49 67 50 48 51 66 52 49 53 52 54 65 55 83 56
REMARK SMILES IDX 50 57 51 58 64 60 84 61 53 62 38 63 39 64 47 65 40 66 46 67
REMARK SMILES IDX 41 68 42 69 43 70 44 71 45 72 68 73 69 74 77 75 70 76 76 77
REMARK SMILES IDX 71 78 72 79 73 80 74 81 75 82 54 83 55 84 63 85 56 86 62 87
REMARK SMILES IDX 57 88 58 89 59 90 60 91 61 92
REMARK H PARENT 12 23 13 25 82 48 52 59
REMARK Flexibility Score: inf
ROOT
ATOM      1  C   UNL A   1      36.916  21.222  24.545  1.00  0.00     0.202 C 
ENDROOT
BRANCH   1   2
ATOM      2  O   UNL A   1      35.947  20.255  24.966  1.00  0.00    -0.374 OA
BRANCH   2   3
ATOM      3  C   UNL A   1      34.620  20.725  25.207  1.00  0.00     0.202 C 
BRANCH   3   4
ATOM      4  C   UNL A   1      34.205  21.984  24.435  1.00  0.00     0.261 C 
BRANCH   4   5
ATOM      5  O   UNL A   1      33.328  22.834  25.197  1.00  0.00    -0.463 OA
BRANCH   5   6
ATOM      6  C   UNL A   1      32.055  22.886  24.740  1.00  0.00     0.310 C 
ATOM      7  O   UNL A   1      31.073  22.462  25.340  1.00  0.00    -0.252 OA
BRANCH   6   8
ATOM      8  C   UNL A   1      31.920  23.649  23.453  1.00  0.00     0.183 C 
BRANCH   8   9
ATOM      9  C   UNL A   1      32.180  25.154  23.470  1.00  0.00     0.286 C 
ATOM     10  C   UNL A   1      26.493  28.275  23.688  1.00  0.00     0.047 C 
ATOM     11  C   UNL A   1      27.809  28.666  23.074  1.00  0.00    -0.024 A 
ATOM     12  C   UNL A   1      27.936  29.913  22.439  1.00  0.00     0.006 A 
ATOM     13  C   UNL A   1      28.911  27.794  23.129  1.00  0.00     0.085 A 
ATOM     14  C   UNL A   1      29.152  30.312  21.889  1.00  0.00     0.001 A 
ATOM     15  C   UNL A   1      30.121  28.199  22.536  1.00  0.00     0.092 A 
ATOM     16  N   UNL A   1      28.779  26.563  23.811  1.00  0.00    -0.215 NA
ATOM     17  C   UNL A   1      30.251  29.460  21.945  1.00  0.00     0.019 A 
ATOM     18  C   UNL A   1      31.265  27.237  22.566  1.00  0.00     0.309 C 
ATOM     19  C   UNL A   1      29.817  25.796  23.836  1.00  0.00     0.317 C 
ATOM     20  N   UNL A   1      31.031  26.037  23.231  1.00  0.00    -0.202 N 
ATOM     21  N   UNL A   1      32.375  27.590  21.987  1.00  0.00    -0.169 N 
ATOM     22  N   UNL A   1      33.403  26.712  22.000  1.00  0.00    -0.193 N 
ATOM     23  H   UNL A   1      32.465  28.470  21.555  1.00  0.00     0.340 HD
ATOM     24  C   UNL A   1      33.395  25.489  22.609  1.00  0.00     0.300 C 
ATOM     25  H   UNL A   1      34.227  26.975  21.529  1.00  0.00     0.216 HD
ATOM     26  O   UNL A   1      34.381  24.753  22.529  1.00  0.00    -0.267 OA
ENDBRANCH   8   9
ENDBRANCH   6   8
ENDBRANCH   5   6
ENDBRANCH   4   5
ENDBRANCH   3   4
ENDBRANCH   2   3
ENDBRANCH   1   2
BRANCH   1  27
ATOM     27  C   UNL A   1      38.219  21.276  25.352  1.00  0.00     0.261 C 
BRANCH  27  28
ATOM     28  O   UNL A   1      38.335  22.498  26.109  1.00  0.00    -0.460 OA
BRANCH  28  29
ATOM     29  C   UNL A   1      39.613  22.879  26.350  1.00  0.00     0.338 C 
ATOM     30  O   UNL A   1      40.619  22.208  26.174  1.00  0.00    -0.246 OA
BRANCH  29  31
ATOM     31  C   UNL A   1      39.660  24.256  26.874  1.00  0.00     0.060 A 
ATOM     32  C   UNL A   1      40.323  25.277  26.181  1.00  0.00     0.016 A 
ATOM     33  C   UNL A   1      39.189  24.481  28.164  1.00  0.00     0.016 A 
ATOM     34  C   UNL A   1      40.535  26.520  26.795  1.00  0.00     0.010 A 
ATOM     35  C   UNL A   1      39.388  25.728  28.764  1.00  0.00     0.010 A 
ATOM     36  C   UNL A   1      40.089  26.753  28.104  1.00  0.00    -0.014 A 
BRANCH  36  37
ATOM     37  C   UNL A   1      40.472  27.984  28.858  1.00  0.00     0.031 A 
ATOM     38  C   UNL A   1      41.824  28.040  29.530  1.00  0.00     0.074 A 
ATOM     39  C   UNL A   1      39.638  29.037  28.980  1.00  0.00     0.049 A 
ATOM     40  N   UNL A   1      42.313  28.953  30.332  1.00  0.00    -0.248 NA
ATOM     41  C   UNL A   1      42.736  26.909  29.287  1.00  0.00     0.031 C 
ATOM     42  C   UNL A   1      38.301  29.140  28.395  1.00  0.00     0.029 A 
ATOM     43  N   UNL A   1      39.796  30.226  29.655  1.00  0.00    -0.354 N 
ATOM     44  C   UNL A   1      43.565  28.487  30.715  1.00  0.00     0.074 A 
ATOM     45  C   UNL A   1      43.749  27.197  30.092  1.00  0.00     0.031 C 
ATOM     46  C   UNL A   1      37.763  30.324  28.736  1.00  0.00     0.029 A 
ATOM     47  C   UNL A   1      38.702  31.057  29.582  1.00  0.00     0.049 A 
ATOM     48  H   UNL A   1      40.617  30.460  30.145  1.00  0.00     0.167 HD
ATOM     49  C   UNL A   1      44.499  29.087  31.490  1.00  0.00     0.031 A 
ATOM     50  C   UNL A   1      38.471  32.263  30.140  1.00  0.00     0.031 A 
ATOM     51  C   UNL A   1      44.374  30.403  32.048  1.00  0.00     0.049 A 
ATOM     52  C   UNL A   1      39.529  32.923  30.984  1.00  0.00     0.074 A 
ATOM     53  C   UNL A   1      45.313  31.117  32.773  1.00  0.00     0.029 A 
ATOM     54  N   UNL A   1      43.259  31.213  31.926  1.00  0.00    -0.354 N 
ATOM     55  N   UNL A   1      40.718  32.474  31.309  1.00  0.00    -0.248 NA
ATOM     56  C   UNL A   1      39.221  34.255  31.530  1.00  0.00     0.031 C 
ATOM     57  C   UNL A   1      44.756  32.352  33.110  1.00  0.00     0.029 A 
ATOM     58  C   UNL A   1      43.482  32.416  32.568  1.00  0.00     0.049 A 
ATOM     59  H   UNL A   1      42.430  30.968  31.453  1.00  0.00     0.167 HD
ATOM     60  C   UNL A   1      41.306  33.478  32.073  1.00  0.00     0.074 A 
ATOM     61  C   UNL A   1      40.348  34.558  32.164  1.00  0.00     0.031 C 
ATOM     62  C   UNL A   1      42.534  33.496  32.641  1.00  0.00     0.031 A 
BRANCH  49  63
ATOM     63  C   UNL A   1      45.770  28.334  31.761  1.00  0.00    -0.014 A 
ATOM     64  C   UNL A   1      46.878  28.464  30.907  1.00  0.00     0.010 A 
ATOM     65  C   UNL A   1      45.882  27.550  32.924  1.00  0.00     0.010 A 
ATOM     66  C   UNL A   1      48.073  27.804  31.199  1.00  0.00     0.020 A 
ATOM     67  C   UNL A   1      47.084  26.906  33.231  1.00  0.00     0.020 A 
ATOM     68  C   UNL A   1      48.170  27.034  32.361  1.00  0.00     0.054 A 
BRANCH  68  69
ATOM     69  S   UNL A   1      49.750  26.222  32.727  1.00  0.00     0.124 S 
ATOM     70  O   UNL A   1      49.633  24.977  31.972  1.00  0.00    -0.237 OA
ATOM     71  O   UNL A   1      50.722  27.181  32.211  1.00  0.00    -0.237 OA
ATOM     72  O   UNL A   1      49.735  26.069  34.180  1.00  0.00    -0.744 OA
ENDBRANCH  68  69
ENDBRANCH  49  63
BRANCH  50  73
ATOM     73  C   UNL A   1      37.170  32.947  29.912  1.00  0.00    -0.014 A 
ATOM     74  C   UNL A   1      36.966  33.725  28.760  1.00  0.00     0.010 A 
ATOM     75  C   UNL A   1      36.129  32.826  30.852  1.00  0.00     0.010 A 
ATOM     76  C   UNL A   1      35.748  34.380  28.555  1.00  0.00     0.020 A 
ATOM     77  C   UNL A   1      34.905  33.465  30.641  1.00  0.00     0.020 A 
ATOM     78  C   UNL A   1      34.723  34.241  29.494  1.00  0.00     0.054 A 
BRANCH  78  79
ATOM     79  S   UNL A   1      33.145  35.081  29.185  1.00  0.00     0.124 S 
ATOM     80  O   UNL A   1      32.537  34.230  28.166  1.00  0.00    -0.237 OA
ATOM     81  O   UNL A   1      32.512  35.041  30.502  1.00  0.00    -0.237 OA
ATOM     82  O   UNL A   1      33.545  36.411  28.730  1.00  0.00    -0.744 OA
ENDBRANCH  78  79
ENDBRANCH  50  73
BRANCH  62  83
ATOM     83  C   UNL A   1      42.957  34.723  33.400  1.00  0.00    -0.014 A 
ATOM     84  C   UNL A   1      43.025  34.711  34.803  1.00  0.00     0.010 A 
ATOM     85  C   UNL A   1      43.433  35.844  32.695  1.00  0.00     0.010 A 
ATOM     86  C   UNL A   1      43.578  35.796  35.489  1.00  0.00     0.020 A 
ATOM     87  C   UNL A   1      44.000  36.925  33.378  1.00  0.00     0.020 A 
ATOM     88  C   UNL A   1      44.075  36.890  34.771  1.00  0.00     0.054 A 
BRANCH  88  89
ATOM     89  S   UNL A   1      44.872  38.237  35.687  1.00  0.00     0.124 S 
ATOM     90  O   UNL A   1      46.181  38.317  35.043  1.00  0.00    -0.237 OA
ATOM     91  O   UNL A   1      43.977  39.363  35.433  1.00  0.00    -0.237 OA
ATOM     92  O   UNL A   1      44.890  37.759  37.068  1.00  0.00    -0.744 OA
ENDBRANCH  88  89
ENDBRANCH  62  83
ENDBRANCH  36  37
ENDBRANCH  29  31
ENDBRANCH  28  29
ENDBRANCH  27  28
ENDBRANCH   1  27
TORSDOF 18
ENDMDL
