MODEL 1
REMARK VINA RESULT:     -11.5      0.000      0.000
REMARK SMILES O=C(OCCOCCOC(=O)[C@H]1CCCN(c2cc(-c3ccccn3)nc(-c3ccccc3F)n2)C1)c1ccc(-c2c3nc(c(-c4ccc(S(=O)(=O)[O-])cc4)c4ccc([nH]4)c(-c4ccc(S(=O)(=O)[O-])cc4)c4nc(c(-c5ccc(S(=O)(=O)[O-])cc5)c5ccc2[nH]5)C=C4)C=C3)cc1
REMARK SMILES IDX 5 1 4 2 3 3 2 4 1 5 37 6 38 7 96 8 39 9 95 10 40 11 41 12
REMARK SMILES IDX 42 13 89 14 43 15 94 16 88 17 90 18 44 19 93 20 87 21 86 22
REMARK SMILES IDX 45 24 75 25 56 26 74 27 57 28 60 29 73 30 91 31 58 32 59 33
REMARK SMILES IDX 72 35 92 36 61 37 46 38 47 39 55 40 48 41 54 42 49 43 50 44
REMARK SMILES IDX 51 45 52 46 53 47 76 48 77 49 85 50 78 51 84 52 79 53 80 54
REMARK SMILES IDX 81 55 82 56 83 57 62 58 63 59 71 60 64 61 70 62 65 63 66 64
REMARK SMILES IDX 67 65 68 66 69 67 6 68 7 69 8 70 9 71 10 72 11 73 12 74
REMARK SMILES IDX 13 75 36 76 14 77 16 78 15 79 17 80 18 81 35 82 19 83 27 84
REMARK SMILES IDX 26 85 20 86 21 87 25 88 22 89 24 90 23 91 28 92 29 93 33 94
REMARK SMILES IDX 30 95 32 96 34 97 31 98
REMARK H PARENT 90 23 60 34
REMARK Flexibility Score: inf
ROOT
ATOM      1  C   UNL A   1      34.318  29.727  27.144  1.00  0.00     0.202 C 
ENDROOT
BRANCH   1   2
ATOM      2  C   UNL A   1      34.990  30.816  27.994  1.00  0.00     0.261 C 
BRANCH   2   3
ATOM      3  O   UNL A   1      35.768  30.266  29.068  1.00  0.00    -0.460 OA
BRANCH   3   4
ATOM      4  C   UNL A   1      36.883  30.811  29.620  1.00  0.00     0.338 C 
ATOM      5  O   UNL A   1      36.765  31.774  30.373  1.00  0.00    -0.246 OA
BRANCH   4   6
ATOM      6  C   UNL A   1      38.253  30.300  29.322  1.00  0.00     0.060 A 
ATOM      7  C   UNL A   1      39.263  30.188  30.275  1.00  0.00     0.016 A 
ATOM      8  C   UNL A   1      38.520  29.833  28.028  1.00  0.00     0.016 A 
ATOM      9  C   UNL A   1      40.518  29.729  29.970  1.00  0.00     0.010 A 
ATOM     10  C   UNL A   1      39.778  29.311  27.712  1.00  0.00     0.010 A 
ATOM     11  C   UNL A   1      40.778  29.280  28.689  1.00  0.00    -0.014 A 
BRANCH  11  12
ATOM     12  C   UNL A   1      42.177  28.935  28.426  1.00  0.00     0.031 A 
ATOM     13  C   UNL A   1      42.470  27.537  27.993  1.00  0.00     0.074 A 
ATOM     14  C   UNL A   1      43.081  29.928  28.345  1.00  0.00     0.049 A 
ATOM     15  N   UNL A   1      43.614  26.995  27.688  1.00  0.00    -0.248 NA
ATOM     16  C   UNL A   1      41.313  26.630  27.860  1.00  0.00     0.031 C 
ATOM     17  C   UNL A   1      42.791  31.355  28.552  1.00  0.00     0.029 A 
ATOM     18  N   UNL A   1      44.402  29.906  28.005  1.00  0.00    -0.354 N 
ATOM     19  C   UNL A   1      43.323  25.675  27.374  1.00  0.00     0.074 A 
ATOM     20  C   UNL A   1      41.898  25.494  27.514  1.00  0.00     0.031 C 
ATOM     21  C   UNL A   1      43.901  32.069  28.307  1.00  0.00     0.029 A 
ATOM     22  C   UNL A   1      44.991  31.148  28.016  1.00  0.00     0.049 A 
ATOM     23  H   UNL A   1      44.887  29.080  27.776  1.00  0.00     0.167 HD
ATOM     24  C   UNL A   1      44.191  24.703  27.018  1.00  0.00     0.031 A 
ATOM     25  C   UNL A   1      46.283  31.482  27.852  1.00  0.00     0.031 A 
ATOM     26  C   UNL A   1      45.604  24.939  26.905  1.00  0.00     0.049 A 
ATOM     27  C   UNL A   1      47.248  30.359  27.595  1.00  0.00     0.074 A 
ATOM     28  C   UNL A   1      46.615  24.037  26.645  1.00  0.00     0.029 A 
ATOM     29  N   UNL A   1      46.199  26.188  27.050  1.00  0.00    -0.354 N 
ATOM     30  N   UNL A   1      46.992  29.082  27.411  1.00  0.00    -0.248 NA
ATOM     31  C   UNL A   1      48.670  30.707  27.541  1.00  0.00     0.031 C 
ATOM     32  C   UNL A   1      47.829  24.730  26.693  1.00  0.00     0.029 A 
ATOM     33  C   UNL A   1      47.569  26.078  26.909  1.00  0.00     0.049 A 
ATOM     34  H   UNL A   1      45.716  27.027  27.227  1.00  0.00     0.167 HD
ATOM     35  C   UNL A   1      48.221  28.475  27.197  1.00  0.00     0.074 A 
ATOM     36  C   UNL A   1      49.215  29.533  27.255  1.00  0.00     0.031 C 
ATOM     37  C   UNL A   1      48.512  27.168  26.976  1.00  0.00     0.031 A 
BRANCH  24  38
ATOM     38  C   UNL A   1      43.637  23.317  26.852  1.00  0.00    -0.014 A 
ATOM     39  C   UNL A   1      43.167  22.566  27.946  1.00  0.00     0.010 A 
ATOM     40  C   UNL A   1      43.636  22.733  25.572  1.00  0.00     0.010 A 
ATOM     41  C   UNL A   1      42.746  21.244  27.765  1.00  0.00     0.020 A 
ATOM     42  C   UNL A   1      43.190  21.423  25.384  1.00  0.00     0.020 A 
ATOM     43  C   UNL A   1      42.764  20.681  26.486  1.00  0.00     0.054 A 
BRANCH  43  44
ATOM     44  S   UNL A   1      42.211  18.966  26.279  1.00  0.00     0.124 S 
ATOM     45  O   UNL A   1      42.306  18.452  27.643  1.00  0.00    -0.237 OA
ATOM     46  O   UNL A   1      40.853  19.130  25.765  1.00  0.00    -0.237 OA
ATOM     47  O   UNL A   1      43.170  18.402  25.333  1.00  0.00    -0.744 OA
ENDBRANCH  43  44
ENDBRANCH  24  38
BRANCH  25  48
ATOM     48  C   UNL A   1      46.728  32.895  28.013  1.00  0.00    -0.014 A 
ATOM     49  C   UNL A   1      46.641  33.814  26.954  1.00  0.00     0.010 A 
ATOM     50  C   UNL A   1      47.255  33.331  29.245  1.00  0.00     0.010 A 
ATOM     51  C   UNL A   1      47.093  35.129  27.117  1.00  0.00     0.020 A 
ATOM     52  C   UNL A   1      47.677  34.651  29.423  1.00  0.00     0.020 A 
ATOM     53  C   UNL A   1      47.608  35.538  28.350  1.00  0.00     0.054 A 
BRANCH  53  54
ATOM     54  S   UNL A   1      48.172  37.253  28.543  1.00  0.00     0.124 S 
ATOM     55  O   UNL A   1      46.926  37.948  28.853  1.00  0.00    -0.237 OA
ATOM     56  O   UNL A   1      49.129  37.149  29.641  1.00  0.00    -0.237 OA
ATOM     57  O   UNL A   1      48.758  37.571  27.243  1.00  0.00    -0.744 OA
ENDBRANCH  53  54
ENDBRANCH  25  48
BRANCH  37  58
ATOM     58  C   UNL A   1      49.955  26.832  26.737  1.00  0.00    -0.014 A 
ATOM     59  C   UNL A   1      50.798  26.443  27.791  1.00  0.00     0.010 A 
ATOM     60  C   UNL A   1      50.449  26.847  25.420  1.00  0.00     0.010 A 
ATOM     61  C   UNL A   1      52.127  26.106  27.534  1.00  0.00     0.020 A 
ATOM     62  C   UNL A   1      51.767  26.477  25.156  1.00  0.00     0.020 A 
ATOM     63  C   UNL A   1      52.601  26.124  26.218  1.00  0.00     0.054 A 
BRANCH  63  64
ATOM     64  S   UNL A   1      54.316  25.633  25.906  1.00  0.00     0.124 S 
ATOM     65  O   UNL A   1      54.718  25.095  27.203  1.00  0.00    -0.237 OA
ATOM     66  O   UNL A   1      54.178  24.653  24.832  1.00  0.00    -0.237 OA
ATOM     67  O   UNL A   1      54.969  26.883  25.520  1.00  0.00    -0.744 OA
ENDBRANCH  63  64
ENDBRANCH  37  58
ENDBRANCH  11  12
ENDBRANCH   4   6
ENDBRANCH   3   4
ENDBRANCH   2   3
ENDBRANCH   1   2
BRANCH   1  68
ATOM     68  O   UNL A   1      33.367  30.108  26.143  1.00  0.00    -0.374 OA
BRANCH  68  69
ATOM     69  C   UNL A   1      33.061  29.186  25.091  1.00  0.00     0.202 C 
BRANCH  69  70
ATOM     70  C   UNL A   1      33.586  27.790  25.436  1.00  0.00     0.261 C 
BRANCH  70  71
ATOM     71  O   UNL A   1      32.487  26.887  25.295  1.00  0.00    -0.463 OA
BRANCH  71  72
ATOM     72  C   UNL A   1      31.892  26.617  26.481  1.00  0.00     0.310 C 
ATOM     73  O   UNL A   1      31.546  27.464  27.299  1.00  0.00    -0.252 OA
BRANCH  72  74
ATOM     74  C   UNL A   1      31.686  25.140  26.670  1.00  0.00     0.118 C 
ATOM     75  C   UNL A   1      30.221  24.646  26.640  1.00  0.00     0.019 C 
ATOM     76  C   UNL A   1      32.498  24.489  25.578  1.00  0.00     0.133 C 
ATOM     77  C   UNL A   1      30.145  23.117  26.669  1.00  0.00     0.022 C 
ATOM     78  N   UNL A   1      32.327  23.048  25.688  1.00  0.00    -0.356 N 
ATOM     79  C   UNL A   1      30.984  22.525  25.538  1.00  0.00     0.118 C 
BRANCH  78  80
ATOM     80  C   UNL A   1      33.456  22.359  25.329  1.00  0.00     0.133 A 
ATOM     81  C   UNL A   1      34.697  22.901  25.524  1.00  0.00     0.077 A 
ATOM     82  N   UNL A   1      33.289  21.081  24.960  1.00  0.00    -0.211 NA
ATOM     83  C   UNL A   1      35.770  22.047  25.394  1.00  0.00     0.095 A 
ATOM     84  C   UNL A   1      34.386  20.323  24.834  1.00  0.00     0.165 A 
ATOM     85  N   UNL A   1      35.640  20.750  25.046  1.00  0.00    -0.226 NA
BRANCH  83  86
ATOM     86  C   UNL A   1      37.109  22.535  25.719  1.00  0.00     0.089 A 
ATOM     87  C   UNL A   1      38.205  21.670  25.721  1.00  0.00     0.030 A 
ATOM     88  N   UNL A   1      37.193  23.820  26.145  1.00  0.00    -0.255 NA
ATOM     89  C   UNL A   1      39.430  22.137  26.182  1.00  0.00     0.004 A 
ATOM     90  C   UNL A   1      38.398  24.251  26.567  1.00  0.00     0.112 A 
ATOM     91  C   UNL A   1      39.530  23.453  26.614  1.00  0.00     0.020 A 
ENDBRANCH  83  86
BRANCH  84  92
ATOM     92  C   UNL A   1      34.184  18.943  24.407  1.00  0.00     0.055 A 
ATOM     93  C   UNL A   1      35.080  17.929  24.792  1.00  0.00     0.015 A 
ATOM     94  C   UNL A   1      33.103  18.584  23.596  1.00  0.00     0.134 A 
ATOM     95  C   UNL A   1      34.870  16.599  24.413  1.00  0.00     0.001 A 
ATOM     96  C   UNL A   1      32.894  17.261  23.205  1.00  0.00     0.040 A 
ATOM     97  F   UNL A   1      32.249  19.517  23.149  1.00  0.00    -0.206 F 
ATOM     98  C   UNL A   1      33.771  16.264  23.625  1.00  0.00     0.003 A 
ENDBRANCH  84  92
ENDBRANCH  78  80
ENDBRANCH  72  74
ENDBRANCH  71  72
ENDBRANCH  70  71
ENDBRANCH  69  70
ENDBRANCH  68  69
ENDBRANCH   1  68
TORSDOF 20
ENDMDL
MODEL 2
REMARK VINA RESULT:     -10.7      6.165      8.629
REMARK SMILES O=C(OCCOCCOC(=O)[C@H]1CCCN(c2cc(-c3ccccn3)nc(-c3ccccc3F)n2)C1)c1ccc(-c2c3nc(c(-c4ccc(S(=O)(=O)[O-])cc4)c4ccc([nH]4)c(-c4ccc(S(=O)(=O)[O-])cc4)c4nc(c(-c5ccc(S(=O)(=O)[O-])cc5)c5ccc2[nH]5)C=C4)C=C3)cc1
REMARK SMILES IDX 5 1 4 2 3 3 2 4 1 5 37 6 38 7 96 8 39 9 95 10 40 11 41 12
REMARK SMILES IDX 42 13 89 14 43 15 94 16 88 17 90 18 44 19 93 20 87 21 86 22
REMARK SMILES IDX 45 24 75 25 56 26 74 27 57 28 60 29 73 30 91 31 58 32 59 33
REMARK SMILES IDX 72 35 92 36 61 37 46 38 47 39 55 40 48 41 54 42 49 43 50 44
REMARK SMILES IDX 51 45 52 46 53 47 76 48 77 49 85 50 78 51 84 52 79 53 80 54
REMARK SMILES IDX 81 55 82 56 83 57 62 58 63 59 71 60 64 61 70 62 65 63 66 64
REMARK SMILES IDX 67 65 68 66 69 67 6 68 7 69 8 70 9 71 10 72 11 73 12 74
REMARK SMILES IDX 13 75 36 76 14 77 16 78 15 79 17 80 18 81 35 82 19 83 27 84
REMARK SMILES IDX 26 85 20 86 21 87 25 88 22 89 24 90 23 91 28 92 29 93 33 94
REMARK SMILES IDX 30 95 32 96 34 97 31 98
REMARK H PARENT 90 23 60 34
REMARK Flexibility Score: inf
ROOT
ATOM      1  C   UNL A   1      34.212  31.360  27.767  1.00  0.00     0.202 C 
ENDROOT
BRANCH   1   2
ATOM      2  C   UNL A   1      33.144  32.458  27.654  1.00  0.00     0.261 C 
BRANCH   2   3
ATOM      3  O   UNL A   1      33.604  33.720  28.158  1.00  0.00    -0.460 OA
BRANCH   3   4
ATOM      4  C   UNL A   1      33.756  34.062  29.464  1.00  0.00     0.338 C 
ATOM      5  O   UNL A   1      32.930  34.808  29.985  1.00  0.00    -0.246 OA
BRANCH   4   6
ATOM      6  C   UNL A   1      34.910  33.590  30.284  1.00  0.00     0.060 A 
ATOM      7  C   UNL A   1      36.167  34.189  30.271  1.00  0.00     0.016 A 
ATOM      8  C   UNL A   1      34.699  32.531  31.177  1.00  0.00     0.016 A 
ATOM      9  C   UNL A   1      37.214  33.725  31.025  1.00  0.00     0.010 A 
ATOM     10  C   UNL A   1      35.740  32.077  31.993  1.00  0.00     0.010 A 
ATOM     11  C   UNL A   1      37.002  32.672  31.896  1.00  0.00    -0.014 A 
BRANCH  11  12
ATOM     12  C   UNL A   1      38.207  32.164  32.556  1.00  0.00     0.031 A 
ATOM     13  C   UNL A   1      39.177  31.399  31.718  1.00  0.00     0.074 A 
ATOM     14  C   UNL A   1      38.502  32.609  33.790  1.00  0.00     0.049 A 
ATOM     15  N   UNL A   1      40.313  30.865  32.061  1.00  0.00    -0.248 NA
ATOM     16  C   UNL A   1      38.833  31.233  30.292  1.00  0.00     0.031 C 
ATOM     17  C   UNL A   1      37.677  33.542  34.573  1.00  0.00     0.029 A 
ATOM     18  N   UNL A   1      39.596  32.397  34.577  1.00  0.00    -0.354 N 
ATOM     19  C   UNL A   1      40.798  30.260  30.909  1.00  0.00     0.074 A 
ATOM     20  C   UNL A   1      39.842  30.497  29.854  1.00  0.00     0.031 C 
ATOM     21  C   UNL A   1      38.313  33.838  35.717  1.00  0.00     0.029 A 
ATOM     22  C   UNL A   1      39.538  33.053  35.783  1.00  0.00     0.049 A 
ATOM     23  H   UNL A   1      40.353  31.829  34.307  1.00  0.00     0.167 HD
ATOM     24  C   UNL A   1      41.940  29.553  30.769  1.00  0.00     0.031 A 
ATOM     25  C   UNL A   1      40.370  32.978  36.837  1.00  0.00     0.031 A 
ATOM     26  C   UNL A   1      42.850  29.339  31.859  1.00  0.00     0.049 A 
ATOM     27  C   UNL A   1      41.561  32.071  36.700  1.00  0.00     0.074 A 
ATOM     28  C   UNL A   1      43.996  28.571  31.894  1.00  0.00     0.029 A 
ATOM     29  N   UNL A   1      42.703  29.909  33.120  1.00  0.00    -0.354 N 
ATOM     30  N   UNL A   1      41.964  31.400  35.643  1.00  0.00    -0.248 NA
ATOM     31  C   UNL A   1      42.398  31.893  37.889  1.00  0.00     0.031 C 
ATOM     32  C   UNL A   1      44.509  28.628  33.194  1.00  0.00     0.029 A 
ATOM     33  C   UNL A   1      43.724  29.491  33.950  1.00  0.00     0.049 A 
ATOM     34  H   UNL A   1      41.978  30.521  33.382  1.00  0.00     0.167 HD
ATOM     35  C   UNL A   1      43.117  30.735  36.033  1.00  0.00     0.074 A 
ATOM     36  C   UNL A   1      43.354  31.104  37.418  1.00  0.00     0.031 C 
ATOM     37  C   UNL A   1      43.911  29.893  35.323  1.00  0.00     0.031 A 
BRANCH  24  38
ATOM     38  C   UNL A   1      42.176  28.889  29.442  1.00  0.00    -0.014 A 
ATOM     39  C   UNL A   1      42.887  29.524  28.406  1.00  0.00     0.010 A 
ATOM     40  C   UNL A   1      41.626  27.615  29.212  1.00  0.00     0.010 A 
ATOM     41  C   UNL A   1      43.005  28.911  27.154  1.00  0.00     0.020 A 
ATOM     42  C   UNL A   1      41.767  26.988  27.972  1.00  0.00     0.020 A 
ATOM     43  C   UNL A   1      42.441  27.650  26.944  1.00  0.00     0.054 A 
BRANCH  43  44
ATOM     44  S   UNL A   1      42.611  26.877  25.312  1.00  0.00     0.124 S 
ATOM     45  O   UNL A   1      41.378  26.098  25.218  1.00  0.00    -0.237 OA
ATOM     46  O   UNL A   1      42.692  28.031  24.421  1.00  0.00    -0.237 OA
ATOM     47  O   UNL A   1      43.837  26.091  25.424  1.00  0.00    -0.744 OA
ENDBRANCH  43  44
ENDBRANCH  24  38
BRANCH  25  48
ATOM     48  C   UNL A   1      40.057  33.697  38.104  1.00  0.00    -0.014 A 
ATOM     49  C   UNL A   1      39.637  33.005  39.252  1.00  0.00     0.010 A 
ATOM     50  C   UNL A   1      40.177  35.100  38.166  1.00  0.00     0.010 A 
ATOM     51  C   UNL A   1      39.319  33.702  40.425  1.00  0.00     0.020 A 
ATOM     52  C   UNL A   1      39.893  35.797  39.344  1.00  0.00     0.020 A 
ATOM     53  C   UNL A   1      39.449  35.093  40.462  1.00  0.00     0.054 A 
BRANCH  53  54
ATOM     54  S   UNL A   1      39.049  35.974  41.997  1.00  0.00     0.124 S 
ATOM     55  O   UNL A   1      39.189  37.369  41.592  1.00  0.00    -0.237 OA
ATOM     56  O   UNL A   1      37.686  35.528  42.272  1.00  0.00    -0.237 OA
ATOM     57  O   UNL A   1      40.057  35.494  42.941  1.00  0.00    -0.744 OA
ENDBRANCH  53  54
ENDBRANCH  25  48
BRANCH  37  58
ATOM     58  C   UNL A   1      45.125  29.361  36.027  1.00  0.00    -0.014 A 
ATOM     59  C   UNL A   1      45.088  28.144  36.728  1.00  0.00     0.010 A 
ATOM     60  C   UNL A   1      46.337  30.068  35.923  1.00  0.00     0.010 A 
ATOM     61  C   UNL A   1      46.241  27.660  37.346  1.00  0.00     0.020 A 
ATOM     62  C   UNL A   1      47.498  29.568  36.510  1.00  0.00     0.020 A 
ATOM     63  C   UNL A   1      47.438  28.374  37.230  1.00  0.00     0.054 A 
BRANCH  63  64
ATOM     64  S   UNL A   1      48.931  27.696  37.999  1.00  0.00     0.124 S 
ATOM     65  O   UNL A   1      48.411  26.514  38.681  1.00  0.00    -0.237 OA
ATOM     66  O   UNL A   1      49.792  27.434  36.849  1.00  0.00    -0.237 OA
ATOM     67  O   UNL A   1      49.387  28.772  38.878  1.00  0.00    -0.744 OA
ENDBRANCH  63  64
ENDBRANCH  37  58
ENDBRANCH  11  12
ENDBRANCH   4   6
ENDBRANCH   3   4
ENDBRANCH   2   3
ENDBRANCH   1   2
BRANCH   1  68
ATOM     68  O   UNL A   1      33.851  30.001  27.499  1.00  0.00    -0.374 OA
BRANCH  68  69
ATOM     69  C   UNL A   1      34.226  29.416  26.248  1.00  0.00     0.202 C 
BRANCH  69  70
ATOM     70  C   UNL A   1      33.780  27.953  26.189  1.00  0.00     0.261 C 
BRANCH  70  71
ATOM     71  O   UNL A   1      33.887  27.541  24.824  1.00  0.00    -0.463 OA
BRANCH  71  72
ATOM     72  C   UNL A   1      32.719  27.044  24.348  1.00  0.00     0.310 C 
ATOM     73  O   UNL A   1      32.160  27.431  23.326  1.00  0.00    -0.252 OA
BRANCH  72  74
ATOM     74  C   UNL A   1      32.195  25.939  25.221  1.00  0.00     0.118 C 
ATOM     75  C   UNL A   1      30.657  25.798  25.295  1.00  0.00     0.019 C 
ATOM     76  C   UNL A   1      32.827  24.680  24.681  1.00  0.00     0.133 C 
ATOM     77  C   UNL A   1      30.245  24.543  26.069  1.00  0.00     0.022 C 
ATOM     78  N   UNL A   1      32.344  23.558  25.472  1.00  0.00    -0.356 N 
ATOM     79  C   UNL A   1      30.916  23.309  25.468  1.00  0.00     0.118 C 
BRANCH  78  80
ATOM     80  C   UNL A   1      33.288  22.575  25.614  1.00  0.00     0.133 A 
ATOM     81  C   UNL A   1      32.966  21.261  25.407  1.00  0.00     0.077 A 
ATOM     82  N   UNL A   1      34.555  22.978  25.780  1.00  0.00    -0.211 NA
ATOM     83  C   UNL A   1      34.018  20.379  25.302  1.00  0.00     0.095 A 
ATOM     84  C   UNL A   1      35.519  22.052  25.686  1.00  0.00     0.165 A 
ATOM     85  N   UNL A   1      35.308  20.750  25.442  1.00  0.00    -0.226 NA
BRANCH  83  86
ATOM     86  C   UNL A   1      33.744  18.986  24.949  1.00  0.00     0.089 A 
ATOM     87  C   UNL A   1      34.721  18.196  24.341  1.00  0.00     0.030 A 
ATOM     88  N   UNL A   1      32.466  18.564  25.119  1.00  0.00    -0.255 NA
ATOM     89  C   UNL A   1      34.375  16.930  23.884  1.00  0.00     0.004 A 
ATOM     90  C   UNL A   1      32.165  17.325  24.686  1.00  0.00     0.112 A 
ATOM     91  C   UNL A   1      33.071  16.484  24.058  1.00  0.00     0.020 A 
ENDBRANCH  83  86
BRANCH  84  92
ATOM     92  C   UNL A   1      36.888  22.507  25.895  1.00  0.00     0.055 A 
ATOM     93  C   UNL A   1      37.159  23.837  26.268  1.00  0.00     0.015 A 
ATOM     94  C   UNL A   1      37.975  21.646  25.723  1.00  0.00     0.134 A 
ATOM     95  C   UNL A   1      38.469  24.268  26.504  1.00  0.00     0.001 A 
ATOM     96  C   UNL A   1      39.285  22.071  25.944  1.00  0.00     0.040 A 
ATOM     97  F   UNL A   1      37.783  20.383  25.310  1.00  0.00    -0.206 F 
ATOM     98  C   UNL A   1      39.532  23.382  26.348  1.00  0.00     0.003 A 
ENDBRANCH  84  92
ENDBRANCH  78  80
ENDBRANCH  72  74
ENDBRANCH  71  72
ENDBRANCH  70  71
ENDBRANCH  69  70
ENDBRANCH  68  69
ENDBRANCH   1  68
TORSDOF 20
ENDMDL
MODEL 3
REMARK VINA RESULT:     -10.6      3.022      9.357
REMARK SMILES O=C(OCCOCCOC(=O)[C@H]1CCCN(c2cc(-c3ccccn3)nc(-c3ccccc3F)n2)C1)c1ccc(-c2c3nc(c(-c4ccc(S(=O)(=O)[O-])cc4)c4ccc([nH]4)c(-c4ccc(S(=O)(=O)[O-])cc4)c4nc(c(-c5ccc(S(=O)(=O)[O-])cc5)c5ccc2[nH]5)C=C4)C=C3)cc1
REMARK SMILES IDX 5 1 4 2 3 3 2 4 1 5 37 6 38 7 96 8 39 9 95 10 40 11 41 12
REMARK SMILES IDX 42 13 89 14 43 15 94 16 88 17 90 18 44 19 93 20 87 21 86 22
REMARK SMILES IDX 45 24 75 25 56 26 74 27 57 28 60 29 73 30 91 31 58 32 59 33
REMARK SMILES IDX 72 35 92 36 61 37 46 38 47 39 55 40 48 41 54 42 49 43 50 44
REMARK SMILES IDX 51 45 52 46 53 47 76 48 77 49 85 50 78 51 84 52 79 53 80 54
REMARK SMILES IDX 81 55 82 56 83 57 62 58 63 59 71 60 64 61 70 62 65 63 66 64
REMARK SMILES IDX 67 65 68 66 69 67 6 68 7 69 8 70 9 71 10 72 11 73 12 74
REMARK SMILES IDX 13 75 36 76 14 77 16 78 15 79 17 80 18 81 35 82 19 83 27 84
REMARK SMILES IDX 26 85 20 86 21 87 25 88 22 89 24 90 23 91 28 92 29 93 33 94
REMARK SMILES IDX 30 95 32 96 34 97 31 98
REMARK H PARENT 90 23 60 34
REMARK Flexibility Score: inf
ROOT
ATOM      1  C   UNL A   1      40.243  21.167  26.377  1.00  0.00     0.202 C 
ENDROOT
BRANCH   1   2
ATOM      2  C   UNL A   1      41.309  20.200  26.914  1.00  0.00     0.261 C 
BRANCH   2   3
ATOM      3  O   UNL A   1      42.131  19.660  25.869  1.00  0.00    -0.460 OA
BRANCH   3   4
ATOM      4  C   UNL A   1      43.175  20.280  25.260  1.00  0.00     0.338 C 
ATOM      5  O   UNL A   1      43.752  19.708  24.339  1.00  0.00    -0.246 OA
BRANCH   4   6
ATOM      6  C   UNL A   1      43.669  21.621  25.690  1.00  0.00     0.060 A 
ATOM      7  C   UNL A   1      44.481  21.828  26.802  1.00  0.00     0.016 A 
ATOM      8  C   UNL A   1      43.363  22.728  24.888  1.00  0.00     0.016 A 
ATOM      9  C   UNL A   1      44.909  23.074  27.182  1.00  0.00     0.010 A 
ATOM     10  C   UNL A   1      43.835  24.000  25.230  1.00  0.00     0.010 A 
ATOM     11  C   UNL A   1      44.595  24.164  26.392  1.00  0.00    -0.014 A 
BRANCH  11  12
ATOM     12  C   UNL A   1      44.981  25.463  26.949  1.00  0.00     0.031 A 
ATOM     13  C   UNL A   1      46.276  26.047  26.493  1.00  0.00     0.074 A 
ATOM     14  C   UNL A   1      44.063  26.169  27.632  1.00  0.00     0.049 A 
ATOM     15  N   UNL A   1      46.827  27.180  26.823  1.00  0.00    -0.248 NA
ATOM     16  C   UNL A   1      47.048  25.261  25.510  1.00  0.00     0.031 C 
ATOM     17  C   UNL A   1      42.693  25.720  27.920  1.00  0.00     0.029 A 
ATOM     18  N   UNL A   1      44.112  27.430  28.150  1.00  0.00    -0.354 N 
ATOM     19  C   UNL A   1      48.028  27.222  26.128  1.00  0.00     0.074 A 
ATOM     20  C   UNL A   1      48.127  26.010  25.351  1.00  0.00     0.031 C 
ATOM     21  C   UNL A   1      42.028  26.706  28.541  1.00  0.00     0.029 A 
ATOM     22  C   UNL A   1      42.947  27.813  28.770  1.00  0.00     0.049 A 
ATOM     23  H   UNL A   1      44.906  28.009  28.087  1.00  0.00     0.167 HD
ATOM     24  C   UNL A   1      48.966  28.193  26.164  1.00  0.00     0.031 A 
ATOM     25  C   UNL A   1      42.682  28.922  29.482  1.00  0.00     0.031 A 
ATOM     26  C   UNL A   1      48.818  29.375  26.966  1.00  0.00     0.049 A 
ATOM     27  C   UNL A   1      43.796  29.922  29.621  1.00  0.00     0.074 A 
ATOM     28  C   UNL A   1      49.719  30.399  27.177  1.00  0.00     0.029 A 
ATOM     29  N   UNL A   1      47.674  29.682  27.696  1.00  0.00    -0.354 N 
ATOM     30  N   UNL A   1      44.984  29.911  29.056  1.00  0.00    -0.248 NA
ATOM     31  C   UNL A   1      43.551  31.069  30.498  1.00  0.00     0.031 C 
ATOM     32  C   UNL A   1      49.142  31.296  28.082  1.00  0.00     0.029 A 
ATOM     33  C   UNL A   1      47.853  30.870  28.378  1.00  0.00     0.049 A 
ATOM     34  H   UNL A   1      46.856  29.135  27.722  1.00  0.00     0.167 HD
ATOM     35  C   UNL A   1      45.623  31.062  29.494  1.00  0.00     0.074 A 
ATOM     36  C   UNL A   1      44.678  31.753  30.354  1.00  0.00     0.031 C 
ATOM     37  C   UNL A   1      46.873  31.513  29.221  1.00  0.00     0.031 A 
BRANCH  24  38
ATOM     38  C   UNL A   1      50.243  27.940  25.414  1.00  0.00    -0.014 A 
ATOM     39  C   UNL A   1      50.441  28.404  24.101  1.00  0.00     0.010 A 
ATOM     40  C   UNL A   1      51.250  27.173  26.027  1.00  0.00     0.010 A 
ATOM     41  C   UNL A   1      51.606  28.068  23.402  1.00  0.00     0.020 A 
ATOM     42  C   UNL A   1      52.427  26.860  25.343  1.00  0.00     0.020 A 
ATOM     43  C   UNL A   1      52.589  27.295  24.027  1.00  0.00     0.054 A 
BRANCH  43  44
ATOM     44  S   UNL A   1      54.090  26.875  23.100  1.00  0.00     0.124 S 
ATOM     45  O   UNL A   1      54.679  28.193  22.868  1.00  0.00    -0.237 OA
ATOM     46  O   UNL A   1      54.815  26.022  24.038  1.00  0.00    -0.237 OA
ATOM     47  O   UNL A   1      53.587  26.200  21.907  1.00  0.00    -0.744 OA
ENDBRANCH  43  44
ENDBRANCH  24  38
BRANCH  25  48
ATOM     48  C   UNL A   1      41.371  29.090  30.169  1.00  0.00    -0.014 A 
ATOM     49  C   UNL A   1      40.956  28.204  31.178  1.00  0.00     0.010 A 
ATOM     50  C   UNL A   1      40.516  30.150  29.807  1.00  0.00     0.010 A 
ATOM     51  C   UNL A   1      39.707  28.361  31.791  1.00  0.00     0.020 A 
ATOM     52  C   UNL A   1      39.283  30.331  30.439  1.00  0.00     0.020 A 
ATOM     53  C   UNL A   1      38.879  29.423  31.417  1.00  0.00     0.054 A 
BRANCH  53  54
ATOM     54  S   UNL A   1      37.272  29.617  32.237  1.00  0.00     0.124 S 
ATOM     55  O   UNL A   1      37.349  28.616  33.296  1.00  0.00    -0.237 OA
ATOM     56  O   UNL A   1      37.309  31.009  32.678  1.00  0.00    -0.237 OA
ATOM     57  O   UNL A   1      36.308  29.333  31.177  1.00  0.00    -0.744 OA
ENDBRANCH  53  54
ENDBRANCH  25  48
BRANCH  37  58
ATOM     58  C   UNL A   1      47.259  32.832  29.824  1.00  0.00    -0.014 A 
ATOM     59  C   UNL A   1      47.912  32.905  31.065  1.00  0.00     0.010 A 
ATOM     60  C   UNL A   1      47.016  34.011  29.095  1.00  0.00     0.010 A 
ATOM     61  C   UNL A   1      48.286  34.144  31.586  1.00  0.00     0.020 A 
ATOM     62  C   UNL A   1      47.421  35.247  29.597  1.00  0.00     0.020 A 
ATOM     63  C   UNL A   1      48.040  35.306  30.847  1.00  0.00     0.054 A 
BRANCH  63  64
ATOM     64  S   UNL A   1      48.581  36.896  31.523  1.00  0.00     0.124 S 
ATOM     65  O   UNL A   1      50.001  36.902  31.184  1.00  0.00    -0.237 OA
ATOM     66  O   UNL A   1      47.753  37.852  30.792  1.00  0.00    -0.237 OA
ATOM     67  O   UNL A   1      48.281  36.786  32.949  1.00  0.00    -0.744 OA
ENDBRANCH  63  64
ENDBRANCH  37  58
ENDBRANCH  11  12
ENDBRANCH   4   6
ENDBRANCH   3   4
ENDBRANCH   2   3
ENDBRANCH   1   2
BRANCH   1  68
ATOM     68  O   UNL A   1      40.344  22.561  26.685  1.00  0.00    -0.374 OA
BRANCH  68  69
ATOM     69  C   UNL A   1      39.164  23.371  26.636  1.00  0.00     0.202 C 
BRANCH  69  70
ATOM     70  C   UNL A   1      38.060  22.655  25.854  1.00  0.00     0.261 C 
BRANCH  70  71
ATOM     71  O   UNL A   1      37.188  23.667  25.346  1.00  0.00    -0.463 OA
BRANCH  71  72
ATOM     72  C   UNL A   1      35.883  23.318  25.456  1.00  0.00     0.310 C 
ATOM     73  O   UNL A   1      35.423  22.597  26.337  1.00  0.00    -0.252 OA
BRANCH  72  74
ATOM     74  C   UNL A   1      35.054  23.942  24.369  1.00  0.00     0.118 C 
ATOM     75  C   UNL A   1      34.423  22.968  23.347  1.00  0.00     0.019 C 
ATOM     76  C   UNL A   1      33.991  24.731  25.090  1.00  0.00     0.133 C 
ATOM     77  C   UNL A   1      33.468  23.694  22.395  1.00  0.00     0.022 C 
ATOM     78  N   UNL A   1      33.132  25.350  24.091  1.00  0.00    -0.356 N 
ATOM     79  C   UNL A   1      32.418  24.468  23.190  1.00  0.00     0.118 C 
BRANCH  78  80
ATOM     80  C   UNL A   1      32.659  26.572  24.493  1.00  0.00     0.133 A 
ATOM     81  C   UNL A   1      33.342  27.317  25.416  1.00  0.00     0.077 A 
ATOM     82  N   UNL A   1      31.618  27.067  23.810  1.00  0.00    -0.211 NA
ATOM     83  C   UNL A   1      32.952  28.630  25.557  1.00  0.00     0.095 A 
ATOM     84  C   UNL A   1      31.288  28.349  24.023  1.00  0.00     0.165 A 
ATOM     85  N   UNL A   1      31.923  29.171  24.872  1.00  0.00    -0.226 NA
BRANCH  83  86
ATOM     86  C   UNL A   1      33.728  29.511  26.429  1.00  0.00     0.089 A 
ATOM     87  C   UNL A   1      34.952  29.096  26.959  1.00  0.00     0.030 A 
ATOM     88  N   UNL A   1      33.131  30.672  26.795  1.00  0.00    -0.255 NA
ATOM     89  C   UNL A   1      35.583  29.898  27.902  1.00  0.00     0.004 A 
ATOM     90  C   UNL A   1      33.776  31.439  27.695  1.00  0.00     0.112 A 
ATOM     91  C   UNL A   1      34.984  31.093  28.280  1.00  0.00     0.020 A 
ENDBRANCH  83  86
BRANCH  84  92
ATOM     92  C   UNL A   1      30.137  28.860  23.290  1.00  0.00     0.055 A 
ATOM     93  C   UNL A   1      30.230  30.041  22.530  1.00  0.00     0.015 A 
ATOM     94  C   UNL A   1      28.903  28.204  23.324  1.00  0.00     0.134 A 
ATOM     95  C   UNL A   1      29.137  30.516  21.797  1.00  0.00     0.001 A 
ATOM     96  C   UNL A   1      27.805  28.678  22.605  1.00  0.00     0.040 A 
ATOM     97  F   UNL A   1      28.737  27.107  24.079  1.00  0.00    -0.206 F 
ATOM     98  C   UNL A   1      27.926  29.829  21.829  1.00  0.00     0.003 A 
ENDBRANCH  84  92
ENDBRANCH  78  80
ENDBRANCH  72  74
ENDBRANCH  71  72
ENDBRANCH  70  71
ENDBRANCH  69  70
ENDBRANCH  68  69
ENDBRANCH   1  68
TORSDOF 20
ENDMDL
