MODEL 1
REMARK VINA RESULT:      -9.2      0.000      0.000
REMARK SMILES O=C(OCCOCCOC(=O)c1ccc(-c2c3nc(c(-c4ccc(S(=O)(=O)[O-])cc4)c4ccc([nH]4)c(-c4ccc(S(=O)(=O)[O-])cc4)c4nc(c(-c5ccc(S(=O)(=O)[O-])cc5)c5ccc2[nH]5)C=C4)C=C3)cc1)c1ccc(/C=C/c2ccnc(-c3cccc([N+](=O)[O-])c3)[n+]2[O-])cc1
REMARK SMILES IDX 5 1 4 2 3 3 2 4 1 5 72 6 73 7 95 8 74 9 94 10 75 11 76 12
REMARK SMILES IDX 77 13 78 14 79 15 92 16 80 17 82 18 93 19 81 20 83 21 84 22
REMARK SMILES IDX 91 23 85 24 87 25 86 26 88 27 89 28 90 29 6 30 7 31 8 32
REMARK SMILES IDX 9 33 10 34 11 35 12 36 13 37 71 38 14 39 70 40 15 41 16 42
REMARK SMILES IDX 17 43 64 44 18 45 69 46 63 47 65 48 19 49 68 50 62 51 61 52
REMARK SMILES IDX 20 54 50 55 31 56 49 57 32 58 35 59 48 60 66 61 33 62 34 63
REMARK SMILES IDX 47 65 67 66 36 67 21 68 22 69 30 70 23 71 29 72 24 73 25 74
REMARK SMILES IDX 26 75 27 76 28 77 51 78 52 79 60 80 53 81 59 82 54 83 55 84
REMARK SMILES IDX 56 85 57 86 58 87 37 88 38 89 46 90 39 91 45 92 40 93 41 94
REMARK SMILES IDX 42 95 43 96 44 97
REMARK H PARENT 65 53 35 64
REMARK Flexibility Score: inf
ROOT
ATOM      1  C   UNL A   1      33.003  36.103  31.030  1.00  0.00     0.202 C 
ENDROOT
BRANCH   1   2
ATOM      2  C   UNL A   1      33.993  35.657  32.105  1.00  0.00     0.261 C 
BRANCH   2   3
ATOM      3  O   UNL A   1      34.860  34.620  31.595  1.00  0.00    -0.460 OA
BRANCH   3   4
ATOM      4  C   UNL A   1      34.893  33.335  32.025  1.00  0.00     0.338 C 
ATOM      5  O   UNL A   1      33.880  32.643  32.036  1.00  0.00    -0.246 OA
BRANCH   4   6
ATOM      6  C   UNL A   1      36.163  32.741  32.502  1.00  0.00     0.060 A 
ATOM      7  C   UNL A   1      37.213  33.532  32.958  1.00  0.00     0.016 A 
ATOM      8  C   UNL A   1      36.281  31.353  32.586  1.00  0.00     0.016 A 
ATOM      9  C   UNL A   1      38.407  32.972  33.385  1.00  0.00     0.009 A 
ATOM     10  C   UNL A   1      37.475  30.782  33.042  1.00  0.00     0.009 A 
ATOM     11  C   UNL A   1      38.561  31.590  33.417  1.00  0.00    -0.025 A 
BRANCH  11  12
ATOM     12  C   UNL A   1      39.821  30.977  33.845  1.00  0.00     0.012 C 
ATOM     13  C   UNL A   1      40.999  31.127  33.215  1.00  0.00     0.053 C 
BRANCH  13  14
ATOM     14  C   UNL A   1      42.205  30.426  33.657  1.00  0.00     0.134 A 
ATOM     15  C   UNL A   1      43.093  31.057  34.526  1.00  0.00     0.100 A 
ATOM     16  N   UNL A   1      42.452  29.123  33.212  1.00  0.00    -0.228 N 
ATOM     17  C   UNL A   1      44.173  30.333  34.975  1.00  0.00     0.259 A 
ATOM     18  C   UNL A   1      43.570  28.467  33.718  1.00  0.00     0.333 A 
ATOM     19  O   UNL A   1      41.669  28.543  32.376  1.00  0.00    -0.710 OA
ATOM     20  N   UNL A   1      44.418  29.058  34.614  1.00  0.00    -0.049 NA
BRANCH  18  21
ATOM     21  C   UNL A   1      43.800  27.080  33.330  1.00  0.00     0.076 A 
ATOM     22  C   UNL A   1      44.536  26.775  32.174  1.00  0.00     0.017 A 
ATOM     23  C   UNL A   1      43.404  26.030  34.177  1.00  0.00     0.102 A 
ATOM     24  C   UNL A   1      44.911  25.461  31.889  1.00  0.00     0.008 A 
ATOM     25  C   UNL A   1      43.781  24.715  33.890  1.00  0.00     0.270 A 
ATOM     26  C   UNL A   1      44.540  24.427  32.749  1.00  0.00     0.085 A 
BRANCH  25  27
ATOM     27  N   UNL A   1      43.400  23.635  34.807  1.00  0.00     0.062 N 
ATOM     28  O   UNL A   1      42.190  23.421  34.972  1.00  0.00    -0.258 OA
ATOM     29  O   UNL A   1      44.307  23.016  35.381  1.00  0.00    -0.258 OA
ENDBRANCH  25  27
ENDBRANCH  18  21
ENDBRANCH  13  14
ENDBRANCH  11  12
ENDBRANCH   4   6
ENDBRANCH   3   4
ENDBRANCH   2   3
ENDBRANCH   1   2
BRANCH   1  30
ATOM     30  O   UNL A   1      32.623  35.068  30.127  1.00  0.00    -0.374 OA
BRANCH  30  31
ATOM     31  C   UNL A   1      33.164  35.169  28.802  1.00  0.00     0.202 C 
BRANCH  31  32
ATOM     32  C   UNL A   1      32.944  33.837  28.077  1.00  0.00     0.261 C 
BRANCH  32  33
ATOM     33  O   UNL A   1      34.227  33.240  27.851  1.00  0.00    -0.460 OA
BRANCH  33  34
ATOM     34  C   UNL A   1      34.253  31.895  28.033  1.00  0.00     0.338 C 
ATOM     35  O   UNL A   1      33.406  31.091  27.680  1.00  0.00    -0.246 OA
BRANCH  34  36
ATOM     36  C   UNL A   1      35.600  31.538  28.535  1.00  0.00     0.060 A 
ATOM     37  C   UNL A   1      36.552  32.554  28.701  1.00  0.00     0.016 A 
ATOM     38  C   UNL A   1      35.903  30.221  28.899  1.00  0.00     0.016 A 
ATOM     39  C   UNL A   1      37.829  32.248  29.176  1.00  0.00     0.010 A 
ATOM     40  C   UNL A   1      37.170  29.916  29.377  1.00  0.00     0.010 A 
ATOM     41  C   UNL A   1      38.148  30.919  29.470  1.00  0.00    -0.014 A 
BRANCH  41  42
ATOM     42  C   UNL A   1      39.547  30.473  29.627  1.00  0.00     0.031 A 
ATOM     43  C   UNL A   1      40.573  31.540  29.886  1.00  0.00     0.074 A 
ATOM     44  C   UNL A   1      39.904  29.200  29.403  1.00  0.00     0.049 A 
ATOM     45  N   UNL A   1      41.874  31.478  29.813  1.00  0.00    -0.248 NA
ATOM     46  C   UNL A   1      40.047  32.872  30.237  1.00  0.00     0.031 C 
ATOM     47  C   UNL A   1      38.983  28.092  29.157  1.00  0.00     0.029 A 
ATOM     48  N   UNL A   1      41.150  28.638  29.299  1.00  0.00    -0.354 N 
ATOM     49  C   UNL A   1      42.321  32.769  30.067  1.00  0.00     0.074 A 
ATOM     50  C   UNL A   1      41.154  33.595  30.274  1.00  0.00     0.031 C 
ATOM     51  C   UNL A   1      39.698  26.986  28.892  1.00  0.00     0.029 A 
ATOM     52  C   UNL A   1      41.122  27.322  28.906  1.00  0.00     0.049 A 
ATOM     53  H   UNL A   1      41.982  29.128  29.488  1.00  0.00     0.167 HD
ATOM     54  C   UNL A   1      43.594  33.226  30.112  1.00  0.00     0.031 A 
ATOM     55  C   UNL A   1      42.131  26.501  28.553  1.00  0.00     0.031 A 
ATOM     56  C   UNL A   1      44.738  32.390  29.876  1.00  0.00     0.049 A 
ATOM     57  C   UNL A   1      43.541  27.027  28.585  1.00  0.00     0.074 A 
ATOM     58  C   UNL A   1      46.077  32.725  29.928  1.00  0.00     0.029 A 
ATOM     59  N   UNL A   1      44.670  31.047  29.530  1.00  0.00    -0.354 N 
ATOM     60  N   UNL A   1      43.962  28.239  28.865  1.00  0.00    -0.248 NA
ATOM     61  C   UNL A   1      44.614  26.076  28.264  1.00  0.00     0.031 C 
ATOM     62  C   UNL A   1      46.818  31.597  29.561  1.00  0.00     0.029 A 
ATOM     63  C   UNL A   1      45.944  30.541  29.346  1.00  0.00     0.049 A 
ATOM     64  H   UNL A   1      43.837  30.531  29.430  1.00  0.00     0.167 HD
ATOM     65  C   UNL A   1      45.350  28.189  28.787  1.00  0.00     0.074 A 
ATOM     66  C   UNL A   1      45.696  26.826  28.431  1.00  0.00     0.031 C 
ATOM     67  C   UNL A   1      46.256  29.176  28.998  1.00  0.00     0.031 A 
BRANCH  54  68
ATOM     68  C   UNL A   1      43.788  34.697  30.372  1.00  0.00    -0.014 A 
ATOM     69  C   UNL A   1      43.966  35.196  31.675  1.00  0.00     0.010 A 
ATOM     70  C   UNL A   1      43.760  35.601  29.294  1.00  0.00     0.010 A 
ATOM     71  C   UNL A   1      44.042  36.572  31.903  1.00  0.00     0.020 A 
ATOM     72  C   UNL A   1      43.871  36.976  29.514  1.00  0.00     0.020 A 
ATOM     73  C   UNL A   1      43.983  37.454  30.821  1.00  0.00     0.054 A 
BRANCH  73  74
ATOM     74  S   UNL A   1      44.060  39.237  31.146  1.00  0.00     0.124 S 
ATOM     75  O   UNL A   1      43.517  39.319  32.500  1.00  0.00    -0.237 OA
ATOM     76  O   UNL A   1      45.487  39.524  31.025  1.00  0.00    -0.237 OA
ATOM     77  O   UNL A   1      43.219  39.817  30.103  1.00  0.00    -0.744 OA
ENDBRANCH  73  74
ENDBRANCH  54  68
BRANCH  55  78
ATOM     78  C   UNL A   1      41.824  25.106  28.141  1.00  0.00    -0.014 A 
ATOM     79  C   UNL A   1      41.308  24.839  26.861  1.00  0.00     0.010 A 
ATOM     80  C   UNL A   1      42.118  24.028  28.998  1.00  0.00     0.010 A 
ATOM     81  C   UNL A   1      41.105  23.522  26.440  1.00  0.00     0.020 A 
ATOM     82  C   UNL A   1      41.939  22.708  28.571  1.00  0.00     0.020 A 
ATOM     83  C   UNL A   1      41.434  22.464  27.293  1.00  0.00     0.054 A 
BRANCH  83  84
ATOM     84  S   UNL A   1      41.263  20.764  26.680  1.00  0.00     0.124 S 
ATOM     85  O   UNL A   1      39.915  20.773  26.123  1.00  0.00    -0.237 OA
ATOM     86  O   UNL A   1      42.349  20.672  25.705  1.00  0.00    -0.237 OA
ATOM     87  O   UNL A   1      41.443  19.948  27.878  1.00  0.00    -0.744 OA
ENDBRANCH  83  84
ENDBRANCH  55  78
BRANCH  67  88
ATOM     88  C   UNL A   1      47.715  28.817  28.909  1.00  0.00    -0.014 A 
ATOM     89  C   UNL A   1      48.435  28.384  30.035  1.00  0.00     0.010 A 
ATOM     90  C   UNL A   1      48.342  28.815  27.648  1.00  0.00     0.010 A 
ATOM     91  C   UNL A   1      49.762  27.967  29.903  1.00  0.00     0.020 A 
ATOM     92  C   UNL A   1      49.658  28.373  27.508  1.00  0.00     0.020 A 
ATOM     93  C   UNL A   1      50.363  27.958  28.639  1.00  0.00     0.054 A 
BRANCH  93  94
ATOM     94  S   UNL A   1      52.061  27.338  28.482  1.00  0.00     0.124 S 
ATOM     95  O   UNL A   1      51.841  25.937  28.135  1.00  0.00    -0.237 OA
ATOM     96  O   UNL A   1      52.607  28.173  27.414  1.00  0.00    -0.237 OA
ATOM     97  O   UNL A   1      52.639  27.570  29.803  1.00  0.00    -0.744 OA
ENDBRANCH  93  94
ENDBRANCH  67  88
ENDBRANCH  41  42
ENDBRANCH  34  36
ENDBRANCH  33  34
ENDBRANCH  32  33
ENDBRANCH  31  32
ENDBRANCH  30  31
ENDBRANCH   1  30
TORSDOF 21
ENDMDL
MODEL 2
REMARK VINA RESULT:      -8.9      4.121     10.534
REMARK SMILES O=C(OCCOCCOC(=O)c1ccc(-c2c3nc(c(-c4ccc(S(=O)(=O)[O-])cc4)c4ccc([nH]4)c(-c4ccc(S(=O)(=O)[O-])cc4)c4nc(c(-c5ccc(S(=O)(=O)[O-])cc5)c5ccc2[nH]5)C=C4)C=C3)cc1)c1ccc(/C=C/c2ccnc(-c3cccc([N+](=O)[O-])c3)[n+]2[O-])cc1
REMARK SMILES IDX 5 1 4 2 3 3 2 4 1 5 72 6 73 7 95 8 74 9 94 10 75 11 76 12
REMARK SMILES IDX 77 13 78 14 79 15 92 16 80 17 82 18 93 19 81 20 83 21 84 22
REMARK SMILES IDX 91 23 85 24 87 25 86 26 88 27 89 28 90 29 6 30 7 31 8 32
REMARK SMILES IDX 9 33 10 34 11 35 12 36 13 37 71 38 14 39 70 40 15 41 16 42
REMARK SMILES IDX 17 43 64 44 18 45 69 46 63 47 65 48 19 49 68 50 62 51 61 52
REMARK SMILES IDX 20 54 50 55 31 56 49 57 32 58 35 59 48 60 66 61 33 62 34 63
REMARK SMILES IDX 47 65 67 66 36 67 21 68 22 69 30 70 23 71 29 72 24 73 25 74
REMARK SMILES IDX 26 75 27 76 28 77 51 78 52 79 60 80 53 81 59 82 54 83 55 84
REMARK SMILES IDX 56 85 57 86 58 87 37 88 38 89 46 90 39 91 45 92 40 93 41 94
REMARK SMILES IDX 42 95 43 96 44 97
REMARK H PARENT 65 53 35 64
REMARK Flexibility Score: inf
ROOT
ATOM      1  C   UNL A   1      36.980  34.012  30.419  1.00  0.00     0.202 C 
ENDROOT
BRANCH   1   2
ATOM      2  C   UNL A   1      36.882  33.358  29.041  1.00  0.00     0.261 C 
BRANCH   2   3
ATOM      3  O   UNL A   1      35.505  33.288  28.612  1.00  0.00    -0.460 OA
BRANCH   3   4
ATOM      4  C   UNL A   1      34.611  32.336  28.974  1.00  0.00     0.338 C 
ATOM      5  O   UNL A   1      34.026  32.392  30.052  1.00  0.00    -0.246 OA
BRANCH   4   6
ATOM      6  C   UNL A   1      34.328  31.196  28.072  1.00  0.00     0.060 A 
ATOM      7  C   UNL A   1      33.263  31.221  27.176  1.00  0.00     0.016 A 
ATOM      8  C   UNL A   1      35.201  30.107  28.050  1.00  0.00     0.016 A 
ATOM      9  C   UNL A   1      32.991  30.144  26.348  1.00  0.00     0.009 A 
ATOM     10  C   UNL A   1      34.945  29.028  27.195  1.00  0.00     0.009 A 
ATOM     11  C   UNL A   1      33.817  29.025  26.358  1.00  0.00    -0.025 A 
BRANCH  11  12
ATOM     12  C   UNL A   1      33.537  27.867  25.506  1.00  0.00     0.012 C 
ATOM     13  C   UNL A   1      32.449  27.085  25.610  1.00  0.00     0.053 C 
BRANCH  13  14
ATOM     14  C   UNL A   1      32.268  25.899  24.772  1.00  0.00     0.134 A 
ATOM     15  C   UNL A   1      31.593  26.007  23.557  1.00  0.00     0.100 A 
ATOM     16  N   UNL A   1      32.783  24.669  25.191  1.00  0.00    -0.228 N 
ATOM     17  C   UNL A   1      31.512  24.884  22.768  1.00  0.00     0.259 A 
ATOM     18  C   UNL A   1      32.655  23.585  24.327  1.00  0.00     0.333 A 
ATOM     19  O   UNL A   1      33.367  24.541  26.327  1.00  0.00    -0.710 OA
ATOM     20  N   UNL A   1      32.042  23.693  23.109  1.00  0.00    -0.049 NA
BRANCH  18  21
ATOM     21  C   UNL A   1      33.258  22.313  24.710  1.00  0.00     0.076 A 
ATOM     22  C   UNL A   1      32.454  21.186  24.948  1.00  0.00     0.017 A 
ATOM     23  C   UNL A   1      34.655  22.161  24.714  1.00  0.00     0.102 A 
ATOM     24  C   UNL A   1      33.026  19.928  25.142  1.00  0.00     0.008 A 
ATOM     25  C   UNL A   1      35.224  20.900  24.907  1.00  0.00     0.270 A 
ATOM     26  C   UNL A   1      34.413  19.778  25.116  1.00  0.00     0.085 A 
BRANCH  25  27
ATOM     27  N   UNL A   1      36.683  20.749  24.863  1.00  0.00     0.062 N 
ATOM     28  O   UNL A   1      37.148  19.607  24.998  1.00  0.00    -0.258 OA
ATOM     29  O   UNL A   1      37.367  21.772  24.717  1.00  0.00    -0.258 OA
ENDBRANCH  25  27
ENDBRANCH  18  21
ENDBRANCH  13  14
ENDBRANCH  11  12
ENDBRANCH   4   6
ENDBRANCH   3   4
ENDBRANCH   2   3
ENDBRANCH   1   2
BRANCH   1  30
ATOM     30  O   UNL A   1      36.492  33.198  31.482  1.00  0.00    -0.374 OA
BRANCH  30  31
ATOM     31  C   UNL A   1      37.491  32.662  32.362  1.00  0.00     0.202 C 
BRANCH  31  32
ATOM     32  C   UNL A   1      36.856  31.556  33.212  1.00  0.00     0.261 C 
BRANCH  32  33
ATOM     33  O   UNL A   1      37.589  30.346  32.980  1.00  0.00    -0.460 OA
BRANCH  33  34
ATOM     34  C   UNL A   1      37.360  29.785  31.764  1.00  0.00     0.338 C 
ATOM     35  O   UNL A   1      36.282  29.446  31.304  1.00  0.00    -0.246 OA
BRANCH  34  36
ATOM     36  C   UNL A   1      38.622  29.861  30.993  1.00  0.00     0.060 A 
ATOM     37  C   UNL A   1      38.556  30.011  29.600  1.00  0.00     0.016 A 
ATOM     38  C   UNL A   1      39.861  29.848  31.643  1.00  0.00     0.016 A 
ATOM     39  C   UNL A   1      39.729  30.091  28.846  1.00  0.00     0.010 A 
ATOM     40  C   UNL A   1      41.028  29.933  30.896  1.00  0.00     0.010 A 
ATOM     41  C   UNL A   1      40.965  30.004  29.495  1.00  0.00    -0.014 A 
BRANCH  41  42
ATOM     42  C   UNL A   1      42.211  29.723  28.755  1.00  0.00     0.031 A 
ATOM     43  C   UNL A   1      42.408  28.314  28.271  1.00  0.00     0.074 A 
ATOM     44  C   UNL A   1      43.183  30.641  28.650  1.00  0.00     0.049 A 
ATOM     45  N   UNL A   1      43.488  27.730  27.831  1.00  0.00    -0.248 NA
ATOM     46  C   UNL A   1      41.225  27.437  28.332  1.00  0.00     0.031 C 
ATOM     47  C   UNL A   1      43.082  32.035  29.077  1.00  0.00     0.029 A 
ATOM     48  N   UNL A   1      44.468  30.516  28.192  1.00  0.00    -0.354 N 
ATOM     49  C   UNL A   1      43.128  26.407  27.603  1.00  0.00     0.074 A 
ATOM     50  C   UNL A   1      41.737  26.272  27.973  1.00  0.00     0.031 C 
ATOM     51  C   UNL A   1      44.273  32.630  28.895  1.00  0.00     0.029 A 
ATOM     52  C   UNL A   1      45.226  31.646  28.384  1.00  0.00     0.049 A 
ATOM     53  H   UNL A   1      44.815  29.699  27.767  1.00  0.00     0.167 HD
ATOM     54  C   UNL A   1      43.893  25.394  27.136  1.00  0.00     0.031 A 
ATOM     55  C   UNL A   1      46.548  31.844  28.208  1.00  0.00     0.031 A 
ATOM     56  C   UNL A   1      45.281  25.548  26.801  1.00  0.00     0.049 A 
ATOM     57  C   UNL A   1      47.394  30.702  27.710  1.00  0.00     0.074 A 
ATOM     58  C   UNL A   1      46.153  24.608  26.286  1.00  0.00     0.029 A 
ATOM     59  N   UNL A   1      46.001  26.724  26.961  1.00  0.00    -0.354 N 
ATOM     60  N   UNL A   1      47.040  29.463  27.458  1.00  0.00    -0.248 NA
ATOM     61  C   UNL A   1      48.815  30.984  27.464  1.00  0.00     0.031 C 
ATOM     62  C   UNL A   1      47.416  25.202  26.184  1.00  0.00     0.029 A 
ATOM     63  C   UNL A   1      47.314  26.530  26.573  1.00  0.00     0.049 A 
ATOM     64  H   UNL A   1      45.632  27.571  27.300  1.00  0.00     0.167 HD
ATOM     65  C   UNL A   1      48.184  28.825  26.992  1.00  0.00     0.074 A 
ATOM     66  C   UNL A   1      49.243  29.817  26.999  1.00  0.00     0.031 C 
ATOM     67  C   UNL A   1      48.344  27.541  26.585  1.00  0.00     0.031 A 
BRANCH  54  68
ATOM     68  C   UNL A   1      43.246  24.039  27.025  1.00  0.00    -0.014 A 
ATOM     69  C   UNL A   1      42.920  23.284  28.167  1.00  0.00     0.010 A 
ATOM     70  C   UNL A   1      42.987  23.496  25.752  1.00  0.00     0.010 A 
ATOM     71  C   UNL A   1      42.415  21.988  28.039  1.00  0.00     0.020 A 
ATOM     72  C   UNL A   1      42.449  22.214  25.621  1.00  0.00     0.020 A 
ATOM     73  C   UNL A   1      42.193  21.456  26.765  1.00  0.00     0.054 A 
BRANCH  73  74
ATOM     74  S   UNL A   1      41.559  19.763  26.627  1.00  0.00     0.124 S 
ATOM     75  O   UNL A   1      42.137  19.128  27.808  1.00  0.00    -0.237 OA
ATOM     76  O   UNL A   1      40.111  19.958  26.665  1.00  0.00    -0.237 OA
ATOM     77  O   UNL A   1      42.089  19.297  25.348  1.00  0.00    -0.744 OA
ENDBRANCH  73  74
ENDBRANCH  54  68
BRANCH  55  78
ATOM     78  C   UNL A   1      47.132  33.177  28.512  1.00  0.00    -0.014 A 
ATOM     79  C   UNL A   1      47.002  34.236  27.598  1.00  0.00     0.010 A 
ATOM     80  C   UNL A   1      47.752  33.418  29.753  1.00  0.00     0.010 A 
ATOM     81  C   UNL A   1      47.471  35.513  27.921  1.00  0.00     0.020 A 
ATOM     82  C   UNL A   1      48.200  34.699  30.090  1.00  0.00     0.020 A 
ATOM     83  C   UNL A   1      48.055  35.739  29.172  1.00  0.00     0.054 A 
BRANCH  83  84
ATOM     84  S   UNL A   1      48.554  37.429  29.608  1.00  0.00     0.124 S 
ATOM     85  O   UNL A   1      50.008  37.324  29.626  1.00  0.00    -0.237 OA
ATOM     86  O   UNL A   1      47.990  38.215  28.512  1.00  0.00    -0.237 OA
ATOM     87  O   UNL A   1      47.923  37.647  30.908  1.00  0.00    -0.744 OA
ENDBRANCH  83  84
ENDBRANCH  55  78
BRANCH  67  88
ATOM     88  C   UNL A   1      49.696  27.137  26.060  1.00  0.00    -0.014 A 
ATOM     89  C   UNL A   1      50.659  26.541  26.891  1.00  0.00     0.010 A 
ATOM     90  C   UNL A   1      49.959  27.264  24.683  1.00  0.00     0.010 A 
ATOM     91  C   UNL A   1      51.867  26.089  26.354  1.00  0.00     0.020 A 
ATOM     92  C   UNL A   1      51.153  26.789  24.139  1.00  0.00     0.020 A 
ATOM     93  C   UNL A   1      52.105  26.211  24.981  1.00  0.00     0.054 A 
BRANCH  93  94
ATOM     94  S   UNL A   1      53.648  25.547  24.297  1.00  0.00     0.124 S 
ATOM     95  O   UNL A   1      53.535  25.911  22.887  1.00  0.00    -0.237 OA
ATOM     96  O   UNL A   1      54.669  26.269  25.053  1.00  0.00    -0.237 OA
ATOM     97  O   UNL A   1      53.566  24.117  24.580  1.00  0.00    -0.744 OA
ENDBRANCH  93  94
ENDBRANCH  67  88
ENDBRANCH  41  42
ENDBRANCH  34  36
ENDBRANCH  33  34
ENDBRANCH  32  33
ENDBRANCH  31  32
ENDBRANCH  30  31
ENDBRANCH   1  30
TORSDOF 21
ENDMDL
MODEL 3
REMARK VINA RESULT:      -8.5      2.796      8.779
REMARK SMILES O=C(OCCOCCOC(=O)c1ccc(-c2c3nc(c(-c4ccc(S(=O)(=O)[O-])cc4)c4ccc([nH]4)c(-c4ccc(S(=O)(=O)[O-])cc4)c4nc(c(-c5ccc(S(=O)(=O)[O-])cc5)c5ccc2[nH]5)C=C4)C=C3)cc1)c1ccc(/C=C/c2ccnc(-c3cccc([N+](=O)[O-])c3)[n+]2[O-])cc1
REMARK SMILES IDX 5 1 4 2 3 3 2 4 1 5 72 6 73 7 95 8 74 9 94 10 75 11 76 12
REMARK SMILES IDX 77 13 78 14 79 15 92 16 80 17 82 18 93 19 81 20 83 21 84 22
REMARK SMILES IDX 91 23 85 24 87 25 86 26 88 27 89 28 90 29 6 30 7 31 8 32
REMARK SMILES IDX 9 33 10 34 11 35 12 36 13 37 71 38 14 39 70 40 15 41 16 42
REMARK SMILES IDX 17 43 64 44 18 45 69 46 63 47 65 48 19 49 68 50 62 51 61 52
REMARK SMILES IDX 20 54 50 55 31 56 49 57 32 58 35 59 48 60 66 61 33 62 34 63
REMARK SMILES IDX 47 65 67 66 36 67 21 68 22 69 30 70 23 71 29 72 24 73 25 74
REMARK SMILES IDX 26 75 27 76 28 77 51 78 52 79 60 80 53 81 59 82 54 83 55 84
REMARK SMILES IDX 56 85 57 86 58 87 37 88 38 89 46 90 39 91 45 92 40 93 41 94
REMARK SMILES IDX 42 95 43 96 44 97
REMARK H PARENT 65 53 35 64
REMARK Flexibility Score: inf
ROOT
ATOM      1  C   UNL A   1      35.348  33.586  29.716  1.00  0.00     0.202 C 
ENDROOT
BRANCH   1   2
ATOM      2  C   UNL A   1      35.285  32.574  28.573  1.00  0.00     0.261 C 
BRANCH   2   3
ATOM      3  O   UNL A   1      36.413  31.673  28.633  1.00  0.00    -0.460 OA
BRANCH   3   4
ATOM      4  C   UNL A   1      36.350  30.321  28.558  1.00  0.00     0.338 C 
ATOM      5  O   UNL A   1      35.281  29.744  28.384  1.00  0.00    -0.246 OA
BRANCH   4   6
ATOM      6  C   UNL A   1      37.581  29.509  28.694  1.00  0.00     0.060 A 
ATOM      7  C   UNL A   1      37.777  28.657  29.777  1.00  0.00     0.016 A 
ATOM      8  C   UNL A   1      38.527  29.523  27.669  1.00  0.00     0.016 A 
ATOM      9  C   UNL A   1      38.939  27.913  29.910  1.00  0.00     0.009 A 
ATOM     10  C   UNL A   1      39.691  28.752  27.786  1.00  0.00     0.009 A 
ATOM     11  C   UNL A   1      39.920  27.963  28.925  1.00  0.00    -0.025 A 
BRANCH  11  12
ATOM     12  C   UNL A   1      41.164  27.202  29.054  1.00  0.00     0.012 C 
ATOM     13  C   UNL A   1      41.786  26.574  28.041  1.00  0.00     0.053 C 
BRANCH  13  14
ATOM     14  C   UNL A   1      42.990  25.770  28.255  1.00  0.00     0.134 A 
ATOM     15  C   UNL A   1      42.878  24.478  28.766  1.00  0.00     0.100 A 
ATOM     16  N   UNL A   1      44.244  26.300  27.935  1.00  0.00    -0.228 N 
ATOM     17  C   UNL A   1      44.028  23.732  28.880  1.00  0.00     0.259 A 
ATOM     18  C   UNL A   1      45.354  25.474  28.083  1.00  0.00     0.333 A 
ATOM     19  O   UNL A   1      44.370  27.504  27.507  1.00  0.00    -0.710 OA
ATOM     20  N   UNL A   1      45.248  24.186  28.532  1.00  0.00    -0.049 NA
BRANCH  18  21
ATOM     21  C   UNL A   1      46.660  25.981  27.677  1.00  0.00     0.076 A 
ATOM     22  C   UNL A   1      47.775  25.834  28.518  1.00  0.00     0.017 A 
ATOM     23  C   UNL A   1      46.850  26.501  26.385  1.00  0.00     0.102 A 
ATOM     24  C   UNL A   1      49.057  26.155  28.070  1.00  0.00     0.008 A 
ATOM     25  C   UNL A   1      48.136  26.820  25.939  1.00  0.00     0.270 A 
ATOM     26  C   UNL A   1      49.243  26.644  26.776  1.00  0.00     0.085 A 
BRANCH  25  27
ATOM     27  N   UNL A   1      48.324  27.319  24.572  1.00  0.00     0.062 N 
ATOM     28  O   UNL A   1      47.387  27.178  23.773  1.00  0.00    -0.258 OA
ATOM     29  O   UNL A   1      49.416  27.832  24.288  1.00  0.00    -0.258 OA
ENDBRANCH  25  27
ENDBRANCH  18  21
ENDBRANCH  13  14
ENDBRANCH  11  12
ENDBRANCH   4   6
ENDBRANCH   3   4
ENDBRANCH   2   3
ENDBRANCH   1   2
BRANCH   1  30
ATOM     30  O   UNL A   1      34.247  33.508  30.619  1.00  0.00    -0.374 OA
BRANCH  30  31
ATOM     31  C   UNL A   1      34.053  34.654  31.461  1.00  0.00     0.202 C 
BRANCH  31  32
ATOM     32  C   UNL A   1      33.889  34.179  32.909  1.00  0.00     0.261 C 
BRANCH  32  33
ATOM     33  O   UNL A   1      34.719  33.025  33.091  1.00  0.00    -0.460 OA
BRANCH  33  34
ATOM     34  C   UNL A   1      35.696  33.187  34.020  1.00  0.00     0.338 C 
ATOM     35  O   UNL A   1      35.548  33.458  35.201  1.00  0.00    -0.246 OA
BRANCH  34  36
ATOM     36  C   UNL A   1      36.972  32.752  33.407  1.00  0.00     0.060 A 
ATOM     37  C   UNL A   1      38.175  33.052  34.062  1.00  0.00     0.016 A 
ATOM     38  C   UNL A   1      36.980  32.000  32.226  1.00  0.00     0.016 A 
ATOM     39  C   UNL A   1      39.393  32.651  33.510  1.00  0.00     0.010 A 
ATOM     40  C   UNL A   1      38.190  31.595  31.679  1.00  0.00     0.010 A 
ATOM     41  C   UNL A   1      39.398  31.962  32.293  1.00  0.00    -0.014 A 
BRANCH  41  42
ATOM     42  C   UNL A   1      40.626  31.825  31.483  1.00  0.00     0.031 A 
ATOM     43  C   UNL A   1      41.467  30.605  31.731  1.00  0.00     0.074 A 
ATOM     44  C   UNL A   1      41.043  32.811  30.675  1.00  0.00     0.049 A 
ATOM     45  N   UNL A   1      42.693  30.353  31.365  1.00  0.00    -0.248 NA
ATOM     46  C   UNL A   1      40.844  29.542  32.540  1.00  0.00     0.031 C 
ATOM     47  C   UNL A   1      40.293  34.025  30.362  1.00  0.00     0.029 A 
ATOM     48  N   UNL A   1      42.232  32.962  30.010  1.00  0.00    -0.354 N 
ATOM     49  C   UNL A   1      43.005  29.123  31.933  1.00  0.00     0.074 A 
ATOM     50  C   UNL A   1      41.848  28.693  32.684  1.00  0.00     0.031 C 
ATOM     51  C   UNL A   1      41.057  34.818  29.592  1.00  0.00     0.029 A 
ATOM     52  C   UNL A   1      42.361  34.186  29.400  1.00  0.00     0.049 A 
ATOM     53  H   UNL A   1      42.923  32.263  29.972  1.00  0.00     0.167 HD
ATOM     54  C   UNL A   1      44.158  28.422  31.844  1.00  0.00     0.031 A 
ATOM     55  C   UNL A   1      43.429  34.745  28.797  1.00  0.00     0.031 A 
ATOM     56  C   UNL A   1      45.304  28.885  31.113  1.00  0.00     0.049 A 
ATOM     57  C   UNL A   1      44.715  33.964  28.724  1.00  0.00     0.074 A 
ATOM     58  C   UNL A   1      46.517  28.251  30.918  1.00  0.00     0.029 A 
ATOM     59  N   UNL A   1      45.379  30.110  30.464  1.00  0.00    -0.354 N 
ATOM     60  N   UNL A   1      44.992  32.784  29.229  1.00  0.00    -0.248 NA
ATOM     61  C   UNL A   1      45.829  34.584  27.994  1.00  0.00     0.031 C 
ATOM     62  C   UNL A   1      47.344  29.117  30.195  1.00  0.00     0.029 A 
ATOM     63  C   UNL A   1      46.625  30.261  29.882  1.00  0.00     0.049 A 
ATOM     64  H   UNL A   1      44.652  30.773  30.423  1.00  0.00     0.167 HD
ATOM     65  C   UNL A   1      46.300  32.503  28.850  1.00  0.00     0.074 A 
ATOM     66  C   UNL A   1      46.759  33.640  28.074  1.00  0.00     0.031 C 
ATOM     67  C   UNL A   1      47.050  31.403  29.110  1.00  0.00     0.031 A 
BRANCH  54  68
ATOM     68  C   UNL A   1      44.233  27.123  32.602  1.00  0.00    -0.014 A 
ATOM     69  C   UNL A   1      44.441  27.095  33.993  1.00  0.00     0.010 A 
ATOM     70  C   UNL A   1      44.125  25.905  31.904  1.00  0.00     0.010 A 
ATOM     71  C   UNL A   1      44.610  25.879  34.661  1.00  0.00     0.020 A 
ATOM     72  C   UNL A   1      44.258  24.687  32.574  1.00  0.00     0.020 A 
ATOM     73  C   UNL A   1      44.528  24.682  33.944  1.00  0.00     0.054 A 
BRANCH  73  74
ATOM     74  S   UNL A   1      44.773  23.119  34.829  1.00  0.00     0.124 S 
ATOM     75  O   UNL A   1      44.341  23.469  36.180  1.00  0.00    -0.237 OA
ATOM     76  O   UNL A   1      43.896  22.200  34.109  1.00  0.00    -0.237 OA
ATOM     77  O   UNL A   1      46.203  22.856  34.682  1.00  0.00    -0.744 OA
ENDBRANCH  73  74
ENDBRANCH  54  68
BRANCH  55  78
ATOM     78  C   UNL A   1      43.310  36.113  28.226  1.00  0.00    -0.014 A 
ATOM     79  C   UNL A   1      42.662  36.316  26.995  1.00  0.00     0.010 A 
ATOM     80  C   UNL A   1      43.774  37.230  28.947  1.00  0.00     0.010 A 
ATOM     81  C   UNL A   1      42.468  37.609  26.502  1.00  0.00     0.020 A 
ATOM     82  C   UNL A   1      43.561  38.526  28.468  1.00  0.00     0.020 A 
ATOM     83  C   UNL A   1      42.908  38.708  27.248  1.00  0.00     0.054 A 
BRANCH  83  84
ATOM     84  S   UNL A   1      42.546  40.378  26.637  1.00  0.00     0.124 S 
ATOM     85  O   UNL A   1      42.950  41.210  27.764  1.00  0.00    -0.237 OA
ATOM     86  O   UNL A   1      43.394  40.467  25.449  1.00  0.00    -0.237 OA
ATOM     87  O   UNL A   1      41.111  40.340  26.366  1.00  0.00    -0.744 OA
ENDBRANCH  83  84
ENDBRANCH  55  78
BRANCH  67  88
ATOM     88  C   UNL A   1      48.429  31.339  28.510  1.00  0.00    -0.014 A 
ATOM     89  C   UNL A   1      48.707  30.534  27.392  1.00  0.00     0.010 A 
ATOM     90  C   UNL A   1      49.434  32.185  29.015  1.00  0.00     0.010 A 
ATOM     91  C   UNL A   1      49.971  30.568  26.799  1.00  0.00     0.020 A 
ATOM     92  C   UNL A   1      50.689  32.242  28.408  1.00  0.00     0.020 A 
ATOM     93  C   UNL A   1      50.953  31.426  27.307  1.00  0.00     0.054 A 
BRANCH  93  94
ATOM     94  S   UNL A   1      52.561  31.509  26.471  1.00  0.00     0.124 S 
ATOM     95  O   UNL A   1      52.202  32.089  25.180  1.00  0.00    -0.237 OA
ATOM     96  O   UNL A   1      53.336  32.375  27.356  1.00  0.00    -0.237 OA
ATOM     97  O   UNL A   1      53.002  30.117  26.429  1.00  0.00    -0.744 OA
ENDBRANCH  93  94
ENDBRANCH  67  88
ENDBRANCH  41  42
ENDBRANCH  34  36
ENDBRANCH  33  34
ENDBRANCH  32  33
ENDBRANCH  31  32
ENDBRANCH  30  31
ENDBRANCH   1  30
TORSDOF 21
ENDMDL
