MODEL 1
REMARK VINA RESULT:      -9.6      0.000      0.000
REMARK SMILES Cc1cc(=O)n(Cc2cc(C(=O)OCCOCCOC(=O)c3ccc(-c4c5nc(c(-c6ccc(S(=O)(=O)[O-])cc6)c6ccc([nH]6)c(-c6ccc(S(=O)(=O)[O-])cc6)c6nc(c(-c7ccc(S(=O)(=O)[O-])cc7)c7ccc4[nH]7)C=C6)C=C5)cc3)oc2C)cc1[N+](=O)[O-]
REMARK SMILES IDX 16 1 15 2 14 3 13 4 11 5 12 6 10 7 8 8 9 9 83 10 82 11 84 12
REMARK SMILES IDX 7 13 6 14 1 15 2 16 3 17 86 18 4 19 85 20 5 21 87 22 88 23
REMARK SMILES IDX 89 24 17 25 18 26 19 27 20 28 21 29 22 30 23 31 81 32 24 33
REMARK SMILES IDX 80 34 25 35 26 36 27 37 74 38 28 39 79 40 73 41 75 42 29 43
REMARK SMILES IDX 78 44 72 45 71 46 30 48 60 49 41 50 59 51 42 52 45 53 58 54
REMARK SMILES IDX 76 55 43 56 44 57 57 59 77 60 46 61 31 62 32 63 40 64 33 65
REMARK SMILES IDX 39 66 34 67 35 68 36 69 37 70 38 71 61 72 62 73 70 74 63 75
REMARK SMILES IDX 69 76 64 77 65 78 66 79 67 80 68 81 47 82 48 83 56 84 49 85
REMARK SMILES IDX 55 86 50 87 51 88 52 89 53 90 54 91
REMARK H PARENT 75 47 45 58
REMARK Flexibility Score: inf
ROOT
ATOM      1  O   UNL A   1      33.464  33.930  29.477  1.00  0.00    -0.374 OA
ENDROOT
BRANCH   1   2
ATOM      2  C   UNL A   1      33.578  35.307  29.846  1.00  0.00     0.202 C 
BRANCH   2   3
ATOM      3  C   UNL A   1      33.337  35.568  31.335  1.00  0.00     0.261 C 
BRANCH   3   4
ATOM      4  O   UNL A   1      34.079  34.629  32.130  1.00  0.00    -0.457 OA
BRANCH   4   5
ATOM      5  C   UNL A   1      34.845  35.165  33.124  1.00  0.00     0.374 C 
ATOM      6  O   UNL A   1      34.639  36.246  33.664  1.00  0.00    -0.242 OA
BRANCH   5   7
ATOM      7  C   UNL A   1      35.875  34.224  33.494  1.00  0.00     0.212 A 
ATOM      8  C   UNL A   1      37.651  33.047  34.272  1.00  0.00     0.014 A 
ATOM      9  C   UNL A   1      37.031  34.336  34.242  1.00  0.00     0.064 A 
ATOM     10  C   UNL A   1      36.867  32.251  33.457  1.00  0.00     0.107 A 
ATOM     11  O   UNL A   1      35.789  32.949  33.007  1.00  0.00    -0.454 OA
ATOM     12  C   UNL A   1      36.944  30.853  32.989  1.00  0.00     0.088 C 
BRANCH   8  13
ATOM     13  C   UNL A   1      38.870  32.667  35.053  1.00  0.00     0.164 C 
BRANCH  13  14
ATOM     14  N   UNL A   1      38.724  33.216  36.403  1.00  0.00    -0.304 N 
ATOM     15  C   UNL A   1      38.932  34.450  40.522  1.00  0.00     0.052 C 
ATOM     16  C   UNL A   1      38.789  34.065  39.077  1.00  0.00     0.034 A 
ATOM     17  C   UNL A   1      38.120  32.942  38.749  1.00  0.00     0.082 A 
ATOM     18  C   UNL A   1      39.387  34.856  38.005  1.00  0.00     0.288 A 
ATOM     19  C   UNL A   1      38.028  32.462  37.344  1.00  0.00     0.251 A 
ATOM     20  C   UNL A   1      39.358  34.408  36.735  1.00  0.00     0.175 A 
ATOM     21  O   UNL A   1      37.404  31.435  37.096  1.00  0.00    -0.269 OA
BRANCH  18  22
ATOM     22  N   UNL A   1      40.041  36.156  38.200  1.00  0.00     0.064 N 
ATOM     23  O   UNL A   1      41.282  36.187  38.188  1.00  0.00    -0.258 OA
ATOM     24  O   UNL A   1      39.328  37.152  38.369  1.00  0.00    -0.258 OA
ENDBRANCH  18  22
ENDBRANCH  13  14
ENDBRANCH   8  13
ENDBRANCH   5   7
ENDBRANCH   4   5
ENDBRANCH   3   4
ENDBRANCH   2   3
ENDBRANCH   1   2
BRANCH   1  25
ATOM     25  C   UNL A   1      33.650  33.641  28.088  1.00  0.00     0.202 C 
BRANCH  25  26
ATOM     26  C   UNL A   1      33.260  32.217  27.683  1.00  0.00     0.261 C 
BRANCH  26  27
ATOM     27  O   UNL A   1      33.968  31.256  28.486  1.00  0.00    -0.460 OA
BRANCH  27  28
ATOM     28  C   UNL A   1      34.488  30.199  27.814  1.00  0.00     0.338 C 
ATOM     29  O   UNL A   1      33.971  29.598  26.887  1.00  0.00    -0.246 OA
BRANCH  28  30
ATOM     30  C   UNL A   1      35.884  29.971  28.254  1.00  0.00     0.060 A 
ATOM     31  C   UNL A   1      36.202  29.566  29.553  1.00  0.00     0.016 A 
ATOM     32  C   UNL A   1      36.903  30.173  27.312  1.00  0.00     0.016 A 
ATOM     33  C   UNL A   1      37.538  29.339  29.899  1.00  0.00     0.010 A 
ATOM     34  C   UNL A   1      38.235  29.938  27.657  1.00  0.00     0.010 A 
ATOM     35  C   UNL A   1      38.562  29.504  28.948  1.00  0.00    -0.014 A 
BRANCH  35  36
ATOM     36  C   UNL A   1      39.946  29.083  29.273  1.00  0.00     0.031 A 
ATOM     37  C   UNL A   1      40.880  29.961  30.049  1.00  0.00     0.074 A 
ATOM     38  C   UNL A   1      40.364  27.879  28.837  1.00  0.00     0.049 A 
ATOM     39  N   UNL A   1      42.059  29.668  30.536  1.00  0.00    -0.248 NA
ATOM     40  C   UNL A   1      40.448  31.342  30.305  1.00  0.00     0.031 C 
ATOM     41  C   UNL A   1      39.565  26.965  28.021  1.00  0.00     0.029 A 
ATOM     42  N   UNL A   1      41.547  27.212  29.029  1.00  0.00    -0.354 N 
ATOM     43  C   UNL A   1      42.504  30.817  31.175  1.00  0.00     0.074 A 
ATOM     44  C   UNL A   1      41.490  31.830  30.969  1.00  0.00     0.031 C 
ATOM     45  C   UNL A   1      40.261  25.838  27.818  1.00  0.00     0.029 A 
ATOM     46  C   UNL A   1      41.561  25.954  28.476  1.00  0.00     0.049 A 
ATOM     47  H   UNL A   1      42.312  27.596  29.517  1.00  0.00     0.167 HD
ATOM     48  C   UNL A   1      43.646  30.999  31.882  1.00  0.00     0.031 A 
ATOM     49  C   UNL A   1      42.496  24.984  28.514  1.00  0.00     0.031 A 
ATOM     50  C   UNL A   1      44.659  29.989  32.057  1.00  0.00     0.049 A 
ATOM     51  C   UNL A   1      43.748  25.199  29.315  1.00  0.00     0.074 A 
ATOM     52  C   UNL A   1      45.824  30.066  32.801  1.00  0.00     0.029 A 
ATOM     53  N   UNL A   1      44.642  28.730  31.474  1.00  0.00    -0.354 N 
ATOM     54  N   UNL A   1      44.107  26.254  30.005  1.00  0.00    -0.248 NA
ATOM     55  C   UNL A   1      44.705  24.086  29.370  1.00  0.00     0.031 C 
ATOM     56  C   UNL A   1      46.541  28.879  32.618  1.00  0.00     0.029 A 
ATOM     57  C   UNL A   1      45.789  28.032  31.819  1.00  0.00     0.049 A 
ATOM     58  H   UNL A   1      43.921  28.383  30.900  1.00  0.00     0.167 HD
ATOM     59  C   UNL A   1      45.321  25.926  30.597  1.00  0.00     0.074 A 
ATOM     60  C   UNL A   1      45.630  24.569  30.192  1.00  0.00     0.031 C 
ATOM     61  C   UNL A   1      46.100  26.684  31.407  1.00  0.00     0.031 A 
BRANCH  48  62
ATOM     62  C   UNL A   1      43.866  32.336  32.542  1.00  0.00    -0.014 A 
ATOM     63  C   UNL A   1      43.554  32.511  33.903  1.00  0.00     0.010 A 
ATOM     64  C   UNL A   1      44.276  33.450  31.787  1.00  0.00     0.010 A 
ATOM     65  C   UNL A   1      43.633  33.776  34.494  1.00  0.00     0.020 A 
ATOM     66  C   UNL A   1      44.381  34.712  32.380  1.00  0.00     0.020 A 
ATOM     67  C   UNL A   1      44.040  34.870  33.725  1.00  0.00     0.054 A 
BRANCH  67  68
ATOM     68  S   UNL A   1      44.139  36.505  34.505  1.00  0.00     0.124 S 
ATOM     69  O   UNL A   1      43.192  37.282  33.715  1.00  0.00    -0.237 OA
ATOM     70  O   UNL A   1      43.738  36.229  35.883  1.00  0.00    -0.237 OA
ATOM     71  O   UNL A   1      45.545  36.874  34.340  1.00  0.00    -0.744 OA
ENDBRANCH  67  68
ENDBRANCH  48  62
BRANCH  49  72
ATOM     72  C   UNL A   1      42.203  23.692  27.839  1.00  0.00    -0.014 A 
ATOM     73  C   UNL A   1      41.549  22.658  28.534  1.00  0.00     0.010 A 
ATOM     74  C   UNL A   1      42.705  23.440  26.550  1.00  0.00     0.010 A 
ATOM     75  C   UNL A   1      41.461  21.378  27.982  1.00  0.00     0.020 A 
ATOM     76  C   UNL A   1      42.596  22.167  25.983  1.00  0.00     0.020 A 
ATOM     77  C   UNL A   1      42.006  21.137  26.719  1.00  0.00     0.054 A 
BRANCH  77  78
ATOM     78  S   UNL A   1      41.970  19.445  26.062  1.00  0.00     0.124 S 
ATOM     79  O   UNL A   1      42.484  18.676  27.193  1.00  0.00    -0.237 OA
ATOM     80  O   UNL A   1      40.554  19.249  25.759  1.00  0.00    -0.237 OA
ATOM     81  O   UNL A   1      42.851  19.511  24.899  1.00  0.00    -0.744 OA
ENDBRANCH  77  78
ENDBRANCH  49  72
BRANCH  61  82
ATOM     82  C   UNL A   1      47.379  26.082  31.933  1.00  0.00    -0.014 A 
ATOM     83  C   UNL A   1      48.508  26.011  31.097  1.00  0.00     0.010 A 
ATOM     84  C   UNL A   1      47.431  25.481  33.204  1.00  0.00     0.010 A 
ATOM     85  C   UNL A   1      49.655  25.324  31.506  1.00  0.00     0.020 A 
ATOM     86  C   UNL A   1      48.586  24.817  33.628  1.00  0.00     0.020 A 
ATOM     87  C   UNL A   1      49.683  24.724  32.766  1.00  0.00     0.054 A 
BRANCH  87  88
ATOM     88  S   UNL A   1      51.171  23.819  33.275  1.00  0.00     0.124 S 
ATOM     89  O   UNL A   1      51.303  22.823  32.215  1.00  0.00    -0.237 OA
ATOM     90  O   UNL A   1      52.195  24.862  33.289  1.00  0.00    -0.237 OA
ATOM     91  O   UNL A   1      50.816  23.289  34.589  1.00  0.00    -0.744 OA
ENDBRANCH  87  88
ENDBRANCH  61  82
ENDBRANCH  35  36
ENDBRANCH  28  30
ENDBRANCH  27  28
ENDBRANCH  26  27
ENDBRANCH  25  26
ENDBRANCH   1  25
TORSDOF 20
ENDMDL
MODEL 2
REMARK VINA RESULT:      -9.6      5.389     12.227
REMARK SMILES Cc1cc(=O)n(Cc2cc(C(=O)OCCOCCOC(=O)c3ccc(-c4c5nc(c(-c6ccc(S(=O)(=O)[O-])cc6)c6ccc([nH]6)c(-c6ccc(S(=O)(=O)[O-])cc6)c6nc(c(-c7ccc(S(=O)(=O)[O-])cc7)c7ccc4[nH]7)C=C6)C=C5)cc3)oc2C)cc1[N+](=O)[O-]
REMARK SMILES IDX 16 1 15 2 14 3 13 4 11 5 12 6 10 7 8 8 9 9 83 10 82 11 84 12
REMARK SMILES IDX 7 13 6 14 1 15 2 16 3 17 86 18 4 19 85 20 5 21 87 22 88 23
REMARK SMILES IDX 89 24 17 25 18 26 19 27 20 28 21 29 22 30 23 31 81 32 24 33
REMARK SMILES IDX 80 34 25 35 26 36 27 37 74 38 28 39 79 40 73 41 75 42 29 43
REMARK SMILES IDX 78 44 72 45 71 46 30 48 60 49 41 50 59 51 42 52 45 53 58 54
REMARK SMILES IDX 76 55 43 56 44 57 57 59 77 60 46 61 31 62 32 63 40 64 33 65
REMARK SMILES IDX 39 66 34 67 35 68 36 69 37 70 38 71 61 72 62 73 70 74 63 75
REMARK SMILES IDX 69 76 64 77 65 78 66 79 67 80 68 81 47 82 48 83 56 84 49 85
REMARK SMILES IDX 55 86 50 87 51 88 52 89 53 90 54 91
REMARK H PARENT 75 47 45 58
REMARK Flexibility Score: inf
ROOT
ATOM      1  O   UNL A   1      39.233  21.944  25.829  1.00  0.00    -0.374 OA
ENDROOT
BRANCH   1   2
ATOM      2  C   UNL A   1      38.073  22.767  25.976  1.00  0.00     0.202 C 
BRANCH   2   3
ATOM      3  C   UNL A   1      36.800  22.147  25.392  1.00  0.00     0.261 C 
BRANCH   3   4
ATOM      4  O   UNL A   1      35.638  22.730  26.004  1.00  0.00    -0.457 OA
BRANCH   4   5
ATOM      5  C   UNL A   1      34.457  22.089  25.770  1.00  0.00     0.374 C 
ATOM      6  O   UNL A   1      34.350  20.920  25.417  1.00  0.00    -0.242 OA
BRANCH   5   7
ATOM      7  C   UNL A   1      33.362  22.974  26.088  1.00  0.00     0.212 A 
ATOM      8  C   UNL A   1      31.912  24.649  26.572  1.00  0.00     0.014 A 
ATOM      9  C   UNL A   1      33.281  24.337  26.299  1.00  0.00     0.064 A 
ATOM     10  C   UNL A   1      31.262  23.429  26.597  1.00  0.00     0.107 A 
ATOM     11  O   UNL A   1      32.125  22.425  26.286  1.00  0.00    -0.454 OA
ATOM     12  C   UNL A   1      29.878  22.996  26.876  1.00  0.00     0.088 C 
BRANCH   8  13
ATOM     13  C   UNL A   1      31.333  26.018  26.757  1.00  0.00     0.164 C 
BRANCH  13  14
ATOM     14  N   UNL A   1      31.852  26.870  25.685  1.00  0.00    -0.304 N 
ATOM     15  C   UNL A   1      33.828  28.787  22.376  1.00  0.00     0.052 C 
ATOM     16  C   UNL A   1      33.093  28.188  23.540  1.00  0.00     0.034 A 
ATOM     17  C   UNL A   1      33.591  28.322  24.785  1.00  0.00     0.082 A 
ATOM     18  C   UNL A   1      31.859  27.425  23.365  1.00  0.00     0.288 A 
ATOM     19  C   UNL A   1      32.957  27.670  25.963  1.00  0.00     0.251 A 
ATOM     20  C   UNL A   1      31.302  26.786  24.411  1.00  0.00     0.175 A 
ATOM     21  O   UNL A   1      33.448  27.826  27.076  1.00  0.00    -0.269 OA
BRANCH  18  22
ATOM     22  N   UNL A   1      31.140  27.296  22.090  1.00  0.00     0.064 N 
ATOM     23  O   UNL A   1      31.439  26.343  21.352  1.00  0.00    -0.258 OA
ATOM     24  O   UNL A   1      30.278  28.137  21.814  1.00  0.00    -0.258 OA
ENDBRANCH  18  22
ENDBRANCH  13  14
ENDBRANCH   8  13
ENDBRANCH   5   7
ENDBRANCH   4   5
ENDBRANCH   3   4
ENDBRANCH   2   3
ENDBRANCH   1   2
BRANCH   1  25
ATOM     25  C   UNL A   1      38.994  20.608  25.376  1.00  0.00     0.202 C 
BRANCH  25  26
ATOM     26  C   UNL A   1      39.788  19.537  26.129  1.00  0.00     0.261 C 
BRANCH  26  27
ATOM     27  O   UNL A   1      40.986  19.199  25.407  1.00  0.00    -0.460 OA
BRANCH  27  28
ATOM     28  C   UNL A   1      42.135  19.240  26.125  1.00  0.00     0.338 C 
ATOM     29  O   UNL A   1      42.885  18.307  26.355  1.00  0.00    -0.246 OA
BRANCH  28  30
ATOM     30  C   UNL A   1      42.459  20.646  26.462  1.00  0.00     0.060 A 
ATOM     31  C   UNL A   1      42.528  21.102  27.781  1.00  0.00     0.016 A 
ATOM     32  C   UNL A   1      42.701  21.530  25.400  1.00  0.00     0.016 A 
ATOM     33  C   UNL A   1      42.867  22.435  28.035  1.00  0.00     0.010 A 
ATOM     34  C   UNL A   1      43.046  22.858  25.656  1.00  0.00     0.010 A 
ATOM     35  C   UNL A   1      43.148  23.317  26.975  1.00  0.00    -0.014 A 
BRANCH  35  36
ATOM     36  C   UNL A   1      43.683  24.670  27.262  1.00  0.00     0.031 A 
ATOM     37  C   UNL A   1      45.137  24.998  27.102  1.00  0.00     0.074 A 
ATOM     38  C   UNL A   1      42.826  25.616  27.691  1.00  0.00     0.049 A 
ATOM     39  N   UNL A   1      45.721  26.166  27.167  1.00  0.00    -0.248 NA
ATOM     40  C   UNL A   1      46.054  23.877  26.847  1.00  0.00     0.031 C 
ATOM     41  C   UNL A   1      41.401  25.398  27.942  1.00  0.00     0.029 A 
ATOM     42  N   UNL A   1      43.018  26.945  27.973  1.00  0.00    -0.354 N 
ATOM     43  C   UNL A   1      47.070  25.931  26.941  1.00  0.00     0.074 A 
ATOM     44  C   UNL A   1      47.226  24.499  26.788  1.00  0.00     0.031 C 
ATOM     45  C   UNL A   1      40.838  26.560  28.300  1.00  0.00     0.029 A 
ATOM     46  C   UNL A   1      41.861  27.603  28.318  1.00  0.00     0.049 A 
ATOM     47  H   UNL A   1      43.898  27.385  27.933  1.00  0.00     0.167 HD
ATOM     48  C   UNL A   1      48.079  26.832  26.852  1.00  0.00     0.031 A 
ATOM     49  C   UNL A   1      41.634  28.903  28.589  1.00  0.00     0.031 A 
ATOM     50  C   UNL A   1      47.914  28.253  27.033  1.00  0.00     0.049 A 
ATOM     51  C   UNL A   1      42.761  29.889  28.470  1.00  0.00     0.074 A 
ATOM     52  C   UNL A   1      48.869  29.247  26.909  1.00  0.00     0.029 A 
ATOM     53  N   UNL A   1      46.729  28.880  27.389  1.00  0.00    -0.354 N 
ATOM     54  N   UNL A   1      44.012  29.665  28.149  1.00  0.00    -0.248 NA
ATOM     55  C   UNL A   1      42.443  31.300  28.719  1.00  0.00     0.031 C 
ATOM     56  C   UNL A   1      48.277  30.467  27.251  1.00  0.00     0.029 A 
ATOM     57  C   UNL A   1      46.936  30.245  27.517  1.00  0.00     0.049 A 
ATOM     58  H   UNL A   1      45.868  28.424  27.530  1.00  0.00     0.167 HD
ATOM     59  C   UNL A   1      44.628  30.911  28.134  1.00  0.00     0.074 A 
ATOM     60  C   UNL A   1      43.609  31.886  28.467  1.00  0.00     0.031 C 
ATOM     61  C   UNL A   1      45.921  31.214  27.859  1.00  0.00     0.031 A 
BRANCH  48  62
ATOM     62  C   UNL A   1      49.459  26.321  26.529  1.00  0.00    -0.014 A 
ATOM     63  C   UNL A   1      50.330  25.934  27.564  1.00  0.00     0.010 A 
ATOM     64  C   UNL A   1      49.935  26.330  25.205  1.00  0.00     0.010 A 
ATOM     65  C   UNL A   1      51.654  25.580  27.287  1.00  0.00     0.020 A 
ATOM     66  C   UNL A   1      51.251  25.953  24.919  1.00  0.00     0.020 A 
ATOM     67  C   UNL A   1      52.108  25.599  25.964  1.00  0.00     0.054 A 
BRANCH  67  68
ATOM     68  S   UNL A   1      53.827  25.136  25.618  1.00  0.00     0.124 S 
ATOM     69  O   UNL A   1      54.483  25.411  26.891  1.00  0.00    -0.237 OA
ATOM     70  O   UNL A   1      53.714  23.724  25.255  1.00  0.00    -0.237 OA
ATOM     71  O   UNL A   1      54.200  26.022  24.515  1.00  0.00    -0.744 OA
ENDBRANCH  67  68
ENDBRANCH  48  62
BRANCH  49  72
ATOM     72  C   UNL A   1      40.243  29.328  28.899  1.00  0.00    -0.014 A 
ATOM     73  C   UNL A   1      39.297  29.473  27.866  1.00  0.00     0.010 A 
ATOM     74  C   UNL A   1      39.902  29.729  30.202  1.00  0.00     0.010 A 
ATOM     75  C   UNL A   1      38.061  30.073  28.118  1.00  0.00     0.020 A 
ATOM     76  C   UNL A   1      38.655  30.304  30.464  1.00  0.00     0.020 A 
ATOM     77  C   UNL A   1      37.758  30.505  29.412  1.00  0.00     0.054 A 
BRANCH  77  78
ATOM     78  S   UNL A   1      36.188  31.369  29.697  1.00  0.00     0.124 S 
ATOM     79  O   UNL A   1      35.897  31.008  31.083  1.00  0.00    -0.237 OA
ATOM     80  O   UNL A   1      36.547  32.767  29.473  1.00  0.00    -0.237 OA
ATOM     81  O   UNL A   1      35.293  30.790  28.700  1.00  0.00    -0.744 OA
ENDBRANCH  77  78
ENDBRANCH  49  72
BRANCH  61  82
ATOM     82  C   UNL A   1      46.338  32.662  27.898  1.00  0.00    -0.014 A 
ATOM     83  C   UNL A   1      46.299  33.428  26.718  1.00  0.00     0.010 A 
ATOM     84  C   UNL A   1      46.879  33.232  29.065  1.00  0.00     0.010 A 
ATOM     85  C   UNL A   1      46.821  34.724  26.693  1.00  0.00     0.020 A 
ATOM     86  C   UNL A   1      47.376  34.539  29.052  1.00  0.00     0.020 A 
ATOM     87  C   UNL A   1      47.365  35.268  27.859  1.00  0.00     0.054 A 
BRANCH  87  88
ATOM     88  S   UNL A   1      48.056  36.945  27.806  1.00  0.00     0.124 S 
ATOM     89  O   UNL A   1      46.871  37.773  28.014  1.00  0.00    -0.237 OA
ATOM     90  O   UNL A   1      49.018  36.934  28.906  1.00  0.00    -0.237 OA
ATOM     91  O   UNL A   1      48.649  37.028  26.473  1.00  0.00    -0.744 OA
ENDBRANCH  87  88
ENDBRANCH  61  82
ENDBRANCH  35  36
ENDBRANCH  28  30
ENDBRANCH  27  28
ENDBRANCH  26  27
ENDBRANCH  25  26
ENDBRANCH   1  25
TORSDOF 20
ENDMDL
MODEL 3
REMARK VINA RESULT:      -9.4      5.466     11.431
REMARK SMILES Cc1cc(=O)n(Cc2cc(C(=O)OCCOCCOC(=O)c3ccc(-c4c5nc(c(-c6ccc(S(=O)(=O)[O-])cc6)c6ccc([nH]6)c(-c6ccc(S(=O)(=O)[O-])cc6)c6nc(c(-c7ccc(S(=O)(=O)[O-])cc7)c7ccc4[nH]7)C=C6)C=C5)cc3)oc2C)cc1[N+](=O)[O-]
REMARK SMILES IDX 16 1 15 2 14 3 13 4 11 5 12 6 10 7 8 8 9 9 83 10 82 11 84 12
REMARK SMILES IDX 7 13 6 14 1 15 2 16 3 17 86 18 4 19 85 20 5 21 87 22 88 23
REMARK SMILES IDX 89 24 17 25 18 26 19 27 20 28 21 29 22 30 23 31 81 32 24 33
REMARK SMILES IDX 80 34 25 35 26 36 27 37 74 38 28 39 79 40 73 41 75 42 29 43
REMARK SMILES IDX 78 44 72 45 71 46 30 48 60 49 41 50 59 51 42 52 45 53 58 54
REMARK SMILES IDX 76 55 43 56 44 57 57 59 77 60 46 61 31 62 32 63 40 64 33 65
REMARK SMILES IDX 39 66 34 67 35 68 36 69 37 70 38 71 61 72 62 73 70 74 63 75
REMARK SMILES IDX 69 76 64 77 65 78 66 79 67 80 68 81 47 82 48 83 56 84 49 85
REMARK SMILES IDX 55 86 50 87 51 88 52 89 53 90 54 91
REMARK H PARENT 75 47 45 58
REMARK Flexibility Score: inf
ROOT
ATOM      1  O   UNL A   1      38.987  21.942  25.709  1.00  0.00    -0.374 OA
ENDROOT
BRANCH   1   2
ATOM      2  C   UNL A   1      37.825  22.771  25.785  1.00  0.00     0.202 C 
BRANCH   2   3
ATOM      3  C   UNL A   1      37.009  22.809  24.489  1.00  0.00     0.261 C 
BRANCH   3   4
ATOM      4  O   UNL A   1      35.703  23.354  24.741  1.00  0.00    -0.457 OA
BRANCH   4   5
ATOM      5  C   UNL A   1      34.654  22.638  24.244  1.00  0.00     0.374 C 
ATOM      6  O   UNL A   1      34.564  21.416  24.265  1.00  0.00    -0.242 OA
BRANCH   5   7
ATOM      7  C   UNL A   1      33.635  23.547  23.775  1.00  0.00     0.212 A 
ATOM      8  C   UNL A   1      31.844  24.876  23.366  1.00  0.00     0.014 A 
ATOM      9  C   UNL A   1      32.404  23.924  24.275  1.00  0.00     0.064 A 
ATOM     10  C   UNL A   1      32.743  24.946  22.318  1.00  0.00     0.107 A 
ATOM     11  O   UNL A   1      33.828  24.166  22.571  1.00  0.00    -0.454 OA
ATOM     12  C   UNL A   1      32.779  25.664  21.028  1.00  0.00     0.088 C 
BRANCH   8  13
ATOM     13  C   UNL A   1      30.568  25.638  23.553  1.00  0.00     0.164 C 
BRANCH  13  14
ATOM     14  N   UNL A   1      30.915  26.977  24.032  1.00  0.00    -0.304 N 
ATOM     15  C   UNL A   1      31.227  30.933  25.703  1.00  0.00     0.052 C 
ATOM     16  C   UNL A   1      31.198  29.560  25.095  1.00  0.00     0.034 A 
ATOM     17  C   UNL A   1      30.791  29.403  23.819  1.00  0.00     0.082 A 
ATOM     18  C   UNL A   1      31.567  28.370  25.857  1.00  0.00     0.288 A 
ATOM     19  C   UNL A   1      30.653  28.059  23.196  1.00  0.00     0.251 A 
ATOM     20  C   UNL A   1      31.397  27.144  25.326  1.00  0.00     0.175 A 
ATOM     21  O   UNL A   1      30.282  27.970  22.030  1.00  0.00    -0.269 OA
BRANCH  18  22
ATOM     22  N   UNL A   1      32.136  28.397  27.211  1.00  0.00     0.064 N 
ATOM     23  O   UNL A   1      31.448  27.938  28.137  1.00  0.00    -0.258 OA
ATOM     24  O   UNL A   1      33.266  28.875  27.363  1.00  0.00    -0.258 OA
ENDBRANCH  18  22
ENDBRANCH  13  14
ENDBRANCH   8  13
ENDBRANCH   5   7
ENDBRANCH   4   5
ENDBRANCH   3   4
ENDBRANCH   2   3
ENDBRANCH   1   2
BRANCH   1  25
ATOM     25  C   UNL A   1      38.754  20.575  25.356  1.00  0.00     0.202 C 
BRANCH  25  26
ATOM     26  C   UNL A   1      39.648  19.573  26.092  1.00  0.00     0.261 C 
BRANCH  26  27
ATOM     27  O   UNL A   1      40.892  19.402  25.390  1.00  0.00    -0.460 OA
BRANCH  27  28
ATOM     28  C   UNL A   1      41.996  19.294  26.170  1.00  0.00     0.338 C 
ATOM     29  O   UNL A   1      42.499  18.264  26.584  1.00  0.00    -0.246 OA
BRANCH  28  30
ATOM     30  C   UNL A   1      42.629  20.626  26.318  1.00  0.00     0.060 A 
ATOM     31  C   UNL A   1      43.253  21.279  25.252  1.00  0.00     0.016 A 
ATOM     32  C   UNL A   1      42.585  21.230  27.582  1.00  0.00     0.016 A 
ATOM     33  C   UNL A   1      43.808  22.548  25.448  1.00  0.00     0.010 A 
ATOM     34  C   UNL A   1      43.132  22.500  27.775  1.00  0.00     0.010 A 
ATOM     35  C   UNL A   1      43.734  23.175  26.706  1.00  0.00    -0.014 A 
BRANCH  35  36
ATOM     36  C   UNL A   1      44.159  24.589  26.852  1.00  0.00     0.031 A 
ATOM     37  C   UNL A   1      43.222  25.651  27.342  1.00  0.00     0.074 A 
ATOM     38  C   UNL A   1      45.423  24.911  26.518  1.00  0.00     0.049 A 
ATOM     39  N   UNL A   1      43.492  26.890  27.664  1.00  0.00    -0.248 NA
ATOM     40  C   UNL A   1      41.805  25.286  27.479  1.00  0.00     0.031 C 
ATOM     41  C   UNL A   1      46.406  23.975  25.972  1.00  0.00     0.029 A 
ATOM     42  N   UNL A   1      46.102  26.101  26.601  1.00  0.00    -0.354 N 
ATOM     43  C   UNL A   1      42.287  27.451  28.063  1.00  0.00     0.074 A 
ATOM     44  C   UNL A   1      41.273  26.431  27.893  1.00  0.00     0.031 C 
ATOM     45  C   UNL A   1      47.573  24.612  25.810  1.00  0.00     0.029 A 
ATOM     46  C   UNL A   1      47.420  26.005  26.225  1.00  0.00     0.049 A 
ATOM     47  H   UNL A   1      45.685  26.941  26.902  1.00  0.00     0.167 HD
ATOM     48  C   UNL A   1      42.056  28.697  28.544  1.00  0.00     0.031 A 
ATOM     49  C   UNL A   1      48.409  26.920  26.239  1.00  0.00     0.031 A 
ATOM     50  C   UNL A   1      43.071  29.712  28.683  1.00  0.00     0.049 A 
ATOM     51  C   UNL A   1      48.139  28.290  26.788  1.00  0.00     0.074 A 
ATOM     52  C   UNL A   1      42.940  30.985  29.211  1.00  0.00     0.029 A 
ATOM     53  N   UNL A   1      44.393  29.580  28.284  1.00  0.00    -0.354 N 
ATOM     54  N   UNL A   1      47.016  28.773  27.264  1.00  0.00    -0.248 NA
ATOM     55  C   UNL A   1      49.268  29.228  26.834  1.00  0.00     0.031 C 
ATOM     56  C   UNL A   1      44.165  31.645  29.072  1.00  0.00     0.029 A 
ATOM     57  C   UNL A   1      45.081  30.759  28.527  1.00  0.00     0.049 A 
ATOM     58  H   UNL A   1      44.785  28.769  27.886  1.00  0.00     0.167 HD
ATOM     59  C   UNL A   1      47.308  30.065  27.688  1.00  0.00     0.074 A 
ATOM     60  C   UNL A   1      48.716  30.283  27.422  1.00  0.00     0.031 C 
ATOM     61  C   UNL A   1      46.481  30.979  28.252  1.00  0.00     0.031 A 
BRANCH  48  62
ATOM     62  C   UNL A   1      40.654  29.042  28.975  1.00  0.00    -0.014 A 
ATOM     63  C   UNL A   1      39.709  29.472  28.026  1.00  0.00     0.010 A 
ATOM     64  C   UNL A   1      40.304  29.049  30.338  1.00  0.00     0.010 A 
ATOM     65  C   UNL A   1      38.445  29.916  28.429  1.00  0.00     0.020 A 
ATOM     66  C   UNL A   1      39.033  29.469  30.744  1.00  0.00     0.020 A 
ATOM     67  C   UNL A   1      38.119  29.917  29.789  1.00  0.00     0.054 A 
BRANCH  67  68
ATOM     68  S   UNL A   1      36.477  30.495  30.299  1.00  0.00     0.124 S 
ATOM     69  O   UNL A   1      36.790  31.732  31.004  1.00  0.00    -0.237 OA
ATOM     70  O   UNL A   1      35.781  30.652  29.022  1.00  0.00    -0.237 OA
ATOM     71  O   UNL A   1      35.979  29.404  31.136  1.00  0.00    -0.744 OA
ENDBRANCH  67  68
ENDBRANCH  48  62
BRANCH  49  72
ATOM     72  C   UNL A   1      49.767  26.500  25.798  1.00  0.00    -0.014 A 
ATOM     73  C   UNL A   1      50.623  25.819  26.683  1.00  0.00     0.010 A 
ATOM     74  C   UNL A   1      50.259  26.907  24.545  1.00  0.00     0.010 A 
ATOM     75  C   UNL A   1      51.964  25.613  26.352  1.00  0.00     0.020 A 
ATOM     76  C   UNL A   1      51.594  26.679  24.199  1.00  0.00     0.020 A 
ATOM     77  C   UNL A   1      52.445  26.065  25.121  1.00  0.00     0.054 A 
BRANCH  77  78
ATOM     78  S   UNL A   1      54.212  25.875  24.752  1.00  0.00     0.124 S 
ATOM     79  O   UNL A   1      54.822  26.711  25.783  1.00  0.00    -0.237 OA
ATOM     80  O   UNL A   1      54.419  24.437  24.904  1.00  0.00    -0.237 OA
ATOM     81  O   UNL A   1      54.332  26.379  23.386  1.00  0.00    -0.744 OA
ENDBRANCH  77  78
ENDBRANCH  49  72
BRANCH  61  82
ATOM     82  C   UNL A   1      47.056  32.319  28.637  1.00  0.00    -0.014 A 
ATOM     83  C   UNL A   1      46.928  33.408  27.755  1.00  0.00     0.010 A 
ATOM     84  C   UNL A   1      47.821  32.472  29.807  1.00  0.00     0.010 A 
ATOM     85  C   UNL A   1      47.579  34.616  28.018  1.00  0.00     0.020 A 
ATOM     86  C   UNL A   1      48.451  33.689  30.088  1.00  0.00     0.020 A 
ATOM     87  C   UNL A   1      48.345  34.746  29.179  1.00  0.00     0.054 A 
BRANCH  87  88
ATOM     88  S   UNL A   1      49.201  36.314  29.496  1.00  0.00     0.124 S 
ATOM     89  O   UNL A   1      49.506  36.776  28.145  1.00  0.00    -0.237 OA
ATOM     90  O   UNL A   1      48.195  37.092  30.215  1.00  0.00    -0.237 OA
ATOM     91  O   UNL A   1      50.357  35.917  30.296  1.00  0.00    -0.744 OA
ENDBRANCH  87  88
ENDBRANCH  61  82
ENDBRANCH  35  36
ENDBRANCH  28  30
ENDBRANCH  27  28
ENDBRANCH  26  27
ENDBRANCH  25  26
ENDBRANCH   1  25
TORSDOF 20
ENDMDL
