MODEL 1
REMARK VINA RESULT:      -9.4      0.000      0.000
REMARK SMILES COc1ccc(OC)c([C@H](C(=O)OCCOCCOC(=O)c2ccc(-c3c4nc(c(-c5ccc(S(=O)(=O)[O-])cc5)c5ccc([nH]5)c(-c5ccc(S(=O)(=O)[O-])cc5)c5nc(c(-c6ccc(S(=O)(=O)[O-])cc6)c6ccc3[nH]6)C=C5)C=C4)cc2)[NH+]2CC[NH+](Cc3nccn3C)CC2)c1
REMARK SMILES IDX 16 1 15 2 14 3 13 4 11 5 12 6 10 7 9 8 3 9 4 10 95 11 5 12
REMARK SMILES IDX 6 13 2 14 1 15 7 16 8 17 82 18 83 19 94 20 84 22 93 23 85 24
REMARK SMILES IDX 86 26 87 27 88 28 91 29 89 30 90 31 92 32 17 33 18 34 19 35
REMARK SMILES IDX 20 36 21 37 22 38 23 39 81 40 24 41 80 42 25 43 26 44 27 45
REMARK SMILES IDX 74 46 28 47 79 48 73 49 75 50 29 51 78 52 72 53 71 54 30 56
REMARK SMILES IDX 60 57 41 58 59 59 42 60 45 61 58 62 76 63 43 64 44 65 57 67
REMARK SMILES IDX 77 68 46 69 31 70 32 71 40 72 33 73 39 74 34 75 35 76 36 77
REMARK SMILES IDX 37 78 38 79 61 80 62 81 70 82 63 83 69 84 64 85 65 86 66 87
REMARK SMILES IDX 67 88 68 89 47 90 48 91 56 92 49 93 55 94 50 95 51 96 52 97
REMARK SMILES IDX 53 98 54 99
REMARK H PARENT 82 21 85 25 75 55 45 66
REMARK Flexibility Score: inf
ROOT
ATOM      1  O   UNL A   1      35.602  30.078  27.193  1.00  0.00    -0.374 OA
ENDROOT
BRANCH   1   2
ATOM      2  C   UNL A   1      34.699  28.973  27.313  1.00  0.00     0.202 C 
BRANCH   2   3
ATOM      3  C   UNL A   1      33.231  29.224  26.952  1.00  0.00     0.261 C 
BRANCH   3   4
ATOM      4  O   UNL A   1      32.739  28.395  25.868  1.00  0.00    -0.459 OA
BRANCH   4   5
ATOM      5  C   UNL A   1      31.708  27.565  26.208  1.00  0.00     0.370 C 
ATOM      6  O   UNL A   1      31.360  27.394  27.375  1.00  0.00    -0.245 OA
BRANCH   5   7
ATOM      7  C   UNL A   1      31.119  26.779  24.987  1.00  0.00     0.330 C 
BRANCH   7   8
ATOM      8  C   UNL A   1      30.752  27.717  23.806  1.00  0.00     0.067 A 
ATOM      9  C   UNL A   1      28.976  29.158  22.853  1.00  0.00     0.119 A 
ATOM     10  C   UNL A   1      29.890  29.742  22.000  1.00  0.00     0.050 A 
ATOM     11  C   UNL A   1      29.398  28.126  23.687  1.00  0.00     0.060 A 
ATOM     12  C   UNL A   1      31.203  29.270  21.982  1.00  0.00     0.051 A 
ATOM     13  C   UNL A   1      31.645  28.257  22.859  1.00  0.00     0.128 A 
BRANCH   9  14
ATOM     14  O   UNL A   1      27.688  29.619  22.809  1.00  0.00    -0.497 OA
ATOM     15  C   UNL A   1      26.700  28.648  23.163  1.00  0.00     0.278 C 
ENDBRANCH   9  14
BRANCH  13  16
ATOM     16  O   UNL A   1      32.891  27.818  22.502  1.00  0.00    -0.496 OA
ATOM     17  C   UNL A   1      34.025  28.597  22.819  1.00  0.00     0.278 C 
ENDBRANCH  13  16
ENDBRANCH   7   8
BRANCH   7  18
ATOM     18  N   UNL A   1      32.068  25.738  24.514  1.00  0.00    -0.310 N 
ATOM     19  C   UNL A   1      32.876  25.036  25.514  1.00  0.00     0.325 C 
ATOM     20  C   UNL A   1      31.617  24.833  23.466  1.00  0.00     0.325 C 
ATOM     21  H   UNL A   1      32.711  26.386  24.059  1.00  0.00     0.349 HD
ATOM     22  C   UNL A   1      32.318  23.685  26.022  1.00  0.00     0.324 C 
ATOM     23  C   UNL A   1      30.943  23.553  23.964  1.00  0.00     0.324 C 
ATOM     24  N   UNL A   1      31.579  22.830  25.075  1.00  0.00    -0.319 N 
ATOM     25  H   UNL A   1      30.773  22.474  25.588  1.00  0.00     0.348 HD
BRANCH  24  26
ATOM     26  C   UNL A   1      32.348  21.639  24.688  1.00  0.00     0.339 C 
BRANCH  26  27
ATOM     27  C   UNL A   1      33.799  21.719  25.038  1.00  0.00     0.164 A 
ATOM     28  N   UNL A   1      34.336  21.277  26.162  1.00  0.00    -0.236 NA
ATOM     29  N   UNL A   1      34.745  22.376  24.284  1.00  0.00    -0.333 N 
ATOM     30  C   UNL A   1      35.615  21.758  26.183  1.00  0.00     0.131 A 
ATOM     31  C   UNL A   1      35.887  22.458  25.034  1.00  0.00     0.107 A 
ATOM     32  C   UNL A   1      34.598  22.970  22.975  1.00  0.00     0.151 C 
ENDBRANCH  26  27
ENDBRANCH  24  26
ENDBRANCH   7  18
ENDBRANCH   5   7
ENDBRANCH   4   5
ENDBRANCH   3   4
ENDBRANCH   2   3
ENDBRANCH   1   2
BRANCH   1  33
ATOM     33  C   UNL A   1      35.489  31.083  28.196  1.00  0.00     0.202 C 
BRANCH  33  34
ATOM     34  C   UNL A   1      35.641  30.590  29.642  1.00  0.00     0.261 C 
BRANCH  34  35
ATOM     35  O   UNL A   1      36.835  29.807  29.787  1.00  0.00    -0.460 OA
BRANCH  35  36
ATOM     36  C   UNL A   1      37.350  29.851  31.038  1.00  0.00     0.338 C 
ATOM     37  O   UNL A   1      36.753  29.709  32.090  1.00  0.00    -0.246 OA
BRANCH  36  38
ATOM     38  C   UNL A   1      38.816  29.866  30.960  1.00  0.00     0.060 A 
ATOM     39  C   UNL A   1      39.365  30.588  29.895  1.00  0.00     0.016 A 
ATOM     40  C   UNL A   1      39.624  29.150  31.846  1.00  0.00     0.016 A 
ATOM     41  C   UNL A   1      40.723  30.507  29.642  1.00  0.00     0.010 A 
ATOM     42  C   UNL A   1      40.994  29.065  31.588  1.00  0.00     0.010 A 
ATOM     43  C   UNL A   1      41.527  29.688  30.446  1.00  0.00    -0.014 A 
BRANCH  43  44
ATOM     44  C   UNL A   1      42.850  29.312  29.903  1.00  0.00     0.031 A 
ATOM     45  C   UNL A   1      42.985  27.960  29.256  1.00  0.00     0.074 A 
ATOM     46  C   UNL A   1      43.837  30.221  29.852  1.00  0.00     0.049 A 
ATOM     47  N   UNL A   1      43.980  27.465  28.569  1.00  0.00    -0.248 NA
ATOM     48  C   UNL A   1      41.835  27.045  29.386  1.00  0.00     0.031 C 
ATOM     49  C   UNL A   1      43.763  31.575  30.405  1.00  0.00     0.029 A 
ATOM     50  N   UNL A   1      45.078  30.158  29.278  1.00  0.00    -0.354 N 
ATOM     51  C   UNL A   1      43.576  26.190  28.186  1.00  0.00     0.074 A 
ATOM     52  C   UNL A   1      42.262  25.970  28.743  1.00  0.00     0.031 C 
ATOM     53  C   UNL A   1      44.906  32.222  30.123  1.00  0.00     0.029 A 
ATOM     54  C   UNL A   1      45.795  31.324  29.392  1.00  0.00     0.049 A 
ATOM     55  H   UNL A   1      45.423  29.354  28.828  1.00  0.00     0.167 HD
ATOM     56  C   UNL A   1      44.242  25.289  27.427  1.00  0.00     0.031 A 
ATOM     57  C   UNL A   1      47.031  31.625  28.951  1.00  0.00     0.031 A 
ATOM     58  C   UNL A   1      45.555  25.530  26.895  1.00  0.00     0.049 A 
ATOM     59  C   UNL A   1      47.776  30.585  28.157  1.00  0.00     0.074 A 
ATOM     60  C   UNL A   1      46.340  24.697  26.120  1.00  0.00     0.029 A 
ATOM     61  N   UNL A   1      46.280  26.698  27.092  1.00  0.00    -0.354 N 
ATOM     62  N   UNL A   1      47.376  29.389  27.789  1.00  0.00    -0.248 NA
ATOM     63  C   UNL A   1      49.128  30.935  27.708  1.00  0.00     0.031 C 
ATOM     64  C   UNL A   1      47.563  25.339  25.898  1.00  0.00     0.029 A 
ATOM     65  C   UNL A   1      47.515  26.597  26.481  1.00  0.00     0.049 A 
ATOM     66  H   UNL A   1      45.960  27.483  27.593  1.00  0.00     0.167 HD
ATOM     67  C   UNL A   1      48.423  28.846  27.056  1.00  0.00     0.074 A 
ATOM     68  C   UNL A   1      49.462  29.859  27.009  1.00  0.00     0.031 C 
ATOM     69  C   UNL A   1      48.527  27.624  26.474  1.00  0.00     0.031 A 
BRANCH  56  70
ATOM     70  C   UNL A   1      43.582  23.957  27.179  1.00  0.00    -0.014 A 
ATOM     71  C   UNL A   1      43.384  23.028  28.218  1.00  0.00     0.010 A 
ATOM     72  C   UNL A   1      43.137  23.635  25.885  1.00  0.00     0.010 A 
ATOM     73  C   UNL A   1      42.787  21.790  27.958  1.00  0.00     0.020 A 
ATOM     74  C   UNL A   1      42.514  22.409  25.625  1.00  0.00     0.020 A 
ATOM     75  C   UNL A   1      42.357  21.487  26.662  1.00  0.00     0.054 A 
BRANCH  75  76
ATOM     76  S   UNL A   1      41.566  19.883  26.355  1.00  0.00     0.124 S 
ATOM     77  O   UNL A   1      42.283  19.414  25.171  1.00  0.00    -0.237 OA
ATOM     78  O   UNL A   1      41.841  19.149  27.588  1.00  0.00    -0.237 OA
ATOM     79  O   UNL A   1      40.162  20.224  26.136  1.00  0.00    -0.744 OA
ENDBRANCH  75  76
ENDBRANCH  56  70
BRANCH  57  80
ATOM     80  C   UNL A   1      47.632  32.950  29.269  1.00  0.00    -0.014 A 
ATOM     81  C   UNL A   1      48.383  33.152  30.440  1.00  0.00     0.010 A 
ATOM     82  C   UNL A   1      47.469  34.023  28.373  1.00  0.00     0.010 A 
ATOM     83  C   UNL A   1      48.950  34.404  30.711  1.00  0.00     0.020 A 
ATOM     84  C   UNL A   1      48.056  35.265  28.625  1.00  0.00     0.020 A 
ATOM     85  C   UNL A   1      48.785  35.451  29.800  1.00  0.00     0.054 A 
BRANCH  85  86
ATOM     86  S   UNL A   1      49.576  37.049  30.143  1.00  0.00     0.124 S 
ATOM     87  O   UNL A   1      48.698  37.607  31.168  1.00  0.00    -0.237 OA
ATOM     88  O   UNL A   1      50.906  36.652  30.596  1.00  0.00    -0.237 OA
ATOM     89  O   UNL A   1      49.543  37.730  28.851  1.00  0.00    -0.744 OA
ENDBRANCH  85  86
ENDBRANCH  57  80
BRANCH  69  90
ATOM     90  C   UNL A   1      49.804  27.329  25.738  1.00  0.00    -0.014 A 
ATOM     91  C   UNL A   1      49.956  27.679  24.385  1.00  0.00     0.010 A 
ATOM     92  C   UNL A   1      50.879  26.735  26.423  1.00  0.00     0.010 A 
ATOM     93  C   UNL A   1      51.151  27.401  23.718  1.00  0.00     0.020 A 
ATOM     94  C   UNL A   1      52.085  26.484  25.768  1.00  0.00     0.020 A 
ATOM     95  C   UNL A   1      52.207  26.803  24.414  1.00  0.00     0.054 A 
BRANCH  95  96
ATOM     96  S   UNL A   1      53.757  26.479  23.532  1.00  0.00     0.124 S 
ATOM     97  O   UNL A   1      54.386  27.798  23.533  1.00  0.00    -0.237 OA
ATOM     98  O   UNL A   1      54.401  25.474  24.373  1.00  0.00    -0.237 OA
ATOM     99  O   UNL A   1      53.317  26.000  22.223  1.00  0.00    -0.744 OA
ENDBRANCH  95  96
ENDBRANCH  69  90
ENDBRANCH  43  44
ENDBRANCH  36  38
ENDBRANCH  35  36
ENDBRANCH  34  35
ENDBRANCH  33  34
ENDBRANCH   1  33
TORSDOF 23
ENDMDL
MODEL 2
REMARK VINA RESULT:      -9.1      1.217      2.059
REMARK SMILES COc1ccc(OC)c([C@H](C(=O)OCCOCCOC(=O)c2ccc(-c3c4nc(c(-c5ccc(S(=O)(=O)[O-])cc5)c5ccc([nH]5)c(-c5ccc(S(=O)(=O)[O-])cc5)c5nc(c(-c6ccc(S(=O)(=O)[O-])cc6)c6ccc3[nH]6)C=C5)C=C4)cc2)[NH+]2CC[NH+](Cc3nccn3C)CC2)c1
REMARK SMILES IDX 16 1 15 2 14 3 13 4 11 5 12 6 10 7 9 8 3 9 4 10 95 11 5 12
REMARK SMILES IDX 6 13 2 14 1 15 7 16 8 17 82 18 83 19 94 20 84 22 93 23 85 24
REMARK SMILES IDX 86 26 87 27 88 28 91 29 89 30 90 31 92 32 17 33 18 34 19 35
REMARK SMILES IDX 20 36 21 37 22 38 23 39 81 40 24 41 80 42 25 43 26 44 27 45
REMARK SMILES IDX 74 46 28 47 79 48 73 49 75 50 29 51 78 52 72 53 71 54 30 56
REMARK SMILES IDX 60 57 41 58 59 59 42 60 45 61 58 62 76 63 43 64 44 65 57 67
REMARK SMILES IDX 77 68 46 69 31 70 32 71 40 72 33 73 39 74 34 75 35 76 36 77
REMARK SMILES IDX 37 78 38 79 61 80 62 81 70 82 63 83 69 84 64 85 65 86 66 87
REMARK SMILES IDX 67 88 68 89 47 90 48 91 56 92 49 93 55 94 50 95 51 96 52 97
REMARK SMILES IDX 53 98 54 99
REMARK H PARENT 82 21 85 25 75 55 45 66
REMARK Flexibility Score: inf
ROOT
ATOM      1  O   UNL A   1      34.197  28.775  27.698  1.00  0.00    -0.374 OA
ENDROOT
BRANCH   1   2
ATOM      2  C   UNL A   1      32.998  28.185  27.183  1.00  0.00     0.202 C 
BRANCH   2   3
ATOM      3  C   UNL A   1      31.773  29.096  27.041  1.00  0.00     0.261 C 
BRANCH   3   4
ATOM      4  O   UNL A   1      31.753  29.871  25.814  1.00  0.00    -0.459 OA
BRANCH   4   5
ATOM      5  C   UNL A   1      32.267  29.227  24.725  1.00  0.00     0.370 C 
ATOM      6  O   UNL A   1      33.329  29.563  24.203  1.00  0.00    -0.245 OA
BRANCH   5   7
ATOM      7  C   UNL A   1      31.312  28.124  24.153  1.00  0.00     0.330 C 
BRANCH   7   8
ATOM      8  C   UNL A   1      30.022  28.725  23.535  1.00  0.00     0.067 A 
ATOM      9  C   UNL A   1      29.090  30.665  22.308  1.00  0.00     0.119 A 
ATOM     10  C   UNL A   1      27.952  29.944  22.007  1.00  0.00     0.050 A 
ATOM     11  C   UNL A   1      30.066  30.078  23.108  1.00  0.00     0.060 A 
ATOM     12  C   UNL A   1      27.804  28.659  22.528  1.00  0.00     0.051 A 
ATOM     13  C   UNL A   1      28.811  28.043  23.300  1.00  0.00     0.128 A 
BRANCH   9  14
ATOM     14  O   UNL A   1      29.178  31.939  21.815  1.00  0.00    -0.497 OA
ATOM     15  C   UNL A   1      28.043  32.358  21.053  1.00  0.00     0.278 C 
ENDBRANCH   9  14
BRANCH  13  16
ATOM     16  O   UNL A   1      28.346  26.892  23.874  1.00  0.00    -0.496 OA
ATOM     17  C   UNL A   1      26.959  26.718  24.073  1.00  0.00     0.278 C 
ENDBRANCH  13  16
ENDBRANCH   7   8
BRANCH   7  18
ATOM     18  N   UNL A   1      32.007  27.293  23.136  1.00  0.00    -0.310 N 
ATOM     19  C   UNL A   1      33.404  26.930  23.378  1.00  0.00     0.325 C 
ATOM     20  C   UNL A   1      31.267  26.187  22.542  1.00  0.00     0.325 C 
ATOM     21  H   UNL A   1      32.040  28.017  22.418  1.00  0.00     0.349 HD
ATOM     22  C   UNL A   1      33.652  25.555  24.043  1.00  0.00     0.324 C 
ATOM     23  C   UNL A   1      31.403  24.852  23.275  1.00  0.00     0.324 C 
ATOM     24  N   UNL A   1      32.746  24.440  23.710  1.00  0.00    -0.319 N 
ATOM     25  H   UNL A   1      32.550  23.965  24.590  1.00  0.00     0.348 HD
BRANCH  24  26
ATOM     26  C   UNL A   1      33.396  23.432  22.862  1.00  0.00     0.339 C 
BRANCH  26  27
ATOM     27  C   UNL A   1      34.056  22.333  23.632  1.00  0.00     0.164 A 
ATOM     28  N   UNL A   1      33.424  21.350  24.248  1.00  0.00    -0.236 NA
ATOM     29  N   UNL A   1      35.405  22.275  23.899  1.00  0.00    -0.333 N 
ATOM     30  C   UNL A   1      34.364  20.721  25.015  1.00  0.00     0.131 A 
ATOM     31  C   UNL A   1      35.599  21.288  24.828  1.00  0.00     0.107 A 
ATOM     32  C   UNL A   1      36.460  23.123  23.395  1.00  0.00     0.151 C 
ENDBRANCH  26  27
ENDBRANCH  24  26
ENDBRANCH   7  18
ENDBRANCH   5   7
ENDBRANCH   4   5
ENDBRANCH   3   4
ENDBRANCH   2   3
ENDBRANCH   1   2
BRANCH   1  33
ATOM     33  C   UNL A   1      34.272  30.196  27.622  1.00  0.00     0.202 C 
BRANCH  33  34
ATOM     34  C   UNL A   1      35.481  30.829  28.325  1.00  0.00     0.261 C 
BRANCH  34  35
ATOM     35  O   UNL A   1      36.379  29.816  28.801  1.00  0.00    -0.460 OA
BRANCH  35  36
ATOM     36  C   UNL A   1      36.815  30.045  30.062  1.00  0.00     0.338 C 
ATOM     37  O   UNL A   1      36.159  30.027  31.088  1.00  0.00    -0.246 OA
BRANCH  36  38
ATOM     38  C   UNL A   1      38.283  30.093  30.067  1.00  0.00     0.060 A 
ATOM     39  C   UNL A   1      38.890  30.369  28.837  1.00  0.00     0.016 A 
ATOM     40  C   UNL A   1      39.041  29.814  31.205  1.00  0.00     0.016 A 
ATOM     41  C   UNL A   1      40.264  30.256  28.713  1.00  0.00     0.010 A 
ATOM     42  C   UNL A   1      40.427  29.696  31.078  1.00  0.00     0.010 A 
ATOM     43  C   UNL A   1      41.025  29.850  29.816  1.00  0.00    -0.014 A 
BRANCH  43  44
ATOM     44  C   UNL A   1      42.389  29.352  29.538  1.00  0.00     0.031 A 
ATOM     45  C   UNL A   1      42.531  27.950  29.007  1.00  0.00     0.074 A 
ATOM     46  C   UNL A   1      43.437  30.190  29.606  1.00  0.00     0.049 A 
ATOM     47  N   UNL A   1      43.588  27.345  28.537  1.00  0.00    -0.248 NA
ATOM     48  C   UNL A   1      41.310  27.123  28.988  1.00  0.00     0.031 C 
ATOM     49  C   UNL A   1      43.372  31.583  30.055  1.00  0.00     0.029 A 
ATOM     50  N   UNL A   1      44.749  30.006  29.264  1.00  0.00    -0.354 N 
ATOM     51  C   UNL A   1      43.161  26.074  28.167  1.00  0.00     0.074 A 
ATOM     52  C   UNL A   1      41.759  25.979  28.497  1.00  0.00     0.031 C 
ATOM     53  C   UNL A   1      44.591  32.134  29.940  1.00  0.00     0.029 A 
ATOM     54  C   UNL A   1      45.522  31.130  29.432  1.00  0.00     0.049 A 
ATOM     55  H   UNL A   1      45.105  29.152  28.931  1.00  0.00     0.167 HD
ATOM     56  C   UNL A   1      43.877  25.079  27.592  1.00  0.00     0.031 A 
ATOM     57  C   UNL A   1      46.835  31.318  29.198  1.00  0.00     0.031 A 
ATOM     58  C   UNL A   1      45.277  25.197  27.286  1.00  0.00     0.049 A 
ATOM     59  C   UNL A   1      47.624  30.178  28.612  1.00  0.00     0.074 A 
ATOM     60  C   UNL A   1      46.117  24.262  26.713  1.00  0.00     0.029 A 
ATOM     61  N   UNL A   1      46.043  26.328  27.537  1.00  0.00    -0.354 N 
ATOM     62  N   UNL A   1      47.203  28.987  28.252  1.00  0.00    -0.248 NA
ATOM     63  C   UNL A   1      49.056  30.408  28.387  1.00  0.00     0.031 C 
ATOM     64  C   UNL A   1      47.405  24.806  26.671  1.00  0.00     0.029 A 
ATOM     65  C   UNL A   1      47.354  26.104  27.159  1.00  0.00     0.049 A 
ATOM     66  H   UNL A   1      45.702  27.165  27.926  1.00  0.00     0.167 HD
ATOM     67  C   UNL A   1      48.317  28.327  27.749  1.00  0.00     0.074 A 
ATOM     68  C   UNL A   1      49.422  29.265  27.824  1.00  0.00     0.031 C 
ATOM     69  C   UNL A   1      48.426  27.062  27.269  1.00  0.00     0.031 A 
BRANCH  56  70
ATOM     70  C   UNL A   1      43.171  23.777  27.313  1.00  0.00    -0.014 A 
ATOM     71  C   UNL A   1      42.517  23.542  26.089  1.00  0.00     0.010 A 
ATOM     72  C   UNL A   1      43.174  22.765  28.288  1.00  0.00     0.010 A 
ATOM     73  C   UNL A   1      41.852  22.332  25.862  1.00  0.00     0.020 A 
ATOM     74  C   UNL A   1      42.533  21.544  28.055  1.00  0.00     0.020 A 
ATOM     75  C   UNL A   1      41.862  21.341  26.848  1.00  0.00     0.054 A 
BRANCH  75  76
ATOM     76  S   UNL A   1      41.010  19.773  26.520  1.00  0.00     0.124 S 
ATOM     77  O   UNL A   1      39.808  20.224  25.820  1.00  0.00    -0.237 OA
ATOM     78  O   UNL A   1      41.977  19.047  25.702  1.00  0.00    -0.237 OA
ATOM     79  O   UNL A   1      40.781  19.216  27.851  1.00  0.00    -0.744 OA
ENDBRANCH  75  76
ENDBRANCH  56  70
BRANCH  57  80
ATOM     80  C   UNL A   1      47.470  32.622  29.536  1.00  0.00    -0.014 A 
ATOM     81  C   UNL A   1      48.023  32.861  30.807  1.00  0.00     0.010 A 
ATOM     82  C   UNL A   1      47.544  33.636  28.562  1.00  0.00     0.010 A 
ATOM     83  C   UNL A   1      48.628  34.089  31.097  1.00  0.00     0.020 A 
ATOM     84  C   UNL A   1      48.172  34.853  28.838  1.00  0.00     0.020 A 
ATOM     85  C   UNL A   1      48.701  35.077  30.109  1.00  0.00     0.054 A 
BRANCH  85  86
ATOM     86  S   UNL A   1      49.539  36.641  30.489  1.00  0.00     0.124 S 
ATOM     87  O   UNL A   1      49.453  37.349  29.215  1.00  0.00    -0.237 OA
ATOM     88  O   UNL A   1      48.722  37.183  31.571  1.00  0.00    -0.237 OA
ATOM     89  O   UNL A   1      50.882  36.222  30.883  1.00  0.00    -0.744 OA
ENDBRANCH  85  86
ENDBRANCH  57  80
BRANCH  69  90
ATOM     90  C   UNL A   1      49.784  26.633  26.787  1.00  0.00    -0.014 A 
ATOM     91  C   UNL A   1      50.727  26.085  27.676  1.00  0.00     0.010 A 
ATOM     92  C   UNL A   1      50.102  26.738  25.421  1.00  0.00     0.010 A 
ATOM     93  C   UNL A   1      51.981  25.688  27.211  1.00  0.00     0.020 A 
ATOM     94  C   UNL A   1      51.344  26.313  24.948  1.00  0.00     0.020 A 
ATOM     95  C   UNL A   1      52.283  25.807  25.850  1.00  0.00     0.054 A 
BRANCH  95  96
ATOM     96  S   UNL A   1      53.909  25.257  25.268  1.00  0.00     0.124 S 
ATOM     97  O   UNL A   1      53.605  23.934  24.728  1.00  0.00    -0.237 OA
ATOM     98  O   UNL A   1      54.258  26.275  24.280  1.00  0.00    -0.237 OA
ATOM     99  O   UNL A   1      54.730  25.263  26.477  1.00  0.00    -0.744 OA
ENDBRANCH  95  96
ENDBRANCH  69  90
ENDBRANCH  43  44
ENDBRANCH  36  38
ENDBRANCH  35  36
ENDBRANCH  34  35
ENDBRANCH  33  34
ENDBRANCH   1  33
TORSDOF 23
ENDMDL
MODEL 3
REMARK VINA RESULT:      -9.0      6.484     11.712
REMARK SMILES COc1ccc(OC)c([C@H](C(=O)OCCOCCOC(=O)c2ccc(-c3c4nc(c(-c5ccc(S(=O)(=O)[O-])cc5)c5ccc([nH]5)c(-c5ccc(S(=O)(=O)[O-])cc5)c5nc(c(-c6ccc(S(=O)(=O)[O-])cc6)c6ccc3[nH]6)C=C5)C=C4)cc2)[NH+]2CC[NH+](Cc3nccn3C)CC2)c1
REMARK SMILES IDX 16 1 15 2 14 3 13 4 11 5 12 6 10 7 9 8 3 9 4 10 95 11 5 12
REMARK SMILES IDX 6 13 2 14 1 15 7 16 8 17 82 18 83 19 94 20 84 22 93 23 85 24
REMARK SMILES IDX 86 26 87 27 88 28 91 29 89 30 90 31 92 32 17 33 18 34 19 35
REMARK SMILES IDX 20 36 21 37 22 38 23 39 81 40 24 41 80 42 25 43 26 44 27 45
REMARK SMILES IDX 74 46 28 47 79 48 73 49 75 50 29 51 78 52 72 53 71 54 30 56
REMARK SMILES IDX 60 57 41 58 59 59 42 60 45 61 58 62 76 63 43 64 44 65 57 67
REMARK SMILES IDX 77 68 46 69 31 70 32 71 40 72 33 73 39 74 34 75 35 76 36 77
REMARK SMILES IDX 37 78 38 79 61 80 62 81 70 82 63 83 69 84 64 85 65 86 66 87
REMARK SMILES IDX 67 88 68 89 47 90 48 91 56 92 49 93 55 94 50 95 51 96 52 97
REMARK SMILES IDX 53 98 54 99
REMARK H PARENT 82 21 85 25 75 55 45 66
REMARK Flexibility Score: inf
ROOT
ATOM      1  O   UNL A   1      36.354  24.162  25.205  1.00  0.00    -0.374 OA
ENDROOT
BRANCH   1   2
ATOM      2  C   UNL A   1      35.783  23.113  24.414  1.00  0.00     0.202 C 
BRANCH   2   3
ATOM      3  C   UNL A   1      34.296  23.230  24.062  1.00  0.00     0.261 C 
BRANCH   3   4
ATOM      4  O   UNL A   1      33.797  24.593  24.048  1.00  0.00    -0.459 OA
BRANCH   4   5
ATOM      5  C   UNL A   1      33.459  25.088  25.275  1.00  0.00     0.370 C 
ATOM      6  O   UNL A   1      33.458  24.391  26.289  1.00  0.00    -0.245 OA
BRANCH   5   7
ATOM      7  C   UNL A   1      32.963  26.574  25.226  1.00  0.00     0.330 C 
BRANCH   7   8
ATOM      8  C   UNL A   1      31.461  26.679  24.849  1.00  0.00     0.067 A 
ATOM      9  C   UNL A   1      29.850  27.662  23.244  1.00  0.00     0.119 A 
ATOM     10  C   UNL A   1      28.867  26.798  23.682  1.00  0.00     0.050 A 
ATOM     11  C   UNL A   1      31.095  27.636  23.866  1.00  0.00     0.060 A 
ATOM     12  C   UNL A   1      29.141  25.939  24.746  1.00  0.00     0.051 A 
ATOM     13  C   UNL A   1      30.415  25.877  25.348  1.00  0.00     0.128 A 
BRANCH   9  14
ATOM     14  O   UNL A   1      29.528  28.520  22.227  1.00  0.00    -0.497 OA
ATOM     15  C   UNL A   1      30.412  29.636  22.092  1.00  0.00     0.278 C 
ENDBRANCH   9  14
BRANCH  13  16
ATOM     16  O   UNL A   1      30.374  25.134  26.496  1.00  0.00    -0.496 OA
ATOM     17  C   UNL A   1      30.247  23.729  26.417  1.00  0.00     0.278 C 
ENDBRANCH  13  16
ENDBRANCH   7   8
BRANCH   7  18
ATOM     18  N   UNL A   1      33.196  27.258  26.524  1.00  0.00    -0.310 N 
ATOM     19  C   UNL A   1      34.407  28.068  26.670  1.00  0.00     0.325 C 
ATOM     20  C   UNL A   1      32.054  27.888  27.175  1.00  0.00     0.325 C 
ATOM     21  H   UNL A   1      33.378  26.406  27.056  1.00  0.00     0.349 HD
ATOM     22  C   UNL A   1      34.258  29.582  26.391  1.00  0.00     0.324 C 
ATOM     23  C   UNL A   1      31.824  29.352  26.797  1.00  0.00     0.324 C 
ATOM     24  N   UNL A   1      32.993  30.244  26.759  1.00  0.00    -0.319 N 
ATOM     25  H   UNL A   1      32.764  30.864  25.983  1.00  0.00     0.348 HD
BRANCH  24  26
ATOM     26  C   UNL A   1      33.148  31.123  27.925  1.00  0.00     0.339 C 
BRANCH  26  27
ATOM     27  C   UNL A   1      34.374  31.977  27.878  1.00  0.00     0.164 A 
ATOM     28  N   UNL A   1      35.614  31.524  27.804  1.00  0.00    -0.236 NA
ATOM     29  N   UNL A   1      34.374  33.345  28.028  1.00  0.00    -0.333 N 
ATOM     30  C   UNL A   1      36.422  32.604  28.027  1.00  0.00     0.131 A 
ATOM     31  C   UNL A   1      35.674  33.743  28.187  1.00  0.00     0.107 A 
ATOM     32  C   UNL A   1      33.244  34.242  28.104  1.00  0.00     0.151 C 
ENDBRANCH  26  27
ENDBRANCH  24  26
ENDBRANCH   7  18
ENDBRANCH   5   7
ENDBRANCH   4   5
ENDBRANCH   3   4
ENDBRANCH   2   3
ENDBRANCH   1   2
BRANCH   1  33
ATOM     33  C   UNL A   1      37.558  23.836  25.893  1.00  0.00     0.202 C 
BRANCH  33  34
ATOM     34  C   UNL A   1      37.996  24.843  26.965  1.00  0.00     0.261 C 
BRANCH  34  35
ATOM     35  O   UNL A   1      39.397  24.708  27.245  1.00  0.00    -0.460 OA
BRANCH  35  36
ATOM     36  C   UNL A   1      40.090  25.853  27.045  1.00  0.00     0.338 C 
ATOM     37  O   UNL A   1      40.693  26.189  26.042  1.00  0.00    -0.246 OA
BRANCH  36  38
ATOM     38  C   UNL A   1      39.823  26.781  28.152  1.00  0.00     0.060 A 
ATOM     39  C   UNL A   1      40.264  28.096  27.968  1.00  0.00     0.016 A 
ATOM     40  C   UNL A   1      39.229  26.375  29.349  1.00  0.00     0.016 A 
ATOM     41  C   UNL A   1      40.215  28.987  29.026  1.00  0.00     0.010 A 
ATOM     42  C   UNL A   1      39.184  27.273  30.417  1.00  0.00     0.010 A 
ATOM     43  C   UNL A   1      39.741  28.555  30.271  1.00  0.00    -0.014 A 
BRANCH  43  44
ATOM     44  C   UNL A   1      40.087  29.388  31.442  1.00  0.00     0.031 A 
ATOM     45  C   UNL A   1      39.110  30.455  31.858  1.00  0.00     0.074 A 
ATOM     46  C   UNL A   1      41.159  29.081  32.192  1.00  0.00     0.049 A 
ATOM     47  N   UNL A   1      39.102  31.200  32.931  1.00  0.00    -0.248 NA
ATOM     48  C   UNL A   1      37.977  30.707  30.948  1.00  0.00     0.031 C 
ATOM     49  C   UNL A   1      42.122  28.022  31.888  1.00  0.00     0.029 A 
ATOM     50  N   UNL A   1      41.594  29.604  33.380  1.00  0.00    -0.354 N 
ATOM     51  C   UNL A   1      37.970  32.001  32.826  1.00  0.00     0.074 A 
ATOM     52  C   UNL A   1      37.332  31.680  31.571  1.00  0.00     0.031 C 
ATOM     53  C   UNL A   1      43.027  27.959  32.878  1.00  0.00     0.029 A 
ATOM     54  C   UNL A   1      42.719  28.985  33.871  1.00  0.00     0.049 A 
ATOM     55  H   UNL A   1      41.146  30.351  33.837  1.00  0.00     0.167 HD
ATOM     56  C   UNL A   1      37.501  32.916  33.707  1.00  0.00     0.031 A 
ATOM     57  C   UNL A   1      43.415  29.227  34.998  1.00  0.00     0.031 A 
ATOM     58  C   UNL A   1      38.165  33.224  34.944  1.00  0.00     0.049 A 
ATOM     59  C   UNL A   1      42.905  30.289  35.935  1.00  0.00     0.074 A 
ATOM     60  C   UNL A   1      37.798  34.135  35.917  1.00  0.00     0.029 A 
ATOM     61  N   UNL A   1      39.342  32.626  35.374  1.00  0.00    -0.354 N 
ATOM     62  N   UNL A   1      41.825  31.028  35.830  1.00  0.00    -0.248 NA
ATOM     63  C   UNL A   1      43.697  30.542  37.145  1.00  0.00     0.031 C 
ATOM     64  C   UNL A   1      38.785  34.130  36.908  1.00  0.00     0.029 A 
ATOM     65  C   UNL A   1      39.734  33.170  36.583  1.00  0.00     0.049 A 
ATOM     66  H   UNL A   1      39.825  31.919  34.889  1.00  0.00     0.167 HD
ATOM     67  C   UNL A   1      41.800  31.828  36.966  1.00  0.00     0.074 A 
ATOM     68  C   UNL A   1      42.959  31.459  37.756  1.00  0.00     0.031 C 
ATOM     69  C   UNL A   1      40.906  32.784  37.328  1.00  0.00     0.031 A 
BRANCH  56  70
ATOM     70  C   UNL A   1      36.252  33.672  33.334  1.00  0.00    -0.014 A 
ATOM     71  C   UNL A   1      34.983  33.270  33.791  1.00  0.00     0.010 A 
ATOM     72  C   UNL A   1      36.352  34.817  32.523  1.00  0.00     0.010 A 
ATOM     73  C   UNL A   1      33.837  33.978  33.414  1.00  0.00     0.020 A 
ATOM     74  C   UNL A   1      35.211  35.543  32.166  1.00  0.00     0.020 A 
ATOM     75  C   UNL A   1      33.958  35.110  32.602  1.00  0.00     0.054 A 
BRANCH  75  76
ATOM     76  S   UNL A   1      32.458  36.022  32.145  1.00  0.00     0.124 S 
ATOM     77  O   UNL A   1      32.480  37.134  33.094  1.00  0.00    -0.237 OA
ATOM     78  O   UNL A   1      32.712  36.381  30.752  1.00  0.00    -0.237 OA
ATOM     79  O   UNL A   1      31.384  35.053  32.350  1.00  0.00    -0.744 OA
ENDBRANCH  75  76
ENDBRANCH  56  70
BRANCH  57  80
ATOM     80  C   UNL A   1      44.662  28.463  35.279  1.00  0.00    -0.014 A 
ATOM     81  C   UNL A   1      45.918  28.927  34.851  1.00  0.00     0.010 A 
ATOM     82  C   UNL A   1      44.595  27.260  36.009  1.00  0.00     0.010 A 
ATOM     83  C   UNL A   1      47.079  28.199  35.139  1.00  0.00     0.020 A 
ATOM     84  C   UNL A   1      45.753  26.545  36.323  1.00  0.00     0.020 A 
ATOM     85  C   UNL A   1      46.989  27.014  35.876  1.00  0.00     0.054 A 
BRANCH  85  86
ATOM     86  S   UNL A   1      48.511  26.115  36.287  1.00  0.00     0.124 S 
ATOM     87  O   UNL A   1      48.026  24.745  36.428  1.00  0.00    -0.237 OA
ATOM     88  O   UNL A   1      49.354  26.372  35.122  1.00  0.00    -0.237 OA
ATOM     89  O   UNL A   1      48.960  26.752  37.523  1.00  0.00    -0.744 OA
ENDBRANCH  85  86
ENDBRANCH  57  80
BRANCH  69  90
ATOM     90  C   UNL A   1      41.154  33.484  38.635  1.00  0.00    -0.014 A 
ATOM     91  C   UNL A   1      40.555  33.030  39.823  1.00  0.00     0.010 A 
ATOM     92  C   UNL A   1      42.032  34.582  38.679  1.00  0.00     0.010 A 
ATOM     93  C   UNL A   1      40.800  33.690  41.029  1.00  0.00     0.020 A 
ATOM     94  C   UNL A   1      42.303  35.224  39.888  1.00  0.00     0.020 A 
ATOM     95  C   UNL A   1      41.670  34.785  41.053  1.00  0.00     0.054 A 
BRANCH  95  96
ATOM     96  S   UNL A   1      41.993  35.605  42.636  1.00  0.00     0.124 S 
ATOM     97  O   UNL A   1      43.263  36.278  42.375  1.00  0.00    -0.237 OA
ATOM     98  O   UNL A   1      40.835  36.484  42.784  1.00  0.00    -0.237 OA
ATOM     99  O   UNL A   1      42.057  34.502  43.592  1.00  0.00    -0.744 OA
ENDBRANCH  95  96
ENDBRANCH  69  90
ENDBRANCH  43  44
ENDBRANCH  36  38
ENDBRANCH  35  36
ENDBRANCH  34  35
ENDBRANCH  33  34
ENDBRANCH   1  33
TORSDOF 23
ENDMDL
