MODEL 1
REMARK VINA RESULT:     -12.0      0.000      0.000
REMARK SMILES CC1=C(C)C[C@@H](C(=O)OCCOCCOC(=O)c2ccc(-c3c4nc(c(-c5ccc(S(=O)(=O)[O-])cc5)c5ccc([nH]5)c(-c5ccc(S(=O)(=O)[O-])cc5)c5nc(c(-c6ccc(S(=O)(=O)[O-])cc6)c6ccc3[nH]6)C=C5)C=C4)cc2)[C@@H](C(=O)N2CCN(c3cccc(C(F)(F)F)c3)CC2)C1
REMARK SMILES IDX 12 1 11 2 10 3 9 4 7 5 8 6 6 7 1 8 2 9 3 10 97 11 4 12 5 13
REMARK SMILES IDX 78 14 79 15 80 16 81 17 82 18 96 19 83 20 95 21 84 22 85 23
REMARK SMILES IDX 86 24 94 25 87 26 89 27 88 28 90 29 91 30 92 31 93 32 13 33
REMARK SMILES IDX 14 34 15 35 16 36 17 37 18 38 19 39 77 40 20 41 76 42 21 43
REMARK SMILES IDX 22 44 23 45 70 46 24 47 75 48 69 49 71 50 25 51 74 52 68 53
REMARK SMILES IDX 67 54 26 56 56 57 37 58 55 59 38 60 41 61 54 62 72 63 39 64
REMARK SMILES IDX 40 65 53 67 73 68 42 69 27 70 28 71 36 72 29 73 35 74 30 75
REMARK SMILES IDX 31 76 32 77 33 78 34 79 57 80 58 81 66 82 59 83 65 84 60 85
REMARK SMILES IDX 61 86 62 87 63 88 64 89 43 90 44 91 52 92 45 93 51 94 46 95
REMARK SMILES IDX 47 96 48 97 49 98 50 99
REMARK H PARENT 71 55 41 66
REMARK Flexibility Score: inf
ROOT
ATOM      1  O   UNL A   1      40.607  21.462  26.866  1.00  0.00    -0.374 OA
ENDROOT
BRANCH   1   2
ATOM      2  C   UNL A   1      39.522  21.460  25.934  1.00  0.00     0.202 C 
BRANCH   2   3
ATOM      3  C   UNL A   1      38.524  22.608  26.126  1.00  0.00     0.261 C 
BRANCH   3   4
ATOM      4  O   UNL A   1      37.355  22.453  25.298  1.00  0.00    -0.463 OA
BRANCH   4   5
ATOM      5  C   UNL A   1      36.262  23.172  25.621  1.00  0.00     0.310 C 
ATOM      6  O   UNL A   1      36.196  24.397  25.581  1.00  0.00    -0.252 OA
BRANCH   5   7
ATOM      7  C   UNL A   1      35.096  22.326  26.115  1.00  0.00     0.116 C 
ATOM      8  C   UNL A   1      32.287  19.666  23.987  1.00  0.00     0.039 C 
ATOM      9  C   UNL A   1      33.255  20.385  24.887  1.00  0.00    -0.074 C 
ATOM     10  C   UNL A   1      34.551  20.043  25.035  1.00  0.00    -0.073 C 
ATOM     11  C   UNL A   1      32.687  21.541  25.682  1.00  0.00     0.045 C 
ATOM     12  C   UNL A   1      35.210  18.832  24.430  1.00  0.00     0.039 C 
ATOM     13  C   UNL A   1      35.458  20.845  25.927  1.00  0.00     0.046 C 
ATOM     14  C   UNL A   1      33.637  22.752  25.788  1.00  0.00     0.097 C 
BRANCH  14  15
ATOM     15  C   UNL A   1      33.348  23.580  24.538  1.00  0.00     0.227 C 
ATOM     16  O   UNL A   1      33.870  23.301  23.460  1.00  0.00    -0.275 OA
ATOM     17  N   UNL A   1      32.338  24.537  24.603  1.00  0.00    -0.339 N 
ATOM     18  C   UNL A   1      31.786  24.981  23.332  1.00  0.00     0.141 C 
ATOM     19  C   UNL A   1      31.867  25.345  25.749  1.00  0.00     0.141 C 
ATOM     20  C   UNL A   1      30.261  24.932  23.355  1.00  0.00     0.138 C 
ATOM     21  C   UNL A   1      30.341  25.691  25.729  1.00  0.00     0.138 C 
ATOM     22  N   UNL A   1      29.799  25.884  24.374  1.00  0.00    -0.368 N 
BRANCH  22  23
ATOM     23  C   UNL A   1      29.030  26.950  23.950  1.00  0.00     0.037 A 
ATOM     24  C   UNL A   1      27.633  26.914  24.108  1.00  0.00     0.026 A 
ATOM     25  C   UNL A   1      29.567  28.049  23.269  1.00  0.00     0.039 A 
ATOM     26  C   UNL A   1      26.799  27.903  23.585  1.00  0.00     0.003 A 
ATOM     27  C   UNL A   1      28.739  29.049  22.714  1.00  0.00     0.058 A 
ATOM     28  C   UNL A   1      27.350  28.964  22.881  1.00  0.00     0.013 A 
BRANCH  27  29
ATOM     29  C   UNL A   1      29.311  30.201  21.924  1.00  0.00     0.416 C 
ATOM     30  F   UNL A   1      30.582  29.971  21.497  1.00  0.00    -0.166 F 
ATOM     31  F   UNL A   1      28.582  30.474  20.805  1.00  0.00    -0.166 F 
ATOM     32  F   UNL A   1      29.360  31.370  22.625  1.00  0.00    -0.166 F 
ENDBRANCH  27  29
ENDBRANCH  22  23
ENDBRANCH  14  15
ENDBRANCH   5   7
ENDBRANCH   4   5
ENDBRANCH   3   4
ENDBRANCH   2   3
ENDBRANCH   1   2
BRANCH   1  33
ATOM     33  C   UNL A   1      41.910  21.470  26.287  1.00  0.00     0.202 C 
BRANCH  33  34
ATOM     34  C   UNL A   1      42.385  22.839  25.789  1.00  0.00     0.261 C 
BRANCH  34  35
ATOM     35  O   UNL A   1      42.026  23.894  26.699  1.00  0.00    -0.460 OA
BRANCH  35  36
ATOM     36  C   UNL A   1      42.034  25.145  26.177  1.00  0.00     0.338 C 
ATOM     37  O   UNL A   1      42.283  25.454  25.021  1.00  0.00    -0.246 OA
BRANCH  36  38
ATOM     38  C   UNL A   1      41.528  26.112  27.176  1.00  0.00     0.060 A 
ATOM     39  C   UNL A   1      42.057  27.405  27.172  1.00  0.00     0.016 A 
ATOM     40  C   UNL A   1      40.581  25.760  28.137  1.00  0.00     0.016 A 
ATOM     41  C   UNL A   1      41.669  28.323  28.151  1.00  0.00     0.010 A 
ATOM     42  C   UNL A   1      40.112  26.714  29.046  1.00  0.00     0.010 A 
ATOM     43  C   UNL A   1      40.709  27.984  29.116  1.00  0.00    -0.014 A 
BRANCH  43  44
ATOM     44  C   UNL A   1      40.477  28.865  30.301  1.00  0.00     0.031 A 
ATOM     45  C   UNL A   1      41.373  28.719  31.515  1.00  0.00     0.074 A 
ATOM     46  C   UNL A   1      39.524  29.821  30.298  1.00  0.00     0.049 A 
ATOM     47  N   UNL A   1      41.357  29.383  32.646  1.00  0.00    -0.248 NA
ATOM     48  C   UNL A   1      42.409  27.674  31.463  1.00  0.00     0.031 C 
ATOM     49  C   UNL A   1      38.584  30.083  29.207  1.00  0.00     0.029 A 
ATOM     50  N   UNL A   1      39.200  30.763  31.247  1.00  0.00    -0.354 N 
ATOM     51  C   UNL A   1      42.357  28.820  33.432  1.00  0.00     0.074 A 
ATOM     52  C   UNL A   1      42.910  27.715  32.687  1.00  0.00     0.031 C 
ATOM     53  C   UNL A   1      37.817  31.140  29.532  1.00  0.00     0.029 A 
ATOM     54  C   UNL A   1      38.179  31.606  30.869  1.00  0.00     0.049 A 
ATOM     55  H   UNL A   1      39.656  30.828  32.117  1.00  0.00     0.167 HD
ATOM     56  C   UNL A   1      42.812  29.202  34.650  1.00  0.00     0.031 A 
ATOM     57  C   UNL A   1      37.599  32.636  31.521  1.00  0.00     0.031 A 
ATOM     58  C   UNL A   1      42.297  30.321  35.389  1.00  0.00     0.049 A 
ATOM     59  C   UNL A   1      38.095  33.021  32.893  1.00  0.00     0.074 A 
ATOM     60  C   UNL A   1      42.722  30.812  36.611  1.00  0.00     0.029 A 
ATOM     61  N   UNL A   1      41.250  31.128  34.975  1.00  0.00    -0.354 N 
ATOM     62  N   UNL A   1      39.073  32.501  33.596  1.00  0.00    -0.248 NA
ATOM     63  C   UNL A   1      37.413  34.144  33.555  1.00  0.00     0.031 C 
ATOM     64  C   UNL A   1      41.892  31.879  36.965  1.00  0.00     0.029 A 
ATOM     65  C   UNL A   1      40.997  32.097  35.930  1.00  0.00     0.049 A 
ATOM     66  H   UNL A   1      40.758  31.027  34.127  1.00  0.00     0.167 HD
ATOM     67  C   UNL A   1      39.145  33.254  34.764  1.00  0.00     0.074 A 
ATOM     68  C   UNL A   1      38.124  34.276  34.667  1.00  0.00     0.031 C 
ATOM     69  C   UNL A   1      39.983  33.115  35.822  1.00  0.00     0.031 A 
BRANCH  56  70
ATOM     70  C   UNL A   1      43.930  28.395  35.261  1.00  0.00    -0.014 A 
ATOM     71  C   UNL A   1      43.670  27.226  36.002  1.00  0.00     0.010 A 
ATOM     72  C   UNL A   1      45.266  28.792  35.063  1.00  0.00     0.010 A 
ATOM     73  C   UNL A   1      44.718  26.498  36.571  1.00  0.00     0.020 A 
ATOM     74  C   UNL A   1      46.319  28.046  35.599  1.00  0.00     0.020 A 
ATOM     75  C   UNL A   1      46.037  26.914  36.365  1.00  0.00     0.054 A 
BRANCH  75  76
ATOM     76  S   UNL A   1      47.378  25.933  37.092  1.00  0.00     0.124 S 
ATOM     77  O   UNL A   1      48.103  25.489  35.903  1.00  0.00    -0.237 OA
ATOM     78  O   UNL A   1      48.075  26.911  37.923  1.00  0.00    -0.237 OA
ATOM     79  O   UNL A   1      46.682  24.879  37.824  1.00  0.00    -0.744 OA
ENDBRANCH  75  76
ENDBRANCH  56  70
BRANCH  57  80
ATOM     80  C   UNL A   1      36.477  33.389  30.889  1.00  0.00    -0.014 A 
ATOM     81  C   UNL A   1      35.258  33.571  31.566  1.00  0.00     0.010 A 
ATOM     82  C   UNL A   1      36.616  33.913  29.590  1.00  0.00     0.010 A 
ATOM     83  C   UNL A   1      34.193  34.239  30.950  1.00  0.00     0.020 A 
ATOM     84  C   UNL A   1      35.566  34.610  28.983  1.00  0.00     0.020 A 
ATOM     85  C   UNL A   1      34.357  34.757  29.663  1.00  0.00     0.054 A 
BRANCH  85  86
ATOM     86  S   UNL A   1      32.977  35.657  28.899  1.00  0.00     0.124 S 
ATOM     87  O   UNL A   1      33.669  36.715  28.172  1.00  0.00    -0.237 OA
ATOM     88  O   UNL A   1      32.349  34.627  28.075  1.00  0.00    -0.237 OA
ATOM     89  O   UNL A   1      32.183  36.098  30.043  1.00  0.00    -0.744 OA
ENDBRANCH  85  86
ENDBRANCH  57  80
BRANCH  69  90
ATOM     90  C   UNL A   1      39.870  34.113  36.946  1.00  0.00    -0.014 A 
ATOM     91  C   UNL A   1      40.393  35.413  36.830  1.00  0.00     0.010 A 
ATOM     92  C   UNL A   1      39.169  33.761  38.115  1.00  0.00     0.010 A 
ATOM     93  C   UNL A   1      40.246  36.331  37.874  1.00  0.00     0.020 A 
ATOM     94  C   UNL A   1      38.992  34.685  39.148  1.00  0.00     0.020 A 
ATOM     95  C   UNL A   1      39.545  35.961  39.026  1.00  0.00     0.054 A 
BRANCH  95  96
ATOM     96  S   UNL A   1      39.333  37.185  40.348  1.00  0.00     0.124 S 
ATOM     97  O   UNL A   1      38.433  36.491  41.264  1.00  0.00    -0.237 OA
ATOM     98  O   UNL A   1      40.699  37.375  40.831  1.00  0.00    -0.237 OA
ATOM     99  O   UNL A   1      38.755  38.340  39.663  1.00  0.00    -0.744 OA
ENDBRANCH  95  96
ENDBRANCH  69  90
ENDBRANCH  43  44
ENDBRANCH  36  38
ENDBRANCH  35  36
ENDBRANCH  34  35
ENDBRANCH  33  34
ENDBRANCH   1  33
TORSDOF 20
ENDMDL
MODEL 2
REMARK VINA RESULT:     -11.4      3.133      9.271
REMARK SMILES CC1=C(C)C[C@@H](C(=O)OCCOCCOC(=O)c2ccc(-c3c4nc(c(-c5ccc(S(=O)(=O)[O-])cc5)c5ccc([nH]5)c(-c5ccc(S(=O)(=O)[O-])cc5)c5nc(c(-c6ccc(S(=O)(=O)[O-])cc6)c6ccc3[nH]6)C=C5)C=C4)cc2)[C@@H](C(=O)N2CCN(c3cccc(C(F)(F)F)c3)CC2)C1
REMARK SMILES IDX 12 1 11 2 10 3 9 4 7 5 8 6 6 7 1 8 2 9 3 10 97 11 4 12 5 13
REMARK SMILES IDX 78 14 79 15 80 16 81 17 82 18 96 19 83 20 95 21 84 22 85 23
REMARK SMILES IDX 86 24 94 25 87 26 89 27 88 28 90 29 91 30 92 31 93 32 13 33
REMARK SMILES IDX 14 34 15 35 16 36 17 37 18 38 19 39 77 40 20 41 76 42 21 43
REMARK SMILES IDX 22 44 23 45 70 46 24 47 75 48 69 49 71 50 25 51 74 52 68 53
REMARK SMILES IDX 67 54 26 56 56 57 37 58 55 59 38 60 41 61 54 62 72 63 39 64
REMARK SMILES IDX 40 65 53 67 73 68 42 69 27 70 28 71 36 72 29 73 35 74 30 75
REMARK SMILES IDX 31 76 32 77 33 78 34 79 57 80 58 81 66 82 59 83 65 84 60 85
REMARK SMILES IDX 61 86 62 87 63 88 64 89 43 90 44 91 52 92 45 93 51 94 46 95
REMARK SMILES IDX 47 96 48 97 49 98 50 99
REMARK H PARENT 71 55 41 66
REMARK Flexibility Score: inf
ROOT
ATOM      1  O   UNL A   1      31.543  31.444  26.852  1.00  0.00    -0.374 OA
ENDROOT
BRANCH   1   2
ATOM      2  C   UNL A   1      32.763  30.723  27.046  1.00  0.00     0.202 C 
BRANCH   2   3
ATOM      3  C   UNL A   1      33.053  29.673  25.968  1.00  0.00     0.261 C 
BRANCH   3   4
ATOM      4  O   UNL A   1      32.057  29.677  24.927  1.00  0.00    -0.463 OA
BRANCH   4   5
ATOM      5  C   UNL A   1      32.424  29.226  23.711  1.00  0.00     0.310 C 
ATOM      6  O   UNL A   1      33.583  29.021  23.362  1.00  0.00    -0.252 OA
BRANCH   5   7
ATOM      7  C   UNL A   1      31.258  29.044  22.748  1.00  0.00     0.116 C 
ATOM      8  C   UNL A   1      26.921  28.590  23.438  1.00  0.00     0.039 C 
ATOM      9  C   UNL A   1      28.330  28.905  23.015  1.00  0.00    -0.074 C 
ATOM     10  C   UNL A   1      28.945  30.084  23.240  1.00  0.00    -0.073 C 
ATOM     11  C   UNL A   1      29.056  27.810  22.263  1.00  0.00     0.045 C 
ATOM     12  C   UNL A   1      28.299  31.307  23.835  1.00  0.00     0.039 C 
ATOM     13  C   UNL A   1      30.372  30.297  22.817  1.00  0.00     0.046 C 
ATOM     14  C   UNL A   1      30.542  27.667  22.650  1.00  0.00     0.097 C 
BRANCH  14  15
ATOM     15  C   UNL A   1      30.540  26.724  23.851  1.00  0.00     0.227 C 
ATOM     16  O   UNL A   1      29.692  26.829  24.735  1.00  0.00    -0.275 OA
ATOM     17  N   UNL A   1      31.399  25.627  23.827  1.00  0.00    -0.339 N 
ATOM     18  C   UNL A   1      31.073  24.532  24.727  1.00  0.00     0.141 C 
ATOM     19  C   UNL A   1      32.721  25.470  23.184  1.00  0.00     0.141 C 
ATOM     20  C   UNL A   1      31.088  23.197  23.989  1.00  0.00     0.138 C 
ATOM     21  C   UNL A   1      33.040  24.025  22.676  1.00  0.00     0.138 C 
ATOM     22  N   UNL A   1      32.459  22.964  23.516  1.00  0.00    -0.368 N 
BRANCH  22  23
ATOM     23  C   UNL A   1      33.129  21.864  24.014  1.00  0.00     0.037 A 
ATOM     24  C   UNL A   1      34.409  22.016  24.574  1.00  0.00     0.026 A 
ATOM     25  C   UNL A   1      32.632  20.560  23.901  1.00  0.00     0.039 A 
ATOM     26  C   UNL A   1      35.182  20.924  24.975  1.00  0.00     0.003 A 
ATOM     27  C   UNL A   1      33.406  19.441  24.281  1.00  0.00     0.058 A 
ATOM     28  C   UNL A   1      34.684  19.638  24.820  1.00  0.00     0.013 A 
BRANCH  27  29
ATOM     29  C   UNL A   1      32.898  18.031  24.102  1.00  0.00     0.416 C 
ATOM     30  F   UNL A   1      32.016  17.658  25.069  1.00  0.00    -0.166 F 
ATOM     31  F   UNL A   1      32.247  17.862  22.916  1.00  0.00    -0.166 F 
ATOM     32  F   UNL A   1      33.885  17.090  24.117  1.00  0.00    -0.166 F 
ENDBRANCH  27  29
ENDBRANCH  22  23
ENDBRANCH  14  15
ENDBRANCH   5   7
ENDBRANCH   4   5
ENDBRANCH   3   4
ENDBRANCH   2   3
ENDBRANCH   1   2
BRANCH   1  33
ATOM     33  C   UNL A   1      31.680  32.859  26.737  1.00  0.00     0.202 C 
BRANCH  33  34
ATOM     34  C   UNL A   1      32.904  33.447  27.449  1.00  0.00     0.261 C 
BRANCH  34  35
ATOM     35  O   UNL A   1      32.527  34.371  28.486  1.00  0.00    -0.460 OA
BRANCH  35  36
ATOM     36  C   UNL A   1      33.512  35.193  28.924  1.00  0.00     0.338 C 
ATOM     37  O   UNL A   1      33.482  36.414  28.965  1.00  0.00    -0.246 OA
BRANCH  36  38
ATOM     38  C   UNL A   1      34.607  34.396  29.519  1.00  0.00     0.060 A 
ATOM     39  C   UNL A   1      34.286  33.482  30.526  1.00  0.00     0.016 A 
ATOM     40  C   UNL A   1      35.937  34.561  29.139  1.00  0.00     0.016 A 
ATOM     41  C   UNL A   1      35.300  32.770  31.174  1.00  0.00     0.010 A 
ATOM     42  C   UNL A   1      36.938  33.767  29.712  1.00  0.00     0.010 A 
ATOM     43  C   UNL A   1      36.642  32.920  30.792  1.00  0.00    -0.014 A 
BRANCH  43  44
ATOM     44  C   UNL A   1      37.740  32.358  31.637  1.00  0.00     0.031 A 
ATOM     45  C   UNL A   1      38.566  31.206  31.102  1.00  0.00     0.074 A 
ATOM     46  C   UNL A   1      38.046  32.884  32.842  1.00  0.00     0.049 A 
ATOM     47  N   UNL A   1      39.569  30.572  31.660  1.00  0.00    -0.248 NA
ATOM     48  C   UNL A   1      38.204  30.680  29.774  1.00  0.00     0.031 C 
ATOM     49  C   UNL A   1      37.344  33.991  33.492  1.00  0.00     0.029 A 
ATOM     50  N   UNL A   1      39.045  32.559  33.731  1.00  0.00    -0.354 N 
ATOM     51  C   UNL A   1      39.932  29.571  30.763  1.00  0.00     0.074 A 
ATOM     52  C   UNL A   1      39.000  29.629  29.664  1.00  0.00     0.031 C 
ATOM     53  C   UNL A   1      37.957  34.278  34.655  1.00  0.00     0.029 A 
ATOM     54  C   UNL A   1      39.069  33.352  34.856  1.00  0.00     0.049 A 
ATOM     55  H   UNL A   1      39.685  31.826  33.576  1.00  0.00     0.167 HD
ATOM     56  C   UNL A   1      40.969  28.701  30.819  1.00  0.00     0.031 A 
ATOM     57  C   UNL A   1      39.889  33.336  35.928  1.00  0.00     0.031 A 
ATOM     58  C   UNL A   1      41.926  28.654  31.889  1.00  0.00     0.049 A 
ATOM     59  C   UNL A   1      41.015  32.334  35.989  1.00  0.00     0.074 A 
ATOM     60  C   UNL A   1      43.036  27.837  32.013  1.00  0.00     0.029 A 
ATOM     61  N   UNL A   1      41.894  29.461  33.015  1.00  0.00    -0.354 N 
ATOM     62  N   UNL A   1      41.364  31.427  35.107  1.00  0.00    -0.248 NA
ATOM     63  C   UNL A   1      41.866  32.361  37.188  1.00  0.00     0.031 C 
ATOM     64  C   UNL A   1      43.641  28.106  33.244  1.00  0.00     0.029 A 
ATOM     65  C   UNL A   1      42.949  29.142  33.852  1.00  0.00     0.049 A 
ATOM     66  H   UNL A   1      41.221  30.157  33.194  1.00  0.00     0.167 HD
ATOM     67  C   UNL A   1      42.494  30.803  35.630  1.00  0.00     0.074 A 
ATOM     68  C   UNL A   1      42.779  31.445  36.895  1.00  0.00     0.031 C 
ATOM     69  C   UNL A   1      43.230  29.791  35.107  1.00  0.00     0.031 A 
BRANCH  56  70
ATOM     70  C   UNL A   1      41.120  27.723  29.681  1.00  0.00    -0.014 A 
ATOM     71  C   UNL A   1      40.220  26.653  29.510  1.00  0.00     0.010 A 
ATOM     72  C   UNL A   1      42.158  27.895  28.747  1.00  0.00     0.010 A 
ATOM     73  C   UNL A   1      40.382  25.750  28.457  1.00  0.00     0.020 A 
ATOM     74  C   UNL A   1      42.302  27.014  27.670  1.00  0.00     0.020 A 
ATOM     75  C   UNL A   1      41.424  25.937  27.543  1.00  0.00     0.054 A 
BRANCH  75  76
ATOM     76  S   UNL A   1      41.593  24.765  26.170  1.00  0.00     0.124 S 
ATOM     77  O   UNL A   1      41.320  25.616  25.014  1.00  0.00    -0.237 OA
ATOM     78  O   UNL A   1      42.975  24.312  26.304  1.00  0.00    -0.237 OA
ATOM     79  O   UNL A   1      40.578  23.753  26.449  1.00  0.00    -0.744 OA
ENDBRANCH  75  76
ENDBRANCH  56  70
BRANCH  57  80
ATOM     80  C   UNL A   1      39.686  34.306  37.044  1.00  0.00    -0.014 A 
ATOM     81  C   UNL A   1      40.186  35.618  36.958  1.00  0.00     0.010 A 
ATOM     82  C   UNL A   1      39.005  33.915  38.212  1.00  0.00     0.010 A 
ATOM     83  C   UNL A   1      40.032  36.511  38.026  1.00  0.00     0.020 A 
ATOM     84  C   UNL A   1      38.821  34.812  39.268  1.00  0.00     0.020 A 
ATOM     85  C   UNL A   1      39.347  36.101  39.173  1.00  0.00     0.054 A 
BRANCH  85  86
ATOM     86  S   UNL A   1      39.122  37.288  40.528  1.00  0.00     0.124 S 
ATOM     87  O   UNL A   1      40.482  37.772  40.738  1.00  0.00    -0.237 OA
ATOM     88  O   UNL A   1      38.188  38.251  39.950  1.00  0.00    -0.237 OA
ATOM     89  O   UNL A   1      38.574  36.472  41.609  1.00  0.00    -0.744 OA
ENDBRANCH  85  86
ENDBRANCH  57  80
BRANCH  69  90
ATOM     90  C   UNL A   1      44.446  29.336  35.874  1.00  0.00    -0.014 A 
ATOM     91  C   UNL A   1      45.675  30.011  35.771  1.00  0.00     0.010 A 
ATOM     92  C   UNL A   1      44.336  28.251  36.765  1.00  0.00     0.010 A 
ATOM     93  C   UNL A   1      46.779  29.589  36.518  1.00  0.00     0.020 A 
ATOM     94  C   UNL A   1      45.427  27.847  37.538  1.00  0.00     0.020 A 
ATOM     95  C   UNL A   1      46.647  28.510  37.398  1.00  0.00     0.054 A 
BRANCH  95  96
ATOM     96  S   UNL A   1      48.084  28.012  38.387  1.00  0.00     0.124 S 
ATOM     97  O   UNL A   1      47.975  26.555  38.368  1.00  0.00    -0.237 OA
ATOM     98  O   UNL A   1      49.202  28.568  37.630  1.00  0.00    -0.237 OA
ATOM     99  O   UNL A   1      47.846  28.637  39.686  1.00  0.00    -0.744 OA
ENDBRANCH  95  96
ENDBRANCH  69  90
ENDBRANCH  43  44
ENDBRANCH  36  38
ENDBRANCH  35  36
ENDBRANCH  34  35
ENDBRANCH  33  34
ENDBRANCH   1  33
TORSDOF 20
ENDMDL
MODEL 3
REMARK VINA RESULT:     -11.2      5.637      8.310
REMARK SMILES CC1=C(C)C[C@@H](C(=O)OCCOCCOC(=O)c2ccc(-c3c4nc(c(-c5ccc(S(=O)(=O)[O-])cc5)c5ccc([nH]5)c(-c5ccc(S(=O)(=O)[O-])cc5)c5nc(c(-c6ccc(S(=O)(=O)[O-])cc6)c6ccc3[nH]6)C=C5)C=C4)cc2)[C@@H](C(=O)N2CCN(c3cccc(C(F)(F)F)c3)CC2)C1
REMARK SMILES IDX 12 1 11 2 10 3 9 4 7 5 8 6 6 7 1 8 2 9 3 10 97 11 4 12 5 13
REMARK SMILES IDX 78 14 79 15 80 16 81 17 82 18 96 19 83 20 95 21 84 22 85 23
REMARK SMILES IDX 86 24 94 25 87 26 89 27 88 28 90 29 91 30 92 31 93 32 13 33
REMARK SMILES IDX 14 34 15 35 16 36 17 37 18 38 19 39 77 40 20 41 76 42 21 43
REMARK SMILES IDX 22 44 23 45 70 46 24 47 75 48 69 49 71 50 25 51 74 52 68 53
REMARK SMILES IDX 67 54 26 56 56 57 37 58 55 59 38 60 41 61 54 62 72 63 39 64
REMARK SMILES IDX 40 65 53 67 73 68 42 69 27 70 28 71 36 72 29 73 35 74 30 75
REMARK SMILES IDX 31 76 32 77 33 78 34 79 57 80 58 81 66 82 59 83 65 84 60 85
REMARK SMILES IDX 61 86 62 87 63 88 64 89 43 90 44 91 52 92 45 93 51 94 46 95
REMARK SMILES IDX 47 96 48 97 49 98 50 99
REMARK H PARENT 71 55 41 66
REMARK Flexibility Score: inf
ROOT
ATOM      1  O   UNL A   1      34.911  21.338  25.104  1.00  0.00    -0.374 OA
ENDROOT
BRANCH   1   2
ATOM      2  C   UNL A   1      34.840  21.459  26.527  1.00  0.00     0.202 C 
BRANCH   2   3
ATOM      3  C   UNL A   1      33.427  21.709  27.068  1.00  0.00     0.261 C 
BRANCH   3   4
ATOM      4  O   UNL A   1      32.557  22.276  26.069  1.00  0.00    -0.463 OA
BRANCH   4   5
ATOM      5  C   UNL A   1      31.731  23.269  26.452  1.00  0.00     0.310 C 
ATOM      6  O   UNL A   1      31.369  23.469  27.608  1.00  0.00    -0.252 OA
BRANCH   5   7
ATOM      7  C   UNL A   1      31.214  24.115  25.297  1.00  0.00     0.116 C 
ATOM      8  C   UNL A   1      33.283  26.026  21.897  1.00  0.00     0.039 C 
ATOM      9  C   UNL A   1      32.403  25.304  22.881  1.00  0.00    -0.074 C 
ATOM     10  C   UNL A   1      32.280  23.964  22.948  1.00  0.00    -0.073 C 
ATOM     11  C   UNL A   1      31.599  26.181  23.816  1.00  0.00     0.045 C 
ATOM     12  C   UNL A   1      32.896  22.979  21.989  1.00  0.00     0.039 C 
ATOM     13  C   UNL A   1      31.407  23.325  23.993  1.00  0.00     0.046 C 
ATOM     14  C   UNL A   1      31.512  25.640  25.259  1.00  0.00     0.097 C 
BRANCH  14  15
ATOM     15  C   UNL A   1      32.757  26.189  25.952  1.00  0.00     0.227 C 
ATOM     16  O   UNL A   1      33.820  25.570  25.926  1.00  0.00    -0.275 OA
ATOM     17  N   UNL A   1      32.714  27.489  26.450  1.00  0.00    -0.339 N 
ATOM     18  C   UNL A   1      33.996  28.134  26.688  1.00  0.00     0.141 C 
ATOM     19  C   UNL A   1      31.572  28.265  26.981  1.00  0.00     0.141 C 
ATOM     20  C   UNL A   1      34.031  29.524  26.061  1.00  0.00     0.138 C 
ATOM     21  C   UNL A   1      31.643  29.806  26.721  1.00  0.00     0.138 C 
ATOM     22  N   UNL A   1      33.014  30.342  26.734  1.00  0.00    -0.368 N 
BRANCH  22  23
ATOM     23  C   UNL A   1      33.447  31.448  27.439  1.00  0.00     0.037 A 
ATOM     24  C   UNL A   1      32.691  32.634  27.418  1.00  0.00     0.026 A 
ATOM     25  C   UNL A   1      34.676  31.486  28.109  1.00  0.00     0.039 A 
ATOM     26  C   UNL A   1      33.144  33.817  28.005  1.00  0.00     0.003 A 
ATOM     27  C   UNL A   1      35.161  32.678  28.692  1.00  0.00     0.058 A 
ATOM     28  C   UNL A   1      34.381  33.841  28.633  1.00  0.00     0.013 A 
BRANCH  27  29
ATOM     29  C   UNL A   1      36.512  32.737  29.360  1.00  0.00     0.416 C 
ATOM     30  F   UNL A   1      36.482  32.326  30.656  1.00  0.00    -0.166 F 
ATOM     31  F   UNL A   1      37.433  31.948  28.738  1.00  0.00    -0.166 F 
ATOM     32  F   UNL A   1      37.055  33.989  29.381  1.00  0.00    -0.166 F 
ENDBRANCH  27  29
ENDBRANCH  22  23
ENDBRANCH  14  15
ENDBRANCH   5   7
ENDBRANCH   4   5
ENDBRANCH   3   4
ENDBRANCH   2   3
ENDBRANCH   1   2
BRANCH   1  33
ATOM     33  C   UNL A   1      36.149  21.734  24.517  1.00  0.00     0.202 C 
BRANCH  33  34
ATOM     34  C   UNL A   1      37.398  21.298  25.292  1.00  0.00     0.261 C 
BRANCH  34  35
ATOM     35  O   UNL A   1      38.167  22.427  25.747  1.00  0.00    -0.460 OA
BRANCH  35  36
ATOM     36  C   UNL A   1      39.342  22.128  26.353  1.00  0.00     0.338 C 
ATOM     37  O   UNL A   1      39.935  21.060  26.313  1.00  0.00    -0.246 OA
BRANCH  36  38
ATOM     38  C   UNL A   1      39.920  23.347  26.960  1.00  0.00     0.060 A 
ATOM     39  C   UNL A   1      39.344  24.579  26.644  1.00  0.00     0.016 A 
ATOM     40  C   UNL A   1      41.038  23.303  27.792  1.00  0.00     0.016 A 
ATOM     41  C   UNL A   1      39.911  25.762  27.127  1.00  0.00     0.010 A 
ATOM     42  C   UNL A   1      41.536  24.479  28.364  1.00  0.00     0.010 A 
ATOM     43  C   UNL A   1      41.030  25.730  27.975  1.00  0.00    -0.014 A 
BRANCH  43  44
ATOM     44  C   UNL A   1      41.782  26.983  28.288  1.00  0.00     0.031 A 
ATOM     45  C   UNL A   1      43.021  27.320  27.483  1.00  0.00     0.074 A 
ATOM     46  C   UNL A   1      41.358  27.846  29.235  1.00  0.00     0.049 A 
ATOM     47  N   UNL A   1      43.819  28.356  27.578  1.00  0.00    -0.248 NA
ATOM     48  C   UNL A   1      43.433  26.354  26.449  1.00  0.00     0.031 C 
ATOM     49  C   UNL A   1      40.186  27.662  30.092  1.00  0.00     0.029 A 
ATOM     50  N   UNL A   1      41.863  29.066  29.623  1.00  0.00    -0.354 N 
ATOM     51  C   UNL A   1      44.825  28.149  26.639  1.00  0.00     0.074 A 
ATOM     52  C   UNL A   1      44.585  26.859  26.039  1.00  0.00     0.031 C 
ATOM     53  C   UNL A   1      40.041  28.746  30.877  1.00  0.00     0.029 A 
ATOM     54  C   UNL A   1      41.129  29.684  30.611  1.00  0.00     0.049 A 
ATOM     55  H   UNL A   1      42.676  29.460  29.231  1.00  0.00     0.167 HD
ATOM     56  C   UNL A   1      45.842  28.966  26.272  1.00  0.00     0.031 A 
ATOM     57  C   UNL A   1      41.310  30.868  31.233  1.00  0.00     0.031 A 
ATOM     58  C   UNL A   1      46.073  30.267  26.835  1.00  0.00     0.049 A 
ATOM     59  C   UNL A   1      42.470  31.747  30.836  1.00  0.00     0.074 A 
ATOM     60  C   UNL A   1      47.050  31.187  26.498  1.00  0.00     0.029 A 
ATOM     61  N   UNL A   1      45.318  30.838  27.847  1.00  0.00    -0.354 N 
ATOM     62  N   UNL A   1      43.382  31.548  29.913  1.00  0.00    -0.248 NA
ATOM     63  C   UNL A   1      42.618  33.019  31.559  1.00  0.00     0.031 C 
ATOM     64  C   UNL A   1      46.925  32.290  27.347  1.00  0.00     0.029 A 
ATOM     65  C   UNL A   1      45.824  32.086  28.165  1.00  0.00     0.049 A 
ATOM     66  H   UNL A   1      44.537  30.418  28.276  1.00  0.00     0.167 HD
ATOM     67  C   UNL A   1      44.187  32.684  29.923  1.00  0.00     0.074 A 
ATOM     68  C   UNL A   1      43.647  33.571  30.931  1.00  0.00     0.031 C 
ATOM     69  C   UNL A   1      45.275  32.967  29.164  1.00  0.00     0.031 A 
BRANCH  56  70
ATOM     70  C   UNL A   1      46.784  28.471  25.204  1.00  0.00    -0.014 A 
ATOM     71  C   UNL A   1      47.991  27.825  25.534  1.00  0.00     0.010 A 
ATOM     72  C   UNL A   1      46.442  28.623  23.847  1.00  0.00     0.010 A 
ATOM     73  C   UNL A   1      48.857  27.383  24.531  1.00  0.00     0.020 A 
ATOM     74  C   UNL A   1      47.289  28.149  22.841  1.00  0.00     0.020 A 
ATOM     75  C   UNL A   1      48.500  27.549  23.190  1.00  0.00     0.054 A 
BRANCH  75  76
ATOM     76  S   UNL A   1      49.631  26.940  21.910  1.00  0.00     0.124 S 
ATOM     77  O   UNL A   1      48.943  25.736  21.450  1.00  0.00    -0.237 OA
ATOM     78  O   UNL A   1      49.663  28.047  20.959  1.00  0.00    -0.237 OA
ATOM     79  O   UNL A   1      50.879  26.705  22.631  1.00  0.00    -0.744 OA
ENDBRANCH  75  76
ENDBRANCH  56  70
BRANCH  57  80
ATOM     80  C   UNL A   1      40.367  31.306  32.303  1.00  0.00    -0.014 A 
ATOM     81  C   UNL A   1      39.348  32.236  32.030  1.00  0.00     0.010 A 
ATOM     82  C   UNL A   1      40.497  30.808  33.613  1.00  0.00     0.010 A 
ATOM     83  C   UNL A   1      38.494  32.677  33.048  1.00  0.00     0.020 A 
ATOM     84  C   UNL A   1      39.627  31.221  34.626  1.00  0.00     0.020 A 
ATOM     85  C   UNL A   1      38.638  32.163  34.339  1.00  0.00     0.054 A 
BRANCH  85  86
ATOM     86  S   UNL A   1      37.494  32.718  35.634  1.00  0.00     0.124 S 
ATOM     87  O   UNL A   1      38.175  33.898  36.158  1.00  0.00    -0.237 OA
ATOM     88  O   UNL A   1      36.269  32.976  34.881  1.00  0.00    -0.237 OA
ATOM     89  O   UNL A   1      37.429  31.577  36.545  1.00  0.00    -0.744 OA
ENDBRANCH  85  86
ENDBRANCH  57  80
BRANCH  69  90
ATOM     90  C   UNL A   1      45.937  34.309  29.354  1.00  0.00    -0.014 A 
ATOM     91  C   UNL A   1      46.867  34.530  30.385  1.00  0.00     0.010 A 
ATOM     92  C   UNL A   1      45.669  35.347  28.441  1.00  0.00     0.010 A 
ATOM     93  C   UNL A   1      47.491  35.774  30.519  1.00  0.00     0.020 A 
ATOM     94  C   UNL A   1      46.314  36.580  28.552  1.00  0.00     0.020 A 
ATOM     95  C   UNL A   1      47.211  36.791  29.601  1.00  0.00     0.054 A 
BRANCH  95  96
ATOM     96  S   UNL A   1      48.067  38.381  29.773  1.00  0.00     0.124 S 
ATOM     97  O   UNL A   1      47.314  39.233  28.858  1.00  0.00    -0.237 OA
ATOM     98  O   UNL A   1      47.901  38.681  31.193  1.00  0.00    -0.237 OA
ATOM     99  O   UNL A   1      49.438  38.084  29.362  1.00  0.00    -0.744 OA
ENDBRANCH  95  96
ENDBRANCH  69  90
ENDBRANCH  43  44
ENDBRANCH  36  38
ENDBRANCH  35  36
ENDBRANCH  34  35
ENDBRANCH  33  34
ENDBRANCH   1  33
TORSDOF 20
ENDMDL
