MODEL 1
REMARK VINA RESULT:     -10.7      0.000      0.000
REMARK SMILES Cc1cc(C(=O)OCCOCCOC(=O)c2ccc(-c3c4nc(c(-c5ccc(S(=O)(=O)[O-])cc5)c5ccc([nH]5)c(-c5ccc(S(=O)(=O)[O-])cc5)c5nc(c(-c6ccc(S(=O)(=O)[O-])cc6)c6ccc3[nH]6)C=C5)C=C4)cc2)ccc1NCCCC(=O)NC1CC1
REMARK SMILES IDX 8 1 7 2 5 3 6 4 4 5 1 6 2 7 3 8 78 9 77 10 76 11 79 12 80 14
REMARK SMILES IDX 81 15 82 16 83 17 84 18 85 19 86 21 87 22 88 23 9 24 10 25
REMARK SMILES IDX 11 26 12 27 13 28 14 29 15 30 16 31 17 32 75 33 18 34 74 35
REMARK SMILES IDX 19 36 20 37 21 38 68 39 22 40 73 41 67 42 69 43 23 44 72 45
REMARK SMILES IDX 66 46 65 47 24 49 54 50 35 51 53 52 36 53 39 54 52 55 70 56
REMARK SMILES IDX 37 57 38 58 51 60 71 61 40 62 25 63 26 64 34 65 27 66 33 67
REMARK SMILES IDX 28 68 29 69 30 70 31 71 32 72 55 73 56 74 64 75 57 76 63 77
REMARK SMILES IDX 58 78 59 79 60 80 61 81 62 82 41 83 42 84 50 85 43 86 49 87
REMARK SMILES IDX 44 88 45 89 46 90 47 91 48 92
REMARK H PARENT 79 13 85 20 69 48 39 59
REMARK Flexibility Score: inf
ROOT
ATOM      1  C   UNL A   1      31.131  26.955  23.804  1.00  0.00     0.261 C 
ENDROOT
BRANCH   1   2
ATOM      2  O   UNL A   1      32.207  26.500  24.641  1.00  0.00    -0.460 OA
BRANCH   2   3
ATOM      3  C   UNL A   1      32.067  26.025  25.903  1.00  0.00     0.338 C 
ATOM      4  O   UNL A   1      31.233  26.233  26.751  1.00  0.00    -0.246 OA
BRANCH   3   5
ATOM      5  C   UNL A   1      33.157  25.054  26.055  1.00  0.00     0.060 A 
ATOM      6  C   UNL A   1      33.647  21.736  27.755  1.00  0.00     0.046 C 
ATOM      7  C   UNL A   1      33.984  22.980  26.975  1.00  0.00    -0.027 A 
ATOM      8  C   UNL A   1      32.983  23.955  26.891  1.00  0.00     0.021 A 
ATOM      9  C   UNL A   1      35.189  23.167  26.257  1.00  0.00     0.037 A 
ATOM     10  C   UNL A   1      35.283  24.226  25.351  1.00  0.00     0.027 A 
ATOM     11  C   UNL A   1      34.301  25.178  25.272  1.00  0.00     0.018 A 
BRANCH   9  12
ATOM     12  N   UNL A   1      36.250  22.288  26.381  1.00  0.00    -0.385 N 
ATOM     13  H   UNL A   1      36.858  22.366  27.151  1.00  0.00     0.160 HD
BRANCH  12  14
ATOM     14  C   UNL A   1      36.481  21.253  25.392  1.00  0.00     0.113 C 
BRANCH  14  15
ATOM     15  C   UNL A   1      35.231  20.963  24.589  1.00  0.00     0.031 C 
BRANCH  15  16
ATOM     16  C   UNL A   1      34.549  19.639  24.901  1.00  0.00     0.102 C 
BRANCH  16  17
ATOM     17  C   UNL A   1      33.039  19.622  24.931  1.00  0.00     0.220 C 
ATOM     18  O   UNL A   1      32.452  18.624  25.363  1.00  0.00    -0.275 OA
ATOM     19  N   UNL A   1      32.271  20.691  24.579  1.00  0.00    -0.353 N 
ATOM     20  H   UNL A   1      31.356  20.655  24.938  1.00  0.00     0.163 HD
BRANCH  19  21
ATOM     21  C   UNL A   1      32.533  21.851  23.795  1.00  0.00     0.082 C 
ATOM     22  C   UNL A   1      31.832  21.938  22.452  1.00  0.00     0.027 C 
ATOM     23  C   UNL A   1      31.580  22.969  23.498  1.00  0.00     0.027 C 
ENDBRANCH  19  21
ENDBRANCH  16  17
ENDBRANCH  15  16
ENDBRANCH  14  15
ENDBRANCH  12  14
ENDBRANCH   9  12
ENDBRANCH   3   5
ENDBRANCH   2   3
ENDBRANCH   1   2
BRANCH   1  24
ATOM     24  C   UNL A   1      30.642  28.289  24.245  1.00  0.00     0.202 C 
BRANCH  24  25
ATOM     25  O   UNL A   1      31.803  29.103  24.233  1.00  0.00    -0.374 OA
BRANCH  25  26
ATOM     26  C   UNL A   1      31.967  29.973  25.318  1.00  0.00     0.202 C 
BRANCH  26  27
ATOM     27  C   UNL A   1      33.246  29.639  26.078  1.00  0.00     0.261 C 
BRANCH  27  28
ATOM     28  O   UNL A   1      33.317  30.390  27.315  1.00  0.00    -0.460 OA
BRANCH  28  29
ATOM     29  C   UNL A   1      34.453  31.125  27.533  1.00  0.00     0.338 C 
ATOM     30  O   UNL A   1      34.516  32.330  27.361  1.00  0.00    -0.246 OA
BRANCH  29  31
ATOM     31  C   UNL A   1      35.553  30.276  28.087  1.00  0.00     0.060 A 
ATOM     32  C   UNL A   1      35.524  29.774  29.405  1.00  0.00     0.016 A 
ATOM     33  C   UNL A   1      36.713  30.147  27.337  1.00  0.00     0.016 A 
ATOM     34  C   UNL A   1      36.702  29.288  30.015  1.00  0.00     0.010 A 
ATOM     35  C   UNL A   1      37.878  29.767  27.968  1.00  0.00     0.010 A 
ATOM     36  C   UNL A   1      37.904  29.366  29.316  1.00  0.00    -0.014 A 
BRANCH  36  37
ATOM     37  C   UNL A   1      39.269  29.152  29.830  1.00  0.00     0.031 A 
ATOM     38  C   UNL A   1      39.958  27.905  29.413  1.00  0.00     0.074 A 
ATOM     39  C   UNL A   1      40.006  30.175  30.337  1.00  0.00     0.049 A 
ATOM     40  N   UNL A   1      41.142  27.585  29.788  1.00  0.00    -0.248 NA
ATOM     41  C   UNL A   1      39.356  26.880  28.557  1.00  0.00     0.031 C 
ATOM     42  C   UNL A   1      41.457  30.387  30.272  1.00  0.00     0.029 A 
ATOM     43  N   UNL A   1      39.572  31.305  31.021  1.00  0.00    -0.354 N 
ATOM     44  C   UNL A   1      41.576  26.555  28.991  1.00  0.00     0.074 A 
ATOM     45  C   UNL A   1      40.396  26.074  28.323  1.00  0.00     0.031 C 
ATOM     46  C   UNL A   1      41.809  31.426  31.052  1.00  0.00     0.029 A 
ATOM     47  C   UNL A   1      40.618  31.869  31.759  1.00  0.00     0.049 A 
ATOM     48  H   UNL A   1      38.655  31.660  30.988  1.00  0.00     0.167 HD
ATOM     49  C   UNL A   1      42.915  26.328  28.915  1.00  0.00     0.031 A 
ATOM     50  C   UNL A   1      40.457  32.049  33.099  1.00  0.00     0.031 A 
ATOM     51  C   UNL A   1      43.630  27.155  29.899  1.00  0.00     0.049 A 
ATOM     52  C   UNL A   1      41.312  31.006  33.769  1.00  0.00     0.074 A 
ATOM     53  C   UNL A   1      44.428  28.281  29.798  1.00  0.00     0.029 A 
ATOM     54  N   UNL A   1      43.264  27.055  31.242  1.00  0.00    -0.354 N 
ATOM     55  N   UNL A   1      41.708  29.927  33.146  1.00  0.00    -0.248 NA
ATOM     56  C   UNL A   1      41.916  31.138  35.090  1.00  0.00     0.031 C 
ATOM     57  C   UNL A   1      44.428  28.922  31.077  1.00  0.00     0.029 A 
ATOM     58  C   UNL A   1      43.671  28.164  31.961  1.00  0.00     0.049 A 
ATOM     59  H   UNL A   1      42.778  26.291  31.629  1.00  0.00     0.167 HD
ATOM     60  C   UNL A   1      42.678  29.314  33.865  1.00  0.00     0.074 A 
ATOM     61  C   UNL A   1      42.731  30.067  35.110  1.00  0.00     0.031 C 
ATOM     62  C   UNL A   1      43.395  28.256  33.394  1.00  0.00     0.031 A 
BRANCH  49  63
ATOM     63  C   UNL A   1      43.598  25.497  27.854  1.00  0.00    -0.014 A 
ATOM     64  C   UNL A   1      42.825  24.949  26.810  1.00  0.00     0.010 A 
ATOM     65  C   UNL A   1      44.967  25.153  27.851  1.00  0.00     0.010 A 
ATOM     66  C   UNL A   1      43.382  24.118  25.824  1.00  0.00     0.020 A 
ATOM     67  C   UNL A   1      45.544  24.343  26.859  1.00  0.00     0.020 A 
ATOM     68  C   UNL A   1      44.744  23.825  25.850  1.00  0.00     0.054 A 
BRANCH  68  69
ATOM     69  S   UNL A   1      45.447  22.759  24.563  1.00  0.00     0.124 S 
ATOM     70  O   UNL A   1      44.261  22.327  23.831  1.00  0.00    -0.237 OA
ATOM     71  O   UNL A   1      46.333  23.673  23.847  1.00  0.00    -0.237 OA
ATOM     72  O   UNL A   1      46.126  21.705  25.316  1.00  0.00    -0.744 OA
ENDBRANCH  68  69
ENDBRANCH  49  63
BRANCH  50  73
ATOM     73  C   UNL A   1      39.076  32.550  33.435  1.00  0.00    -0.014 A 
ATOM     74  C   UNL A   1      38.768  33.874  33.027  1.00  0.00     0.010 A 
ATOM     75  C   UNL A   1      37.999  31.659  33.612  1.00  0.00     0.010 A 
ATOM     76  C   UNL A   1      37.464  34.245  32.654  1.00  0.00     0.020 A 
ATOM     77  C   UNL A   1      36.693  32.021  33.214  1.00  0.00     0.020 A 
ATOM     78  C   UNL A   1      36.441  33.297  32.696  1.00  0.00     0.054 A 
BRANCH  78  79
ATOM     79  S   UNL A   1      34.900  33.621  31.749  1.00  0.00     0.124 S 
ATOM     80  O   UNL A   1      35.405  34.173  30.498  1.00  0.00    -0.237 OA
ATOM     81  O   UNL A   1      34.289  32.294  31.643  1.00  0.00    -0.237 OA
ATOM     82  O   UNL A   1      34.173  34.546  32.612  1.00  0.00    -0.744 OA
ENDBRANCH  78  79
ENDBRANCH  50  73
BRANCH  62  83
ATOM     83  C   UNL A   1      43.939  27.216  34.322  1.00  0.00    -0.014 A 
ATOM     84  C   UNL A   1      43.126  26.214  34.878  1.00  0.00     0.010 A 
ATOM     85  C   UNL A   1      45.332  27.111  34.513  1.00  0.00     0.010 A 
ATOM     86  C   UNL A   1      43.664  25.221  35.691  1.00  0.00     0.020 A 
ATOM     87  C   UNL A   1      45.888  26.079  35.264  1.00  0.00     0.020 A 
ATOM     88  C   UNL A   1      45.041  25.170  35.888  1.00  0.00     0.054 A 
BRANCH  88  89
ATOM     89  S   UNL A   1      45.712  23.891  36.966  1.00  0.00     0.124 S 
ATOM     90  O   UNL A   1      45.024  24.179  38.222  1.00  0.00    -0.237 OA
ATOM     91  O   UNL A   1      45.306  22.658  36.296  1.00  0.00    -0.237 OA
ATOM     92  O   UNL A   1      47.148  24.155  36.962  1.00  0.00    -0.744 OA
ENDBRANCH  88  89
ENDBRANCH  62  83
ENDBRANCH  36  37
ENDBRANCH  29  31
ENDBRANCH  28  29
ENDBRANCH  27  28
ENDBRANCH  26  27
ENDBRANCH  25  26
ENDBRANCH  24  25
ENDBRANCH   1  24
TORSDOF 23
ENDMDL
MODEL 2
REMARK VINA RESULT:     -10.3      1.489      2.852
REMARK SMILES Cc1cc(C(=O)OCCOCCOC(=O)c2ccc(-c3c4nc(c(-c5ccc(S(=O)(=O)[O-])cc5)c5ccc([nH]5)c(-c5ccc(S(=O)(=O)[O-])cc5)c5nc(c(-c6ccc(S(=O)(=O)[O-])cc6)c6ccc3[nH]6)C=C5)C=C4)cc2)ccc1NCCCC(=O)NC1CC1
REMARK SMILES IDX 8 1 7 2 5 3 6 4 4 5 1 6 2 7 3 8 78 9 77 10 76 11 79 12 80 14
REMARK SMILES IDX 81 15 82 16 83 17 84 18 85 19 86 21 87 22 88 23 9 24 10 25
REMARK SMILES IDX 11 26 12 27 13 28 14 29 15 30 16 31 17 32 75 33 18 34 74 35
REMARK SMILES IDX 19 36 20 37 21 38 68 39 22 40 73 41 67 42 69 43 23 44 72 45
REMARK SMILES IDX 66 46 65 47 24 49 54 50 35 51 53 52 36 53 39 54 52 55 70 56
REMARK SMILES IDX 37 57 38 58 51 60 71 61 40 62 25 63 26 64 34 65 27 66 33 67
REMARK SMILES IDX 28 68 29 69 30 70 31 71 32 72 55 73 56 74 64 75 57 76 63 77
REMARK SMILES IDX 58 78 59 79 60 80 61 81 62 82 41 83 42 84 50 85 43 86 49 87
REMARK SMILES IDX 44 88 45 89 46 90 47 91 48 92
REMARK H PARENT 79 13 85 20 69 48 39 59
REMARK Flexibility Score: inf
ROOT
ATOM      1  C   UNL A   1      31.174  29.146  24.629  1.00  0.00     0.261 C 
ENDROOT
BRANCH   1   2
ATOM      2  O   UNL A   1      30.756  29.498  23.299  1.00  0.00    -0.460 OA
BRANCH   2   3
ATOM      3  C   UNL A   1      29.773  28.879  22.601  1.00  0.00     0.338 C 
ATOM      4  O   UNL A   1      28.874  29.315  21.922  1.00  0.00    -0.246 OA
BRANCH   3   5
ATOM      5  C   UNL A   1      30.059  27.447  22.749  1.00  0.00     0.060 A 
ATOM      6  C   UNL A   1      32.772  25.075  21.674  1.00  0.00     0.046 C 
ATOM      7  C   UNL A   1      31.479  25.549  22.284  1.00  0.00    -0.027 A 
ATOM      8  C   UNL A   1      31.149  26.895  22.081  1.00  0.00     0.021 A 
ATOM      9  C   UNL A   1      30.653  24.756  23.115  1.00  0.00     0.037 A 
ATOM     10  C   UNL A   1      29.633  25.371  23.846  1.00  0.00     0.027 A 
ATOM     11  C   UNL A   1      29.313  26.687  23.644  1.00  0.00     0.018 A 
BRANCH   9  12
ATOM     12  N   UNL A   1      30.872  23.399  23.272  1.00  0.00    -0.385 N 
ATOM     13  H   UNL A   1      30.428  22.763  22.668  1.00  0.00     0.160 HD
BRANCH  12  14
ATOM     14  C   UNL A   1      31.750  22.901  24.314  1.00  0.00     0.113 C 
BRANCH  14  15
ATOM     15  C   UNL A   1      31.183  23.165  25.692  1.00  0.00     0.031 C 
BRANCH  15  16
ATOM     16  C   UNL A   1      32.135  23.836  26.671  1.00  0.00     0.102 C 
BRANCH  16  17
ATOM     17  C   UNL A   1      32.828  25.099  26.215  1.00  0.00     0.220 C 
ATOM     18  O   UNL A   1      32.246  26.184  26.327  1.00  0.00    -0.275 OA
ATOM     19  N   UNL A   1      34.109  25.125  25.753  1.00  0.00    -0.353 N 
ATOM     20  H   UNL A   1      34.526  26.015  25.795  1.00  0.00     0.163 HD
BRANCH  19  21
ATOM     21  C   UNL A   1      34.965  24.117  25.223  1.00  0.00     0.082 C 
ATOM     22  C   UNL A   1      36.382  24.074  25.762  1.00  0.00     0.027 C 
ATOM     23  C   UNL A   1      35.476  22.904  25.940  1.00  0.00     0.027 C 
ENDBRANCH  19  21
ENDBRANCH  16  17
ENDBRANCH  15  16
ENDBRANCH  14  15
ENDBRANCH  12  14
ENDBRANCH   9  12
ENDBRANCH   3   5
ENDBRANCH   2   3
ENDBRANCH   1   2
BRANCH   1  24
ATOM     24  C   UNL A   1      32.653  28.996  24.698  1.00  0.00     0.202 C 
BRANCH  24  25
ATOM     25  O   UNL A   1      33.059  30.003  25.609  1.00  0.00    -0.374 OA
BRANCH  25  26
ATOM     26  C   UNL A   1      32.040  30.777  26.179  1.00  0.00     0.202 C 
BRANCH  26  27
ATOM     27  C   UNL A   1      32.605  31.672  27.277  1.00  0.00     0.261 C 
BRANCH  27  28
ATOM     28  O   UNL A   1      33.663  30.994  27.997  1.00  0.00    -0.460 OA
BRANCH  28  29
ATOM     29  C   UNL A   1      34.913  31.553  27.939  1.00  0.00     0.338 C 
ATOM     30  O   UNL A   1      35.116  32.713  27.627  1.00  0.00    -0.246 OA
BRANCH  29  31
ATOM     31  C   UNL A   1      35.964  30.588  28.391  1.00  0.00     0.060 A 
ATOM     32  C   UNL A   1      35.914  29.961  29.654  1.00  0.00     0.016 A 
ATOM     33  C   UNL A   1      37.106  30.461  27.615  1.00  0.00     0.016 A 
ATOM     34  C   UNL A   1      37.065  29.346  30.196  1.00  0.00     0.010 A 
ATOM     35  C   UNL A   1      38.250  29.950  28.189  1.00  0.00     0.010 A 
ATOM     36  C   UNL A   1      38.263  29.418  29.490  1.00  0.00    -0.014 A 
BRANCH  36  37
ATOM     37  C   UNL A   1      39.617  29.071  29.961  1.00  0.00     0.031 A 
ATOM     38  C   UNL A   1      40.219  27.827  29.421  1.00  0.00     0.074 A 
ATOM     39  C   UNL A   1      40.423  29.995  30.548  1.00  0.00     0.049 A 
ATOM     40  N   UNL A   1      41.384  27.399  29.746  1.00  0.00    -0.248 NA
ATOM     41  C   UNL A   1      39.543  26.925  28.485  1.00  0.00     0.031 C 
ATOM     42  C   UNL A   1      41.885  30.118  30.478  1.00  0.00     0.029 A 
ATOM     43  N   UNL A   1      40.071  31.082  31.338  1.00  0.00    -0.354 N 
ATOM     44  C   UNL A   1      41.741  26.422  28.851  1.00  0.00     0.074 A 
ATOM     45  C   UNL A   1      40.526  26.080  28.161  1.00  0.00     0.031 C 
ATOM     46  C   UNL A   1      42.311  31.057  31.344  1.00  0.00     0.029 A 
ATOM     47  C   UNL A   1      41.159  31.508  32.108  1.00  0.00     0.049 A 
ATOM     48  H   UNL A   1      39.178  31.496  31.353  1.00  0.00     0.167 HD
ATOM     49  C   UNL A   1      43.062  26.118  28.734  1.00  0.00     0.031 A 
ATOM     50  C   UNL A   1      41.024  31.573  33.461  1.00  0.00     0.031 A 
ATOM     51  C   UNL A   1      43.839  26.803  29.777  1.00  0.00     0.049 A 
ATOM     52  C   UNL A   1      41.816  30.421  34.019  1.00  0.00     0.074 A 
ATOM     53  C   UNL A   1      44.707  27.881  29.767  1.00  0.00     0.029 A 
ATOM     54  N   UNL A   1      43.482  26.603  31.111  1.00  0.00    -0.354 N 
ATOM     55  N   UNL A   1      42.135  29.381  33.294  1.00  0.00    -0.248 NA
ATOM     56  C   UNL A   1      42.440  30.392  35.337  1.00  0.00     0.031 C 
ATOM     57  C   UNL A   1      44.762  28.400  31.098  1.00  0.00     0.029 A 
ATOM     58  C   UNL A   1      43.967  27.614  31.921  1.00  0.00     0.049 A 
ATOM     59  H   UNL A   1      42.951  25.840  31.435  1.00  0.00     0.167 HD
ATOM     60  C   UNL A   1      43.070  28.644  33.938  1.00  0.00     0.074 A 
ATOM     61  C   UNL A   1      43.185  29.274  35.245  1.00  0.00     0.031 C 
ATOM     62  C   UNL A   1      43.712  27.590  33.361  1.00  0.00     0.031 A 
BRANCH  49  63
ATOM     63  C   UNL A   1      43.679  25.346  27.589  1.00  0.00    -0.014 A 
ATOM     64  C   UNL A   1      43.771  23.942  27.682  1.00  0.00     0.010 A 
ATOM     65  C   UNL A   1      44.250  25.925  26.436  1.00  0.00     0.010 A 
ATOM     66  C   UNL A   1      44.385  23.167  26.684  1.00  0.00     0.020 A 
ATOM     67  C   UNL A   1      44.846  25.162  25.418  1.00  0.00     0.020 A 
ATOM     68  C   UNL A   1      44.915  23.782  25.552  1.00  0.00     0.054 A 
BRANCH  68  69
ATOM     69  S   UNL A   1      45.694  22.765  24.271  1.00  0.00     0.124 S 
ATOM     70  O   UNL A   1      46.334  21.711  25.054  1.00  0.00    -0.237 OA
ATOM     71  O   UNL A   1      44.553  22.345  23.462  1.00  0.00    -0.237 OA
ATOM     72  O   UNL A   1      46.616  23.686  23.607  1.00  0.00    -0.744 OA
ENDBRANCH  68  69
ENDBRANCH  49  63
BRANCH  50  73
ATOM     73  C   UNL A   1      39.681  32.128  33.864  1.00  0.00    -0.014 A 
ATOM     74  C   UNL A   1      39.474  33.512  33.628  1.00  0.00     0.010 A 
ATOM     75  C   UNL A   1      38.540  31.304  33.931  1.00  0.00     0.010 A 
ATOM     76  C   UNL A   1      38.202  34.023  33.311  1.00  0.00     0.020 A 
ATOM     77  C   UNL A   1      37.267  31.809  33.587  1.00  0.00     0.020 A 
ATOM     78  C   UNL A   1      37.112  33.155  33.236  1.00  0.00     0.054 A 
BRANCH  78  79
ATOM     79  S   UNL A   1      35.604  33.709  32.344  1.00  0.00     0.124 S 
ATOM     80  O   UNL A   1      35.404  35.055  32.865  1.00  0.00    -0.237 OA
ATOM     81  O   UNL A   1      36.004  33.638  30.937  1.00  0.00    -0.237 OA
ATOM     82  O   UNL A   1      34.609  32.715  32.733  1.00  0.00    -0.744 OA
ENDBRANCH  78  79
ENDBRANCH  50  73
BRANCH  62  83
ATOM     83  C   UNL A   1      44.197  26.436  34.182  1.00  0.00    -0.014 A 
ATOM     84  C   UNL A   1      43.324  25.452  34.673  1.00  0.00     0.010 A 
ATOM     85  C   UNL A   1      45.582  26.215  34.323  1.00  0.00     0.010 A 
ATOM     86  C   UNL A   1      43.803  24.355  35.383  1.00  0.00     0.020 A 
ATOM     87  C   UNL A   1      46.075  25.083  34.968  1.00  0.00     0.020 A 
ATOM     88  C   UNL A   1      45.177  24.187  35.535  1.00  0.00     0.054 A 
BRANCH  88  89
ATOM     89  S   UNL A   1      45.774  22.774  36.482  1.00  0.00     0.124 S 
ATOM     90  O   UNL A   1      45.283  23.092  37.820  1.00  0.00    -0.237 OA
ATOM     91  O   UNL A   1      45.119  21.646  35.824  1.00  0.00    -0.237 OA
ATOM     92  O   UNL A   1      47.222  22.834  36.314  1.00  0.00    -0.744 OA
ENDBRANCH  88  89
ENDBRANCH  62  83
ENDBRANCH  36  37
ENDBRANCH  29  31
ENDBRANCH  28  29
ENDBRANCH  27  28
ENDBRANCH  26  27
ENDBRANCH  25  26
ENDBRANCH  24  25
ENDBRANCH   1  24
TORSDOF 23
ENDMDL
MODEL 3
REMARK VINA RESULT:      -9.9      1.500      3.094
REMARK SMILES Cc1cc(C(=O)OCCOCCOC(=O)c2ccc(-c3c4nc(c(-c5ccc(S(=O)(=O)[O-])cc5)c5ccc([nH]5)c(-c5ccc(S(=O)(=O)[O-])cc5)c5nc(c(-c6ccc(S(=O)(=O)[O-])cc6)c6ccc3[nH]6)C=C5)C=C4)cc2)ccc1NCCCC(=O)NC1CC1
REMARK SMILES IDX 8 1 7 2 5 3 6 4 4 5 1 6 2 7 3 8 78 9 77 10 76 11 79 12 80 14
REMARK SMILES IDX 81 15 82 16 83 17 84 18 85 19 86 21 87 22 88 23 9 24 10 25
REMARK SMILES IDX 11 26 12 27 13 28 14 29 15 30 16 31 17 32 75 33 18 34 74 35
REMARK SMILES IDX 19 36 20 37 21 38 68 39 22 40 73 41 67 42 69 43 23 44 72 45
REMARK SMILES IDX 66 46 65 47 24 49 54 50 35 51 53 52 36 53 39 54 52 55 70 56
REMARK SMILES IDX 37 57 38 58 51 60 71 61 40 62 25 63 26 64 34 65 27 66 33 67
REMARK SMILES IDX 28 68 29 69 30 70 31 71 32 72 55 73 56 74 64 75 57 76 63 77
REMARK SMILES IDX 58 78 59 79 60 80 61 81 62 82 41 83 42 84 50 85 43 86 49 87
REMARK SMILES IDX 44 88 45 89 46 90 47 91 48 92
REMARK H PARENT 79 13 85 20 69 48 39 59
REMARK Flexibility Score: inf
ROOT
ATOM      1  C   UNL A   1      31.615  25.964  25.755  1.00  0.00     0.261 C 
ENDROOT
BRANCH   1   2
ATOM      2  O   UNL A   1      32.466  24.849  26.068  1.00  0.00    -0.460 OA
BRANCH   2   3
ATOM      3  C   UNL A   1      32.260  23.571  25.663  1.00  0.00     0.338 C 
ATOM      4  O   UNL A   1      31.258  22.988  25.326  1.00  0.00    -0.246 OA
BRANCH   3   5
ATOM      5  C   UNL A   1      33.602  22.978  25.614  1.00  0.00     0.060 A 
ATOM      6  C   UNL A   1      37.137  24.169  26.092  1.00  0.00     0.046 C 
ATOM      7  C   UNL A   1      35.999  23.234  25.776  1.00  0.00    -0.027 A 
ATOM      8  C   UNL A   1      34.719  23.801  25.735  1.00  0.00     0.021 A 
ATOM      9  C   UNL A   1      36.136  21.835  25.624  1.00  0.00     0.037 A 
ATOM     10  C   UNL A   1      34.990  21.036  25.609  1.00  0.00     0.027 A 
ATOM     11  C   UNL A   1      33.739  21.595  25.569  1.00  0.00     0.018 A 
BRANCH   9  12
ATOM     12  N   UNL A   1      37.380  21.232  25.555  1.00  0.00    -0.385 N 
ATOM     13  H   UNL A   1      38.158  21.679  25.957  1.00  0.00     0.160 HD
BRANCH  12  14
ATOM     14  C   UNL A   1      37.551  19.950  24.899  1.00  0.00     0.113 C 
BRANCH  14  15
ATOM     15  C   UNL A   1      38.975  19.450  25.017  1.00  0.00     0.031 C 
BRANCH  15  16
ATOM     16  C   UNL A   1      39.730  19.923  26.250  1.00  0.00     0.102 C 
BRANCH  16  17
ATOM     17  C   UNL A   1      41.239  19.951  26.176  1.00  0.00     0.220 C 
ATOM     18  O   UNL A   1      41.821  19.195  25.390  1.00  0.00    -0.275 OA
ATOM     19  N   UNL A   1      42.007  20.829  26.879  1.00  0.00    -0.353 N 
ATOM     20  H   UNL A   1      42.911  20.948  26.508  1.00  0.00     0.163 HD
BRANCH  19  21
ATOM     21  C   UNL A   1      41.759  21.611  28.044  1.00  0.00     0.082 C 
ATOM     22  C   UNL A   1      42.897  22.490  28.529  1.00  0.00     0.027 C 
ATOM     23  C   UNL A   1      41.604  23.100  28.110  1.00  0.00     0.027 C 
ENDBRANCH  19  21
ENDBRANCH  16  17
ENDBRANCH  15  16
ENDBRANCH  14  15
ENDBRANCH  12  14
ENDBRANCH   9  12
ENDBRANCH   3   5
ENDBRANCH   2   3
ENDBRANCH   1   2
BRANCH   1  24
ATOM     24  C   UNL A   1      32.420  27.151  25.361  1.00  0.00     0.202 C 
BRANCH  24  25
ATOM     25  O   UNL A   1      32.048  28.147  26.299  1.00  0.00    -0.374 OA
BRANCH  25  26
ATOM     26  C   UNL A   1      31.648  29.382  25.773  1.00  0.00     0.202 C 
BRANCH  26  27
ATOM     27  C   UNL A   1      32.718  30.438  26.027  1.00  0.00     0.261 C 
BRANCH  27  28
ATOM     28  O   UNL A   1      33.513  30.093  27.188  1.00  0.00    -0.460 OA
BRANCH  28  29
ATOM     29  C   UNL A   1      34.556  30.927  27.498  1.00  0.00     0.338 C 
ATOM     30  O   UNL A   1      34.509  32.138  27.370  1.00  0.00    -0.246 OA
BRANCH  29  31
ATOM     31  C   UNL A   1      35.703  30.168  28.090  1.00  0.00     0.060 A 
ATOM     32  C   UNL A   1      35.712  29.750  29.437  1.00  0.00     0.016 A 
ATOM     33  C   UNL A   1      36.859  30.047  27.333  1.00  0.00     0.016 A 
ATOM     34  C   UNL A   1      36.918  29.360  30.060  1.00  0.00     0.010 A 
ATOM     35  C   UNL A   1      38.048  29.764  27.972  1.00  0.00     0.010 A 
ATOM     36  C   UNL A   1      38.108  29.451  29.341  1.00  0.00    -0.014 A 
BRANCH  36  37
ATOM     37  C   UNL A   1      39.487  29.336  29.849  1.00  0.00     0.031 A 
ATOM     38  C   UNL A   1      40.254  28.131  29.446  1.00  0.00     0.074 A 
ATOM     39  C   UNL A   1      40.157  30.413  30.337  1.00  0.00     0.049 A 
ATOM     40  N   UNL A   1      41.459  27.896  29.817  1.00  0.00    -0.248 NA
ATOM     41  C   UNL A   1      39.716  27.056  28.609  1.00  0.00     0.031 C 
ATOM     42  C   UNL A   1      41.591  30.719  30.258  1.00  0.00     0.029 A 
ATOM     43  N   UNL A   1      39.654  31.521  31.007  1.00  0.00    -0.354 N 
ATOM     44  C   UNL A   1      41.956  26.885  29.032  1.00  0.00     0.074 A 
ATOM     45  C   UNL A   1      40.807  26.317  28.379  1.00  0.00     0.031 C 
ATOM     46  C   UNL A   1      41.878  31.791  31.021  1.00  0.00     0.029 A 
ATOM     47  C   UNL A   1      40.664  32.164  31.730  1.00  0.00     0.049 A 
ATOM     48  H   UNL A   1      38.714  31.814  30.975  1.00  0.00     0.167 HD
ATOM     49  C   UNL A   1      43.306  26.746  28.950  1.00  0.00     0.031 A 
ATOM     50  C   UNL A   1      40.499  32.353  33.068  1.00  0.00     0.031 A 
ATOM     51  C   UNL A   1      43.971  27.634  29.917  1.00  0.00     0.049 A 
ATOM     52  C   UNL A   1      41.425  31.380  33.747  1.00  0.00     0.074 A 
ATOM     53  C   UNL A   1      44.692  28.808  29.795  1.00  0.00     0.029 A 
ATOM     54  N   UNL A   1      43.621  27.529  31.264  1.00  0.00    -0.354 N 
ATOM     55  N   UNL A   1      41.888  30.319  33.137  1.00  0.00    -0.248 NA
ATOM     56  C   UNL A   1      42.027  31.571  35.062  1.00  0.00     0.031 C 
ATOM     57  C   UNL A   1      44.657  29.467  31.064  1.00  0.00     0.029 A 
ATOM     58  C   UNL A   1      43.957  28.673  31.964  1.00  0.00     0.049 A 
ATOM     59  H   UNL A   1      43.188  26.741  31.666  1.00  0.00     0.167 HD
ATOM     60  C   UNL A   1      42.901  29.783  33.858  1.00  0.00     0.074 A 
ATOM     61  C   UNL A   1      42.912  30.556  35.091  1.00  0.00     0.031 C 
ATOM     62  C   UNL A   1      43.684  28.768  33.397  1.00  0.00     0.031 A 
BRANCH  49  63
ATOM     63  C   UNL A   1      44.037  25.946  27.896  1.00  0.00    -0.014 A 
ATOM     64  C   UNL A   1      43.400  25.694  26.664  1.00  0.00     0.010 A 
ATOM     65  C   UNL A   1      45.308  25.354  28.064  1.00  0.00     0.010 A 
ATOM     66  C   UNL A   1      43.995  24.908  25.663  1.00  0.00     0.020 A 
ATOM     67  C   UNL A   1      45.926  24.586  27.064  1.00  0.00     0.020 A 
ATOM     68  C   UNL A   1      45.260  24.363  25.866  1.00  0.00     0.054 A 
BRANCH  68  69
ATOM     69  S   UNL A   1      46.016  23.361  24.559  1.00  0.00     0.124 S 
ATOM     70  O   UNL A   1      44.916  23.200  23.612  1.00  0.00    -0.237 OA
ATOM     71  O   UNL A   1      47.117  24.209  24.108  1.00  0.00    -0.237 OA
ATOM     72  O   UNL A   1      46.422  22.137  25.248  1.00  0.00    -0.744 OA
ENDBRANCH  68  69
ENDBRANCH  49  63
BRANCH  50  73
ATOM     73  C   UNL A   1      39.090  32.767  33.406  1.00  0.00    -0.014 A 
ATOM     74  C   UNL A   1      38.701  34.071  33.005  1.00  0.00     0.010 A 
ATOM     75  C   UNL A   1      38.069  31.810  33.578  1.00  0.00     0.010 A 
ATOM     76  C   UNL A   1      37.377  34.364  32.634  1.00  0.00     0.020 A 
ATOM     77  C   UNL A   1      36.744  32.094  33.181  1.00  0.00     0.020 A 
ATOM     78  C   UNL A   1      36.414  33.354  32.670  1.00  0.00     0.054 A 
BRANCH  78  79
ATOM     79  S   UNL A   1      34.856  33.589  31.724  1.00  0.00     0.124 S 
ATOM     80  O   UNL A   1      35.228  33.149  30.385  1.00  0.00    -0.237 OA
ATOM     81  O   UNL A   1      33.907  32.720  32.424  1.00  0.00    -0.237 OA
ATOM     82  O   UNL A   1      34.588  35.015  31.881  1.00  0.00    -0.744 OA
ENDBRANCH  78  79
ENDBRANCH  50  73
BRANCH  62  83
ATOM     83  C   UNL A   1      44.301  27.780  34.337  1.00  0.00    -0.014 A 
ATOM     84  C   UNL A   1      43.528  27.005  35.218  1.00  0.00     0.010 A 
ATOM     85  C   UNL A   1      45.672  27.472  34.223  1.00  0.00     0.010 A 
ATOM     86  C   UNL A   1      44.117  26.050  36.040  1.00  0.00     0.020 A 
ATOM     87  C   UNL A   1      46.258  26.468  34.989  1.00  0.00     0.020 A 
ATOM     88  C   UNL A   1      45.482  25.798  35.927  1.00  0.00     0.054 A 
BRANCH  88  89
ATOM     89  S   UNL A   1      46.227  24.575  37.021  1.00  0.00     0.124 S 
ATOM     90  O   UNL A   1      47.270  24.016  36.165  1.00  0.00    -0.237 OA
ATOM     91  O   UNL A   1      46.702  25.388  38.138  1.00  0.00    -0.237 OA
ATOM     92  O   UNL A   1      45.122  23.675  37.336  1.00  0.00    -0.744 OA
ENDBRANCH  88  89
ENDBRANCH  62  83
ENDBRANCH  36  37
ENDBRANCH  29  31
ENDBRANCH  28  29
ENDBRANCH  27  28
ENDBRANCH  26  27
ENDBRANCH  25  26
ENDBRANCH  24  25
ENDBRANCH   1  24
TORSDOF 23
ENDMDL
