MODEL 1
REMARK VINA RESULT:      -9.1      0.000      0.000
REMARK SMILES COc1ccc(OCCNc2c(Cl)cccc2C(=O)OCCOCCOC(=O)c2ccc(-c3c4nc(c(-c5ccc(S(=O)(=O)[O-])cc5)c5ccc([nH]5)c(-c5ccc(S(=O)(=O)[O-])cc5)c5nc(c(-c6ccc(S(=O)(=O)[O-])cc6)c6ccc3[nH]6)C=C5)C=C4)cc2)cc1
REMARK SMILES IDX 21 1 20 2 18 3 19 4 17 5 11 6 12 7 13 8 14 9 16 10 15 11
REMARK SMILES IDX 10 12 9 14 8 15 7 16 6 17 3 18 4 19 90 20 5 21 89 22 2 23
REMARK SMILES IDX 1 24 22 25 23 26 24 27 25 28 26 29 27 30 28 31 29 32 30 33
REMARK SMILES IDX 88 34 31 35 87 36 32 37 33 38 34 39 81 40 35 41 86 42 80 43
REMARK SMILES IDX 82 44 36 45 85 46 79 47 78 48 37 50 67 51 48 52 66 53 49 54
REMARK SMILES IDX 52 55 65 56 83 57 50 58 51 59 64 61 84 62 53 63 38 64 39 65
REMARK SMILES IDX 47 66 40 67 46 68 41 69 42 70 43 71 44 72 45 73 68 74 69 75
REMARK SMILES IDX 77 76 70 77 76 78 71 79 72 80 73 81 74 82 75 83 54 84 55 85
REMARK SMILES IDX 63 86 56 87 62 88 57 89 58 90 59 91 60 92 61 93
REMARK H PARENT 10 13 82 49 52 60
REMARK Flexibility Score: inf
ROOT
ATOM      1  C   UNL A   1      33.002  24.099  23.312  1.00  0.00     0.261 C 
ENDROOT
BRANCH   1   2
ATOM      2  O   UNL A   1      32.956  25.532  23.383  1.00  0.00    -0.460 OA
BRANCH   2   3
ATOM      3  C   UNL A   1      31.728  26.080  23.285  1.00  0.00     0.340 C 
ATOM      4  O   UNL A   1      30.788  25.642  22.632  1.00  0.00    -0.246 OA
BRANCH   3   5
ATOM      5  C   UNL A   1      31.549  27.172  24.262  1.00  0.00     0.084 A 
ATOM      6  C   UNL A   1      31.447  27.043  25.655  1.00  0.00     0.068 A 
ATOM      7  C   UNL A   1      31.516  28.274  26.375  1.00  0.00     0.065 A 
ATOM      8  Cl  UNL A   1      31.709  28.307  28.099  1.00  0.00    -0.082 Cl
ATOM      9  C   UNL A   1      31.501  29.532  25.765  1.00  0.00     0.023 A 
ATOM     10  C   UNL A   1      31.506  28.451  23.646  1.00  0.00     0.018 A 
ATOM     11  C   UNL A   1      31.449  29.623  24.390  1.00  0.00     0.003 A 
BRANCH   6  12
ATOM     12  N   UNL A   1      31.343  25.881  26.402  1.00  0.00    -0.380 N 
ATOM     13  H   UNL A   1      30.596  25.889  27.042  1.00  0.00     0.160 HD
BRANCH  12  14
ATOM     14  C   UNL A   1      32.123  24.649  26.427  1.00  0.00     0.154 C 
BRANCH  14  15
ATOM     15  C   UNL A   1      31.264  23.445  26.898  1.00  0.00     0.250 C 
BRANCH  15  16
ATOM     16  O   UNL A   1      31.084  22.426  25.901  1.00  0.00    -0.492 OA
BRANCH  16  17
ATOM     17  C   UNL A   1      32.122  21.610  25.556  1.00  0.00     0.119 A 
ATOM     18  C   UNL A   1      33.932  19.592  24.828  1.00  0.00     0.119 A 
ATOM     19  C   UNL A   1      32.890  19.933  23.972  1.00  0.00     0.050 A 
ATOM     20  C   UNL A   1      34.153  20.356  25.967  1.00  0.00     0.050 A 
ATOM     21  C   UNL A   1      31.978  20.929  24.345  1.00  0.00     0.050 A 
ATOM     22  C   UNL A   1      33.270  21.386  26.307  1.00  0.00     0.050 A 
BRANCH  18  23
ATOM     23  O   UNL A   1      34.740  18.550  24.463  1.00  0.00    -0.497 OA
ATOM     24  C   UNL A   1      34.014  17.346  24.208  1.00  0.00     0.278 C 
ENDBRANCH  18  23
ENDBRANCH  16  17
ENDBRANCH  15  16
ENDBRANCH  14  15
ENDBRANCH  12  14
ENDBRANCH   6  12
ENDBRANCH   3   5
ENDBRANCH   2   3
ENDBRANCH   1   2
BRANCH   1  25
ATOM     25  C   UNL A   1      33.790  23.667  22.077  1.00  0.00     0.202 C 
BRANCH  25  26
ATOM     26  O   UNL A   1      35.101  23.158  22.328  1.00  0.00    -0.374 OA
BRANCH  26  27
ATOM     27  C   UNL A   1      35.489  22.989  23.691  1.00  0.00     0.202 C 
BRANCH  27  28
ATOM     28  C   UNL A   1      36.985  23.116  24.009  1.00  0.00     0.261 C 
BRANCH  28  29
ATOM     29  O   UNL A   1      37.250  23.799  25.246  1.00  0.00    -0.460 OA
BRANCH  29  30
ATOM     30  C   UNL A   1      38.203  23.220  26.013  1.00  0.00     0.338 C 
ATOM     31  O   UNL A   1      38.478  22.028  26.074  1.00  0.00    -0.246 OA
BRANCH  30  32
ATOM     32  C   UNL A   1      39.015  24.247  26.688  1.00  0.00     0.060 A 
ATOM     33  C   UNL A   1      38.789  24.463  28.054  1.00  0.00     0.016 A 
ATOM     34  C   UNL A   1      39.901  25.061  25.977  1.00  0.00     0.016 A 
ATOM     35  C   UNL A   1      39.408  25.528  28.703  1.00  0.00     0.010 A 
ATOM     36  C   UNL A   1      40.514  26.135  26.631  1.00  0.00     0.010 A 
ATOM     37  C   UNL A   1      40.242  26.395  27.986  1.00  0.00    -0.014 A 
BRANCH  37  38
ATOM     38  C   UNL A   1      40.721  27.646  28.623  1.00  0.00     0.031 A 
ATOM     39  C   UNL A   1      42.140  27.721  29.123  1.00  0.00     0.074 A 
ATOM     40  C   UNL A   1      39.910  28.714  28.728  1.00  0.00     0.049 A 
ATOM     41  N   UNL A   1      42.751  28.705  29.732  1.00  0.00    -0.248 NA
ATOM     42  C   UNL A   1      42.979  26.531  28.910  1.00  0.00     0.031 C 
ATOM     43  C   UNL A   1      38.531  28.778  28.246  1.00  0.00     0.029 A 
ATOM     44  N   UNL A   1      40.132  29.950  29.281  1.00  0.00    -0.354 N 
ATOM     45  C   UNL A   1      44.041  28.249  29.985  1.00  0.00     0.074 A 
ATOM     46  C   UNL A   1      44.116  26.894  29.486  1.00  0.00     0.031 C 
ATOM     47  C   UNL A   1      38.027  29.992  28.529  1.00  0.00     0.029 A 
ATOM     48  C   UNL A   1      39.034  30.775  29.243  1.00  0.00     0.049 A 
ATOM     49  H   UNL A   1      40.995  30.222  29.667  1.00  0.00     0.167 HD
ATOM     50  C   UNL A   1      45.069  28.903  30.578  1.00  0.00     0.031 A 
ATOM     51  C   UNL A   1      38.851  32.012  29.747  1.00  0.00     0.031 A 
ATOM     52  C   UNL A   1      44.987  30.250  31.081  1.00  0.00     0.049 A 
ATOM     53  C   UNL A   1      39.990  32.692  30.461  1.00  0.00     0.074 A 
ATOM     54  C   UNL A   1      45.982  31.005  31.681  1.00  0.00     0.029 A 
ATOM     55  N   UNL A   1      43.848  31.039  31.052  1.00  0.00    -0.354 N 
ATOM     56  N   UNL A   1      41.210  32.259  30.669  1.00  0.00    -0.248 NA
ATOM     57  C   UNL A   1      39.728  34.035  31.001  1.00  0.00     0.031 C 
ATOM     58  C   UNL A   1      45.426  32.229  32.065  1.00  0.00     0.029 A 
ATOM     59  C   UNL A   1      44.106  32.262  31.647  1.00  0.00     0.049 A 
ATOM     60  H   UNL A   1      42.984  30.769  30.665  1.00  0.00     0.167 HD
ATOM     61  C   UNL A   1      41.869  33.285  31.340  1.00  0.00     0.074 A 
ATOM     62  C   UNL A   1      40.915  34.366  31.488  1.00  0.00     0.031 C 
ATOM     63  C   UNL A   1      43.148  33.330  31.789  1.00  0.00     0.031 A 
BRANCH  50  64
ATOM     64  C   UNL A   1      46.368  28.158  30.745  1.00  0.00    -0.014 A 
ATOM     65  C   UNL A   1      46.520  27.166  31.730  1.00  0.00     0.010 A 
ATOM     66  C   UNL A   1      47.436  28.422  29.868  1.00  0.00     0.010 A 
ATOM     67  C   UNL A   1      47.728  26.473  31.855  1.00  0.00     0.020 A 
ATOM     68  C   UNL A   1      48.636  27.712  29.972  1.00  0.00     0.020 A 
ATOM     69  C   UNL A   1      48.779  26.752  30.976  1.00  0.00     0.054 A 
BRANCH  69  70
ATOM     70  S   UNL A   1      50.324  25.816  31.142  1.00  0.00     0.124 S 
ATOM     71  O   UNL A   1      51.177  26.766  31.852  1.00  0.00    -0.237 OA
ATOM     72  O   UNL A   1      49.910  24.647  31.912  1.00  0.00    -0.237 OA
ATOM     73  O   UNL A   1      50.714  25.543  29.760  1.00  0.00    -0.744 OA
ENDBRANCH  69  70
ENDBRANCH  50  64
BRANCH  51  74
ATOM     74  C   UNL A   1      37.527  32.680  29.616  1.00  0.00    -0.014 A 
ATOM     75  C   UNL A   1      37.136  33.270  28.402  1.00  0.00     0.010 A 
ATOM     76  C   UNL A   1      36.649  32.730  30.715  1.00  0.00     0.010 A 
ATOM     77  C   UNL A   1      35.900  33.915  28.294  1.00  0.00     0.020 A 
ATOM     78  C   UNL A   1      35.401  33.347  30.602  1.00  0.00     0.020 A 
ATOM     79  C   UNL A   1      35.039  33.947  29.395  1.00  0.00     0.054 A 
BRANCH  79  80
ATOM     80  S   UNL A   1      33.419  34.744  29.217  1.00  0.00     0.124 S 
ATOM     81  O   UNL A   1      33.784  36.057  28.693  1.00  0.00    -0.237 OA
ATOM     82  O   UNL A   1      32.732  33.858  28.281  1.00  0.00    -0.237 OA
ATOM     83  O   UNL A   1      32.884  34.737  30.576  1.00  0.00    -0.744 OA
ENDBRANCH  79  80
ENDBRANCH  51  74
BRANCH  63  84
ATOM     84  C   UNL A   1      43.609  34.602  32.451  1.00  0.00    -0.014 A 
ATOM     85  C   UNL A   1      44.177  35.651  31.707  1.00  0.00     0.010 A 
ATOM     86  C   UNL A   1      43.416  34.771  33.836  1.00  0.00     0.010 A 
ATOM     87  C   UNL A   1      44.576  36.832  32.341  1.00  0.00     0.020 A 
ATOM     88  C   UNL A   1      43.787  35.961  34.467  1.00  0.00     0.020 A 
ATOM     89  C   UNL A   1      44.379  36.979  33.718  1.00  0.00     0.054 A 
BRANCH  89  90
ATOM     90  S   UNL A   1      44.866  38.536  34.509  1.00  0.00     0.124 S 
ATOM     91  O   UNL A   1      43.679  38.862  35.295  1.00  0.00    -0.237 OA
ATOM     92  O   UNL A   1      46.044  38.150  35.281  1.00  0.00    -0.237 OA
ATOM     93  O   UNL A   1      45.133  39.429  33.384  1.00  0.00    -0.744 OA
ENDBRANCH  89  90
ENDBRANCH  63  84
ENDBRANCH  37  38
ENDBRANCH  30  32
ENDBRANCH  29  30
ENDBRANCH  28  29
ENDBRANCH  27  28
ENDBRANCH  26  27
ENDBRANCH  25  26
ENDBRANCH   1  25
TORSDOF 23
ENDMDL
MODEL 2
REMARK VINA RESULT:      -9.0      5.981      8.368
REMARK SMILES COc1ccc(OCCNc2c(Cl)cccc2C(=O)OCCOCCOC(=O)c2ccc(-c3c4nc(c(-c5ccc(S(=O)(=O)[O-])cc5)c5ccc([nH]5)c(-c5ccc(S(=O)(=O)[O-])cc5)c5nc(c(-c6ccc(S(=O)(=O)[O-])cc6)c6ccc3[nH]6)C=C5)C=C4)cc2)cc1
REMARK SMILES IDX 21 1 20 2 18 3 19 4 17 5 11 6 12 7 13 8 14 9 16 10 15 11
REMARK SMILES IDX 10 12 9 14 8 15 7 16 6 17 3 18 4 19 90 20 5 21 89 22 2 23
REMARK SMILES IDX 1 24 22 25 23 26 24 27 25 28 26 29 27 30 28 31 29 32 30 33
REMARK SMILES IDX 88 34 31 35 87 36 32 37 33 38 34 39 81 40 35 41 86 42 80 43
REMARK SMILES IDX 82 44 36 45 85 46 79 47 78 48 37 50 67 51 48 52 66 53 49 54
REMARK SMILES IDX 52 55 65 56 83 57 50 58 51 59 64 61 84 62 53 63 38 64 39 65
REMARK SMILES IDX 47 66 40 67 46 68 41 69 42 70 43 71 44 72 45 73 68 74 69 75
REMARK SMILES IDX 77 76 70 77 76 78 71 79 72 80 73 81 74 82 75 83 54 84 55 85
REMARK SMILES IDX 63 86 56 87 62 88 57 89 58 90 59 91 60 92 61 93
REMARK H PARENT 10 13 82 49 52 60
REMARK Flexibility Score: inf
ROOT
ATOM      1  C   UNL A   1      43.146  23.167  29.883  1.00  0.00     0.261 C 
ENDROOT
BRANCH   1   2
ATOM      2  O   UNL A   1      44.229  24.109  29.855  1.00  0.00    -0.460 OA
BRANCH   2   3
ATOM      3  C   UNL A   1      45.046  24.024  28.787  1.00  0.00     0.340 C 
ATOM      4  O   UNL A   1      45.374  22.997  28.204  1.00  0.00    -0.246 OA
BRANCH   3   5
ATOM      5  C   UNL A   1      45.332  25.358  28.223  1.00  0.00     0.084 A 
ATOM      6  C   UNL A   1      45.522  25.674  26.869  1.00  0.00     0.068 A 
ATOM      7  C   UNL A   1      45.549  27.072  26.580  1.00  0.00     0.065 A 
ATOM      8  Cl  UNL A   1      45.472  27.664  24.952  1.00  0.00    -0.082 Cl
ATOM      9  C   UNL A   1      45.574  28.067  27.563  1.00  0.00     0.023 A 
ATOM     10  C   UNL A   1      45.386  26.369  29.219  1.00  0.00     0.018 A 
ATOM     11  C   UNL A   1      45.539  27.712  28.895  1.00  0.00     0.003 A 
BRANCH   6  12
ATOM     12  N   UNL A   1      45.627  24.806  25.794  1.00  0.00    -0.380 N 
ATOM     13  H   UNL A   1      44.761  24.465  25.477  1.00  0.00     0.160 HD
BRANCH  12  14
ATOM     14  C   UNL A   1      46.769  24.299  25.041  1.00  0.00     0.154 C 
BRANCH  14  15
ATOM     15  C   UNL A   1      46.410  22.994  24.282  1.00  0.00     0.250 C 
BRANCH  15  16
ATOM     16  O   UNL A   1      46.390  21.818  25.108  1.00  0.00    -0.492 OA
BRANCH  16  17
ATOM     17  C   UNL A   1      45.291  21.009  25.125  1.00  0.00     0.119 A 
ATOM     18  C   UNL A   1      42.992  19.473  25.612  1.00  0.00     0.119 A 
ATOM     19  C   UNL A   1      42.944  20.858  25.740  1.00  0.00     0.050 A 
ATOM     20  C   UNL A   1      44.139  18.878  25.101  1.00  0.00     0.050 A 
ATOM     21  C   UNL A   1      44.096  21.621  25.512  1.00  0.00     0.050 A 
ATOM     22  C   UNL A   1      45.271  19.653  24.824  1.00  0.00     0.050 A 
BRANCH  18  23
ATOM     23  O   UNL A   1      41.868  18.765  25.936  1.00  0.00    -0.497 OA
ATOM     24  C   UNL A   1      40.722  19.596  26.130  1.00  0.00     0.278 C 
ENDBRANCH  18  23
ENDBRANCH  16  17
ENDBRANCH  15  16
ENDBRANCH  14  15
ENDBRANCH  12  14
ENDBRANCH   6  12
ENDBRANCH   3   5
ENDBRANCH   2   3
ENDBRANCH   1   2
BRANCH   1  25
ATOM     25  C   UNL A   1      42.299  23.316  28.621  1.00  0.00     0.202 C 
BRANCH  25  26
ATOM     26  O   UNL A   1      41.357  24.391  28.633  1.00  0.00    -0.374 OA
BRANCH  26  27
ATOM     27  C   UNL A   1      41.721  25.590  27.949  1.00  0.00     0.202 C 
BRANCH  27  28
ATOM     28  C   UNL A   1      41.764  25.531  26.417  1.00  0.00     0.261 C 
BRANCH  28  29
ATOM     29  O   UNL A   1      40.985  26.559  25.783  1.00  0.00    -0.460 OA
BRANCH  29  30
ATOM     30  C   UNL A   1      41.601  27.762  25.706  1.00  0.00     0.338 C 
ATOM     31  O   UNL A   1      42.242  28.203  24.760  1.00  0.00    -0.246 OA
BRANCH  30  32
ATOM     32  C   UNL A   1      41.273  28.585  26.883  1.00  0.00     0.060 A 
ATOM     33  C   UNL A   1      42.274  29.426  27.388  1.00  0.00     0.016 A 
ATOM     34  C   UNL A   1      40.052  28.455  27.547  1.00  0.00     0.016 A 
ATOM     35  C   UNL A   1      42.075  30.101  28.590  1.00  0.00     0.010 A 
ATOM     36  C   UNL A   1      39.859  29.128  28.759  1.00  0.00     0.010 A 
ATOM     37  C   UNL A   1      40.883  29.924  29.304  1.00  0.00    -0.014 A 
BRANCH  37  38
ATOM     38  C   UNL A   1      40.764  30.465  30.679  1.00  0.00     0.031 A 
ATOM     39  C   UNL A   1      41.830  30.142  31.693  1.00  0.00     0.074 A 
ATOM     40  C   UNL A   1      39.732  31.260  31.014  1.00  0.00     0.049 A 
ATOM     41  N   UNL A   1      41.907  30.489  32.952  1.00  0.00    -0.248 NA
ATOM     42  C   UNL A   1      42.958  29.319  31.225  1.00  0.00     0.031 C 
ATOM     43  C   UNL A   1      38.659  31.678  30.112  1.00  0.00     0.029 A 
ATOM     44  N   UNL A   1      39.417  31.855  32.210  1.00  0.00    -0.354 N 
ATOM     45  C   UNL A   1      43.081  29.919  33.430  1.00  0.00     0.074 A 
ATOM     46  C   UNL A   1      43.672  29.184  32.333  1.00  0.00     0.031 C 
ATOM     47  C   UNL A   1      37.800  32.459  30.789  1.00  0.00     0.029 A 
ATOM     48  C   UNL A   1      38.242  32.566  32.178  1.00  0.00     0.049 A 
ATOM     49  H   UNL A   1      39.980  31.781  33.014  1.00  0.00     0.167 HD
ATOM     50  C   UNL A   1      43.619  30.002  34.671  1.00  0.00     0.031 A 
ATOM     51  C   UNL A   1      37.583  33.211  33.162  1.00  0.00     0.031 A 
ATOM     52  C   UNL A   1      43.024  30.727  35.763  1.00  0.00     0.049 A 
ATOM     53  C   UNL A   1      38.169  33.233  34.550  1.00  0.00     0.074 A 
ATOM     54  C   UNL A   1      43.504  30.885  37.052  1.00  0.00     0.029 A 
ATOM     55  N   UNL A   1      41.818  31.406  35.699  1.00  0.00    -0.354 N 
ATOM     56  N   UNL A   1      39.293  32.711  34.980  1.00  0.00    -0.248 NA
ATOM     57  C   UNL A   1      37.399  33.939  35.585  1.00  0.00     0.031 C 
ATOM     58  C   UNL A   1      42.558  31.613  37.783  1.00  0.00     0.029 A 
ATOM     59  C   UNL A   1      41.523  31.963  36.932  1.00  0.00     0.049 A 
ATOM     60  H   UNL A   1      41.254  31.483  34.894  1.00  0.00     0.167 HD
ATOM     61  C   UNL A   1      39.378  33.049  36.327  1.00  0.00     0.074 A 
ATOM     62  C   UNL A   1      38.199  33.834  36.636  1.00  0.00     0.031 C 
ATOM     63  C   UNL A   1      40.346  32.742  37.226  1.00  0.00     0.031 A 
BRANCH  50  64
ATOM     64  C   UNL A   1      44.907  29.261  34.926  1.00  0.00    -0.014 A 
ATOM     65  C   UNL A   1      44.915  28.007  35.562  1.00  0.00     0.010 A 
ATOM     66  C   UNL A   1      46.122  29.809  34.476  1.00  0.00     0.010 A 
ATOM     67  C   UNL A   1      46.120  27.328  35.771  1.00  0.00     0.020 A 
ATOM     68  C   UNL A   1      47.325  29.122  34.659  1.00  0.00     0.020 A 
ATOM     69  C   UNL A   1      47.318  27.891  35.319  1.00  0.00     0.054 A 
BRANCH  69  70
ATOM     70  S   UNL A   1      48.861  26.974  35.577  1.00  0.00     0.124 S 
ATOM     71  O   UNL A   1      49.727  27.544  34.547  1.00  0.00    -0.237 OA
ATOM     72  O   UNL A   1      49.213  27.317  36.953  1.00  0.00    -0.237 OA
ATOM     73  O   UNL A   1      48.476  25.580  35.365  1.00  0.00    -0.744 OA
ENDBRANCH  69  70
ENDBRANCH  50  64
BRANCH  51  74
ATOM     74  C   UNL A   1      36.279  33.870  32.876  1.00  0.00    -0.014 A 
ATOM     75  C   UNL A   1      35.096  33.115  32.788  1.00  0.00     0.010 A 
ATOM     76  C   UNL A   1      36.217  35.263  32.687  1.00  0.00     0.010 A 
ATOM     77  C   UNL A   1      33.879  33.738  32.498  1.00  0.00     0.020 A 
ATOM     78  C   UNL A   1      34.998  35.893  32.427  1.00  0.00     0.020 A 
ATOM     79  C   UNL A   1      33.838  35.125  32.321  1.00  0.00     0.054 A 
BRANCH  79  80
ATOM     80  S   UNL A   1      32.239  35.919  31.996  1.00  0.00     0.124 S 
ATOM     81  O   UNL A   1      32.206  35.948  30.537  1.00  0.00    -0.237 OA
ATOM     82  O   UNL A   1      31.296  35.003  32.633  1.00  0.00    -0.237 OA
ATOM     83  O   UNL A   1      32.365  37.220  32.647  1.00  0.00    -0.744 OA
ENDBRANCH  79  80
ENDBRANCH  51  74
BRANCH  63  84
ATOM     84  C   UNL A   1      40.196  33.284  38.623  1.00  0.00    -0.014 A 
ATOM     85  C   UNL A   1      39.322  32.689  39.550  1.00  0.00     0.010 A 
ATOM     86  C   UNL A   1      40.988  34.375  39.031  1.00  0.00     0.010 A 
ATOM     87  C   UNL A   1      39.217  33.196  40.849  1.00  0.00     0.020 A 
ATOM     88  C   UNL A   1      40.906  34.866  40.337  1.00  0.00     0.020 A 
ATOM     89  C   UNL A   1      40.010  34.283  41.234  1.00  0.00     0.054 A 
BRANCH  89  90
ATOM     90  S   UNL A   1      39.887  34.895  42.936  1.00  0.00     0.124 S 
ATOM     91  O   UNL A   1      39.617  33.669  43.682  1.00  0.00    -0.237 OA
ATOM     92  O   UNL A   1      41.201  35.491  43.160  1.00  0.00    -0.237 OA
ATOM     93  O   UNL A   1      38.780  35.849  42.883  1.00  0.00    -0.744 OA
ENDBRANCH  89  90
ENDBRANCH  63  84
ENDBRANCH  37  38
ENDBRANCH  30  32
ENDBRANCH  29  30
ENDBRANCH  28  29
ENDBRANCH  27  28
ENDBRANCH  26  27
ENDBRANCH  25  26
ENDBRANCH   1  25
TORSDOF 23
ENDMDL
MODEL 3
REMARK VINA RESULT:      -8.7      2.232      3.787
REMARK SMILES COc1ccc(OCCNc2c(Cl)cccc2C(=O)OCCOCCOC(=O)c2ccc(-c3c4nc(c(-c5ccc(S(=O)(=O)[O-])cc5)c5ccc([nH]5)c(-c5ccc(S(=O)(=O)[O-])cc5)c5nc(c(-c6ccc(S(=O)(=O)[O-])cc6)c6ccc3[nH]6)C=C5)C=C4)cc2)cc1
REMARK SMILES IDX 21 1 20 2 18 3 19 4 17 5 11 6 12 7 13 8 14 9 16 10 15 11
REMARK SMILES IDX 10 12 9 14 8 15 7 16 6 17 3 18 4 19 90 20 5 21 89 22 2 23
REMARK SMILES IDX 1 24 22 25 23 26 24 27 25 28 26 29 27 30 28 31 29 32 30 33
REMARK SMILES IDX 88 34 31 35 87 36 32 37 33 38 34 39 81 40 35 41 86 42 80 43
REMARK SMILES IDX 82 44 36 45 85 46 79 47 78 48 37 50 67 51 48 52 66 53 49 54
REMARK SMILES IDX 52 55 65 56 83 57 50 58 51 59 64 61 84 62 53 63 38 64 39 65
REMARK SMILES IDX 47 66 40 67 46 68 41 69 42 70 43 71 44 72 45 73 68 74 69 75
REMARK SMILES IDX 77 76 70 77 76 78 71 79 72 80 73 81 74 82 75 83 54 84 55 85
REMARK SMILES IDX 63 86 56 87 62 88 57 89 58 90 59 91 60 92 61 93
REMARK H PARENT 10 13 82 49 52 60
REMARK Flexibility Score: inf
ROOT
ATOM      1  C   UNL A   1      34.063  25.835  25.972  1.00  0.00     0.261 C 
ENDROOT
BRANCH   1   2
ATOM      2  O   UNL A   1      33.778  27.164  25.509  1.00  0.00    -0.460 OA
BRANCH   2   3
ATOM      3  C   UNL A   1      32.892  27.859  26.250  1.00  0.00     0.340 C 
ATOM      4  O   UNL A   1      31.802  27.459  26.642  1.00  0.00    -0.246 OA
BRANCH   3   5
ATOM      5  C   UNL A   1      33.484  29.113  26.756  1.00  0.00     0.084 A 
ATOM      6  C   UNL A   1      33.034  30.417  26.498  1.00  0.00     0.068 A 
ATOM      7  C   UNL A   1      33.645  31.428  27.300  1.00  0.00     0.065 A 
ATOM      8  Cl  UNL A   1      33.022  33.046  27.349  1.00  0.00    -0.082 Cl
ATOM      9  C   UNL A   1      34.733  31.196  28.147  1.00  0.00     0.023 A 
ATOM     10  C   UNL A   1      34.607  28.885  27.596  1.00  0.00     0.018 A 
ATOM     11  C   UNL A   1      35.249  29.922  28.261  1.00  0.00     0.003 A 
BRANCH   6  12
ATOM     12  N   UNL A   1      32.048  30.823  25.614  1.00  0.00    -0.380 N 
ATOM     13  H   UNL A   1      32.383  31.394  24.886  1.00  0.00     0.160 HD
BRANCH  12  14
ATOM     14  C   UNL A   1      30.613  30.573  25.550  1.00  0.00     0.154 C 
BRANCH  14  15
ATOM     15  C   UNL A   1      30.067  30.777  24.112  1.00  0.00     0.250 C 
BRANCH  15  16
ATOM     16  O   UNL A   1      29.743  29.556  23.427  1.00  0.00    -0.492 OA
BRANCH  16  17
ATOM     17  C   UNL A   1      30.736  28.762  22.931  1.00  0.00     0.119 A 
ATOM     18  C   UNL A   1      32.720  26.877  22.307  1.00  0.00     0.119 A 
ATOM     19  C   UNL A   1      31.399  26.470  22.463  1.00  0.00     0.050 A 
ATOM     20  C   UNL A   1      33.018  28.234  22.317  1.00  0.00     0.050 A 
ATOM     21  C   UNL A   1      30.412  27.410  22.790  1.00  0.00     0.050 A 
ATOM     22  C   UNL A   1      32.018  29.173  22.591  1.00  0.00     0.050 A 
BRANCH  18  23
ATOM     23  O   UNL A   1      33.661  25.910  22.082  1.00  0.00    -0.497 OA
ATOM     24  C   UNL A   1      33.105  24.701  21.562  1.00  0.00     0.278 C 
ENDBRANCH  18  23
ENDBRANCH  16  17
ENDBRANCH  15  16
ENDBRANCH  14  15
ENDBRANCH  12  14
ENDBRANCH   6  12
ENDBRANCH   3   5
ENDBRANCH   2   3
ENDBRANCH   1   2
BRANCH   1  25
ATOM     25  C   UNL A   1      33.119  24.840  25.299  1.00  0.00     0.202 C 
BRANCH  25  26
ATOM     26  O   UNL A   1      33.657  23.536  25.072  1.00  0.00    -0.374 OA
BRANCH  26  27
ATOM     27  C   UNL A   1      34.610  23.046  26.015  1.00  0.00     0.202 C 
BRANCH  27  28
ATOM     28  C   UNL A   1      36.024  22.762  25.491  1.00  0.00     0.261 C 
BRANCH  28  29
ATOM     29  O   UNL A   1      37.015  23.670  26.003  1.00  0.00    -0.460 OA
BRANCH  29  30
ATOM     30  C   UNL A   1      38.257  23.142  26.110  1.00  0.00     0.338 C 
ATOM     31  O   UNL A   1      38.622  22.034  25.737  1.00  0.00    -0.246 OA
BRANCH  30  32
ATOM     32  C   UNL A   1      39.204  24.152  26.614  1.00  0.00     0.060 A 
ATOM     33  C   UNL A   1      39.239  24.380  27.996  1.00  0.00     0.016 A 
ATOM     34  C   UNL A   1      39.962  24.940  25.744  1.00  0.00     0.016 A 
ATOM     35  C   UNL A   1      39.993  25.432  28.509  1.00  0.00     0.010 A 
ATOM     36  C   UNL A   1      40.711  26.001  26.263  1.00  0.00     0.010 A 
ATOM     37  C   UNL A   1      40.700  26.275  27.643  1.00  0.00    -0.014 A 
BRANCH  37  38
ATOM     38  C   UNL A   1      41.318  27.516  28.169  1.00  0.00     0.031 A 
ATOM     39  C   UNL A   1      42.818  27.650  28.168  1.00  0.00     0.074 A 
ATOM     40  C   UNL A   1      40.550  28.527  28.615  1.00  0.00     0.049 A 
ATOM     41  N   UNL A   1      43.562  28.634  28.603  1.00  0.00    -0.248 NA
ATOM     42  C   UNL A   1      43.581  26.525  27.602  1.00  0.00     0.031 C 
ATOM     43  C   UNL A   1      39.088  28.533  28.630  1.00  0.00     0.029 A 
ATOM     44  N   UNL A   1      40.898  29.743  29.147  1.00  0.00    -0.354 N 
ATOM     45  C   UNL A   1      44.877  28.244  28.376  1.00  0.00     0.074 A 
ATOM     46  C   UNL A   1      44.831  26.924  27.786  1.00  0.00     0.031 C 
ATOM     47  C   UNL A   1      38.663  29.698  29.150  1.00  0.00     0.029 A 
ATOM     48  C   UNL A   1      39.822  30.500  29.538  1.00  0.00     0.049 A 
ATOM     49  H   UNL A   1      41.831  30.044  29.239  1.00  0.00     0.167 HD
ATOM     50  C   UNL A   1      46.019  28.926  28.634  1.00  0.00     0.031 A 
ATOM     51  C   UNL A   1      39.773  31.695  30.160  1.00  0.00     0.031 A 
ATOM     52  C   UNL A   1      46.061  30.236  29.229  1.00  0.00     0.049 A 
ATOM     53  C   UNL A   1      41.059  32.404  30.496  1.00  0.00     0.074 A 
ATOM     54  C   UNL A   1      47.170  31.016  29.512  1.00  0.00     0.029 A 
ATOM     55  N   UNL A   1      44.951  30.956  29.640  1.00  0.00    -0.354 N 
ATOM     56  N   UNL A   1      42.294  32.034  30.251  1.00  0.00    -0.248 NA
ATOM     57  C   UNL A   1      40.945  33.697  31.187  1.00  0.00     0.031 C 
ATOM     58  C   UNL A   1      46.731  32.183  30.146  1.00  0.00     0.029 A 
ATOM     59  C   UNL A   1      45.347  32.159  30.199  1.00  0.00     0.049 A 
ATOM     60  H   UNL A   1      44.017  30.656  29.548  1.00  0.00     0.167 HD
ATOM     61  C   UNL A   1      43.101  33.061  30.733  1.00  0.00     0.074 A 
ATOM     62  C   UNL A   1      42.213  34.073  31.269  1.00  0.00     0.031 C 
ATOM     63  C   UNL A   1      44.453  33.158  30.729  1.00  0.00     0.031 A 
BRANCH  50  64
ATOM     64  C   UNL A   1      47.326  28.252  28.303  1.00  0.00    -0.014 A 
ATOM     65  C   UNL A   1      47.961  28.457  27.065  1.00  0.00     0.010 A 
ATOM     66  C   UNL A   1      47.952  27.441  29.267  1.00  0.00     0.010 A 
ATOM     67  C   UNL A   1      49.183  27.838  26.786  1.00  0.00     0.020 A 
ATOM     68  C   UNL A   1      49.186  26.842  29.003  1.00  0.00     0.020 A 
ATOM     69  C   UNL A   1      49.787  27.032  27.756  1.00  0.00     0.054 A 
BRANCH  69  70
ATOM     70  S   UNL A   1      51.387  26.266  27.378  1.00  0.00     0.124 S 
ATOM     71  O   UNL A   1      51.841  27.062  26.240  1.00  0.00    -0.237 OA
ATOM     72  O   UNL A   1      52.136  26.458  28.617  1.00  0.00    -0.237 OA
ATOM     73  O   UNL A   1      51.043  24.879  27.070  1.00  0.00    -0.744 OA
ENDBRANCH  69  70
ENDBRANCH  50  64
BRANCH  51  74
ATOM     74  C   UNL A   1      38.458  32.289  30.529  1.00  0.00    -0.014 A 
ATOM     75  C   UNL A   1      37.814  31.922  31.723  1.00  0.00     0.010 A 
ATOM     76  C   UNL A   1      37.843  33.228  29.680  1.00  0.00     0.010 A 
ATOM     77  C   UNL A   1      36.569  32.468  32.052  1.00  0.00     0.020 A 
ATOM     78  C   UNL A   1      36.614  33.798  30.020  1.00  0.00     0.020 A 
ATOM     79  C   UNL A   1      35.979  33.404  31.199  1.00  0.00     0.054 A 
BRANCH  79  80
ATOM     80  S   UNL A   1      34.388  34.138  31.671  1.00  0.00     0.124 S 
ATOM     81  O   UNL A   1      33.848  33.132  32.581  1.00  0.00    -0.237 OA
ATOM     82  O   UNL A   1      34.791  35.399  32.287  1.00  0.00    -0.237 OA
ATOM     83  O   UNL A   1      33.684  34.274  30.398  1.00  0.00    -0.744 OA
ENDBRANCH  79  80
ENDBRANCH  51  74
BRANCH  63  84
ATOM     84  C   UNL A   1      45.062  34.419  31.286  1.00  0.00    -0.014 A 
ATOM     85  C   UNL A   1      45.455  34.509  32.633  1.00  0.00     0.010 A 
ATOM     86  C   UNL A   1      45.297  35.512  30.429  1.00  0.00     0.010 A 
ATOM     87  C   UNL A   1      46.040  35.682  33.121  1.00  0.00     0.020 A 
ATOM     88  C   UNL A   1      45.907  36.674  30.908  1.00  0.00     0.020 A 
ATOM     89  C   UNL A   1      46.261  36.757  32.255  1.00  0.00     0.054 A 
BRANCH  89  90
ATOM     90  S   UNL A   1      47.059  38.251  32.903  1.00  0.00     0.124 S 
ATOM     91  O   UNL A   1      45.934  39.178  33.003  1.00  0.00    -0.237 OA
ATOM     92  O   UNL A   1      47.612  37.795  34.175  1.00  0.00    -0.237 OA
ATOM     93  O   UNL A   1      48.052  38.584  31.884  1.00  0.00    -0.744 OA
ENDBRANCH  89  90
ENDBRANCH  63  84
ENDBRANCH  37  38
ENDBRANCH  30  32
ENDBRANCH  29  30
ENDBRANCH  28  29
ENDBRANCH  27  28
ENDBRANCH  26  27
ENDBRANCH  25  26
ENDBRANCH   1  25
TORSDOF 23
ENDMDL
