MODEL 1
REMARK VINA RESULT:      -9.5      0.000      0.000
REMARK SMILES O=C(N[C@@H](CS)C(=O)N[C@@H](CO)C(=O)OCCOCCOC(=O)c1ccc(-c2c3nc(c(-c4ccc(S(=O)(=O)[O-])cc4)c4ccc([nH]4)c(-c4ccc(S(=O)(=O)[O-])cc4)c4nc(c(-c5ccc(S(=O)(=O)[O-])cc5)c5ccc2[nH]5)C=C4)C=C3)cc1)c1ccc(F)cc1
REMARK SMILES IDX 17 1 16 2 15 3 13 4 14 5 10 6 9 7 7 8 8 9 4 11 3 12 1 13
REMARK SMILES IDX 2 14 84 16 85 17 90 18 86 19 89 20 87 21 88 22 5 23 6 24
REMARK SMILES IDX 11 26 12 27 18 29 19 30 20 31 21 32 22 33 23 34 24 35 25 36
REMARK SMILES IDX 83 37 26 38 82 39 27 40 28 41 29 42 76 43 30 44 81 45 75 46
REMARK SMILES IDX 77 47 31 48 80 49 74 50 73 51 32 53 62 54 43 55 61 56 44 57
REMARK SMILES IDX 47 58 60 59 78 60 45 61 46 62 59 64 79 65 48 66 33 67 34 68
REMARK SMILES IDX 42 69 35 70 41 71 36 72 37 73 38 74 39 75 40 76 63 77 64 78
REMARK SMILES IDX 72 79 65 80 71 81 66 82 67 83 68 84 69 85 70 86 49 87 50 88
REMARK SMILES IDX 58 89 51 90 57 91 52 92 53 93 54 94 55 95 56 96
REMARK H PARENT 9 10 3 15 6 25 12 28 77 52 47 63
REMARK Flexibility Score: inf
ROOT
ATOM      1  C   UNL A   1      35.682  23.083  24.095  1.00  0.00     0.202 C 
ENDROOT
BRANCH   1   2
ATOM      2  C   UNL A   1      35.054  21.781  24.602  1.00  0.00     0.261 C 
BRANCH   2   3
ATOM      3  O   UNL A   1      33.643  21.754  24.322  1.00  0.00    -0.462 OA
BRANCH   3   4
ATOM      4  C   UNL A   1      32.855  21.291  25.332  1.00  0.00     0.331 C 
ATOM      5  O   UNL A   1      32.221  20.242  25.307  1.00  0.00    -0.250 OA
BRANCH   4   6
ATOM      6  C   UNL A   1      32.829  22.250  26.532  1.00  0.00     0.218 C 
BRANCH   6   7
ATOM      7  N   UNL A   1      31.482  22.563  27.033  1.00  0.00    -0.339 N 
ATOM      8  C   UNL A   1      30.597  23.553  26.762  1.00  0.00     0.244 C 
ATOM      9  O   UNL A   1      29.464  23.423  27.242  1.00  0.00    -0.273 OA
ATOM     10  H   UNL A   1      31.155  21.920  27.705  1.00  0.00     0.164 HD
BRANCH   8  11
ATOM     11  C   UNL A   1      30.861  24.743  25.812  1.00  0.00     0.181 C 
BRANCH  11  12
ATOM     12  N   UNL A   1      29.689  25.278  25.116  1.00  0.00    -0.339 N 
ATOM     13  O   UNL A   1      28.515  26.692  23.832  1.00  0.00    -0.269 OA
ATOM     14  C   UNL A   1      29.613  26.236  24.136  1.00  0.00     0.251 C 
ATOM     15  H   UNL A   1      28.826  24.893  25.392  1.00  0.00     0.164 HD
BRANCH  14  16
ATOM     16  C   UNL A   1      30.825  26.760  23.467  1.00  0.00     0.040 A 
ATOM     17  C   UNL A   1      31.530  26.010  22.517  1.00  0.00     0.017 A 
ATOM     18  C   UNL A   1      31.214  28.078  23.746  1.00  0.00     0.017 A 
ATOM     19  C   UNL A   1      32.667  26.549  21.910  1.00  0.00     0.040 A 
ATOM     20  C   UNL A   1      32.341  28.620  23.122  1.00  0.00     0.040 A 
ATOM     21  C   UNL A   1      33.063  27.846  22.221  1.00  0.00     0.123 A 
ATOM     22  F   UNL A   1      34.149  28.362  21.632  1.00  0.00    -0.207 F 
ENDBRANCH  14  16
ENDBRANCH  11  12
BRANCH  11  23
ATOM     23  C   UNL A   1      31.770  25.817  26.436  1.00  0.00     0.101 C 
BRANCH  23  24
ATOM     24  S   UNL A   1      33.536  25.736  26.006  1.00  0.00    -0.177 SA
ATOM     25  H   UNL A   1      33.724  26.255  24.762  1.00  0.00     0.102 HD
ENDBRANCH  23  24
ENDBRANCH  11  23
ENDBRANCH   8  11
ENDBRANCH   6   7
BRANCH   6  26
ATOM     26  C   UNL A   1      33.691  21.644  27.643  1.00  0.00     0.193 C 
BRANCH  26  27
ATOM     27  O   UNL A   1      34.846  22.440  27.896  1.00  0.00    -0.394 OA
ATOM     28  H   UNL A   1      34.872  22.685  28.834  1.00  0.00     0.210 HD
ENDBRANCH  26  27
ENDBRANCH   6  26
ENDBRANCH   4   6
ENDBRANCH   3   4
ENDBRANCH   2   3
ENDBRANCH   1   2
BRANCH   1  29
ATOM     29  O   UNL A   1      37.036  23.324  24.489  1.00  0.00    -0.374 OA
BRANCH  29  30
ATOM     30  C   UNL A   1      37.292  23.510  25.879  1.00  0.00     0.202 C 
BRANCH  30  31
ATOM     31  C   UNL A   1      38.752  23.723  26.299  1.00  0.00     0.261 C 
BRANCH  31  32
ATOM     32  O   UNL A   1      39.100  25.109  26.439  1.00  0.00    -0.460 OA
BRANCH  32  33
ATOM     33  C   UNL A   1      40.224  25.328  27.161  1.00  0.00     0.338 C 
ATOM     34  O   UNL A   1      41.354  24.919  26.913  1.00  0.00    -0.246 OA
BRANCH  33  35
ATOM     35  C   UNL A   1      39.967  26.300  28.235  1.00  0.00     0.060 A 
ATOM     36  C   UNL A   1      40.784  27.435  28.277  1.00  0.00     0.016 A 
ATOM     37  C   UNL A   1      39.013  26.069  29.230  1.00  0.00     0.016 A 
ATOM     38  C   UNL A   1      40.687  28.323  29.343  1.00  0.00     0.010 A 
ATOM     39  C   UNL A   1      38.922  26.961  30.307  1.00  0.00     0.010 A 
ATOM     40  C   UNL A   1      39.783  28.070  30.385  1.00  0.00    -0.014 A 
BRANCH  40  41
ATOM     41  C   UNL A   1      39.844  28.916  31.602  1.00  0.00     0.031 A 
ATOM     42  C   UNL A   1      40.958  28.704  32.591  1.00  0.00     0.074 A 
ATOM     43  C   UNL A   1      38.956  29.909  31.784  1.00  0.00     0.049 A 
ATOM     44  N   UNL A   1      41.238  29.376  33.677  1.00  0.00    -0.248 NA
ATOM     45  C   UNL A   1      41.882  27.590  32.317  1.00  0.00     0.031 C 
ATOM     46  C   UNL A   1      37.853  30.232  30.878  1.00  0.00     0.029 A 
ATOM     47  N   UNL A   1      38.849  30.837  32.788  1.00  0.00    -0.354 N 
ATOM     48  C   UNL A   1      42.369  28.773  34.216  1.00  0.00     0.074 A 
ATOM     49  C   UNL A   1      42.704  27.659  33.354  1.00  0.00     0.031 C 
ATOM     50  C   UNL A   1      37.185  31.291  31.365  1.00  0.00     0.029 A 
ATOM     51  C   UNL A   1      37.797  31.706  32.626  1.00  0.00     0.049 A 
ATOM     52  H   UNL A   1      39.468  30.877  33.552  1.00  0.00     0.167 HD
ATOM     53  C   UNL A   1      43.070  29.119  35.322  1.00  0.00     0.031 A 
ATOM     54  C   UNL A   1      37.373  32.718  33.407  1.00  0.00     0.031 A 
ATOM     55  C   UNL A   1      42.723  30.216  36.187  1.00  0.00     0.049 A 
ATOM     56  C   UNL A   1      38.137  33.048  34.662  1.00  0.00     0.074 A 
ATOM     57  C   UNL A   1      43.376  30.654  37.328  1.00  0.00     0.029 A 
ATOM     58  N   UNL A   1      41.625  31.044  36.014  1.00  0.00    -0.354 N 
ATOM     59  N   UNL A   1      39.221  32.484  35.140  1.00  0.00    -0.248 NA
ATOM     60  C   UNL A   1      37.628  34.164  35.471  1.00  0.00     0.031 C 
ATOM     61  C   UNL A   1      42.642  31.715  37.872  1.00  0.00     0.029 A 
ATOM     62  C   UNL A   1      41.565  31.974  37.038  1.00  0.00     0.049 A 
ATOM     63  H   UNL A   1      40.982  30.980  35.271  1.00  0.00     0.167 HD
ATOM     64  C   UNL A   1      39.535  33.191  36.296  1.00  0.00     0.074 A 
ATOM     65  C   UNL A   1      38.539  34.236  36.431  1.00  0.00     0.031 C 
ATOM     66  C   UNL A   1      40.558  32.997  37.168  1.00  0.00     0.031 A 
BRANCH  53  67
ATOM     67  C   UNL A   1      44.268  28.276  35.676  1.00  0.00    -0.014 A 
ATOM     68  C   UNL A   1      45.548  28.586  35.185  1.00  0.00     0.010 A 
ATOM     69  C   UNL A   1      44.114  27.176  36.539  1.00  0.00     0.010 A 
ATOM     70  C   UNL A   1      46.646  27.788  35.519  1.00  0.00     0.020 A 
ATOM     71  C   UNL A   1      45.214  26.390  36.897  1.00  0.00     0.020 A 
ATOM     72  C   UNL A   1      46.472  26.693  36.371  1.00  0.00     0.054 A 
BRANCH  72  73
ATOM     73  S   UNL A   1      47.916  25.685  36.804  1.00  0.00     0.124 S 
ATOM     74  O   UNL A   1      48.093  26.003  38.218  1.00  0.00    -0.237 OA
ATOM     75  O   UNL A   1      47.459  24.327  36.518  1.00  0.00    -0.237 OA
ATOM     76  O   UNL A   1      48.966  26.184  35.919  1.00  0.00    -0.744 OA
ENDBRANCH  72  73
ENDBRANCH  53  67
BRANCH  54  77
ATOM     77  C   UNL A   1      36.158  33.488  33.028  1.00  0.00    -0.014 A 
ATOM     78  C   UNL A   1      36.262  34.687  32.302  1.00  0.00     0.010 A 
ATOM     79  C   UNL A   1      34.883  33.015  33.388  1.00  0.00     0.010 A 
ATOM     80  C   UNL A   1      35.114  35.407  31.957  1.00  0.00     0.020 A 
ATOM     81  C   UNL A   1      33.732  33.719  33.022  1.00  0.00     0.020 A 
ATOM     82  C   UNL A   1      33.855  34.917  32.318  1.00  0.00     0.054 A 
BRANCH  82  83
ATOM     83  S   UNL A   1      32.376  35.838  31.813  1.00  0.00     0.124 S 
ATOM     84  O   UNL A   1      32.778  37.218  32.061  1.00  0.00    -0.237 OA
ATOM     85  O   UNL A   1      32.235  35.462  30.408  1.00  0.00    -0.237 OA
ATOM     86  O   UNL A   1      31.333  35.318  32.695  1.00  0.00    -0.744 OA
ENDBRANCH  82  83
ENDBRANCH  54  77
BRANCH  66  87
ATOM     87  C   UNL A   1      40.660  33.950  38.329  1.00  0.00    -0.014 A 
ATOM     88  C   UNL A   1      41.413  35.135  38.236  1.00  0.00     0.010 A 
ATOM     89  C   UNL A   1      39.977  33.664  39.526  1.00  0.00     0.010 A 
ATOM     90  C   UNL A   1      41.524  35.989  39.337  1.00  0.00     0.020 A 
ATOM     91  C   UNL A   1      40.062  34.531  40.618  1.00  0.00     0.020 A 
ATOM     92  C   UNL A   1      40.853  35.677  40.523  1.00  0.00     0.054 A 
BRANCH  92  93
ATOM     93  S   UNL A   1      41.007  36.803  41.938  1.00  0.00     0.124 S 
ATOM     94  O   UNL A   1      39.733  36.602  42.625  1.00  0.00    -0.237 OA
ATOM     95  O   UNL A   1      42.183  36.288  42.634  1.00  0.00    -0.237 OA
ATOM     96  O   UNL A   1      41.181  38.114  41.318  1.00  0.00    -0.744 OA
ENDBRANCH  92  93
ENDBRANCH  66  87
ENDBRANCH  40  41
ENDBRANCH  33  35
ENDBRANCH  32  33
ENDBRANCH  31  32
ENDBRANCH  30  31
ENDBRANCH  29  30
ENDBRANCH   1  29
TORSDOF 25
ENDMDL
MODEL 2
REMARK VINA RESULT:      -9.4      6.547     11.160
REMARK SMILES O=C(N[C@@H](CS)C(=O)N[C@@H](CO)C(=O)OCCOCCOC(=O)c1ccc(-c2c3nc(c(-c4ccc(S(=O)(=O)[O-])cc4)c4ccc([nH]4)c(-c4ccc(S(=O)(=O)[O-])cc4)c4nc(c(-c5ccc(S(=O)(=O)[O-])cc5)c5ccc2[nH]5)C=C4)C=C3)cc1)c1ccc(F)cc1
REMARK SMILES IDX 17 1 16 2 15 3 13 4 14 5 10 6 9 7 7 8 8 9 4 11 3 12 1 13
REMARK SMILES IDX 2 14 84 16 85 17 90 18 86 19 89 20 87 21 88 22 5 23 6 24
REMARK SMILES IDX 11 26 12 27 18 29 19 30 20 31 21 32 22 33 23 34 24 35 25 36
REMARK SMILES IDX 83 37 26 38 82 39 27 40 28 41 29 42 76 43 30 44 81 45 75 46
REMARK SMILES IDX 77 47 31 48 80 49 74 50 73 51 32 53 62 54 43 55 61 56 44 57
REMARK SMILES IDX 47 58 60 59 78 60 45 61 46 62 59 64 79 65 48 66 33 67 34 68
REMARK SMILES IDX 42 69 35 70 41 71 36 72 37 73 38 74 39 75 40 76 63 77 64 78
REMARK SMILES IDX 72 79 65 80 71 81 66 82 67 83 68 84 69 85 70 86 49 87 50 88
REMARK SMILES IDX 58 89 51 90 57 91 52 92 53 93 54 94 55 95 56 96
REMARK H PARENT 9 10 3 15 6 25 12 28 77 52 47 63
REMARK Flexibility Score: inf
ROOT
ATOM      1  C   UNL A   1      37.186  22.068  24.246  1.00  0.00     0.202 C 
ENDROOT
BRANCH   1   2
ATOM      2  C   UNL A   1      36.143  22.916  24.980  1.00  0.00     0.261 C 
BRANCH   2   3
ATOM      3  O   UNL A   1      35.040  22.103  25.416  1.00  0.00    -0.462 OA
BRANCH   3   4
ATOM      4  C   UNL A   1      33.912  22.783  25.764  1.00  0.00     0.331 C 
ATOM      5  O   UNL A   1      33.807  23.525  26.733  1.00  0.00    -0.250 OA
BRANCH   4   6
ATOM      6  C   UNL A   1      32.749  22.507  24.797  1.00  0.00     0.218 C 
BRANCH   6   7
ATOM      7  N   UNL A   1      33.106  22.598  23.373  1.00  0.00    -0.339 N 
ATOM      8  C   UNL A   1      33.123  23.621  22.484  1.00  0.00     0.244 C 
ATOM      9  O   UNL A   1      33.648  23.386  21.388  1.00  0.00    -0.273 OA
ATOM     10  H   UNL A   1      33.392  21.738  22.985  1.00  0.00     0.164 HD
BRANCH   8  11
ATOM     11  C   UNL A   1      32.656  25.063  22.781  1.00  0.00     0.181 C 
BRANCH  11  12
ATOM     12  N   UNL A   1      33.415  26.130  22.125  1.00  0.00    -0.339 N 
ATOM     13  O   UNL A   1      34.137  28.217  21.741  1.00  0.00    -0.269 OA
ATOM     14  C   UNL A   1      33.651  27.418  22.536  1.00  0.00     0.251 C 
ATOM     15  H   UNL A   1      33.815  25.887  21.259  1.00  0.00     0.164 HD
BRANCH  14  16
ATOM     16  C   UNL A   1      33.299  27.875  23.898  1.00  0.00     0.040 A 
ATOM     17  C   UNL A   1      33.699  27.173  25.042  1.00  0.00     0.017 A 
ATOM     18  C   UNL A   1      32.615  29.092  24.029  1.00  0.00     0.017 A 
ATOM     19  C   UNL A   1      33.345  27.645  26.308  1.00  0.00     0.040 A 
ATOM     20  C   UNL A   1      32.280  29.571  25.298  1.00  0.00     0.040 A 
ATOM     21  C   UNL A   1      32.636  28.837  26.423  1.00  0.00     0.123 A 
ATOM     22  F   UNL A   1      32.304  29.291  27.639  1.00  0.00    -0.207 F 
ENDBRANCH  14  16
ENDBRANCH  11  12
BRANCH  11  23
ATOM     23  C   UNL A   1      31.128  25.228  22.692  1.00  0.00     0.101 C 
BRANCH  23  24
ATOM     24  S   UNL A   1      30.261  25.618  24.243  1.00  0.00    -0.177 SA
ATOM     25  H   UNL A   1      28.933  25.775  23.993  1.00  0.00     0.102 HD
ENDBRANCH  23  24
ENDBRANCH  11  23
ENDBRANCH   8  11
ENDBRANCH   6   7
BRANCH   6  26
ATOM     26  C   UNL A   1      32.178  21.124  25.123  1.00  0.00     0.193 C 
BRANCH  26  27
ATOM     27  O   UNL A   1      32.667  20.644  26.374  1.00  0.00    -0.394 OA
ATOM     28  H   UNL A   1      33.589  20.922  26.489  1.00  0.00     0.210 HD
ENDBRANCH  26  27
ENDBRANCH   6  26
ENDBRANCH   4   6
ENDBRANCH   3   4
ENDBRANCH   2   3
ENDBRANCH   1   2
BRANCH   1  29
ATOM     29  O   UNL A   1      38.120  21.365  25.069  1.00  0.00    -0.374 OA
BRANCH  29  30
ATOM     30  C   UNL A   1      38.108  19.940  25.007  1.00  0.00     0.202 C 
BRANCH  30  31
ATOM     31  C   UNL A   1      39.225  19.199  25.752  1.00  0.00     0.261 C 
BRANCH  31  32
ATOM     32  O   UNL A   1      40.470  19.914  25.753  1.00  0.00    -0.460 OA
BRANCH  32  33
ATOM     33  C   UNL A   1      40.920  20.242  26.988  1.00  0.00     0.338 C 
ATOM     34  O   UNL A   1      40.787  19.592  28.020  1.00  0.00    -0.246 OA
BRANCH  33  35
ATOM     35  C   UNL A   1      41.776  21.436  26.924  1.00  0.00     0.060 A 
ATOM     36  C   UNL A   1      42.372  21.859  28.118  1.00  0.00     0.016 A 
ATOM     37  C   UNL A   1      41.924  22.180  25.751  1.00  0.00     0.016 A 
ATOM     38  C   UNL A   1      43.079  23.055  28.157  1.00  0.00     0.010 A 
ATOM     39  C   UNL A   1      42.630  23.389  25.794  1.00  0.00     0.010 A 
ATOM     40  C   UNL A   1      43.179  23.848  27.005  1.00  0.00    -0.014 A 
BRANCH  40  41
ATOM     41  C   UNL A   1      43.758  25.209  27.124  1.00  0.00     0.031 A 
ATOM     42  C   UNL A   1      42.903  26.329  27.651  1.00  0.00     0.074 A 
ATOM     43  C   UNL A   1      45.052  25.424  26.831  1.00  0.00     0.049 A 
ATOM     44  N   UNL A   1      43.229  27.570  27.903  1.00  0.00    -0.248 NA
ATOM     45  C   UNL A   1      41.495  26.007  27.940  1.00  0.00     0.031 C 
ATOM     46  C   UNL A   1      45.988  24.409  26.344  1.00  0.00     0.029 A 
ATOM     47  N   UNL A   1      45.808  26.566  26.914  1.00  0.00    -0.354 N 
ATOM     48  C   UNL A   1      42.074  28.178  28.380  1.00  0.00     0.074 A 
ATOM     49  C   UNL A   1      41.029  27.177  28.353  1.00  0.00     0.031 C 
ATOM     50  C   UNL A   1      47.195  24.974  26.178  1.00  0.00     0.029 A 
ATOM     51  C   UNL A   1      47.113  26.392  26.524  1.00  0.00     0.049 A 
ATOM     52  H   UNL A   1      45.448  27.427  27.224  1.00  0.00     0.167 HD
ATOM     53  C   UNL A   1      41.900  29.450  28.811  1.00  0.00     0.031 A 
ATOM     54  C   UNL A   1      48.127  27.275  26.451  1.00  0.00     0.031 A 
ATOM     55  C   UNL A   1      42.936  30.449  28.819  1.00  0.00     0.049 A 
ATOM     56  C   UNL A   1      47.894  28.699  26.883  1.00  0.00     0.074 A 
ATOM     57  C   UNL A   1      42.863  31.765  29.246  1.00  0.00     0.029 A 
ATOM     58  N   UNL A   1      44.234  30.246  28.374  1.00  0.00    -0.354 N 
ATOM     59  N   UNL A   1      46.802  29.249  27.359  1.00  0.00    -0.248 NA
ATOM     60  C   UNL A   1      49.038  29.615  26.784  1.00  0.00     0.031 C 
ATOM     61  C   UNL A   1      44.102  32.371  29.010  1.00  0.00     0.029 A 
ATOM     62  C   UNL A   1      44.964  31.417  28.491  1.00  0.00     0.049 A 
ATOM     63  H   UNL A   1      44.585  29.394  28.027  1.00  0.00     0.167 HD
ATOM     64  C   UNL A   1      47.133  30.571  27.635  1.00  0.00     0.074 A 
ATOM     65  C   UNL A   1      48.533  30.731  27.293  1.00  0.00     0.031 C 
ATOM     66  C   UNL A   1      46.352  31.564  28.130  1.00  0.00     0.031 A 
BRANCH  53  67
ATOM     67  C   UNL A   1      40.522  29.842  29.278  1.00  0.00    -0.014 A 
ATOM     68  C   UNL A   1      39.462  30.004  28.369  1.00  0.00     0.010 A 
ATOM     69  C   UNL A   1      40.278  30.020  30.652  1.00  0.00     0.010 A 
ATOM     70  C   UNL A   1      38.192  30.374  28.821  1.00  0.00     0.020 A 
ATOM     71  C   UNL A   1      39.003  30.365  31.112  1.00  0.00     0.020 A 
ATOM     72  C   UNL A   1      37.971  30.556  30.191  1.00  0.00     0.054 A 
BRANCH  72  73
ATOM     73  S   UNL A   1      36.311  31.017  30.753  1.00  0.00     0.124 S 
ATOM     74  O   UNL A   1      36.571  32.260  31.475  1.00  0.00    -0.237 OA
ATOM     75  O   UNL A   1      35.575  31.162  29.500  1.00  0.00    -0.237 OA
ATOM     76  O   UNL A   1      35.899  29.889  31.586  1.00  0.00    -0.744 OA
ENDBRANCH  72  73
ENDBRANCH  53  67
BRANCH  54  77
ATOM     77  C   UNL A   1      49.455  26.840  25.942  1.00  0.00    -0.014 A 
ATOM     78  C   UNL A   1      49.855  27.135  24.627  1.00  0.00     0.010 A 
ATOM     79  C   UNL A   1      50.333  26.129  26.781  1.00  0.00     0.010 A 
ATOM     80  C   UNL A   1      51.103  26.714  24.156  1.00  0.00     0.020 A 
ATOM     81  C   UNL A   1      51.591  25.731  26.321  1.00  0.00     0.020 A 
ATOM     82  C   UNL A   1      51.964  26.016  25.007  1.00  0.00     0.054 A 
BRANCH  82  83
ATOM     83  S   UNL A   1      53.600  25.527  24.394  1.00  0.00     0.124 S 
ATOM     84  O   UNL A   1      54.487  26.362  25.197  1.00  0.00    -0.237 OA
ATOM     85  O   UNL A   1      53.635  24.097  24.690  1.00  0.00    -0.237 OA
ATOM     86  O   UNL A   1      53.544  25.859  22.971  1.00  0.00    -0.744 OA
ENDBRANCH  82  83
ENDBRANCH  54  77
BRANCH  66  87
ATOM     87  C   UNL A   1      47.004  32.903  28.352  1.00  0.00    -0.014 A 
ATOM     88  C   UNL A   1      47.638  33.213  29.569  1.00  0.00     0.010 A 
ATOM     89  C   UNL A   1      46.997  33.860  27.320  1.00  0.00     0.010 A 
ATOM     90  C   UNL A   1      48.208  34.475  29.768  1.00  0.00     0.020 A 
ATOM     91  C   UNL A   1      47.590  35.111  27.506  1.00  0.00     0.020 A 
ATOM     92  C   UNL A   1      48.173  35.418  28.737  1.00  0.00     0.054 A 
BRANCH  92  93
ATOM     93  S   UNL A   1      48.922  37.047  29.014  1.00  0.00     0.124 S 
ATOM     94  O   UNL A   1      48.899  37.146  30.472  1.00  0.00    -0.237 OA
ATOM     95  O   UNL A   1      50.246  36.899  28.416  1.00  0.00    -0.237 OA
ATOM     96  O   UNL A   1      48.027  37.963  28.312  1.00  0.00    -0.744 OA
ENDBRANCH  92  93
ENDBRANCH  66  87
ENDBRANCH  40  41
ENDBRANCH  33  35
ENDBRANCH  32  33
ENDBRANCH  31  32
ENDBRANCH  30  31
ENDBRANCH  29  30
ENDBRANCH   1  29
TORSDOF 25
ENDMDL
MODEL 3
REMARK VINA RESULT:      -9.3      6.880     11.561
REMARK SMILES O=C(N[C@@H](CS)C(=O)N[C@@H](CO)C(=O)OCCOCCOC(=O)c1ccc(-c2c3nc(c(-c4ccc(S(=O)(=O)[O-])cc4)c4ccc([nH]4)c(-c4ccc(S(=O)(=O)[O-])cc4)c4nc(c(-c5ccc(S(=O)(=O)[O-])cc5)c5ccc2[nH]5)C=C4)C=C3)cc1)c1ccc(F)cc1
REMARK SMILES IDX 17 1 16 2 15 3 13 4 14 5 10 6 9 7 7 8 8 9 4 11 3 12 1 13
REMARK SMILES IDX 2 14 84 16 85 17 90 18 86 19 89 20 87 21 88 22 5 23 6 24
REMARK SMILES IDX 11 26 12 27 18 29 19 30 20 31 21 32 22 33 23 34 24 35 25 36
REMARK SMILES IDX 83 37 26 38 82 39 27 40 28 41 29 42 76 43 30 44 81 45 75 46
REMARK SMILES IDX 77 47 31 48 80 49 74 50 73 51 32 53 62 54 43 55 61 56 44 57
REMARK SMILES IDX 47 58 60 59 78 60 45 61 46 62 59 64 79 65 48 66 33 67 34 68
REMARK SMILES IDX 42 69 35 70 41 71 36 72 37 73 38 74 39 75 40 76 63 77 64 78
REMARK SMILES IDX 72 79 65 80 71 81 66 82 67 83 68 84 69 85 70 86 49 87 50 88
REMARK SMILES IDX 58 89 51 90 57 91 52 92 53 93 54 94 55 95 56 96
REMARK H PARENT 9 10 3 15 6 25 12 28 77 52 47 63
REMARK Flexibility Score: inf
ROOT
ATOM      1  C   UNL A   1      31.943  30.908  26.676  1.00  0.00     0.202 C 
ENDROOT
BRANCH   1   2
ATOM      2  C   UNL A   1      32.039  30.258  25.292  1.00  0.00     0.261 C 
BRANCH   2   3
ATOM      3  O   UNL A   1      31.772  28.846  25.373  1.00  0.00    -0.462 OA
BRANCH   3   4
ATOM      4  C   UNL A   1      32.851  28.035  25.193  1.00  0.00     0.331 C 
ATOM      5  O   UNL A   1      33.784  28.261  24.431  1.00  0.00    -0.250 OA
BRANCH   4   6
ATOM      6  C   UNL A   1      32.770  26.765  26.056  1.00  0.00     0.218 C 
BRANCH   6   7
ATOM      7  N   UNL A   1      33.971  25.917  26.004  1.00  0.00    -0.339 N 
ATOM      8  C   UNL A   1      34.339  24.877  25.218  1.00  0.00     0.244 C 
ATOM      9  O   UNL A   1      35.510  24.491  25.331  1.00  0.00    -0.273 OA
ATOM     10  H   UNL A   1      34.647  26.153  26.681  1.00  0.00     0.164 HD
BRANCH   8  11
ATOM     11  C   UNL A   1      33.456  24.235  24.124  1.00  0.00     0.181 C 
BRANCH  11  12
ATOM     12  N   UNL A   1      33.681  24.713  22.758  1.00  0.00    -0.339 N 
ATOM     13  O   UNL A   1      33.147  25.550  20.747  1.00  0.00    -0.269 OA
ATOM     14  C   UNL A   1      32.849  25.427  21.932  1.00  0.00     0.251 C 
ATOM     15  H   UNL A   1      34.559  24.490  22.375  1.00  0.00     0.164 HD
BRANCH  14  16
ATOM     16  C   UNL A   1      31.584  26.017  22.425  1.00  0.00     0.040 A 
ATOM     17  C   UNL A   1      30.744  25.333  23.312  1.00  0.00     0.017 A 
ATOM     18  C   UNL A   1      31.278  27.332  22.046  1.00  0.00     0.017 A 
ATOM     19  C   UNL A   1      29.562  25.932  23.754  1.00  0.00     0.040 A 
ATOM     20  C   UNL A   1      30.104  27.934  22.505  1.00  0.00     0.040 A 
ATOM     21  C   UNL A   1      29.252  27.224  23.343  1.00  0.00     0.123 A 
ATOM     22  F   UNL A   1      28.121  27.799  23.773  1.00  0.00    -0.207 F 
ENDBRANCH  14  16
ENDBRANCH  11  12
BRANCH  11  23
ATOM     23  C   UNL A   1      33.366  22.703  24.249  1.00  0.00     0.101 C 
BRANCH  23  24
ATOM     24  S   UNL A   1      32.159  22.057  25.448  1.00  0.00    -0.177 SA
ATOM     25  H   UNL A   1      31.332  21.173  24.825  1.00  0.00     0.102 HD
ENDBRANCH  23  24
ENDBRANCH  11  23
ENDBRANCH   8  11
ENDBRANCH   6   7
BRANCH   6  26
ATOM     26  C   UNL A   1      32.469  27.188  27.496  1.00  0.00     0.193 C 
BRANCH  26  27
ATOM     27  O   UNL A   1      31.090  27.510  27.664  1.00  0.00    -0.394 OA
ATOM     28  H   UNL A   1      30.604  26.717  27.940  1.00  0.00     0.210 HD
ENDBRANCH  26  27
ENDBRANCH   6  26
ENDBRANCH   4   6
ENDBRANCH   3   4
ENDBRANCH   2   3
ENDBRANCH   1   2
BRANCH   1  29
ATOM     29  O   UNL A   1      33.036  30.662  27.564  1.00  0.00    -0.374 OA
BRANCH  29  30
ATOM     30  C   UNL A   1      34.069  31.644  27.623  1.00  0.00     0.202 C 
BRANCH  30  31
ATOM     31  C   UNL A   1      35.161  31.448  28.682  1.00  0.00     0.261 C 
BRANCH  31  32
ATOM     32  O   UNL A   1      35.798  30.163  28.601  1.00  0.00    -0.460 OA
BRANCH  32  33
ATOM     33  C   UNL A   1      36.499  29.822  29.708  1.00  0.00     0.338 C 
ATOM     34  O   UNL A   1      36.047  29.418  30.775  1.00  0.00    -0.246 OA
BRANCH  33  35
ATOM     35  C   UNL A   1      37.943  29.820  29.424  1.00  0.00     0.060 A 
ATOM     36  C   UNL A   1      38.331  29.614  28.096  1.00  0.00     0.016 A 
ATOM     37  C   UNL A   1      38.897  29.927  30.439  1.00  0.00     0.016 A 
ATOM     38  C   UNL A   1      39.677  29.463  27.781  1.00  0.00     0.010 A 
ATOM     39  C   UNL A   1      40.252  29.767  30.120  1.00  0.00     0.010 A 
ATOM     40  C   UNL A   1      40.643  29.499  28.796  1.00  0.00    -0.014 A 
BRANCH  40  41
ATOM     41  C   UNL A   1      42.041  29.132  28.463  1.00  0.00     0.031 A 
ATOM     42  C   UNL A   1      42.360  27.710  28.088  1.00  0.00     0.074 A 
ATOM     43  C   UNL A   1      43.000  30.073  28.428  1.00  0.00     0.049 A 
ATOM     44  N   UNL A   1      43.495  27.193  27.694  1.00  0.00    -0.248 NA
ATOM     45  C   UNL A   1      41.252  26.743  28.161  1.00  0.00     0.031 C 
ATOM     46  C   UNL A   1      42.804  31.490  28.739  1.00  0.00     0.029 A 
ATOM     47  N   UNL A   1      44.329  29.981  28.101  1.00  0.00    -0.354 N 
ATOM     48  C   UNL A   1      43.241  25.845  27.469  1.00  0.00     0.074 A 
ATOM     49  C   UNL A   1      41.851  25.616  27.802  1.00  0.00     0.031 C 
ATOM     50  C   UNL A   1      43.972  32.136  28.581  1.00  0.00     0.029 A 
ATOM     51  C   UNL A   1      45.000  31.177  28.180  1.00  0.00     0.049 A 
ATOM     52  H   UNL A   1      44.761  29.138  27.835  1.00  0.00     0.167 HD
ATOM     53  C   UNL A   1      44.085  24.887  27.017  1.00  0.00     0.031 A 
ATOM     54  C   UNL A   1      46.297  31.467  27.959  1.00  0.00     0.031 A 
ATOM     55  C   UNL A   1      45.471  25.113  26.705  1.00  0.00     0.049 A 
ATOM     56  C   UNL A   1      47.229  30.372  27.511  1.00  0.00     0.074 A 
ATOM     57  C   UNL A   1      46.408  24.209  26.231  1.00  0.00     0.029 A 
ATOM     58  N   UNL A   1      46.125  26.329  26.841  1.00  0.00    -0.354 N 
ATOM     59  N   UNL A   1      46.964  29.108  27.276  1.00  0.00    -0.248 NA
ATOM     60  C   UNL A   1      48.630  30.749  27.283  1.00  0.00     0.031 C 
ATOM     61  C   UNL A   1      47.639  24.866  26.130  1.00  0.00     0.029 A 
ATOM     62  C   UNL A   1      47.457  26.194  26.485  1.00  0.00     0.049 A 
ATOM     63  H   UNL A   1      45.704  27.165  27.144  1.00  0.00     0.167 HD
ATOM     64  C   UNL A   1      48.162  28.544  26.851  1.00  0.00     0.074 A 
ATOM     65  C   UNL A   1      49.145  29.609  26.842  1.00  0.00     0.031 C 
ATOM     66  C   UNL A   1      48.427  27.260  26.498  1.00  0.00     0.031 A 
BRANCH  53  67
ATOM     67  C   UNL A   1      43.534  23.492  26.867  1.00  0.00    -0.014 A 
ATOM     68  C   UNL A   1      43.303  22.674  27.987  1.00  0.00     0.010 A 
ATOM     69  C   UNL A   1      43.212  23.006  25.587  1.00  0.00     0.010 A 
ATOM     70  C   UNL A   1      42.797  21.381  27.827  1.00  0.00     0.020 A 
ATOM     71  C   UNL A   1      42.682  21.722  25.424  1.00  0.00     0.020 A 
ATOM     72  C   UNL A   1      42.493  20.912  26.545  1.00  0.00     0.054 A 
BRANCH  72  73
ATOM     73  S   UNL A   1      41.821  19.237  26.367  1.00  0.00     0.124 S 
ATOM     74  O   UNL A   1      42.759  18.634  25.424  1.00  0.00    -0.237 OA
ATOM     75  O   UNL A   1      41.880  18.719  27.731  1.00  0.00    -0.237 OA
ATOM     76  O   UNL A   1      40.473  19.457  25.847  1.00  0.00    -0.744 OA
ENDBRANCH  72  73
ENDBRANCH  53  67
BRANCH  54  77
ATOM     77  C   UNL A   1      46.793  32.854  28.164  1.00  0.00    -0.014 A 
ATOM     78  C   UNL A   1      47.285  33.267  29.415  1.00  0.00     0.010 A 
ATOM     79  C   UNL A   1      46.780  33.772  27.098  1.00  0.00     0.010 A 
ATOM     80  C   UNL A   1      47.741  34.575  29.599  1.00  0.00     0.020 A 
ATOM     81  C   UNL A   1      47.260  35.073  27.271  1.00  0.00     0.020 A 
ATOM     82  C   UNL A   1      47.727  35.470  28.524  1.00  0.00     0.054 A 
BRANCH  82  83
ATOM     83  S   UNL A   1      48.376  37.147  28.770  1.00  0.00     0.124 S 
ATOM     84  O   UNL A   1      47.658  37.578  29.964  1.00  0.00    -0.237 OA
ATOM     85  O   UNL A   1      49.807  36.910  28.941  1.00  0.00    -0.237 OA
ATOM     86  O   UNL A   1      48.011  37.838  27.534  1.00  0.00    -0.744 OA
ENDBRANCH  82  83
ENDBRANCH  54  77
BRANCH  66  87
ATOM     87  C   UNL A   1      49.829  26.948  26.049  1.00  0.00    -0.014 A 
ATOM     88  C   UNL A   1      50.217  27.103  24.706  1.00  0.00     0.010 A 
ATOM     89  C   UNL A   1      50.779  26.509  26.990  1.00  0.00     0.010 A 
ATOM     90  C   UNL A   1      51.515  26.774  24.303  1.00  0.00     0.020 A 
ATOM     91  C   UNL A   1      52.085  26.207  26.596  1.00  0.00     0.020 A 
ATOM     92  C   UNL A   1      52.438  26.321  25.250  1.00  0.00     0.054 A 
BRANCH  92  93
ATOM     93  S   UNL A   1      54.119  25.905  24.706  1.00  0.00     0.124 S 
ATOM     94  O   UNL A   1      54.936  26.733  25.588  1.00  0.00    -0.237 OA
ATOM     95  O   UNL A   1      54.190  24.467  24.952  1.00  0.00    -0.237 OA
ATOM     96  O   UNL A   1      54.131  26.292  23.298  1.00  0.00    -0.744 OA
ENDBRANCH  92  93
ENDBRANCH  66  87
ENDBRANCH  40  41
ENDBRANCH  33  35
ENDBRANCH  32  33
ENDBRANCH  31  32
ENDBRANCH  30  31
ENDBRANCH  29  30
ENDBRANCH   1  29
TORSDOF 25
ENDMDL
