MODEL 1
REMARK VINA RESULT:     -10.7      0.000      0.000
REMARK SMILES O=C(Cc1cccn1-c1ccccc1F)OCCOCCOC(=O)c1ccc(-c2c3nc(c(-c4ccc(S(=O)(=O)[O-])cc4)c4ccc([nH]4)c(-c4ccc(S(=O)(=O)[O-])cc4)c4nc(c(-c5ccc(S(=O)(=O)[O-])cc5)c5ccc2[nH]5)C=C4)C=C3)cc1
REMARK SMILES IDX 20 1 19 2 18 3 17 4 16 5 2 6 1 7 3 8 4 9 5 10 8 11 6 12 7 13
REMARK SMILES IDX 9 14 10 15 14 16 11 17 13 18 15 19 12 20 21 21 22 22 23 23
REMARK SMILES IDX 24 24 25 25 26 26 84 27 27 28 83 29 28 30 29 31 30 32 77 33
REMARK SMILES IDX 31 34 82 35 76 36 78 37 32 38 81 39 75 40 74 41 33 43 63 44
REMARK SMILES IDX 44 45 62 46 45 47 48 48 61 49 79 50 46 51 47 52 60 54 80 55
REMARK SMILES IDX 49 56 34 57 35 58 43 59 36 60 42 61 37 62 38 63 39 64 40 65
REMARK SMILES IDX 41 66 64 67 65 68 73 69 66 70 72 71 67 72 68 73 69 74 70 75
REMARK SMILES IDX 71 76 50 77 51 78 59 79 52 80 58 81 53 82 54 83 55 84 56 85
REMARK SMILES IDX 57 86
REMARK H PARENT 78 42 48 53
REMARK Flexibility Score: inf
ROOT
ATOM      1  C   UNL A   1      33.696  29.147  26.767  1.00  0.00     0.202 C 
ENDROOT
BRANCH   1   2
ATOM      2  O   UNL A   1      32.398  29.074  26.187  1.00  0.00    -0.374 OA
BRANCH   2   3
ATOM      3  C   UNL A   1      32.236  28.742  24.816  1.00  0.00     0.202 C 
BRANCH   3   4
ATOM      4  C   UNL A   1      33.362  29.022  23.821  1.00  0.00     0.261 C 
BRANCH   4   5
ATOM      5  O   UNL A   1      33.321  28.294  22.590  1.00  0.00    -0.463 OA
BRANCH   5   6
ATOM      6  C   UNL A   1      33.535  26.965  22.456  1.00  0.00     0.311 C 
ATOM      7  O   UNL A   1      33.612  26.484  21.324  1.00  0.00    -0.252 OA
BRANCH   6   8
ATOM      8  C   UNL A   1      33.517  26.046  23.665  1.00  0.00     0.177 C 
BRANCH   8   9
ATOM      9  C   UNL A   1      32.715  24.787  23.553  1.00  0.00     0.034 A 
ATOM     10  C   UNL A   1      31.373  24.666  23.234  1.00  0.00     0.024 A 
ATOM     11  N   UNL A   1      33.197  23.519  23.837  1.00  0.00    -0.318 N 
ATOM     12  C   UNL A   1      31.019  23.306  23.367  1.00  0.00     0.020 A 
ATOM     13  C   UNL A   1      32.149  22.629  23.769  1.00  0.00     0.091 A 
BRANCH  11  14
ATOM     14  C   UNL A   1      34.506  23.206  24.236  1.00  0.00     0.081 A 
ATOM     15  C   UNL A   1      35.470  22.931  23.263  1.00  0.00     0.030 A 
ATOM     16  C   UNL A   1      34.864  23.364  25.575  1.00  0.00     0.147 A 
ATOM     17  C   UNL A   1      36.806  22.815  23.647  1.00  0.00     0.002 A 
ATOM     18  C   UNL A   1      36.201  23.284  25.948  1.00  0.00     0.041 A 
ATOM     19  F   UNL A   1      33.951  23.704  26.497  1.00  0.00    -0.205 F 
ATOM     20  C   UNL A   1      37.172  23.007  24.983  1.00  0.00     0.003 A 
ENDBRANCH  11  14
ENDBRANCH   8   9
ENDBRANCH   6   8
ENDBRANCH   5   6
ENDBRANCH   4   5
ENDBRANCH   3   4
ENDBRANCH   2   3
ENDBRANCH   1   2
BRANCH   1  21
ATOM     21  C   UNL A   1      34.180  30.396  27.490  1.00  0.00     0.261 C 
BRANCH  21  22
ATOM     22  O   UNL A   1      35.559  30.692  27.322  1.00  0.00    -0.460 OA
BRANCH  22  23
ATOM     23  C   UNL A   1      36.209  30.723  28.501  1.00  0.00     0.338 C 
ATOM     24  O   UNL A   1      36.072  31.547  29.404  1.00  0.00    -0.246 OA
BRANCH  23  25
ATOM     25  C   UNL A   1      37.239  29.698  28.540  1.00  0.00     0.060 A 
ATOM     26  C   UNL A   1      37.285  28.878  29.671  1.00  0.00     0.016 A 
ATOM     27  C   UNL A   1      38.300  29.785  27.631  1.00  0.00     0.016 A 
ATOM     28  C   UNL A   1      38.458  28.213  29.955  1.00  0.00     0.010 A 
ATOM     29  C   UNL A   1      39.487  29.153  27.938  1.00  0.00     0.010 A 
ATOM     30  C   UNL A   1      39.568  28.405  29.120  1.00  0.00    -0.014 A 
BRANCH  30  31
ATOM     31  C   UNL A   1      40.844  27.795  29.514  1.00  0.00     0.031 A 
ATOM     32  C   UNL A   1      41.147  26.522  28.748  1.00  0.00     0.074 A 
ATOM     33  C   UNL A   1      41.506  28.415  30.533  1.00  0.00     0.049 A 
ATOM     34  N   UNL A   1      41.888  25.519  29.094  1.00  0.00    -0.248 NA
ATOM     35  C   UNL A   1      40.466  26.284  27.446  1.00  0.00     0.031 C 
ATOM     36  C   UNL A   1      41.047  29.661  31.190  1.00  0.00     0.029 A 
ATOM     37  N   UNL A   1      42.663  28.144  31.228  1.00  0.00    -0.354 N 
ATOM     38  C   UNL A   1      41.887  24.613  28.019  1.00  0.00     0.074 A 
ATOM     39  C   UNL A   1      40.925  25.090  27.072  1.00  0.00     0.031 C 
ATOM     40  C   UNL A   1      41.863  29.991  32.210  1.00  0.00     0.029 A 
ATOM     41  C   UNL A   1      42.934  29.018  32.306  1.00  0.00     0.049 A 
ATOM     42  H   UNL A   1      43.258  27.395  30.992  1.00  0.00     0.167 HD
ATOM     43  C   UNL A   1      42.752  23.569  27.915  1.00  0.00     0.031 A 
ATOM     44  C   UNL A   1      43.925  28.949  33.242  1.00  0.00     0.031 A 
ATOM     45  C   UNL A   1      43.592  23.474  29.061  1.00  0.00     0.049 A 
ATOM     46  C   UNL A   1      44.789  27.813  32.864  1.00  0.00     0.074 A 
ATOM     47  C   UNL A   1      43.390  23.030  30.342  1.00  0.00     0.029 A 
ATOM     48  N   UNL A   1      44.778  24.169  29.019  1.00  0.00    -0.354 N 
ATOM     49  N   UNL A   1      45.589  27.788  31.842  1.00  0.00    -0.248 NA
ATOM     50  C   UNL A   1      44.718  26.575  33.649  1.00  0.00     0.031 C 
ATOM     51  C   UNL A   1      44.267  23.811  31.131  1.00  0.00     0.029 A 
ATOM     52  C   UNL A   1      45.010  24.644  30.290  1.00  0.00     0.049 A 
ATOM     53  H   UNL A   1      45.352  24.300  28.231  1.00  0.00     0.167 HD
ATOM     54  C   UNL A   1      45.811  26.444  31.657  1.00  0.00     0.074 A 
ATOM     55  C   UNL A   1      45.522  25.805  32.921  1.00  0.00     0.031 C 
ATOM     56  C   UNL A   1      45.709  25.907  30.414  1.00  0.00     0.031 A 
BRANCH  43  57
ATOM     57  C   UNL A   1      43.055  22.697  26.734  1.00  0.00    -0.014 A 
ATOM     58  C   UNL A   1      42.561  21.372  26.763  1.00  0.00     0.010 A 
ATOM     59  C   UNL A   1      44.026  23.015  25.773  1.00  0.00     0.010 A 
ATOM     60  C   UNL A   1      43.094  20.377  25.943  1.00  0.00     0.020 A 
ATOM     61  C   UNL A   1      44.542  22.026  24.920  1.00  0.00     0.020 A 
ATOM     62  C   UNL A   1      44.108  20.705  25.050  1.00  0.00     0.054 A 
BRANCH  62  63
ATOM     63  S   UNL A   1      44.906  19.367  24.125  1.00  0.00     0.124 S 
ATOM     64  O   UNL A   1      46.310  19.543  24.484  1.00  0.00    -0.237 OA
ATOM     65  O   UNL A   1      44.266  18.173  24.675  1.00  0.00    -0.237 OA
ATOM     66  O   UNL A   1      44.568  19.661  22.735  1.00  0.00    -0.744 OA
ENDBRANCH  62  63
ENDBRANCH  43  57
BRANCH  44  67
ATOM     67  C   UNL A   1      44.241  29.632  34.549  1.00  0.00    -0.014 A 
ATOM     68  C   UNL A   1      43.362  29.788  35.628  1.00  0.00     0.010 A 
ATOM     69  C   UNL A   1      45.580  30.050  34.780  1.00  0.00     0.010 A 
ATOM     70  C   UNL A   1      43.822  30.202  36.898  1.00  0.00     0.020 A 
ATOM     71  C   UNL A   1      46.061  30.417  36.040  1.00  0.00     0.020 A 
ATOM     72  C   UNL A   1      45.178  30.467  37.105  1.00  0.00     0.054 A 
BRANCH  72  73
ATOM     73  S   UNL A   1      45.834  30.742  38.774  1.00  0.00     0.124 S 
ATOM     74  O   UNL A   1      45.807  32.196  38.885  1.00  0.00    -0.237 OA
ATOM     75  O   UNL A   1      44.886  30.026  39.625  1.00  0.00    -0.237 OA
ATOM     76  O   UNL A   1      47.165  30.142  38.708  1.00  0.00    -0.744 OA
ENDBRANCH  72  73
ENDBRANCH  44  67
BRANCH  56  77
ATOM     77  C   UNL A   1      45.906  26.899  29.278  1.00  0.00    -0.014 A 
ATOM     78  C   UNL A   1      47.199  27.201  28.815  1.00  0.00     0.010 A 
ATOM     79  C   UNL A   1      44.832  27.622  28.723  1.00  0.00     0.010 A 
ATOM     80  C   UNL A   1      47.409  28.189  27.840  1.00  0.00     0.020 A 
ATOM     81  C   UNL A   1      45.029  28.608  27.743  1.00  0.00     0.020 A 
ATOM     82  C   UNL A   1      46.322  28.888  27.309  1.00  0.00     0.054 A 
BRANCH  82  83
ATOM     83  S   UNL A   1      46.626  30.184  26.072  1.00  0.00     0.124 S 
ATOM     84  O   UNL A   1      47.886  30.771  26.522  1.00  0.00    -0.237 OA
ATOM     85  O   UNL A   1      46.703  29.420  24.830  1.00  0.00    -0.237 OA
ATOM     86  O   UNL A   1      45.462  31.062  26.188  1.00  0.00    -0.744 OA
ENDBRANCH  82  83
ENDBRANCH  56  77
ENDBRANCH  30  31
ENDBRANCH  23  25
ENDBRANCH  22  23
ENDBRANCH  21  22
ENDBRANCH   1  21
TORSDOF 19
ENDMDL
MODEL 2
REMARK VINA RESULT:     -10.3      4.300      6.415
REMARK SMILES O=C(Cc1cccn1-c1ccccc1F)OCCOCCOC(=O)c1ccc(-c2c3nc(c(-c4ccc(S(=O)(=O)[O-])cc4)c4ccc([nH]4)c(-c4ccc(S(=O)(=O)[O-])cc4)c4nc(c(-c5ccc(S(=O)(=O)[O-])cc5)c5ccc2[nH]5)C=C4)C=C3)cc1
REMARK SMILES IDX 20 1 19 2 18 3 17 4 16 5 2 6 1 7 3 8 4 9 5 10 8 11 6 12 7 13
REMARK SMILES IDX 9 14 10 15 14 16 11 17 13 18 15 19 12 20 21 21 22 22 23 23
REMARK SMILES IDX 24 24 25 25 26 26 84 27 27 28 83 29 28 30 29 31 30 32 77 33
REMARK SMILES IDX 31 34 82 35 76 36 78 37 32 38 81 39 75 40 74 41 33 43 63 44
REMARK SMILES IDX 44 45 62 46 45 47 48 48 61 49 79 50 46 51 47 52 60 54 80 55
REMARK SMILES IDX 49 56 34 57 35 58 43 59 36 60 42 61 37 62 38 63 39 64 40 65
REMARK SMILES IDX 41 66 64 67 65 68 73 69 66 70 72 71 67 72 68 73 69 74 70 75
REMARK SMILES IDX 71 76 50 77 51 78 59 79 52 80 58 81 53 82 54 83 55 84 56 85
REMARK SMILES IDX 57 86
REMARK H PARENT 78 42 48 53
REMARK Flexibility Score: inf
ROOT
ATOM      1  C   UNL A   1      31.599  31.637  26.518  1.00  0.00     0.202 C 
ENDROOT
BRANCH   1   2
ATOM      2  O   UNL A   1      32.730  30.815  26.246  1.00  0.00    -0.374 OA
BRANCH   2   3
ATOM      3  C   UNL A   1      33.445  30.195  27.305  1.00  0.00     0.202 C 
BRANCH   3   4
ATOM      4  C   UNL A   1      33.719  28.692  27.268  1.00  0.00     0.261 C 
BRANCH   4   5
ATOM      5  O   UNL A   1      32.831  27.901  26.472  1.00  0.00    -0.463 OA
BRANCH   5   6
ATOM      6  C   UNL A   1      31.595  27.495  26.843  1.00  0.00     0.311 C 
ATOM      7  O   UNL A   1      31.112  27.934  27.889  1.00  0.00    -0.252 OA
BRANCH   6   8
ATOM      8  C   UNL A   1      30.875  26.395  26.083  1.00  0.00     0.177 C 
BRANCH   8   9
ATOM      9  C   UNL A   1      31.335  26.116  24.687  1.00  0.00     0.034 A 
ATOM     10  C   UNL A   1      32.302  25.212  24.280  1.00  0.00     0.024 A 
ATOM     11  N   UNL A   1      30.898  26.799  23.563  1.00  0.00    -0.318 N 
ATOM     12  C   UNL A   1      32.490  25.376  22.891  1.00  0.00     0.020 A 
ATOM     13  C   UNL A   1      31.640  26.379  22.482  1.00  0.00     0.091 A 
BRANCH  11  14
ATOM     14  C   UNL A   1      29.941  27.826  23.544  1.00  0.00     0.081 A 
ATOM     15  C   UNL A   1      30.364  29.153  23.426  1.00  0.00     0.030 A 
ATOM     16  C   UNL A   1      28.590  27.493  23.447  1.00  0.00     0.147 A 
ATOM     17  C   UNL A   1      29.413  30.149  23.210  1.00  0.00     0.002 A 
ATOM     18  C   UNL A   1      27.649  28.485  23.195  1.00  0.00     0.041 A 
ATOM     19  F   UNL A   1      28.192  26.213  23.483  1.00  0.00    -0.205 F 
ATOM     20  C   UNL A   1      28.061  29.815  23.078  1.00  0.00     0.003 A 
ENDBRANCH  11  14
ENDBRANCH   8   9
ENDBRANCH   6   8
ENDBRANCH   5   6
ENDBRANCH   4   5
ENDBRANCH   3   4
ENDBRANCH   2   3
ENDBRANCH   1   2
BRANCH   1  21
ATOM     21  C   UNL A   1      31.750  33.041  27.085  1.00  0.00     0.261 C 
BRANCH  21  22
ATOM     22  O   UNL A   1      33.070  33.396  27.471  1.00  0.00    -0.460 OA
BRANCH  22  23
ATOM     23  C   UNL A   1      33.075  34.409  28.358  1.00  0.00     0.338 C 
ATOM     24  O   UNL A   1      32.323  35.382  28.378  1.00  0.00    -0.246 OA
BRANCH  23  25
ATOM     25  C   UNL A   1      34.208  34.290  29.260  1.00  0.00     0.060 A 
ATOM     26  C   UNL A   1      35.482  34.495  28.722  1.00  0.00     0.016 A 
ATOM     27  C   UNL A   1      34.007  33.679  30.504  1.00  0.00     0.016 A 
ATOM     28  C   UNL A   1      36.571  33.983  29.393  1.00  0.00     0.010 A 
ATOM     29  C   UNL A   1      35.093  33.130  31.154  1.00  0.00     0.010 A 
ATOM     30  C   UNL A   1      36.361  33.251  30.571  1.00  0.00    -0.014 A 
BRANCH  30  31
ATOM     31  C   UNL A   1      37.520  32.601  31.197  1.00  0.00     0.031 A 
ATOM     32  C   UNL A   1      37.932  31.327  30.486  1.00  0.00     0.074 A 
ATOM     33  C   UNL A   1      37.988  33.194  32.333  1.00  0.00     0.049 A 
ATOM     34  N   UNL A   1      38.565  30.300  30.954  1.00  0.00    -0.248 NA
ATOM     35  C   UNL A   1      37.510  31.120  29.074  1.00  0.00     0.031 C 
ATOM     36  C   UNL A   1      37.444  34.446  32.906  1.00  0.00     0.029 A 
ATOM     37  N   UNL A   1      38.981  32.883  33.234  1.00  0.00    -0.354 N 
ATOM     38  C   UNL A   1      38.748  29.404  29.887  1.00  0.00     0.074 A 
ATOM     39  C   UNL A   1      38.001  29.917  28.779  1.00  0.00     0.031 C 
ATOM     40  C   UNL A   1      38.056  34.744  34.069  1.00  0.00     0.029 A 
ATOM     41  C   UNL A   1      39.061  33.740  34.357  1.00  0.00     0.049 A 
ATOM     42  H   UNL A   1      39.590  32.120  33.107  1.00  0.00     0.167 HD
ATOM     43  C   UNL A   1      39.589  28.337  29.938  1.00  0.00     0.031 A 
ATOM     44  C   UNL A   1      39.850  33.634  35.466  1.00  0.00     0.031 A 
ATOM     45  C   UNL A   1      40.188  28.208  31.223  1.00  0.00     0.049 A 
ATOM     46  C   UNL A   1      40.740  32.478  35.246  1.00  0.00     0.074 A 
ATOM     47  C   UNL A   1      39.730  27.758  32.434  1.00  0.00     0.029 A 
ATOM     48  N   UNL A   1      41.377  28.868  31.421  1.00  0.00    -0.354 N 
ATOM     49  N   UNL A   1      41.722  32.438  34.398  1.00  0.00    -0.248 NA
ATOM     50  C   UNL A   1      40.486  31.236  35.985  1.00  0.00     0.031 C 
ATOM     51  C   UNL A   1      40.458  28.507  33.389  1.00  0.00     0.029 A 
ATOM     52  C   UNL A   1      41.371  29.326  32.719  1.00  0.00     0.049 A 
ATOM     53  H   UNL A   1      42.096  28.990  30.760  1.00  0.00     0.167 HD
ATOM     54  C   UNL A   1      41.940  31.090  34.241  1.00  0.00     0.074 A 
ATOM     55  C   UNL A   1      41.395  30.448  35.415  1.00  0.00     0.031 C 
ATOM     56  C   UNL A   1      42.067  30.567  32.994  1.00  0.00     0.031 A 
BRANCH  43  57
ATOM     57  C   UNL A   1      40.092  27.467  28.826  1.00  0.00    -0.014 A 
ATOM     58  C   UNL A   1      39.799  26.085  28.901  1.00  0.00     0.010 A 
ATOM     59  C   UNL A   1      41.063  27.882  27.903  1.00  0.00     0.010 A 
ATOM     60  C   UNL A   1      40.524  25.144  28.169  1.00  0.00     0.020 A 
ATOM     61  C   UNL A   1      41.772  26.945  27.136  1.00  0.00     0.020 A 
ATOM     62  C   UNL A   1      41.532  25.580  27.315  1.00  0.00     0.054 A 
BRANCH  62  63
ATOM     63  S   UNL A   1      42.577  24.337  26.512  1.00  0.00     0.124 S 
ATOM     64  O   UNL A   1      43.687  24.217  27.453  1.00  0.00    -0.237 OA
ATOM     65  O   UNL A   1      41.692  23.176  26.439  1.00  0.00    -0.237 OA
ATOM     66  O   UNL A   1      42.904  24.943  25.224  1.00  0.00    -0.744 OA
ENDBRANCH  62  63
ENDBRANCH  43  57
BRANCH  44  67
ATOM     67  C   UNL A   1      39.925  34.297  36.819  1.00  0.00    -0.014 A 
ATOM     68  C   UNL A   1      40.567  35.510  37.104  1.00  0.00     0.010 A 
ATOM     69  C   UNL A   1      39.180  33.727  37.887  1.00  0.00     0.010 A 
ATOM     70  C   UNL A   1      40.361  36.179  38.331  1.00  0.00     0.020 A 
ATOM     71  C   UNL A   1      38.929  34.398  39.087  1.00  0.00     0.020 A 
ATOM     72  C   UNL A   1      39.505  35.640  39.294  1.00  0.00     0.054 A 
BRANCH  72  73
ATOM     73  S   UNL A   1      39.018  36.598  40.756  1.00  0.00     0.124 S 
ATOM     74  O   UNL A   1      40.258  36.648  41.524  1.00  0.00    -0.237 OA
ATOM     75  O   UNL A   1      38.576  37.869  40.188  1.00  0.00    -0.237 OA
ATOM     76  O   UNL A   1      37.951  35.789  41.340  1.00  0.00    -0.744 OA
ENDBRANCH  72  73
ENDBRANCH  44  67
BRANCH  56  77
ATOM     77  C   UNL A   1      42.507  31.563  31.932  1.00  0.00    -0.014 A 
ATOM     78  C   UNL A   1      41.550  32.269  31.182  1.00  0.00     0.010 A 
ATOM     79  C   UNL A   1      43.862  31.741  31.589  1.00  0.00     0.010 A 
ATOM     80  C   UNL A   1      41.933  33.114  30.128  1.00  0.00     0.020 A 
ATOM     81  C   UNL A   1      44.257  32.588  30.542  1.00  0.00     0.020 A 
ATOM     82  C   UNL A   1      43.285  33.269  29.813  1.00  0.00     0.054 A 
BRANCH  82  83
ATOM     83  S   UNL A   1      43.750  34.344  28.424  1.00  0.00     0.124 S 
ATOM     84  O   UNL A   1      44.833  35.148  28.986  1.00  0.00    -0.237 OA
ATOM     85  O   UNL A   1      44.152  33.382  27.403  1.00  0.00    -0.237 OA
ATOM     86  O   UNL A   1      42.524  35.087  28.128  1.00  0.00    -0.744 OA
ENDBRANCH  82  83
ENDBRANCH  56  77
ENDBRANCH  30  31
ENDBRANCH  23  25
ENDBRANCH  22  23
ENDBRANCH  21  22
ENDBRANCH   1  21
TORSDOF 19
ENDMDL
MODEL 3
REMARK VINA RESULT:     -10.3      4.134      5.774
REMARK SMILES O=C(Cc1cccn1-c1ccccc1F)OCCOCCOC(=O)c1ccc(-c2c3nc(c(-c4ccc(S(=O)(=O)[O-])cc4)c4ccc([nH]4)c(-c4ccc(S(=O)(=O)[O-])cc4)c4nc(c(-c5ccc(S(=O)(=O)[O-])cc5)c5ccc2[nH]5)C=C4)C=C3)cc1
REMARK SMILES IDX 20 1 19 2 18 3 17 4 16 5 2 6 1 7 3 8 4 9 5 10 8 11 6 12 7 13
REMARK SMILES IDX 9 14 10 15 14 16 11 17 13 18 15 19 12 20 21 21 22 22 23 23
REMARK SMILES IDX 24 24 25 25 26 26 84 27 27 28 83 29 28 30 29 31 30 32 77 33
REMARK SMILES IDX 31 34 82 35 76 36 78 37 32 38 81 39 75 40 74 41 33 43 63 44
REMARK SMILES IDX 44 45 62 46 45 47 48 48 61 49 79 50 46 51 47 52 60 54 80 55
REMARK SMILES IDX 49 56 34 57 35 58 43 59 36 60 42 61 37 62 38 63 39 64 40 65
REMARK SMILES IDX 41 66 64 67 65 68 73 69 66 70 72 71 67 72 68 73 69 74 70 75
REMARK SMILES IDX 71 76 50 77 51 78 59 79 52 80 58 81 53 82 54 83 55 84 56 85
REMARK SMILES IDX 57 86
REMARK H PARENT 78 42 48 53
REMARK Flexibility Score: inf
ROOT
ATOM      1  C   UNL A   1      31.480  31.369  26.451  1.00  0.00     0.202 C 
ENDROOT
BRANCH   1   2
ATOM      2  O   UNL A   1      32.463  30.436  26.015  1.00  0.00    -0.374 OA
BRANCH   2   3
ATOM      3  C   UNL A   1      32.777  29.295  26.801  1.00  0.00     0.202 C 
BRANCH   3   4
ATOM      4  C   UNL A   1      34.052  28.500  26.523  1.00  0.00     0.261 C 
BRANCH   4   5
ATOM      5  O   UNL A   1      33.883  27.218  25.912  1.00  0.00    -0.463 OA
BRANCH   5   6
ATOM      6  C   UNL A   1      33.673  26.998  24.594  1.00  0.00     0.311 C 
ATOM      7  O   UNL A   1      33.893  27.910  23.795  1.00  0.00    -0.252 OA
BRANCH   6   8
ATOM      8  C   UNL A   1      33.020  25.715  24.111  1.00  0.00     0.177 C 
BRANCH   8   9
ATOM      9  C   UNL A   1      32.647  24.706  25.152  1.00  0.00     0.034 A 
ATOM     10  C   UNL A   1      31.453  24.609  25.847  1.00  0.00     0.024 A 
ATOM     11  N   UNL A   1      33.501  23.732  25.645  1.00  0.00    -0.318 N 
ATOM     12  C   UNL A   1      31.595  23.586  26.809  1.00  0.00     0.020 A 
ATOM     13  C   UNL A   1      32.873  23.087  26.686  1.00  0.00     0.091 A 
BRANCH  11  14
ATOM     14  C   UNL A   1      34.824  23.511  25.231  1.00  0.00     0.081 A 
ATOM     15  C   UNL A   1      35.875  24.008  26.006  1.00  0.00     0.030 A 
ATOM     16  C   UNL A   1      35.067  22.641  24.167  1.00  0.00     0.147 A 
ATOM     17  C   UNL A   1      37.181  23.622  25.703  1.00  0.00     0.002 A 
ATOM     18  C   UNL A   1      36.367  22.231  23.892  1.00  0.00     0.041 A 
ATOM     19  F   UNL A   1      34.054  22.104  23.472  1.00  0.00    -0.205 F 
ATOM     20  C   UNL A   1      37.424  22.723  24.659  1.00  0.00     0.003 A 
ENDBRANCH  11  14
ENDBRANCH   8   9
ENDBRANCH   6   8
ENDBRANCH   5   6
ENDBRANCH   4   5
ENDBRANCH   3   4
ENDBRANCH   2   3
ENDBRANCH   1   2
BRANCH   1  21
ATOM     21  C   UNL A   1      31.859  32.763  26.930  1.00  0.00     0.261 C 
BRANCH  21  22
ATOM     22  O   UNL A   1      33.065  32.835  27.678  1.00  0.00    -0.460 OA
BRANCH  22  23
ATOM     23  C   UNL A   1      33.151  33.984  28.375  1.00  0.00     0.338 C 
ATOM     24  O   UNL A   1      32.473  34.998  28.222  1.00  0.00    -0.246 OA
BRANCH  23  25
ATOM     25  C   UNL A   1      34.279  33.940  29.290  1.00  0.00     0.060 A 
ATOM     26  C   UNL A   1      35.541  34.237  28.768  1.00  0.00     0.016 A 
ATOM     27  C   UNL A   1      34.107  33.311  30.529  1.00  0.00     0.016 A 
ATOM     28  C   UNL A   1      36.656  33.799  29.450  1.00  0.00     0.010 A 
ATOM     29  C   UNL A   1      35.222  32.836  31.189  1.00  0.00     0.010 A 
ATOM     30  C   UNL A   1      36.485  33.049  30.622  1.00  0.00    -0.014 A 
BRANCH  30  31
ATOM     31  C   UNL A   1      37.679  32.479  31.259  1.00  0.00     0.031 A 
ATOM     32  C   UNL A   1      38.092  31.154  30.649  1.00  0.00     0.074 A 
ATOM     33  C   UNL A   1      38.175  33.179  32.320  1.00  0.00     0.049 A 
ATOM     34  N   UNL A   1      38.765  30.185  31.182  1.00  0.00    -0.248 NA
ATOM     35  C   UNL A   1      37.625  30.814  29.277  1.00  0.00     0.031 C 
ATOM     36  C   UNL A   1      37.624  34.468  32.800  1.00  0.00     0.029 A 
ATOM     37  N   UNL A   1      39.206  32.969  33.207  1.00  0.00    -0.354 N 
ATOM     38  C   UNL A   1      38.929  29.201  30.192  1.00  0.00     0.074 A 
ATOM     39  C   UNL A   1      38.131  29.599  29.072  1.00  0.00     0.031 C 
ATOM     40  C   UNL A   1      38.271  34.880  33.909  1.00  0.00     0.029 A 
ATOM     41  C   UNL A   1      39.307  33.924  34.246  1.00  0.00     0.049 A 
ATOM     42  H   UNL A   1      39.826  32.209  33.125  1.00  0.00     0.167 HD
ATOM     43  C   UNL A   1      39.794  28.158  30.305  1.00  0.00     0.031 A 
ATOM     44  C   UNL A   1      40.138  33.932  35.329  1.00  0.00     0.031 A 
ATOM     45  C   UNL A   1      40.441  28.156  31.573  1.00  0.00     0.049 A 
ATOM     46  C   UNL A   1      41.044  32.777  35.179  1.00  0.00     0.074 A 
ATOM     47  C   UNL A   1      40.037  27.808  32.836  1.00  0.00     0.029 A 
ATOM     48  N   UNL A   1      41.622  28.853  31.667  1.00  0.00    -0.354 N 
ATOM     49  N   UNL A   1      41.995  32.680  34.302  1.00  0.00    -0.248 NA
ATOM     50  C   UNL A   1      40.843  31.602  36.035  1.00  0.00     0.031 C 
ATOM     51  C   UNL A   1      40.782  28.652  33.692  1.00  0.00     0.029 A 
ATOM     52  C   UNL A   1      41.653  29.425  32.920  1.00  0.00     0.049 A 
ATOM     53  H   UNL A   1      42.315  28.929  30.972  1.00  0.00     0.167 HD
ATOM     54  C   UNL A   1      42.237  31.327  34.256  1.00  0.00     0.074 A 
ATOM     55  C   UNL A   1      41.748  30.784  35.503  1.00  0.00     0.031 C 
ATOM     56  C   UNL A   1      42.331  30.698  33.057  1.00  0.00     0.031 A 
BRANCH  43  57
ATOM     57  C   UNL A   1      40.275  27.202  29.257  1.00  0.00    -0.014 A 
ATOM     58  C   UNL A   1      39.328  26.299  28.720  1.00  0.00     0.010 A 
ATOM     59  C   UNL A   1      41.634  26.956  29.005  1.00  0.00     0.010 A 
ATOM     60  C   UNL A   1      39.724  25.136  28.057  1.00  0.00     0.020 A 
ATOM     61  C   UNL A   1      42.037  25.807  28.308  1.00  0.00     0.020 A 
ATOM     62  C   UNL A   1      41.081  24.881  27.886  1.00  0.00     0.054 A 
BRANCH  62  63
ATOM     63  S   UNL A   1      41.574  23.286  27.183  1.00  0.00     0.124 S 
ATOM     64  O   UNL A   1      42.486  22.773  28.201  1.00  0.00    -0.237 OA
ATOM     65  O   UNL A   1      40.300  22.578  27.073  1.00  0.00    -0.237 OA
ATOM     66  O   UNL A   1      42.189  23.647  25.909  1.00  0.00    -0.744 OA
ENDBRANCH  62  63
ENDBRANCH  43  57
BRANCH  44  67
ATOM     67  C   UNL A   1      40.247  34.714  36.615  1.00  0.00    -0.014 A 
ATOM     68  C   UNL A   1      41.131  35.774  36.858  1.00  0.00     0.010 A 
ATOM     69  C   UNL A   1      39.294  34.459  37.638  1.00  0.00     0.010 A 
ATOM     70  C   UNL A   1      40.981  36.612  37.986  1.00  0.00     0.020 A 
ATOM     71  C   UNL A   1      39.103  35.304  38.733  1.00  0.00     0.020 A 
ATOM     72  C   UNL A   1      39.937  36.398  38.889  1.00  0.00     0.054 A 
BRANCH  72  73
ATOM     73  S   UNL A   1      39.564  37.606  40.191  1.00  0.00     0.124 S 
ATOM     74  O   UNL A   1      40.850  38.269  40.380  1.00  0.00    -0.237 OA
ATOM     75  O   UNL A   1      38.513  38.425  39.591  1.00  0.00    -0.237 OA
ATOM     76  O   UNL A   1      39.121  36.767  41.303  1.00  0.00    -0.744 OA
ENDBRANCH  72  73
ENDBRANCH  44  67
BRANCH  56  77
ATOM     77  C   UNL A   1      42.710  31.603  31.895  1.00  0.00    -0.014 A 
ATOM     78  C   UNL A   1      44.056  31.936  31.664  1.00  0.00     0.010 A 
ATOM     79  C   UNL A   1      41.740  32.218  31.079  1.00  0.00     0.010 A 
ATOM     80  C   UNL A   1      44.417  32.852  30.663  1.00  0.00     0.020 A 
ATOM     81  C   UNL A   1      42.089  33.129  30.070  1.00  0.00     0.020 A 
ATOM     82  C   UNL A   1      43.430  33.444  29.870  1.00  0.00     0.054 A 
BRANCH  82  83
ATOM     83  S   UNL A   1      43.923  34.648  28.602  1.00  0.00     0.124 S 
ATOM     84  O   UNL A   1      42.833  35.621  28.639  1.00  0.00    -0.237 OA
ATOM     85  O   UNL A   1      45.206  35.129  29.108  1.00  0.00    -0.237 OA
ATOM     86  O   UNL A   1      43.999  33.856  27.375  1.00  0.00    -0.744 OA
ENDBRANCH  82  83
ENDBRANCH  56  77
ENDBRANCH  30  31
ENDBRANCH  23  25
ENDBRANCH  22  23
ENDBRANCH  21  22
ENDBRANCH   1  21
TORSDOF 19
ENDMDL
