MODEL 1
REMARK VINA RESULT:     -11.8      0.000      0.000
REMARK SMILES C[NH+]1CCC([NH+]2CCC(Oc3ccc4ccccc4c3)(C(=O)OCCOCCOC(=O)c3ccc(-c4c5nc(c(-c6ccc(S(=O)(=O)[O-])cc6)c6ccc([nH]6)c(-c6ccc(S(=O)(=O)[O-])cc6)c6nc(c(-c7ccc(S(=O)(=O)[O-])cc7)c7ccc4[nH]7)C=C6)C=C5)cc3)CC2)CC1
REMARK SMILES IDX 27 1 26 2 25 3 24 4 23 5 21 6 22 7 9 8 6 9 7 10 93 11 8 13
REMARK SMILES IDX 92 14 5 15 1 16 2 17 3 18 95 19 4 21 94 22 10 23 11 24 12 25
REMARK SMILES IDX 20 26 13 27 19 28 14 29 18 30 15 31 17 32 16 33 28 34 29 35
REMARK SMILES IDX 30 36 31 37 32 38 33 39 91 40 34 41 90 42 35 43 36 44 37 45
REMARK SMILES IDX 84 46 38 47 89 48 83 49 85 50 39 51 88 52 82 53 81 54 40 56
REMARK SMILES IDX 70 57 51 58 69 59 52 60 55 61 68 62 86 63 53 64 54 65 67 67
REMARK SMILES IDX 87 68 56 69 41 70 42 71 50 72 43 73 49 74 44 75 45 76 46 77
REMARK SMILES IDX 47 78 48 79 71 80 72 81 80 82 73 83 79 84 74 85 75 86 76 87
REMARK SMILES IDX 77 88 78 89 57 90 58 91 66 92 59 93 65 94 60 95 61 96 62 97
REMARK SMILES IDX 63 98 64 99
REMARK H PARENT 6 12 2 20 85 55 55 66
REMARK Flexibility Score: inf
ROOT
ATOM      1  C   UNL A   1      34.601  31.269  27.590  1.00  0.00     0.202 C 
ENDROOT
BRANCH   1   2
ATOM      2  O   UNL A   1      33.263  30.900  27.315  1.00  0.00    -0.374 OA
BRANCH   2   3
ATOM      3  C   UNL A   1      33.050  29.779  26.456  1.00  0.00     0.202 C 
BRANCH   3   4
ATOM      4  C   UNL A   1      33.473  28.391  26.955  1.00  0.00     0.261 C 
BRANCH   4   5
ATOM      5  O   UNL A   1      34.077  27.553  25.943  1.00  0.00    -0.460 OA
BRANCH   5   6
ATOM      6  C   UNL A   1      33.461  26.357  25.707  1.00  0.00     0.351 C 
ATOM      7  O   UNL A   1      33.238  25.533  26.592  1.00  0.00    -0.247 OA
BRANCH   6   8
ATOM      8  C   UNL A   1      33.133  26.092  24.214  1.00  0.00     0.216 C 
ATOM      9  N   UNL A   1      30.968  27.865  23.147  1.00  0.00    -0.332 N 
ATOM     10  C   UNL A   1      32.359  28.215  22.860  1.00  0.00     0.267 C 
ATOM     11  C   UNL A   1      30.784  26.990  24.298  1.00  0.00     0.267 C 
ATOM     12  H   UNL A   1      30.709  27.287  22.347  1.00  0.00     0.348 HD
ATOM     13  C   UNL A   1      33.484  27.245  23.261  1.00  0.00     0.122 C 
ATOM     14  C   UNL A   1      31.638  25.734  24.129  1.00  0.00     0.122 C 
BRANCH   9  15
ATOM     15  C   UNL A   1      30.007  29.006  23.096  1.00  0.00     0.195 C 
ATOM     16  C   UNL A   1      28.723  33.118  22.568  1.00  0.00     0.332 C 
ATOM     17  N   UNL A   1      29.437  31.852  22.690  1.00  0.00    -0.337 N 
ATOM     18  C   UNL A   1      29.031  30.889  21.664  1.00  0.00     0.268 C 
ATOM     19  C   UNL A   1      29.279  31.275  24.025  1.00  0.00     0.268 C 
ATOM     20  H   UNL A   1      30.425  32.062  22.545  1.00  0.00     0.347 HD
ATOM     21  C   UNL A   1      29.949  29.661  21.698  1.00  0.00     0.126 C 
ATOM     22  C   UNL A   1      30.233  30.091  24.166  1.00  0.00     0.126 C 
ENDBRANCH   9  15
BRANCH   8  23
ATOM     23  O   UNL A   1      34.056  24.976  24.012  1.00  0.00    -0.475 OA
BRANCH  23  24
ATOM     24  C   UNL A   1      33.526  23.738  23.790  1.00  0.00     0.121 A 
ATOM     25  C   UNL A   1      32.864  23.442  22.604  1.00  0.00     0.047 A 
ATOM     26  C   UNL A   1      33.802  22.723  24.707  1.00  0.00     0.055 A 
ATOM     27  C   UNL A   1      32.399  22.149  22.366  1.00  0.00     0.012 A 
ATOM     28  C   UNL A   1      33.364  21.407  24.469  1.00  0.00    -0.015 A 
ATOM     29  C   UNL A   1      32.639  21.123  23.289  1.00  0.00    -0.018 A 
ATOM     30  C   UNL A   1      33.644  20.360  25.364  1.00  0.00     0.009 A 
ATOM     31  C   UNL A   1      32.196  19.813  23.045  1.00  0.00     0.009 A 
ATOM     32  C   UNL A   1      33.207  19.060  25.101  1.00  0.00     0.001 A 
ATOM     33  C   UNL A   1      32.479  18.788  23.946  1.00  0.00     0.001 A 
ENDBRANCH  23  24
ENDBRANCH   8  23
ENDBRANCH   6   8
ENDBRANCH   5   6
ENDBRANCH   4   5
ENDBRANCH   3   4
ENDBRANCH   2   3
ENDBRANCH   1   2
BRANCH   1  34
ATOM     34  C   UNL A   1      35.162  30.970  28.982  1.00  0.00     0.261 C 
BRANCH  34  35
ATOM     35  O   UNL A   1      35.875  29.744  29.121  1.00  0.00    -0.460 OA
BRANCH  35  36
ATOM     36  C   UNL A   1      36.629  29.656  30.240  1.00  0.00     0.338 C 
ATOM     37  O   UNL A   1      36.253  29.558  31.393  1.00  0.00    -0.246 OA
BRANCH  36  38
ATOM     38  C   UNL A   1      38.037  29.575  29.837  1.00  0.00     0.060 A 
ATOM     39  C   UNL A   1      38.319  29.583  28.468  1.00  0.00     0.016 A 
ATOM     40  C   UNL A   1      39.049  29.422  30.787  1.00  0.00     0.016 A 
ATOM     41  C   UNL A   1      39.628  29.395  28.040  1.00  0.00     0.010 A 
ATOM     42  C   UNL A   1      40.363  29.232  30.352  1.00  0.00     0.010 A 
ATOM     43  C   UNL A   1      40.650  29.182  28.977  1.00  0.00    -0.014 A 
BRANCH  43  44
ATOM     44  C   UNL A   1      41.989  28.776  28.495  1.00  0.00     0.031 A 
ATOM     45  C   UNL A   1      43.092  29.797  28.459  1.00  0.00     0.074 A 
ATOM     46  C   UNL A   1      42.227  27.496  28.157  1.00  0.00     0.049 A 
ATOM     47  N   UNL A   1      44.351  29.641  28.142  1.00  0.00    -0.248 NA
ATOM     48  C   UNL A   1      42.729  31.174  28.833  1.00  0.00     0.031 C 
ATOM     49  C   UNL A   1      41.237  26.419  28.183  1.00  0.00     0.029 A 
ATOM     50  N   UNL A   1      43.380  26.885  27.738  1.00  0.00    -0.354 N 
ATOM     51  C   UNL A   1      44.932  30.896  28.283  1.00  0.00     0.074 A 
ATOM     52  C   UNL A   1      43.883  31.809  28.679  1.00  0.00     0.031 C 
ATOM     53  C   UNL A   1      41.830  25.274  27.802  1.00  0.00     0.029 A 
ATOM     54  C   UNL A   1      43.231  25.543  27.487  1.00  0.00     0.049 A 
ATOM     55  H   UNL A   1      44.234  27.363  27.627  1.00  0.00     0.167 HD
ATOM     56  C   UNL A   1      46.226  31.252  28.105  1.00  0.00     0.031 A 
ATOM     57  C   UNL A   1      44.125  24.635  27.048  1.00  0.00     0.031 A 
ATOM     58  C   UNL A   1      47.260  30.343  27.692  1.00  0.00     0.049 A 
ATOM     59  C   UNL A   1      45.546  25.067  26.805  1.00  0.00     0.074 A 
ATOM     60  C   UNL A   1      48.605  30.599  27.492  1.00  0.00     0.029 A 
ATOM     61  N   UNL A   1      47.062  28.999  27.408  1.00  0.00    -0.354 N 
ATOM     62  N   UNL A   1      46.088  26.250  26.976  1.00  0.00    -0.248 NA
ATOM     63  C   UNL A   1      46.479  24.040  26.322  1.00  0.00     0.031 C 
ATOM     64  C   UNL A   1      49.210  29.422  27.038  1.00  0.00     0.029 A 
ATOM     65  C   UNL A   1      48.253  28.419  27.009  1.00  0.00     0.049 A 
ATOM     66  H   UNL A   1      46.200  28.529  27.480  1.00  0.00     0.167 HD
ATOM     67  C   UNL A   1      47.429  26.105  26.642  1.00  0.00     0.074 A 
ATOM     68  C   UNL A   1      47.619  24.717  26.273  1.00  0.00     0.031 C 
ATOM     69  C   UNL A   1      48.417  27.035  26.641  1.00  0.00     0.031 A 
BRANCH  56  70
ATOM     70  C   UNL A   1      46.583  32.698  28.329  1.00  0.00    -0.014 A 
ATOM     71  C   UNL A   1      46.516  33.635  27.282  1.00  0.00     0.010 A 
ATOM     72  C   UNL A   1      46.970  33.130  29.610  1.00  0.00     0.010 A 
ATOM     73  C   UNL A   1      46.867  34.970  27.504  1.00  0.00     0.020 A 
ATOM     74  C   UNL A   1      47.299  34.469  29.841  1.00  0.00     0.020 A 
ATOM     75  C   UNL A   1      47.262  35.376  28.782  1.00  0.00     0.054 A 
BRANCH  75  76
ATOM     76  S   UNL A   1      47.700  37.118  29.047  1.00  0.00     0.124 S 
ATOM     77  O   UNL A   1      46.422  37.787  28.823  1.00  0.00    -0.237 OA
ATOM     78  O   UNL A   1      48.177  37.122  30.428  1.00  0.00    -0.237 OA
ATOM     79  O   UNL A   1      48.724  37.375  28.037  1.00  0.00    -0.744 OA
ENDBRANCH  75  76
ENDBRANCH  56  70
BRANCH  57  80
ATOM     80  C   UNL A   1      43.698  23.230  26.808  1.00  0.00    -0.014 A 
ATOM     81  C   UNL A   1      43.902  22.616  25.561  1.00  0.00     0.010 A 
ATOM     82  C   UNL A   1      43.094  22.492  27.844  1.00  0.00     0.010 A 
ATOM     83  C   UNL A   1      43.500  21.294  25.349  1.00  0.00     0.020 A 
ATOM     84  C   UNL A   1      42.712  21.162  27.643  1.00  0.00     0.020 A 
ATOM     85  C   UNL A   1      42.909  20.574  26.392  1.00  0.00     0.054 A 
BRANCH  85  86
ATOM     86  S   UNL A   1      42.448  18.841  26.115  1.00  0.00     0.124 S 
ATOM     87  O   UNL A   1      41.057  18.963  25.690  1.00  0.00    -0.237 OA
ATOM     88  O   UNL A   1      43.392  18.424  25.081  1.00  0.00    -0.237 OA
ATOM     89  O   UNL A   1      42.653  18.221  27.421  1.00  0.00    -0.744 OA
ENDBRANCH  85  86
ENDBRANCH  57  80
BRANCH  69  90
ATOM     90  C   UNL A   1      49.795  26.576  26.252  1.00  0.00    -0.014 A 
ATOM     91  C   UNL A   1      50.308  26.825  24.966  1.00  0.00     0.010 A 
ATOM     92  C   UNL A   1      50.609  25.937  27.205  1.00  0.00     0.010 A 
ATOM     93  C   UNL A   1      51.601  26.414  24.630  1.00  0.00     0.020 A 
ATOM     94  C   UNL A   1      51.911  25.548  26.881  1.00  0.00     0.020 A 
ATOM     95  C   UNL A   1      52.393  25.775  25.590  1.00  0.00     0.054 A 
BRANCH  95  96
ATOM     96  S   UNL A   1      54.083  25.288  25.146  1.00  0.00     0.124 S 
ATOM     97  O   UNL A   1      54.326  26.096  23.954  1.00  0.00    -0.237 OA
ATOM     98  O   UNL A   1      54.850  25.669  26.330  1.00  0.00    -0.237 OA
ATOM     99  O   UNL A   1      53.979  23.850  24.915  1.00  0.00    -0.744 OA
ENDBRANCH  95  96
ENDBRANCH  69  90
ENDBRANCH  43  44
ENDBRANCH  36  38
ENDBRANCH  35  36
ENDBRANCH  34  35
ENDBRANCH   1  34
TORSDOF 20
ENDMDL
MODEL 2
REMARK VINA RESULT:     -11.4      5.797      7.846
REMARK SMILES C[NH+]1CCC([NH+]2CCC(Oc3ccc4ccccc4c3)(C(=O)OCCOCCOC(=O)c3ccc(-c4c5nc(c(-c6ccc(S(=O)(=O)[O-])cc6)c6ccc([nH]6)c(-c6ccc(S(=O)(=O)[O-])cc6)c6nc(c(-c7ccc(S(=O)(=O)[O-])cc7)c7ccc4[nH]7)C=C6)C=C5)cc3)CC2)CC1
REMARK SMILES IDX 27 1 26 2 25 3 24 4 23 5 21 6 22 7 9 8 6 9 7 10 93 11 8 13
REMARK SMILES IDX 92 14 5 15 1 16 2 17 3 18 95 19 4 21 94 22 10 23 11 24 12 25
REMARK SMILES IDX 20 26 13 27 19 28 14 29 18 30 15 31 17 32 16 33 28 34 29 35
REMARK SMILES IDX 30 36 31 37 32 38 33 39 91 40 34 41 90 42 35 43 36 44 37 45
REMARK SMILES IDX 84 46 38 47 89 48 83 49 85 50 39 51 88 52 82 53 81 54 40 56
REMARK SMILES IDX 70 57 51 58 69 59 52 60 55 61 68 62 86 63 53 64 54 65 67 67
REMARK SMILES IDX 87 68 56 69 41 70 42 71 50 72 43 73 49 74 44 75 45 76 46 77
REMARK SMILES IDX 47 78 48 79 71 80 72 81 80 82 73 83 79 84 74 85 75 86 76 87
REMARK SMILES IDX 77 88 78 89 57 90 58 91 66 92 59 93 65 94 60 95 61 96 62 97
REMARK SMILES IDX 63 98 64 99
REMARK H PARENT 6 12 2 20 85 55 55 66
REMARK Flexibility Score: inf
ROOT
ATOM      1  C   UNL A   1      32.942  30.829  26.764  1.00  0.00     0.202 C 
ENDROOT
BRANCH   1   2
ATOM      2  O   UNL A   1      31.844  30.002  27.102  1.00  0.00    -0.374 OA
BRANCH   2   3
ATOM      3  C   UNL A   1      32.061  28.591  27.119  1.00  0.00     0.202 C 
BRANCH   3   4
ATOM      4  C   UNL A   1      33.467  28.068  26.797  1.00  0.00     0.261 C 
BRANCH   4   5
ATOM      5  O   UNL A   1      33.574  27.392  25.523  1.00  0.00    -0.460 OA
BRANCH   5   6
ATOM      6  C   UNL A   1      33.275  26.059  25.523  1.00  0.00     0.351 C 
ATOM      7  O   UNL A   1      33.311  25.365  26.538  1.00  0.00    -0.247 OA
BRANCH   6   8
ATOM      8  C   UNL A   1      32.957  25.476  24.121  1.00  0.00     0.216 C 
ATOM      9  N   UNL A   1      30.799  26.972  22.680  1.00  0.00    -0.332 N 
ATOM     10  C   UNL A   1      32.192  27.254  22.334  1.00  0.00     0.267 C 
ATOM     11  C   UNL A   1      30.608  26.366  23.993  1.00  0.00     0.267 C 
ATOM     12  H   UNL A   1      30.547  26.234  22.023  1.00  0.00     0.348 HD
ATOM     13  C   UNL A   1      33.314  26.396  22.943  1.00  0.00     0.122 C 
ATOM     14  C   UNL A   1      31.463  25.105  24.106  1.00  0.00     0.122 C 
BRANCH   9  15
ATOM     15  C   UNL A   1      29.839  28.073  22.377  1.00  0.00     0.195 C 
ATOM     16  C   UNL A   1      27.650  31.758  23.065  1.00  0.00     0.332 C 
ATOM     17  N   UNL A   1      28.502  30.575  23.116  1.00  0.00    -0.337 N 
ATOM     18  C   UNL A   1      29.540  30.597  22.082  1.00  0.00     0.268 C 
ATOM     19  C   UNL A   1      27.717  29.344  23.026  1.00  0.00     0.268 C 
ATOM     20  H   UNL A   1      28.969  30.594  24.024  1.00  0.00     0.347 HD
ATOM     21  C   UNL A   1      30.533  29.451  22.304  1.00  0.00     0.126 C 
ATOM     22  C   UNL A   1      28.627  28.156  23.324  1.00  0.00     0.126 C 
ENDBRANCH   9  15
BRANCH   8  23
ATOM     23  O   UNL A   1      33.882  24.344  24.173  1.00  0.00    -0.475 OA
BRANCH  23  24
ATOM     24  C   UNL A   1      33.384  23.098  23.924  1.00  0.00     0.121 A 
ATOM     25  C   UNL A   1      32.878  22.762  22.674  1.00  0.00     0.047 A 
ATOM     26  C   UNL A   1      33.541  22.113  24.901  1.00  0.00     0.055 A 
ATOM     27  C   UNL A   1      32.446  21.460  22.420  1.00  0.00     0.012 A 
ATOM     28  C   UNL A   1      33.137  20.789  24.651  1.00  0.00    -0.015 A 
ATOM     29  C   UNL A   1      32.567  20.465  23.398  1.00  0.00    -0.018 A 
ATOM     30  C   UNL A   1      33.300  19.772  25.606  1.00  0.00     0.009 A 
ATOM     31  C   UNL A   1      32.158  19.146  23.142  1.00  0.00     0.009 A 
ATOM     32  C   UNL A   1      32.900  18.462  25.332  1.00  0.00     0.001 A 
ATOM     33  C   UNL A   1      32.325  18.151  24.103  1.00  0.00     0.001 A 
ENDBRANCH  23  24
ENDBRANCH   8  23
ENDBRANCH   6   8
ENDBRANCH   5   6
ENDBRANCH   4   5
ENDBRANCH   3   4
ENDBRANCH   2   3
ENDBRANCH   1   2
BRANCH   1  34
ATOM     34  C   UNL A   1      33.523  31.737  27.850  1.00  0.00     0.261 C 
BRANCH  34  35
ATOM     35  O   UNL A   1      33.572  33.128  27.544  1.00  0.00    -0.460 OA
BRANCH  35  36
ATOM     36  C   UNL A   1      33.515  33.943  28.622  1.00  0.00     0.338 C 
ATOM     37  O   UNL A   1      32.656  34.758  28.903  1.00  0.00    -0.246 OA
BRANCH  36  38
ATOM     38  C   UNL A   1      34.633  33.605  29.510  1.00  0.00     0.060 A 
ATOM     39  C   UNL A   1      35.917  33.977  29.102  1.00  0.00     0.016 A 
ATOM     40  C   UNL A   1      34.425  32.877  30.683  1.00  0.00     0.016 A 
ATOM     41  C   UNL A   1      37.014  33.579  29.857  1.00  0.00     0.010 A 
ATOM     42  C   UNL A   1      35.530  32.478  31.438  1.00  0.00     0.010 A 
ATOM     43  C   UNL A   1      36.829  32.798  31.007  1.00  0.00    -0.014 A 
BRANCH  43  44
ATOM     44  C   UNL A   1      38.015  32.211  31.671  1.00  0.00     0.031 A 
ATOM     45  C   UNL A   1      38.465  32.775  32.990  1.00  0.00     0.074 A 
ATOM     46  C   UNL A   1      38.638  31.149  31.130  1.00  0.00     0.049 A 
ATOM     47  N   UNL A   1      39.429  32.370  33.775  1.00  0.00    -0.248 NA
ATOM     48  C   UNL A   1      37.729  33.947  33.493  1.00  0.00     0.031 C 
ATOM     49  C   UNL A   1      38.267  30.506  29.869  1.00  0.00     0.029 A 
ATOM     50  N   UNL A   1      39.706  30.418  31.580  1.00  0.00    -0.354 N 
ATOM     51  C   UNL A   1      39.414  33.232  34.866  1.00  0.00     0.074 A 
ATOM     52  C   UNL A   1      38.369  34.202  34.626  1.00  0.00     0.031 C 
ATOM     53  C   UNL A   1      39.093  29.468  29.651  1.00  0.00     0.029 A 
ATOM     54  C   UNL A   1      40.060  29.388  30.743  1.00  0.00     0.049 A 
ATOM     55  H   UNL A   1      40.176  30.613  32.423  1.00  0.00     0.167 HD
ATOM     56  C   UNL A   1      40.195  33.210  35.971  1.00  0.00     0.031 A 
ATOM     57  C   UNL A   1      41.056  28.486  30.845  1.00  0.00     0.031 A 
ATOM     58  C   UNL A   1      41.245  32.252  36.194  1.00  0.00     0.049 A 
ATOM     59  C   UNL A   1      41.947  28.516  32.057  1.00  0.00     0.074 A 
ATOM     60  C   UNL A   1      42.089  32.136  37.284  1.00  0.00     0.029 A 
ATOM     61  N   UNL A   1      41.599  31.249  35.303  1.00  0.00    -0.354 N 
ATOM     62  N   UNL A   1      41.897  29.316  33.097  1.00  0.00    -0.248 NA
ATOM     63  C   UNL A   1      43.020  27.514  32.118  1.00  0.00     0.031 C 
ATOM     64  C   UNL A   1      42.987  31.093  37.030  1.00  0.00     0.029 A 
ATOM     65  C   UNL A   1      42.666  30.526  35.806  1.00  0.00     0.049 A 
ATOM     66  H   UNL A   1      41.157  31.078  34.441  1.00  0.00     0.167 HD
ATOM     67  C   UNL A   1      42.918  28.901  33.945  1.00  0.00     0.074 A 
ATOM     68  C   UNL A   1      43.558  27.770  33.303  1.00  0.00     0.031 C 
ATOM     69  C   UNL A   1      43.292  29.407  35.146  1.00  0.00     0.031 A 
BRANCH  56  70
ATOM     70  C   UNL A   1      39.958  34.275  37.008  1.00  0.00    -0.014 A 
ATOM     71  C   UNL A   1      40.544  35.549  36.889  1.00  0.00     0.010 A 
ATOM     72  C   UNL A   1      39.120  34.007  38.105  1.00  0.00     0.010 A 
ATOM     73  C   UNL A   1      40.326  36.521  37.870  1.00  0.00     0.020 A 
ATOM     74  C   UNL A   1      38.881  34.984  39.075  1.00  0.00     0.020 A 
ATOM     75  C   UNL A   1      39.500  36.230  38.960  1.00  0.00     0.054 A 
BRANCH  75  76
ATOM     76  S   UNL A   1      39.223  37.514  40.212  1.00  0.00     0.124 S 
ATOM     77  O   UNL A   1      40.531  38.158  40.278  1.00  0.00    -0.237 OA
ATOM     78  O   UNL A   1      38.156  38.317  39.620  1.00  0.00    -0.237 OA
ATOM     79  O   UNL A   1      38.840  36.759  41.404  1.00  0.00    -0.744 OA
ENDBRANCH  75  76
ENDBRANCH  56  70
BRANCH  57  80
ATOM     80  C   UNL A   1      41.261  27.484  29.765  1.00  0.00    -0.014 A 
ATOM     81  C   UNL A   1      40.232  26.603  29.392  1.00  0.00     0.010 A 
ATOM     82  C   UNL A   1      42.495  27.419  29.090  1.00  0.00     0.010 A 
ATOM     83  C   UNL A   1      40.435  25.667  28.373  1.00  0.00     0.020 A 
ATOM     84  C   UNL A   1      42.694  26.502  28.055  1.00  0.00     0.020 A 
ATOM     85  C   UNL A   1      41.665  25.624  27.709  1.00  0.00     0.054 A 
BRANCH  85  86
ATOM     86  S   UNL A   1      41.890  24.443  26.349  1.00  0.00     0.124 S 
ATOM     87  O   UNL A   1      43.222  23.916  26.624  1.00  0.00    -0.237 OA
ATOM     88  O   UNL A   1      40.784  23.511  26.555  1.00  0.00    -0.237 OA
ATOM     89  O   UNL A   1      41.779  25.275  25.154  1.00  0.00    -0.744 OA
ENDBRANCH  85  86
ENDBRANCH  57  80
BRANCH  69  90
ATOM     90  C   UNL A   1      44.431  28.728  35.856  1.00  0.00    -0.014 A 
ATOM     91  C   UNL A   1      45.750  29.200  35.730  1.00  0.00     0.010 A 
ATOM     92  C   UNL A   1      44.168  27.637  36.704  1.00  0.00     0.010 A 
ATOM     93  C   UNL A   1      46.792  28.572  36.418  1.00  0.00     0.020 A 
ATOM     94  C   UNL A   1      45.204  27.023  37.413  1.00  0.00     0.020 A 
ATOM     95  C   UNL A   1      46.512  27.485  37.253  1.00  0.00     0.054 A 
BRANCH  95  96
ATOM     96  S   UNL A   1      47.874  26.712  38.168  1.00  0.00     0.124 S 
ATOM     97  O   UNL A   1      47.801  27.398  39.455  1.00  0.00    -0.237 OA
ATOM     98  O   UNL A   1      47.492  25.302  38.186  1.00  0.00    -0.237 OA
ATOM     99  O   UNL A   1      49.052  27.021  37.362  1.00  0.00    -0.744 OA
ENDBRANCH  95  96
ENDBRANCH  69  90
ENDBRANCH  43  44
ENDBRANCH  36  38
ENDBRANCH  35  36
ENDBRANCH  34  35
ENDBRANCH   1  34
TORSDOF 20
ENDMDL
MODEL 3
REMARK VINA RESULT:     -11.2      5.042      8.835
REMARK SMILES C[NH+]1CCC([NH+]2CCC(Oc3ccc4ccccc4c3)(C(=O)OCCOCCOC(=O)c3ccc(-c4c5nc(c(-c6ccc(S(=O)(=O)[O-])cc6)c6ccc([nH]6)c(-c6ccc(S(=O)(=O)[O-])cc6)c6nc(c(-c7ccc(S(=O)(=O)[O-])cc7)c7ccc4[nH]7)C=C6)C=C5)cc3)CC2)CC1
REMARK SMILES IDX 27 1 26 2 25 3 24 4 23 5 21 6 22 7 9 8 6 9 7 10 93 11 8 13
REMARK SMILES IDX 92 14 5 15 1 16 2 17 3 18 95 19 4 21 94 22 10 23 11 24 12 25
REMARK SMILES IDX 20 26 13 27 19 28 14 29 18 30 15 31 17 32 16 33 28 34 29 35
REMARK SMILES IDX 30 36 31 37 32 38 33 39 91 40 34 41 90 42 35 43 36 44 37 45
REMARK SMILES IDX 84 46 38 47 89 48 83 49 85 50 39 51 88 52 82 53 81 54 40 56
REMARK SMILES IDX 70 57 51 58 69 59 52 60 55 61 68 62 86 63 53 64 54 65 67 67
REMARK SMILES IDX 87 68 56 69 41 70 42 71 50 72 43 73 49 74 44 75 45 76 46 77
REMARK SMILES IDX 47 78 48 79 71 80 72 81 80 82 73 83 79 84 74 85 75 86 76 87
REMARK SMILES IDX 77 88 78 89 57 90 58 91 66 92 59 93 65 94 60 95 61 96 62 97
REMARK SMILES IDX 63 98 64 99
REMARK H PARENT 6 12 2 20 85 55 55 66
REMARK Flexibility Score: inf
ROOT
ATOM      1  C   UNL A   1      34.591  33.139  29.550  1.00  0.00     0.202 C 
ENDROOT
BRANCH   1   2
ATOM      2  O   UNL A   1      34.797  34.482  29.946  1.00  0.00    -0.374 OA
BRANCH   2   3
ATOM      3  C   UNL A   1      33.899  35.032  30.909  1.00  0.00     0.202 C 
BRANCH   3   4
ATOM      4  C   UNL A   1      34.400  35.215  32.348  1.00  0.00     0.261 C 
BRANCH   4   5
ATOM      5  O   UNL A   1      35.779  34.828  32.552  1.00  0.00    -0.460 OA
BRANCH   5   6
ATOM      6  C   UNL A   1      35.982  33.590  33.094  1.00  0.00     0.351 C 
ATOM      7  O   UNL A   1      35.062  32.860  33.457  1.00  0.00    -0.247 OA
BRANCH   6   8
ATOM      8  C   UNL A   1      37.475  33.214  33.281  1.00  0.00     0.216 C 
ATOM      9  N   UNL A   1      38.359  33.264  36.142  1.00  0.00    -0.332 N 
ATOM     10  C   UNL A   1      38.027  31.974  35.538  1.00  0.00     0.267 C 
ATOM     11  C   UNL A   1      37.779  34.419  35.467  1.00  0.00     0.267 C 
ATOM     12  H   UNL A   1      39.360  33.347  35.967  1.00  0.00     0.348 HD
ATOM     13  C   UNL A   1      37.720  31.896  34.032  1.00  0.00     0.122 C 
ATOM     14  C   UNL A   1      38.161  34.396  33.988  1.00  0.00     0.122 C 
BRANCH   9  15
ATOM     15  C   UNL A   1      38.244  33.313  37.629  1.00  0.00     0.195 C 
ATOM     16  C   UNL A   1      38.821  31.980  41.719  1.00  0.00     0.332 C 
ATOM     17  N   UNL A   1      38.779  32.166  40.273  1.00  0.00    -0.337 N 
ATOM     18  C   UNL A   1      39.517  33.359  39.848  1.00  0.00     0.268 C 
ATOM     19  C   UNL A   1      37.403  32.214  39.779  1.00  0.00     0.268 C 
ATOM     20  H   UNL A   1      39.241  31.354  39.863  1.00  0.00     0.347 HD
ATOM     21  C   UNL A   1      39.623  33.399  38.320  1.00  0.00     0.126 C 
ATOM     22  C   UNL A   1      37.425  32.168  38.254  1.00  0.00     0.126 C 
ENDBRANCH   9  15
BRANCH   8  23
ATOM     23  O   UNL A   1      37.808  33.053  31.866  1.00  0.00    -0.475 OA
BRANCH  23  24
ATOM     24  C   UNL A   1      39.028  33.491  31.441  1.00  0.00     0.121 A 
ATOM     25  C   UNL A   1      40.201  33.035  32.032  1.00  0.00     0.047 A 
ATOM     26  C   UNL A   1      39.088  34.281  30.292  1.00  0.00     0.055 A 
ATOM     27  C   UNL A   1      41.440  33.435  31.531  1.00  0.00     0.012 A 
ATOM     28  C   UNL A   1      40.330  34.670  29.756  1.00  0.00    -0.015 A 
ATOM     29  C   UNL A   1      41.520  34.253  30.397  1.00  0.00    -0.018 A 
ATOM     30  C   UNL A   1      40.422  35.448  28.590  1.00  0.00     0.009 A 
ATOM     31  C   UNL A   1      42.763  34.640  29.870  1.00  0.00     0.009 A 
ATOM     32  C   UNL A   1      41.667  35.814  28.072  1.00  0.00     0.001 A 
ATOM     33  C   UNL A   1      42.836  35.416  28.715  1.00  0.00     0.001 A 
ENDBRANCH  23  24
ENDBRANCH   8  23
ENDBRANCH   6   8
ENDBRANCH   5   6
ENDBRANCH   4   5
ENDBRANCH   3   4
ENDBRANCH   2   3
ENDBRANCH   1   2
BRANCH   1  34
ATOM     34  C   UNL A   1      35.722  32.423  28.809  1.00  0.00     0.261 C 
BRANCH  34  35
ATOM     35  O   UNL A   1      35.773  31.007  28.960  1.00  0.00    -0.460 OA
BRANCH  35  36
ATOM     36  C   UNL A   1      36.469  30.580  30.038  1.00  0.00     0.338 C 
ATOM     37  O   UNL A   1      36.141  30.624  31.209  1.00  0.00    -0.246 OA
BRANCH  36  38
ATOM     38  C   UNL A   1      37.688  29.917  29.562  1.00  0.00     0.060 A 
ATOM     39  C   UNL A   1      38.630  29.531  30.519  1.00  0.00     0.016 A 
ATOM     40  C   UNL A   1      37.926  29.746  28.197  1.00  0.00     0.016 A 
ATOM     41  C   UNL A   1      39.846  29.003  30.104  1.00  0.00     0.010 A 
ATOM     42  C   UNL A   1      39.150  29.215  27.784  1.00  0.00     0.010 A 
ATOM     43  C   UNL A   1      40.127  28.876  28.736  1.00  0.00    -0.014 A 
BRANCH  43  44
ATOM     44  C   UNL A   1      41.500  28.512  28.319  1.00  0.00     0.031 A 
ATOM     45  C   UNL A   1      42.565  29.573  28.311  1.00  0.00     0.074 A 
ATOM     46  C   UNL A   1      41.799  27.236  28.014  1.00  0.00     0.049 A 
ATOM     47  N   UNL A   1      43.841  29.460  28.050  1.00  0.00    -0.248 NA
ATOM     48  C   UNL A   1      42.136  30.942  28.644  1.00  0.00     0.031 C 
ATOM     49  C   UNL A   1      40.850  26.123  28.017  1.00  0.00     0.029 A 
ATOM     50  N   UNL A   1      42.991  26.662  27.656  1.00  0.00    -0.354 N 
ATOM     51  C   UNL A   1      44.369  30.738  28.193  1.00  0.00     0.074 A 
ATOM     52  C   UNL A   1      43.270  31.617  28.528  1.00  0.00     0.031 C 
ATOM     53  C   UNL A   1      41.501  24.995  27.683  1.00  0.00     0.029 A 
ATOM     54  C   UNL A   1      42.903  25.312  27.423  1.00  0.00     0.049 A 
ATOM     55  H   UNL A   1      43.831  27.170  27.572  1.00  0.00     0.167 HD
ATOM     56  C   UNL A   1      45.655  31.140  28.064  1.00  0.00     0.031 A 
ATOM     57  C   UNL A   1      43.848  24.431  27.039  1.00  0.00     0.031 A 
ATOM     58  C   UNL A   1      46.740  30.263  27.712  1.00  0.00     0.049 A 
ATOM     59  C   UNL A   1      45.261  24.912  26.848  1.00  0.00     0.074 A 
ATOM     60  C   UNL A   1      48.081  30.567  27.564  1.00  0.00     0.029 A 
ATOM     61  N   UNL A   1      46.603  28.908  27.444  1.00  0.00    -0.354 N 
ATOM     62  N   UNL A   1      45.751  26.118  27.021  1.00  0.00    -0.248 NA
ATOM     63  C   UNL A   1      46.252  23.914  26.424  1.00  0.00     0.031 C 
ATOM     64  C   UNL A   1      48.749  29.406  27.159  1.00  0.00     0.029 A 
ATOM     65  C   UNL A   1      47.831  28.367  27.107  1.00  0.00     0.049 A 
ATOM     66  H   UNL A   1      45.757  28.407  27.488  1.00  0.00     0.167 HD
ATOM     67  C   UNL A   1      47.110  26.018  26.747  1.00  0.00     0.074 A 
ATOM     68  C   UNL A   1      47.367  24.632  26.412  1.00  0.00     0.031 C 
ATOM     69  C   UNL A   1      48.062  26.985  26.771  1.00  0.00     0.031 A 
BRANCH  56  70
ATOM     70  C   UNL A   1      45.949  32.602  28.277  1.00  0.00    -0.014 A 
ATOM     71  C   UNL A   1      46.277  33.099  29.551  1.00  0.00     0.010 A 
ATOM     72  C   UNL A   1      45.917  33.485  27.183  1.00  0.00     0.010 A 
ATOM     73  C   UNL A   1      46.532  34.462  29.733  1.00  0.00     0.020 A 
ATOM     74  C   UNL A   1      46.194  34.844  27.358  1.00  0.00     0.020 A 
ATOM     75  C   UNL A   1      46.482  35.327  28.636  1.00  0.00     0.054 A 
BRANCH  75  76
ATOM     76  S   UNL A   1      46.829  37.089  28.896  1.00  0.00     0.124 S 
ATOM     77  O   UNL A   1      46.598  37.232  30.331  1.00  0.00    -0.237 OA
ATOM     78  O   UNL A   1      48.221  37.210  28.469  1.00  0.00    -0.237 OA
ATOM     79  O   UNL A   1      45.857  37.764  28.039  1.00  0.00    -0.744 OA
ENDBRANCH  75  76
ENDBRANCH  56  70
BRANCH  57  80
ATOM     80  C   UNL A   1      43.484  23.008  26.807  1.00  0.00    -0.014 A 
ATOM     81  C   UNL A   1      43.544  22.447  25.519  1.00  0.00     0.010 A 
ATOM     82  C   UNL A   1      43.088  22.197  27.887  1.00  0.00     0.010 A 
ATOM     83  C   UNL A   1      43.203  21.107  25.314  1.00  0.00     0.020 A 
ATOM     84  C   UNL A   1      42.769  20.851  27.690  1.00  0.00     0.020 A 
ATOM     85  C   UNL A   1      42.820  20.316  26.401  1.00  0.00     0.054 A 
BRANCH  85  86
ATOM     86  S   UNL A   1      42.438  18.564  26.124  1.00  0.00     0.124 S 
ATOM     87  O   UNL A   1      42.721  17.982  27.431  1.00  0.00    -0.237 OA
ATOM     88  O   UNL A   1      41.029  18.604  25.739  1.00  0.00    -0.237 OA
ATOM     89  O   UNL A   1      43.356  18.180  25.054  1.00  0.00    -0.744 OA
ENDBRANCH  85  86
ENDBRANCH  57  80
BRANCH  69  90
ATOM     90  C   UNL A   1      49.472  26.572  26.449  1.00  0.00    -0.014 A 
ATOM     91  C   UNL A   1      50.278  25.930  27.406  1.00  0.00     0.010 A 
ATOM     92  C   UNL A   1      49.976  26.780  25.152  1.00  0.00     0.010 A 
ATOM     93  C   UNL A   1      51.577  25.530  27.080  1.00  0.00     0.020 A 
ATOM     94  C   UNL A   1      51.265  26.359  24.815  1.00  0.00     0.020 A 
ATOM     95  C   UNL A   1      52.062  25.749  25.786  1.00  0.00     0.054 A 
BRANCH  95  96
ATOM     96  S   UNL A   1      53.736  25.184  25.373  1.00  0.00     0.124 S 
ATOM     97  O   UNL A   1      54.539  25.841  26.400  1.00  0.00    -0.237 OA
ATOM     98  O   UNL A   1      53.626  23.732  25.495  1.00  0.00    -0.237 OA
ATOM     99  O   UNL A   1      53.940  25.674  24.012  1.00  0.00    -0.744 OA
ENDBRANCH  95  96
ENDBRANCH  69  90
ENDBRANCH  43  44
ENDBRANCH  36  38
ENDBRANCH  35  36
ENDBRANCH  34  35
ENDBRANCH   1  34
TORSDOF 20
ENDMDL
