MODEL 1
REMARK VINA RESULT:     -10.1      0.000      0.000
REMARK SMILES Cc1cc2c(cc1C)O[C@H](C(=O)OCCOCCOC(=O)c1ccc(-c3c4nc(c(-c5ccc(S(=O)(=O)[O-])cc5)c5ccc([nH]5)c(-c5ccc(S(=O)(=O)[O-])cc5)c5nc(c(-c6ccc(S(=O)(=O)[O-])cc6)c6ccc3[nH]6)C=C5)C=C4)cc1)C2
REMARK SMILES IDX 17 1 16 2 15 3 14 4 13 5 11 6 12 7 10 8 1 9 2 10 3 11 7 12
REMARK SMILES IDX 4 13 6 14 8 15 5 16 82 17 9 18 18 19 19 20 20 21 21 22 22 23
REMARK SMILES IDX 23 24 81 25 24 26 80 27 25 28 26 29 27 30 74 31 28 32 79 33
REMARK SMILES IDX 73 34 75 35 29 36 78 37 72 38 71 39 30 41 60 42 41 43 59 44
REMARK SMILES IDX 42 45 45 46 58 47 76 48 43 49 44 50 57 52 77 53 46 54 31 55
REMARK SMILES IDX 32 56 40 57 33 58 39 59 34 60 35 61 36 62 37 63 38 64 61 65
REMARK SMILES IDX 62 66 70 67 63 68 69 69 64 70 65 71 66 72 67 73 68 74 47 75
REMARK SMILES IDX 48 76 56 77 49 78 55 79 50 80 51 81 52 82 53 83 54 84
REMARK H PARENT 75 40 45 51
REMARK Flexibility Score: inf
ROOT
ATOM      1  C   UNL A   1      41.096  19.928  26.849  1.00  0.00     0.202 C 
ENDROOT
BRANCH   1   2
ATOM      2  O   UNL A   1      42.222  19.406  27.547  1.00  0.00    -0.374 OA
BRANCH   2   3
ATOM      3  C   UNL A   1      43.000  18.385  26.933  1.00  0.00     0.202 C 
BRANCH   3   4
ATOM      4  C   UNL A   1      43.469  18.584  25.486  1.00  0.00     0.261 C 
BRANCH   4   5
ATOM      5  O   UNL A   1      44.877  18.337  25.274  1.00  0.00    -0.460 OA
BRANCH   5   6
ATOM      6  C   UNL A   1      45.448  19.199  24.398  1.00  0.00     0.347 C 
ATOM      7  O   UNL A   1      46.146  18.845  23.448  1.00  0.00    -0.248 OA
BRANCH   6   8
ATOM      8  C   UNL A   1      45.137  20.661  24.600  1.00  0.00     0.287 C 
ATOM      9  C   UNL A   1      43.859  26.084  26.096  1.00  0.00     0.044 C 
ATOM     10  C   UNL A   1      44.690  24.878  25.736  1.00  0.00    -0.048 A 
ATOM     11  C   UNL A   1      44.258  24.073  24.647  1.00  0.00     0.011 A 
ATOM     12  C   UNL A   1      45.797  24.471  26.534  1.00  0.00    -0.045 A 
ATOM     13  C   UNL A   1      44.911  22.876  24.404  1.00  0.00    -0.001 A 
ATOM     14  C   UNL A   1      46.523  23.332  26.175  1.00  0.00     0.050 A 
ATOM     15  C   UNL A   1      46.143  25.053  27.879  1.00  0.00     0.045 C 
ATOM     16  C   UNL A   1      46.026  22.551  25.163  1.00  0.00     0.124 A 
ATOM     17  C   UNL A   1      44.541  21.656  23.599  1.00  0.00     0.097 C 
ATOM     18  O   UNL A   1      46.409  21.245  25.007  1.00  0.00    -0.478 OA
ENDBRANCH   6   8
ENDBRANCH   5   6
ENDBRANCH   4   5
ENDBRANCH   3   4
ENDBRANCH   2   3
ENDBRANCH   1   2
BRANCH   1  19
ATOM     19  C   UNL A   1      40.937  21.455  26.741  1.00  0.00     0.261 C 
BRANCH  19  20
ATOM     20  O   UNL A   1      39.647  21.937  27.162  1.00  0.00    -0.460 OA
BRANCH  20  21
ATOM     21  C   UNL A   1      39.096  22.902  26.379  1.00  0.00     0.338 C 
ATOM     22  O   UNL A   1      38.369  22.743  25.418  1.00  0.00    -0.246 OA
BRANCH  21  23
ATOM     23  C   UNL A   1      39.339  24.226  26.993  1.00  0.00     0.060 A 
ATOM     24  C   UNL A   1      38.950  24.490  28.305  1.00  0.00     0.016 A 
ATOM     25  C   UNL A   1      40.027  25.197  26.249  1.00  0.00     0.016 A 
ATOM     26  C   UNL A   1      39.268  25.726  28.876  1.00  0.00     0.010 A 
ATOM     27  C   UNL A   1      40.341  26.432  26.822  1.00  0.00     0.010 A 
ATOM     28  C   UNL A   1      39.980  26.701  28.148  1.00  0.00    -0.014 A 
BRANCH  28  29
ATOM     29  C   UNL A   1      40.466  27.925  28.840  1.00  0.00     0.031 A 
ATOM     30  C   UNL A   1      41.895  28.082  29.271  1.00  0.00     0.074 A 
ATOM     31  C   UNL A   1      39.586  28.923  29.055  1.00  0.00     0.049 A 
ATOM     32  N   UNL A   1      42.500  29.157  29.707  1.00  0.00    -0.248 NA
ATOM     33  C   UNL A   1      42.754  26.891  29.213  1.00  0.00     0.031 C 
ATOM     34  C   UNL A   1      38.160  28.862  28.731  1.00  0.00     0.029 A 
ATOM     35  N   UNL A   1      39.759  30.189  29.560  1.00  0.00    -0.354 N 
ATOM     36  C   UNL A   1      43.818  28.786  29.943  1.00  0.00     0.074 A 
ATOM     37  C   UNL A   1      43.909  27.368  29.662  1.00  0.00     0.031 C 
ATOM     38  C   UNL A   1      37.603  30.056  28.978  1.00  0.00     0.029 A 
ATOM     39  C   UNL A   1      38.622  30.960  29.507  1.00  0.00     0.049 A 
ATOM     40  H   UNL A   1      40.615  30.513  29.923  1.00  0.00     0.167 HD
ATOM     41  C   UNL A   1      44.857  29.566  30.328  1.00  0.00     0.031 A 
ATOM     42  C   UNL A   1      38.419  32.257  29.817  1.00  0.00     0.031 A 
ATOM     43  C   UNL A   1      44.746  30.974  30.628  1.00  0.00     0.049 A 
ATOM     44  C   UNL A   1      39.585  33.093  30.265  1.00  0.00     0.074 A 
ATOM     45  C   UNL A   1      45.754  31.855  30.984  1.00  0.00     0.029 A 
ATOM     46  N   UNL A   1      43.568  31.707  30.616  1.00  0.00    -0.354 N 
ATOM     47  N   UNL A   1      40.847  32.752  30.378  1.00  0.00    -0.248 NA
ATOM     48  C   UNL A   1      39.306  34.495  30.606  1.00  0.00     0.031 C 
ATOM     49  C   UNL A   1      45.177  33.096  31.264  1.00  0.00     0.029 A 
ATOM     50  C   UNL A   1      43.819  33.017  30.997  1.00  0.00     0.049 A 
ATOM     51  H   UNL A   1      42.683  31.350  30.373  1.00  0.00     0.167 HD
ATOM     52  C   UNL A   1      41.514  33.901  30.791  1.00  0.00     0.074 A 
ATOM     53  C   UNL A   1      40.523  34.954  30.866  1.00  0.00     0.031 C 
ATOM     54  C   UNL A   1      42.828  34.063  31.090  1.00  0.00     0.031 A 
BRANCH  41  55
ATOM     55  C   UNL A   1      46.231  28.947  30.415  1.00  0.00    -0.014 A 
ATOM     56  C   UNL A   1      47.098  28.984  29.306  1.00  0.00     0.010 A 
ATOM     57  C   UNL A   1      46.597  28.181  31.538  1.00  0.00     0.010 A 
ATOM     58  C   UNL A   1      48.275  28.229  29.298  1.00  0.00     0.020 A 
ATOM     59  C   UNL A   1      47.789  27.450  31.545  1.00  0.00     0.020 A 
ATOM     60  C   UNL A   1      48.605  27.454  30.413  1.00  0.00     0.054 A 
BRANCH  60  61
ATOM     61  S   UNL A   1      50.098  26.424  30.353  1.00  0.00     0.124 S 
ATOM     62  O   UNL A   1      51.083  27.269  31.022  1.00  0.00    -0.237 OA
ATOM     63  O   UNL A   1      49.687  25.229  31.086  1.00  0.00    -0.237 OA
ATOM     64  O   UNL A   1      50.317  26.223  28.921  1.00  0.00    -0.744 OA
ENDBRANCH  60  61
ENDBRANCH  41  55
BRANCH  42  65
ATOM     65  C   UNL A   1      37.063  32.849  29.632  1.00  0.00    -0.014 A 
ATOM     66  C   UNL A   1      36.605  33.200  28.347  1.00  0.00     0.010 A 
ATOM     67  C   UNL A   1      36.250  33.132  30.743  1.00  0.00     0.010 A 
ATOM     68  C   UNL A   1      35.392  33.874  28.184  1.00  0.00     0.020 A 
ATOM     69  C   UNL A   1      35.016  33.770  30.580  1.00  0.00     0.020 A 
ATOM     70  C   UNL A   1      34.610  34.164  29.304  1.00  0.00     0.054 A 
BRANCH  70  71
ATOM     71  S   UNL A   1      33.064  35.084  29.070  1.00  0.00     0.124 S 
ATOM     72  O   UNL A   1      32.411  34.307  28.019  1.00  0.00    -0.237 OA
ATOM     73  O   UNL A   1      32.444  35.003  30.390  1.00  0.00    -0.237 OA
ATOM     74  O   UNL A   1      33.514  36.416  28.676  1.00  0.00    -0.744 OA
ENDBRANCH  70  71
ENDBRANCH  42  65
BRANCH  54  75
ATOM     75  C   UNL A   1      43.284  35.426  31.555  1.00  0.00    -0.014 A 
ATOM     76  C   UNL A   1      43.190  35.779  32.914  1.00  0.00     0.010 A 
ATOM     77  C   UNL A   1      43.724  36.393  30.632  1.00  0.00     0.010 A 
ATOM     78  C   UNL A   1      43.504  37.073  33.339  1.00  0.00     0.020 A 
ATOM     79  C   UNL A   1      44.078  37.677  31.057  1.00  0.00     0.020 A 
ATOM     80  C   UNL A   1      43.944  38.017  32.405  1.00  0.00     0.054 A 
BRANCH  80  81
ATOM     81  S   UNL A   1      44.349  39.690  32.975  1.00  0.00     0.124 S 
ATOM     82  O   UNL A   1      43.063  40.165  33.477  1.00  0.00    -0.237 OA
ATOM     83  O   UNL A   1      45.370  39.445  33.991  1.00  0.00    -0.237 OA
ATOM     84  O   UNL A   1      44.833  40.355  31.767  1.00  0.00    -0.744 OA
ENDBRANCH  80  81
ENDBRANCH  54  75
ENDBRANCH  28  29
ENDBRANCH  21  23
ENDBRANCH  20  21
ENDBRANCH  19  20
ENDBRANCH   1  19
TORSDOF 17
ENDMDL
MODEL 2
REMARK VINA RESULT:     -10.0      3.574     12.659
REMARK SMILES Cc1cc2c(cc1C)O[C@H](C(=O)OCCOCCOC(=O)c1ccc(-c3c4nc(c(-c5ccc(S(=O)(=O)[O-])cc5)c5ccc([nH]5)c(-c5ccc(S(=O)(=O)[O-])cc5)c5nc(c(-c6ccc(S(=O)(=O)[O-])cc6)c6ccc3[nH]6)C=C5)C=C4)cc1)C2
REMARK SMILES IDX 17 1 16 2 15 3 14 4 13 5 11 6 12 7 10 8 1 9 2 10 3 11 7 12
REMARK SMILES IDX 4 13 6 14 8 15 5 16 82 17 9 18 18 19 19 20 20 21 21 22 22 23
REMARK SMILES IDX 23 24 81 25 24 26 80 27 25 28 26 29 27 30 74 31 28 32 79 33
REMARK SMILES IDX 73 34 75 35 29 36 78 37 72 38 71 39 30 41 60 42 41 43 59 44
REMARK SMILES IDX 42 45 45 46 58 47 76 48 43 49 44 50 57 52 77 53 46 54 31 55
REMARK SMILES IDX 32 56 40 57 33 58 39 59 34 60 35 61 36 62 37 63 38 64 61 65
REMARK SMILES IDX 62 66 70 67 63 68 69 69 64 70 65 71 66 72 67 73 68 74 47 75
REMARK SMILES IDX 48 76 56 77 49 78 55 79 50 80 51 81 52 82 53 83 54 84
REMARK H PARENT 75 40 45 51
REMARK Flexibility Score: inf
ROOT
ATOM      1  C   UNL A   1      35.033  33.216  32.975  1.00  0.00     0.202 C 
ENDROOT
BRANCH   1   2
ATOM      2  O   UNL A   1      34.930  34.506  33.569  1.00  0.00    -0.374 OA
BRANCH   2   3
ATOM      3  C   UNL A   1      34.737  35.637  32.728  1.00  0.00     0.202 C 
BRANCH   3   4
ATOM      4  C   UNL A   1      33.321  36.208  32.572  1.00  0.00     0.261 C 
BRANCH   4   5
ATOM      5  O   UNL A   1      32.520  35.555  31.564  1.00  0.00    -0.460 OA
BRANCH   5   6
ATOM      6  C   UNL A   1      32.980  35.747  30.304  1.00  0.00     0.347 C 
ATOM      7  O   UNL A   1      32.947  36.830  29.721  1.00  0.00    -0.248 OA
BRANCH   6   8
ATOM      8  C   UNL A   1      33.616  34.553  29.635  1.00  0.00     0.287 C 
ATOM      9  C   UNL A   1      35.567  29.571  27.479  1.00  0.00     0.044 C 
ATOM     10  C   UNL A   1      34.793  30.862  27.570  1.00  0.00    -0.048 A 
ATOM     11  C   UNL A   1      35.475  32.013  28.051  1.00  0.00     0.011 A 
ATOM     12  C   UNL A   1      33.394  30.912  27.315  1.00  0.00    -0.045 A 
ATOM     13  C   UNL A   1      34.745  33.164  28.297  1.00  0.00    -0.001 A 
ATOM     14  C   UNL A   1      32.714  32.127  27.436  1.00  0.00     0.050 A 
ATOM     15  C   UNL A   1      32.516  29.704  27.119  1.00  0.00     0.045 C 
ATOM     16  C   UNL A   1      33.397  33.190  27.970  1.00  0.00     0.124 A 
ATOM     17  C   UNL A   1      35.041  34.411  29.092  1.00  0.00     0.097 C 
ATOM     18  O   UNL A   1      32.744  34.271  28.501  1.00  0.00    -0.478 OA
ENDBRANCH   6   8
ENDBRANCH   5   6
ENDBRANCH   4   5
ENDBRANCH   3   4
ENDBRANCH   2   3
ENDBRANCH   1   2
BRANCH   1  19
ATOM     19  C   UNL A   1      36.331  32.843  32.236  1.00  0.00     0.261 C 
BRANCH  19  20
ATOM     20  O   UNL A   1      36.925  31.612  32.687  1.00  0.00    -0.460 OA
BRANCH  20  21
ATOM     21  C   UNL A   1      36.888  30.582  31.800  1.00  0.00     0.338 C 
ATOM     22  O   UNL A   1      35.908  29.965  31.432  1.00  0.00    -0.246 OA
BRANCH  21  23
ATOM     23  C   UNL A   1      38.216  30.441  31.163  1.00  0.00     0.060 A 
ATOM     24  C   UNL A   1      39.332  30.063  31.906  1.00  0.00     0.016 A 
ATOM     25  C   UNL A   1      38.320  30.635  29.777  1.00  0.00     0.016 A 
ATOM     26  C   UNL A   1      40.552  29.863  31.253  1.00  0.00     0.010 A 
ATOM     27  C   UNL A   1      39.542  30.438  29.127  1.00  0.00     0.010 A 
ATOM     28  C   UNL A   1      40.665  30.031  29.858  1.00  0.00    -0.014 A 
BRANCH  28  29
ATOM     29  C   UNL A   1      41.921  29.631  29.170  1.00  0.00     0.031 A 
ATOM     30  C   UNL A   1      43.099  30.554  29.061  1.00  0.00     0.074 A 
ATOM     31  C   UNL A   1      41.994  28.386  28.656  1.00  0.00     0.049 A 
ATOM     32  N   UNL A   1      44.315  30.280  28.662  1.00  0.00    -0.248 NA
ATOM     33  C   UNL A   1      42.893  31.960  29.437  1.00  0.00     0.031 C 
ATOM     34  C   UNL A   1      40.894  27.420  28.652  1.00  0.00     0.029 A 
ATOM     35  N   UNL A   1      43.037  27.707  28.074  1.00  0.00    -0.354 N 
ATOM     36  C   UNL A   1      45.031  31.465  28.773  1.00  0.00     0.074 A 
ATOM     37  C   UNL A   1      44.095  32.478  29.215  1.00  0.00     0.031 C 
ATOM     38  C   UNL A   1      41.338  26.254  28.160  1.00  0.00     0.029 A 
ATOM     39  C   UNL A   1      42.743  26.395  27.785  1.00  0.00     0.049 A 
ATOM     40  H   UNL A   1      43.910  28.120  27.882  1.00  0.00     0.167 HD
ATOM     41  C   UNL A   1      46.352  31.675  28.553  1.00  0.00     0.031 A 
ATOM     42  C   UNL A   1      43.517  25.402  27.302  1.00  0.00     0.031 A 
ATOM     43  C   UNL A   1      47.268  30.660  28.089  1.00  0.00     0.049 A 
ATOM     44  C   UNL A   1      44.974  25.669  27.045  1.00  0.00     0.074 A 
ATOM     45  C   UNL A   1      48.633  30.770  27.881  1.00  0.00     0.029 A 
ATOM     46  N   UNL A   1      46.923  29.358  27.756  1.00  0.00    -0.354 N 
ATOM     47  N   UNL A   1      45.659  26.768  27.259  1.00  0.00    -0.248 NA
ATOM     48  C   UNL A   1      45.769  24.559  26.504  1.00  0.00     0.031 C 
ATOM     49  C   UNL A   1      49.097  29.565  27.349  1.00  0.00     0.029 A 
ATOM     50  C   UNL A   1      48.040  28.669  27.307  1.00  0.00     0.049 A 
ATOM     51  H   UNL A   1      46.017  28.978  27.828  1.00  0.00     0.167 HD
ATOM     52  C   UNL A   1      46.968  26.476  26.889  1.00  0.00     0.074 A 
ATOM     53  C   UNL A   1      46.986  25.087  26.480  1.00  0.00     0.031 C 
ATOM     54  C   UNL A   1      48.054  27.291  26.881  1.00  0.00     0.031 A 
BRANCH  41  55
ATOM     55  C   UNL A   1      46.924  33.041  28.847  1.00  0.00    -0.014 A 
ATOM     56  C   UNL A   1      47.272  33.397  30.164  1.00  0.00     0.010 A 
ATOM     57  C   UNL A   1      46.958  34.028  27.845  1.00  0.00     0.010 A 
ATOM     58  C   UNL A   1      47.591  34.721  30.482  1.00  0.00     0.020 A 
ATOM     59  C   UNL A   1      47.307  35.347  28.153  1.00  0.00     0.020 A 
ATOM     60  C   UNL A   1      47.592  35.691  29.476  1.00  0.00     0.054 A 
BRANCH  60  61
ATOM     61  S   UNL A   1      47.936  37.415  29.923  1.00  0.00     0.124 S 
ATOM     62  O   UNL A   1      47.124  37.592  31.123  1.00  0.00    -0.237 OA
ATOM     63  O   UNL A   1      49.381  37.406  30.132  1.00  0.00    -0.237 OA
ATOM     64  O   UNL A   1      47.489  38.168  28.751  1.00  0.00    -0.744 OA
ENDBRANCH  60  61
ENDBRANCH  41  55
BRANCH  42  65
ATOM     65  C   UNL A   1      42.931  24.045  27.111  1.00  0.00    -0.014 A 
ATOM     66  C   UNL A   1      42.931  23.110  28.164  1.00  0.00     0.010 A 
ATOM     67  C   UNL A   1      42.433  23.653  25.856  1.00  0.00     0.010 A 
ATOM     68  C   UNL A   1      42.502  21.798  27.952  1.00  0.00     0.020 A 
ATOM     69  C   UNL A   1      41.964  22.351  25.649  1.00  0.00     0.020 A 
ATOM     70  C   UNL A   1      42.032  21.424  26.691  1.00  0.00     0.054 A 
BRANCH  70  71
ATOM     71  S   UNL A   1      41.528  19.701  26.427  1.00  0.00     0.124 S 
ATOM     72  O   UNL A   1      42.387  19.307  25.313  1.00  0.00    -0.237 OA
ATOM     73  O   UNL A   1      41.838  19.080  27.711  1.00  0.00    -0.237 OA
ATOM     74  O   UNL A   1      40.106  19.804  26.113  1.00  0.00    -0.744 OA
ENDBRANCH  70  71
ENDBRANCH  42  65
BRANCH  54  75
ATOM     75  C   UNL A   1      49.363  26.718  26.392  1.00  0.00    -0.014 A 
ATOM     76  C   UNL A   1      50.212  26.032  27.280  1.00  0.00     0.010 A 
ATOM     77  C   UNL A   1      49.797  26.934  25.071  1.00  0.00     0.010 A 
ATOM     78  C   UNL A   1      51.474  25.594  26.868  1.00  0.00     0.020 A 
ATOM     79  C   UNL A   1      51.042  26.463  24.641  1.00  0.00     0.020 A 
ATOM     80  C   UNL A   1      51.883  25.816  25.550  1.00  0.00     0.054 A 
BRANCH  80  81
ATOM     81  S   UNL A   1      53.522  25.239  25.031  1.00  0.00     0.124 S 
ATOM     82  O   UNL A   1      53.449  23.808  25.314  1.00  0.00    -0.237 OA
ATOM     83  O   UNL A   1      53.557  25.600  23.615  1.00  0.00    -0.237 OA
ATOM     84  O   UNL A   1      54.437  25.998  25.881  1.00  0.00    -0.744 OA
ENDBRANCH  80  81
ENDBRANCH  54  75
ENDBRANCH  28  29
ENDBRANCH  21  23
ENDBRANCH  20  21
ENDBRANCH  19  20
ENDBRANCH   1  19
TORSDOF 17
ENDMDL
MODEL 3
REMARK VINA RESULT:      -9.6      3.797     10.112
REMARK SMILES Cc1cc2c(cc1C)O[C@H](C(=O)OCCOCCOC(=O)c1ccc(-c3c4nc(c(-c5ccc(S(=O)(=O)[O-])cc5)c5ccc([nH]5)c(-c5ccc(S(=O)(=O)[O-])cc5)c5nc(c(-c6ccc(S(=O)(=O)[O-])cc6)c6ccc3[nH]6)C=C5)C=C4)cc1)C2
REMARK SMILES IDX 17 1 16 2 15 3 14 4 13 5 11 6 12 7 10 8 1 9 2 10 3 11 7 12
REMARK SMILES IDX 4 13 6 14 8 15 5 16 82 17 9 18 18 19 19 20 20 21 21 22 22 23
REMARK SMILES IDX 23 24 81 25 24 26 80 27 25 28 26 29 27 30 74 31 28 32 79 33
REMARK SMILES IDX 73 34 75 35 29 36 78 37 72 38 71 39 30 41 60 42 41 43 59 44
REMARK SMILES IDX 42 45 45 46 58 47 76 48 43 49 44 50 57 52 77 53 46 54 31 55
REMARK SMILES IDX 32 56 40 57 33 58 39 59 34 60 35 61 36 62 37 63 38 64 61 65
REMARK SMILES IDX 62 66 70 67 63 68 69 69 64 70 65 71 66 72 67 73 68 74 47 75
REMARK SMILES IDX 48 76 56 77 49 78 55 79 50 80 51 81 52 82 53 83 54 84
REMARK H PARENT 75 40 45 51
REMARK Flexibility Score: inf
ROOT
ATOM      1  C   UNL A   1      32.438  29.629  25.019  1.00  0.00     0.202 C 
ENDROOT
BRANCH   1   2
ATOM      2  O   UNL A   1      31.065  29.810  24.689  1.00  0.00    -0.374 OA
BRANCH   2   3
ATOM      3  C   UNL A   1      30.502  29.035  23.637  1.00  0.00     0.202 C 
BRANCH   3   4
ATOM      4  C   UNL A   1      31.409  28.582  22.485  1.00  0.00     0.261 C 
BRANCH   4   5
ATOM      5  O   UNL A   1      31.633  27.156  22.426  1.00  0.00    -0.460 OA
BRANCH   5   6
ATOM      6  C   UNL A   1      32.942  26.814  22.500  1.00  0.00     0.347 C 
ATOM      7  O   UNL A   1      33.819  27.305  21.789  1.00  0.00    -0.248 OA
BRANCH   6   8
ATOM      8  C   UNL A   1      33.312  25.816  23.569  1.00  0.00     0.287 C 
ATOM      9  C   UNL A   1      34.120  21.613  27.438  1.00  0.00     0.044 C 
ATOM     10  C   UNL A   1      34.282  22.415  26.171  1.00  0.00    -0.048 A 
ATOM     11  C   UNL A   1      34.362  23.830  26.284  1.00  0.00     0.011 A 
ATOM     12  C   UNL A   1      34.225  21.801  24.888  1.00  0.00    -0.045 A 
ATOM     13  C   UNL A   1      34.346  24.592  25.128  1.00  0.00    -0.001 A 
ATOM     14  C   UNL A   1      34.355  22.588  23.740  1.00  0.00     0.050 A 
ATOM     15  C   UNL A   1      33.821  20.370  24.641  1.00  0.00     0.045 C 
ATOM     16  C   UNL A   1      34.357  23.950  23.898  1.00  0.00     0.124 A 
ATOM     17  C   UNL A   1      34.081  26.054  24.872  1.00  0.00     0.097 C 
ATOM     18  O   UNL A   1      34.073  24.796  22.857  1.00  0.00    -0.478 OA
ENDBRANCH   6   8
ENDBRANCH   5   6
ENDBRANCH   4   5
ENDBRANCH   3   4
ENDBRANCH   2   3
ENDBRANCH   1   2
BRANCH   1  19
ATOM     19  C   UNL A   1      32.795  29.015  26.385  1.00  0.00     0.261 C 
BRANCH  19  20
ATOM     20  O   UNL A   1      34.188  29.130  26.729  1.00  0.00    -0.460 OA
BRANCH  20  21
ATOM     21  C   UNL A   1      34.499  30.136  27.589  1.00  0.00     0.338 C 
ATOM     22  O   UNL A   1      33.747  30.979  28.037  1.00  0.00    -0.246 OA
BRANCH  21  23
ATOM     23  C   UNL A   1      35.878  29.940  28.088  1.00  0.00     0.060 A 
ATOM     24  C   UNL A   1      36.118  29.591  29.415  1.00  0.00     0.016 A 
ATOM     25  C   UNL A   1      36.944  30.053  27.182  1.00  0.00     0.016 A 
ATOM     26  C   UNL A   1      37.429  29.337  29.829  1.00  0.00     0.010 A 
ATOM     27  C   UNL A   1      38.254  29.803  27.599  1.00  0.00     0.010 A 
ATOM     28  C   UNL A   1      38.506  29.424  28.923  1.00  0.00    -0.014 A 
BRANCH  28  29
ATOM     29  C   UNL A   1      39.858  28.968  29.343  1.00  0.00     0.031 A 
ATOM     30  C   UNL A   1      40.389  27.612  28.982  1.00  0.00     0.074 A 
ATOM     31  C   UNL A   1      40.625  29.823  30.049  1.00  0.00     0.049 A 
ATOM     32  N   UNL A   1      41.608  27.153  29.113  1.00  0.00    -0.248 NA
ATOM     33  C   UNL A   1      39.442  26.645  28.409  1.00  0.00     0.031 C 
ATOM     34  C   UNL A   1      40.195  31.146  30.507  1.00  0.00     0.029 A 
ATOM     35  N   UNL A   1      41.928  29.731  30.474  1.00  0.00    -0.354 N 
ATOM     36  C   UNL A   1      41.587  25.859  28.607  1.00  0.00     0.074 A 
ATOM     37  C   UNL A   1      40.217  25.583  28.226  1.00  0.00     0.031 C 
ATOM     38  C   UNL A   1      41.232  31.767  31.085  1.00  0.00     0.029 A 
ATOM     39  C   UNL A   1      42.393  30.880  31.070  1.00  0.00     0.049 A 
ATOM     40  H   UNL A   1      42.476  28.920  30.363  1.00  0.00     0.167 HD
ATOM     41  C   UNL A   1      42.622  24.999  28.451  1.00  0.00     0.031 A 
ATOM     42  C   UNL A   1      43.620  31.204  31.526  1.00  0.00     0.031 A 
ATOM     43  C   UNL A   1      43.979  25.280  28.858  1.00  0.00     0.049 A 
ATOM     44  C   UNL A   1      44.745  30.221  31.361  1.00  0.00     0.074 A 
ATOM     45  C   UNL A   1      45.102  24.485  28.699  1.00  0.00     0.029 A 
ATOM     46  N   UNL A   1      44.400  26.433  29.506  1.00  0.00    -0.354 N 
ATOM     47  N   UNL A   1      44.731  29.044  30.781  1.00  0.00    -0.248 NA
ATOM     48  C   UNL A   1      46.058  30.617  31.889  1.00  0.00     0.031 C 
ATOM     49  C   UNL A   1      46.181  25.118  29.319  1.00  0.00     0.029 A 
ATOM     50  C   UNL A   1      45.756  26.351  29.788  1.00  0.00     0.049 A 
ATOM     51  H   UNL A   1      43.822  27.197  29.733  1.00  0.00     0.167 HD
ATOM     52  C   UNL A   1      46.034  28.564  30.864  1.00  0.00     0.074 A 
ATOM     53  C   UNL A   1      46.817  29.597  31.512  1.00  0.00     0.031 C 
ATOM     54  C   UNL A   1      46.532  27.372  30.451  1.00  0.00     0.031 A 
BRANCH  41  55
ATOM     55  C   UNL A   1      42.364  23.675  27.772  1.00  0.00    -0.014 A 
ATOM     56  C   UNL A   1      41.884  22.579  28.514  1.00  0.00     0.010 A 
ATOM     57  C   UNL A   1      42.759  23.472  26.436  1.00  0.00     0.010 A 
ATOM     58  C   UNL A   1      41.852  21.299  27.951  1.00  0.00     0.020 A 
ATOM     59  C   UNL A   1      42.699  22.199  25.861  1.00  0.00     0.020 A 
ATOM     60  C   UNL A   1      42.275  21.115  26.632  1.00  0.00     0.054 A 
BRANCH  60  61
ATOM     61  S   UNL A   1      42.296  19.436  25.945  1.00  0.00     0.124 S 
ATOM     62  O   UNL A   1      43.185  19.583  24.796  1.00  0.00    -0.237 OA
ATOM     63  O   UNL A   1      42.823  18.646  27.055  1.00  0.00    -0.237 OA
ATOM     64  O   UNL A   1      40.893  19.181  25.620  1.00  0.00    -0.744 OA
ENDBRANCH  60  61
ENDBRANCH  41  55
BRANCH  42  65
ATOM     65  C   UNL A   1      43.849  32.557  32.109  1.00  0.00    -0.014 A 
ATOM     66  C   UNL A   1      43.727  32.769  33.495  1.00  0.00     0.010 A 
ATOM     67  C   UNL A   1      44.121  33.656  31.275  1.00  0.00     0.010 A 
ATOM     68  C   UNL A   1      43.812  34.058  34.028  1.00  0.00     0.020 A 
ATOM     69  C   UNL A   1      44.247  34.943  31.810  1.00  0.00     0.020 A 
ATOM     70  C   UNL A   1      44.060  35.138  33.179  1.00  0.00     0.054 A 
BRANCH  70  71
ATOM     71  S   UNL A   1      44.115  36.807  33.889  1.00  0.00     0.124 S 
ATOM     72  O   UNL A   1      44.855  36.579  35.128  1.00  0.00    -0.237 OA
ATOM     73  O   UNL A   1      44.825  37.565  32.863  1.00  0.00    -0.237 OA
ATOM     74  O   UNL A   1      42.707  37.155  34.056  1.00  0.00    -0.744 OA
ENDBRANCH  70  71
ENDBRANCH  42  65
BRANCH  54  75
ATOM     75  C   UNL A   1      47.995  27.092  30.702  1.00  0.00    -0.014 A 
ATOM     76  C   UNL A   1      48.396  26.405  31.863  1.00  0.00     0.010 A 
ATOM     77  C   UNL A   1      48.985  27.587  29.832  1.00  0.00     0.010 A 
ATOM     78  C   UNL A   1      49.751  26.237  32.162  1.00  0.00     0.020 A 
ATOM     79  C   UNL A   1      50.341  27.386  30.105  1.00  0.00     0.020 A 
ATOM     80  C   UNL A   1      50.717  26.733  31.281  1.00  0.00     0.054 A 
BRANCH  80  81
ATOM     81  S   UNL A   1      52.470  26.504  31.684  1.00  0.00     0.124 S 
ATOM     82  O   UNL A   1      52.405  25.683  32.890  1.00  0.00    -0.237 OA
ATOM     83  O   UNL A   1      52.988  25.834  30.493  1.00  0.00    -0.237 OA
ATOM     84  O   UNL A   1      52.957  27.867  31.882  1.00  0.00    -0.744 OA
ENDBRANCH  80  81
ENDBRANCH  54  75
ENDBRANCH  28  29
ENDBRANCH  21  23
ENDBRANCH  20  21
ENDBRANCH  19  20
ENDBRANCH   1  19
TORSDOF 17
ENDMDL
