MODEL 1
REMARK VINA RESULT:     -10.7      0.000      0.000
REMARK SMILES C[C@H]1[C@@H](C(=O)OCCOCCOC(=O)c2ccc(-c3c4nc(c(-c5ccc(S(=O)(=O)[O-])cc5)c5ccc([nH]5)c(-c5ccc(S(=O)(=O)[O-])cc5)c5nc(c(-c6ccc(S(=O)(=O)[O-])cc6)c6ccc3[nH]6)C=C5)C=C4)cc2)CCN1C(=O)c1cc2cc(F)ccc2s1
REMARK SMILES IDX 10 1 9 2 8 3 7 4 6 5 4 6 5 7 3 8 1 9 2 10 77 11 75 12 76 13
REMARK SMILES IDX 78 14 79 15 80 16 81 17 89 18 82 19 88 20 83 21 87 22 84 23
REMARK SMILES IDX 86 24 85 25 11 26 12 27 13 28 14 29 15 30 16 31 74 32 17 33
REMARK SMILES IDX 73 34 18 35 19 36 20 37 67 38 21 39 72 40 66 41 68 42 22 43
REMARK SMILES IDX 71 44 65 45 64 46 23 48 53 49 34 50 52 51 35 52 38 53 51 54
REMARK SMILES IDX 69 55 36 56 37 57 50 59 70 60 39 61 24 62 25 63 33 64 26 65
REMARK SMILES IDX 32 66 27 67 28 68 29 69 30 70 31 71 54 72 55 73 63 74 56 75
REMARK SMILES IDX 62 76 57 77 58 78 59 79 60 80 61 81 40 82 41 83 49 84 42 85
REMARK SMILES IDX 48 86 43 87 44 88 45 89 46 90 47 91
REMARK H PARENT 68 47 38 58
REMARK Flexibility Score: inf
ROOT
ATOM      1  C   UNL A   1      39.710  22.361  26.564  1.00  0.00     0.202 C 
ENDROOT
BRANCH   1   2
ATOM      2  O   UNL A   1      38.364  22.497  26.116  1.00  0.00    -0.374 OA
BRANCH   2   3
ATOM      3  C   UNL A   1      37.864  21.483  25.239  1.00  0.00     0.202 C 
BRANCH   3   4
ATOM      4  C   UNL A   1      36.338  21.394  25.162  1.00  0.00     0.261 C 
BRANCH   4   5
ATOM      5  O   UNL A   1      35.758  22.048  26.309  1.00  0.00    -0.463 OA
BRANCH   5   6
ATOM      6  C   UNL A   1      34.449  21.814  26.531  1.00  0.00     0.311 C 
ATOM      7  O   UNL A   1      33.992  21.411  27.597  1.00  0.00    -0.252 OA
BRANCH   6   8
ATOM      8  C   UNL A   1      33.534  22.194  25.382  1.00  0.00     0.123 C 
ATOM      9  C   UNL A   1      33.862  24.792  25.707  1.00  0.00     0.032 C 
ATOM     10  C   UNL A   1      33.168  23.646  24.987  1.00  0.00     0.096 C 
ATOM     11  N   UNL A   1      31.703  23.704  25.063  1.00  0.00    -0.334 N 
ATOM     12  C   UNL A   1      32.194  21.461  25.565  1.00  0.00     0.039 C 
ATOM     13  C   UNL A   1      31.151  22.542  25.714  1.00  0.00     0.121 C 
BRANCH  11  14
ATOM     14  C   UNL A   1      30.885  24.417  24.200  1.00  0.00     0.264 C 
ATOM     15  O   UNL A   1      30.419  23.878  23.195  1.00  0.00    -0.268 OA
BRANCH  14  16
ATOM     16  C   UNL A   1      30.476  25.759  24.551  1.00  0.00     0.093 A 
ATOM     17  C   UNL A   1      30.397  26.279  25.830  1.00  0.00     0.034 A 
ATOM     18  S   UNL A   1      30.864  27.025  23.452  1.00  0.00    -0.130 S 
ATOM     19  C   UNL A   1      31.397  27.314  25.951  1.00  0.00    -0.004 A 
ATOM     20  C   UNL A   1      31.806  27.777  24.694  1.00  0.00     0.035 A 
ATOM     21  C   UNL A   1      32.077  27.791  27.095  1.00  0.00     0.048 A 
ATOM     22  C   UNL A   1      32.872  28.681  24.540  1.00  0.00     0.022 A 
ATOM     23  C   UNL A   1      33.186  28.617  26.931  1.00  0.00     0.123 A 
ATOM     24  C   UNL A   1      33.588  29.054  25.678  1.00  0.00     0.041 A 
ATOM     25  F   UNL A   1      33.909  28.956  28.008  1.00  0.00    -0.207 F 
ENDBRANCH  14  16
ENDBRANCH  11  14
ENDBRANCH   6   8
ENDBRANCH   5   6
ENDBRANCH   4   5
ENDBRANCH   3   4
ENDBRANCH   2   3
ENDBRANCH   1   2
BRANCH   1  26
ATOM     26  C   UNL A   1      40.524  23.655  26.673  1.00  0.00     0.261 C 
BRANCH  26  27
ATOM     27  O   UNL A   1      39.704  24.828  26.550  1.00  0.00    -0.460 OA
BRANCH  27  28
ATOM     28  C   UNL A   1      40.400  25.992  26.569  1.00  0.00     0.338 C 
ATOM     29  O   UNL A   1      41.175  26.393  25.718  1.00  0.00    -0.246 OA
BRANCH  28  30
ATOM     30  C   UNL A   1      39.980  26.830  27.710  1.00  0.00     0.060 A 
ATOM     31  C   UNL A   1      40.498  28.130  27.758  1.00  0.00     0.016 A 
ATOM     32  C   UNL A   1      39.186  26.345  28.752  1.00  0.00     0.016 A 
ATOM     33  C   UNL A   1      40.298  28.918  28.886  1.00  0.00     0.010 A 
ATOM     34  C   UNL A   1      38.986  27.140  29.889  1.00  0.00     0.010 A 
ATOM     35  C   UNL A   1      39.587  28.408  29.980  1.00  0.00    -0.014 A 
BRANCH  35  36
ATOM     36  C   UNL A   1      39.653  29.147  31.266  1.00  0.00     0.031 A 
ATOM     37  C   UNL A   1      40.814  28.891  32.192  1.00  0.00     0.074 A 
ATOM     38  C   UNL A   1      38.754  30.104  31.556  1.00  0.00     0.049 A 
ATOM     39  N   UNL A   1      41.136  29.503  33.303  1.00  0.00    -0.248 NA
ATOM     40  C   UNL A   1      41.736  27.808  31.813  1.00  0.00     0.031 C 
ATOM     41  C   UNL A   1      37.607  30.468  30.724  1.00  0.00     0.029 A 
ATOM     42  N   UNL A   1      38.679  30.959  32.626  1.00  0.00    -0.354 N 
ATOM     43  C   UNL A   1      42.299  28.885  33.751  1.00  0.00     0.074 A 
ATOM     44  C   UNL A   1      42.602  27.824  32.815  1.00  0.00     0.031 C 
ATOM     45  C   UNL A   1      36.949  31.483  31.312  1.00  0.00     0.029 A 
ATOM     46  C   UNL A   1      37.618  31.829  32.564  1.00  0.00     0.049 A 
ATOM     47  H   UNL A   1      39.326  30.951  33.369  1.00  0.00     0.167 HD
ATOM     48  C   UNL A   1      43.054  29.177  34.837  1.00  0.00     0.031 A 
ATOM     49  C   UNL A   1      37.232  32.799  33.418  1.00  0.00     0.031 A 
ATOM     50  C   UNL A   1      42.747  30.223  35.775  1.00  0.00     0.049 A 
ATOM     51  C   UNL A   1      38.062  33.077  34.642  1.00  0.00     0.074 A 
ATOM     52  C   UNL A   1      43.453  30.604  36.902  1.00  0.00     0.029 A 
ATOM     53  N   UNL A   1      41.638  31.052  35.699  1.00  0.00    -0.354 N 
ATOM     54  N   UNL A   1      39.175  32.502  35.034  1.00  0.00    -0.248 NA
ATOM     55  C   UNL A   1      37.594  34.151  35.530  1.00  0.00     0.031 C 
ATOM     56  C   UNL A   1      42.745  31.634  37.534  1.00  0.00     0.029 A 
ATOM     57  C   UNL A   1      41.628  31.930  36.769  1.00  0.00     0.049 A 
ATOM     58  H   UNL A   1      40.957  31.020  34.987  1.00  0.00     0.167 HD
ATOM     59  C   UNL A   1      39.552  33.161  36.199  1.00  0.00     0.074 A 
ATOM     60  C   UNL A   1      38.558  34.187  36.439  1.00  0.00     0.031 C 
ATOM     61  C   UNL A   1      40.626  32.940  36.998  1.00  0.00     0.031 A 
BRANCH  48  62
ATOM     62  C   UNL A   1      44.276  28.331  35.077  1.00  0.00    -0.014 A 
ATOM     63  C   UNL A   1      45.528  28.691  34.546  1.00  0.00     0.010 A 
ATOM     64  C   UNL A   1      44.174  27.170  35.864  1.00  0.00     0.010 A 
ATOM     65  C   UNL A   1      46.647  27.883  34.764  1.00  0.00     0.020 A 
ATOM     66  C   UNL A   1      45.297  26.372  36.105  1.00  0.00     0.020 A 
ATOM     67  C   UNL A   1      46.523  26.725  35.537  1.00  0.00     0.054 A 
BRANCH  67  68
ATOM     68  S   UNL A   1      47.993  25.699  35.815  1.00  0.00     0.124 S 
ATOM     69  O   UNL A   1      49.058  26.551  35.291  1.00  0.00    -0.237 OA
ATOM     70  O   UNL A   1      47.990  25.518  37.264  1.00  0.00    -0.237 OA
ATOM     71  O   UNL A   1      47.724  24.490  35.039  1.00  0.00    -0.744 OA
ENDBRANCH  67  68
ENDBRANCH  48  62
BRANCH  49  72
ATOM     72  C   UNL A   1      35.998  33.582  33.138  1.00  0.00    -0.014 A 
ATOM     73  C   UNL A   1      34.727  33.052  33.420  1.00  0.00     0.010 A 
ATOM     74  C   UNL A   1      36.094  34.873  32.586  1.00  0.00     0.010 A 
ATOM     75  C   UNL A   1      33.574  33.793  33.143  1.00  0.00     0.020 A 
ATOM     76  C   UNL A   1      34.946  35.627  32.331  1.00  0.00     0.020 A 
ATOM     77  C   UNL A   1      33.691  35.077  32.602  1.00  0.00     0.054 A 
BRANCH  77  78
ATOM     78  S   UNL A   1      32.187  36.047  32.305  1.00  0.00     0.124 S 
ATOM     79  O   UNL A   1      32.321  36.391  30.893  1.00  0.00    -0.237 OA
ATOM     80  O   UNL A   1      31.126  35.095  32.627  1.00  0.00    -0.237 OA
ATOM     81  O   UNL A   1      32.313  37.165  33.239  1.00  0.00    -0.744 OA
ENDBRANCH  77  78
ENDBRANCH  49  72
BRANCH  61  82
ATOM     82  C   UNL A   1      40.798  33.845  38.188  1.00  0.00    -0.014 A 
ATOM     83  C   UNL A   1      40.243  33.519  39.439  1.00  0.00     0.010 A 
ATOM     84  C   UNL A   1      41.554  35.024  38.061  1.00  0.00     0.010 A 
ATOM     85  C   UNL A   1      40.401  34.381  40.528  1.00  0.00     0.020 A 
ATOM     86  C   UNL A   1      41.738  35.875  39.154  1.00  0.00     0.020 A 
ATOM     87  C   UNL A   1      41.142  35.557  40.376  1.00  0.00     0.054 A 
BRANCH  87  88
ATOM     88  S   UNL A   1      41.350  36.653  41.807  1.00  0.00     0.124 S 
ATOM     89  O   UNL A   1      42.323  35.919  42.611  1.00  0.00    -0.237 OA
ATOM     90  O   UNL A   1      41.839  37.888  41.200  1.00  0.00    -0.237 OA
ATOM     91  O   UNL A   1      40.006  36.736  42.377  1.00  0.00    -0.744 OA
ENDBRANCH  87  88
ENDBRANCH  61  82
ENDBRANCH  35  36
ENDBRANCH  28  30
ENDBRANCH  27  28
ENDBRANCH  26  27
ENDBRANCH   1  26
TORSDOF 19
ENDMDL
MODEL 2
REMARK VINA RESULT:     -10.7      4.844     10.435
REMARK SMILES C[C@H]1[C@@H](C(=O)OCCOCCOC(=O)c2ccc(-c3c4nc(c(-c5ccc(S(=O)(=O)[O-])cc5)c5ccc([nH]5)c(-c5ccc(S(=O)(=O)[O-])cc5)c5nc(c(-c6ccc(S(=O)(=O)[O-])cc6)c6ccc3[nH]6)C=C5)C=C4)cc2)CCN1C(=O)c1cc2cc(F)ccc2s1
REMARK SMILES IDX 10 1 9 2 8 3 7 4 6 5 4 6 5 7 3 8 1 9 2 10 77 11 75 12 76 13
REMARK SMILES IDX 78 14 79 15 80 16 81 17 89 18 82 19 88 20 83 21 87 22 84 23
REMARK SMILES IDX 86 24 85 25 11 26 12 27 13 28 14 29 15 30 16 31 74 32 17 33
REMARK SMILES IDX 73 34 18 35 19 36 20 37 67 38 21 39 72 40 66 41 68 42 22 43
REMARK SMILES IDX 71 44 65 45 64 46 23 48 53 49 34 50 52 51 35 52 38 53 51 54
REMARK SMILES IDX 69 55 36 56 37 57 50 59 70 60 39 61 24 62 25 63 33 64 26 65
REMARK SMILES IDX 32 66 27 67 28 68 29 69 30 70 31 71 54 72 55 73 63 74 56 75
REMARK SMILES IDX 62 76 57 77 58 78 59 79 60 80 61 81 40 82 41 83 49 84 42 85
REMARK SMILES IDX 48 86 43 87 44 88 45 89 46 90 47 91
REMARK H PARENT 68 47 38 58
REMARK Flexibility Score: inf
ROOT
ATOM      1  C   UNL A   1      31.710  31.059  26.523  1.00  0.00     0.202 C 
ENDROOT
BRANCH   1   2
ATOM      2  O   UNL A   1      31.097  30.442  25.395  1.00  0.00    -0.374 OA
BRANCH   2   3
ATOM      3  C   UNL A   1      31.706  29.246  24.896  1.00  0.00     0.202 C 
BRANCH   3   4
ATOM      4  C   UNL A   1      31.940  29.225  23.384  1.00  0.00     0.261 C 
BRANCH   4   5
ATOM      5  O   UNL A   1      32.619  28.007  23.017  1.00  0.00    -0.463 OA
BRANCH   5   6
ATOM      6  C   UNL A   1      31.835  26.974  22.649  1.00  0.00     0.311 C 
ATOM      7  O   UNL A   1      31.026  27.017  21.727  1.00  0.00    -0.252 OA
BRANCH   6   8
ATOM      8  C   UNL A   1      32.100  25.681  23.398  1.00  0.00     0.123 C 
ATOM      9  C   UNL A   1      29.732  25.628  24.562  1.00  0.00     0.032 C 
ATOM     10  C   UNL A   1      31.117  25.022  24.398  1.00  0.00     0.096 C 
ATOM     11  N   UNL A   1      31.867  24.917  25.656  1.00  0.00    -0.334 N 
ATOM     12  C   UNL A   1      33.433  25.821  24.153  1.00  0.00     0.039 C 
ATOM     13  C   UNL A   1      33.093  25.676  25.616  1.00  0.00     0.121 C 
BRANCH  11  14
ATOM     14  C   UNL A   1      31.782  23.865  26.553  1.00  0.00     0.264 C 
ATOM     15  O   UNL A   1      30.887  23.837  27.399  1.00  0.00    -0.268 OA
BRANCH  14  16
ATOM     16  C   UNL A   1      32.672  22.733  26.412  1.00  0.00     0.093 A 
ATOM     17  C   UNL A   1      32.983  22.084  25.231  1.00  0.00     0.034 A 
ATOM     18  S   UNL A   1      34.020  22.640  27.476  1.00  0.00    -0.130 S 
ATOM     19  C   UNL A   1      34.381  22.314  24.952  1.00  0.00    -0.004 A 
ATOM     20  C   UNL A   1      35.074  22.703  26.105  1.00  0.00     0.035 A 
ATOM     21  C   UNL A   1      35.069  22.335  23.717  1.00  0.00     0.048 A 
ATOM     22  C   UNL A   1      36.415  23.123  26.067  1.00  0.00     0.022 A 
ATOM     23  C   UNL A   1      36.368  22.835  23.672  1.00  0.00     0.123 A 
ATOM     24  C   UNL A   1      37.035  23.230  24.821  1.00  0.00     0.041 A 
ATOM     25  F   UNL A   1      36.968  22.980  22.481  1.00  0.00    -0.207 F 
ENDBRANCH  14  16
ENDBRANCH  11  14
ENDBRANCH   6   8
ENDBRANCH   5   6
ENDBRANCH   4   5
ENDBRANCH   3   4
ENDBRANCH   2   3
ENDBRANCH   1   2
BRANCH   1  26
ATOM     26  C   UNL A   1      33.242  31.102  26.525  1.00  0.00     0.261 C 
BRANCH  26  27
ATOM     27  O   UNL A   1      33.797  30.765  27.806  1.00  0.00    -0.460 OA
BRANCH  27  28
ATOM     28  C   UNL A   1      34.356  29.530  27.858  1.00  0.00     0.338 C 
ATOM     29  O   UNL A   1      33.850  28.484  27.492  1.00  0.00    -0.246 OA
BRANCH  28  30
ATOM     30  C   UNL A   1      35.767  29.616  28.284  1.00  0.00     0.060 A 
ATOM     31  C   UNL A   1      36.703  29.937  27.293  1.00  0.00     0.016 A 
ATOM     32  C   UNL A   1      36.186  29.303  29.580  1.00  0.00     0.016 A 
ATOM     33  C   UNL A   1      38.064  29.861  27.570  1.00  0.00     0.010 A 
ATOM     34  C   UNL A   1      37.558  29.226  29.857  1.00  0.00     0.010 A 
ATOM     35  C   UNL A   1      38.499  29.452  28.837  1.00  0.00    -0.014 A 
BRANCH  35  36
ATOM     36  C   UNL A   1      39.930  29.092  29.005  1.00  0.00     0.031 A 
ATOM     37  C   UNL A   1      40.859  30.089  29.650  1.00  0.00     0.074 A 
ATOM     38  C   UNL A   1      40.372  27.863  28.687  1.00  0.00     0.049 A 
ATOM     39  N   UNL A   1      42.110  29.945  30.002  1.00  0.00    -0.248 NA
ATOM     40  C   UNL A   1      40.301  31.420  29.940  1.00  0.00     0.031 C 
ATOM     41  C   UNL A   1      39.562  26.801  28.090  1.00  0.00     0.029 A 
ATOM     42  N   UNL A   1      41.611  27.295  28.842  1.00  0.00    -0.354 N 
ATOM     43  C   UNL A   1      42.488  31.161  30.561  1.00  0.00     0.074 A 
ATOM     44  C   UNL A   1      41.345  32.044  30.463  1.00  0.00     0.031 C 
ATOM     45  C   UNL A   1      40.326  25.704  27.941  1.00  0.00     0.029 A 
ATOM     46  C   UNL A   1      41.677  25.991  28.417  1.00  0.00     0.049 A 
ATOM     47  H   UNL A   1      42.381  27.778  29.223  1.00  0.00     0.167 HD
ATOM     48  C   UNL A   1      43.672  31.512  31.116  1.00  0.00     0.031 A 
ATOM     49  C   UNL A   1      42.710  25.124  28.416  1.00  0.00     0.031 A 
ATOM     50  C   UNL A   1      44.812  30.640  31.202  1.00  0.00     0.049 A 
ATOM     51  C   UNL A   1      44.032  25.550  28.997  1.00  0.00     0.074 A 
ATOM     52  C   UNL A   1      46.055  30.898  31.753  1.00  0.00     0.029 A 
ATOM     53  N   UNL A   1      44.851  29.340  30.719  1.00  0.00    -0.354 N 
ATOM     54  N   UNL A   1      44.361  26.695  29.548  1.00  0.00    -0.248 NA
ATOM     55  C   UNL A   1      45.117  24.558  28.974  1.00  0.00     0.031 C 
ATOM     56  C   UNL A   1      46.861  29.769  31.561  1.00  0.00     0.029 A 
ATOM     57  C   UNL A   1      46.102  28.790  30.940  1.00  0.00     0.049 A 
ATOM     58  H   UNL A   1      44.099  28.878  30.283  1.00  0.00     0.167 HD
ATOM     59  C   UNL A   1      45.682  26.551  29.960  1.00  0.00     0.074 A 
ATOM     60  C   UNL A   1      46.085  25.205  29.608  1.00  0.00     0.031 C 
ATOM     61  C   UNL A   1      46.489  27.451  30.575  1.00  0.00     0.031 A 
BRANCH  48  62
ATOM     62  C   UNL A   1      43.797  32.914  31.650  1.00  0.00    -0.014 A 
ATOM     63  C   UNL A   1      44.263  33.964  30.839  1.00  0.00     0.010 A 
ATOM     64  C   UNL A   1      43.423  33.189  32.978  1.00  0.00     0.010 A 
ATOM     65  C   UNL A   1      44.391  35.256  31.357  1.00  0.00     0.020 A 
ATOM     66  C   UNL A   1      43.526  34.484  33.493  1.00  0.00     0.020 A 
ATOM     67  C   UNL A   1      44.027  35.506  32.684  1.00  0.00     0.054 A 
BRANCH  67  68
ATOM     68  S   UNL A   1      44.191  37.193  33.331  1.00  0.00     0.124 S 
ATOM     69  O   UNL A   1      43.861  37.999  32.157  1.00  0.00    -0.237 OA
ATOM     70  O   UNL A   1      43.206  37.222  34.408  1.00  0.00    -0.237 OA
ATOM     71  O   UNL A   1      45.585  37.265  33.763  1.00  0.00    -0.744 OA
ENDBRANCH  67  68
ENDBRANCH  48  62
BRANCH  49  72
ATOM     72  C   UNL A   1      42.531  23.760  27.847  1.00  0.00    -0.014 A 
ATOM     73  C   UNL A   1      42.120  22.688  28.659  1.00  0.00     0.010 A 
ATOM     74  C   UNL A   1      42.770  23.531  26.480  1.00  0.00     0.010 A 
ATOM     75  C   UNL A   1      41.966  21.409  28.116  1.00  0.00     0.020 A 
ATOM     76  C   UNL A   1      42.593  22.259  25.929  1.00  0.00     0.020 A 
ATOM     77  C   UNL A   1      42.201  21.203  26.753  1.00  0.00     0.054 A 
BRANCH  77  78
ATOM     78  S   UNL A   1      41.938  19.549  26.055  1.00  0.00     0.124 S 
ATOM     79  O   UNL A   1      42.812  19.570  24.887  1.00  0.00    -0.237 OA
ATOM     80  O   UNL A   1      42.358  18.673  27.147  1.00  0.00    -0.237 OA
ATOM     81  O   UNL A   1      40.505  19.526  25.767  1.00  0.00    -0.744 OA
ENDBRANCH  77  78
ENDBRANCH  49  72
BRANCH  61  82
ATOM     82  C   UNL A   1      47.878  26.997  30.937  1.00  0.00    -0.014 A 
ATOM     83  C   UNL A   1      48.949  27.134  30.034  1.00  0.00     0.010 A 
ATOM     84  C   UNL A   1      48.122  26.454  32.211  1.00  0.00     0.010 A 
ATOM     85  C   UNL A   1      50.227  26.692  30.383  1.00  0.00     0.020 A 
ATOM     86  C   UNL A   1      49.405  26.036  32.574  1.00  0.00     0.020 A 
ATOM     87  C   UNL A   1      50.446  26.140  31.649  1.00  0.00     0.054 A 
BRANCH  87  88
ATOM     88  S   UNL A   1      52.117  25.588  32.088  1.00  0.00     0.124 S 
ATOM     89  O   UNL A   1      52.346  26.292  33.347  1.00  0.00    -0.237 OA
ATOM     90  O   UNL A   1      51.962  24.140  32.197  1.00  0.00    -0.237 OA
ATOM     91  O   UNL A   1      52.937  26.038  30.965  1.00  0.00    -0.744 OA
ENDBRANCH  87  88
ENDBRANCH  61  82
ENDBRANCH  35  36
ENDBRANCH  28  30
ENDBRANCH  27  28
ENDBRANCH  26  27
ENDBRANCH   1  26
TORSDOF 19
ENDMDL
MODEL 3
REMARK VINA RESULT:     -10.5      1.638      2.170
REMARK SMILES C[C@H]1[C@@H](C(=O)OCCOCCOC(=O)c2ccc(-c3c4nc(c(-c5ccc(S(=O)(=O)[O-])cc5)c5ccc([nH]5)c(-c5ccc(S(=O)(=O)[O-])cc5)c5nc(c(-c6ccc(S(=O)(=O)[O-])cc6)c6ccc3[nH]6)C=C5)C=C4)cc2)CCN1C(=O)c1cc2cc(F)ccc2s1
REMARK SMILES IDX 10 1 9 2 8 3 7 4 6 5 4 6 5 7 3 8 1 9 2 10 77 11 75 12 76 13
REMARK SMILES IDX 78 14 79 15 80 16 81 17 89 18 82 19 88 20 83 21 87 22 84 23
REMARK SMILES IDX 86 24 85 25 11 26 12 27 13 28 14 29 15 30 16 31 74 32 17 33
REMARK SMILES IDX 73 34 18 35 19 36 20 37 67 38 21 39 72 40 66 41 68 42 22 43
REMARK SMILES IDX 71 44 65 45 64 46 23 48 53 49 34 50 52 51 35 52 38 53 51 54
REMARK SMILES IDX 69 55 36 56 37 57 50 59 70 60 39 61 24 62 25 63 33 64 26 65
REMARK SMILES IDX 32 66 27 67 28 68 29 69 30 70 31 71 54 72 55 73 63 74 56 75
REMARK SMILES IDX 62 76 57 77 58 78 59 79 60 80 61 81 40 82 41 83 49 84 42 85
REMARK SMILES IDX 48 86 43 87 44 88 45 89 46 90 47 91
REMARK H PARENT 68 47 38 58
REMARK Flexibility Score: inf
ROOT
ATOM      1  C   UNL A   1      40.892  21.570  26.556  1.00  0.00     0.202 C 
ENDROOT
BRANCH   1   2
ATOM      2  O   UNL A   1      39.574  21.852  27.019  1.00  0.00    -0.374 OA
BRANCH   2   3
ATOM      3  C   UNL A   1      38.717  22.585  26.137  1.00  0.00     0.202 C 
BRANCH   3   4
ATOM      4  C   UNL A   1      37.875  21.723  25.194  1.00  0.00     0.261 C 
BRANCH   4   5
ATOM      5  O   UNL A   1      36.515  22.201  25.188  1.00  0.00    -0.463 OA
BRANCH   5   6
ATOM      6  C   UNL A   1      35.555  21.275  25.384  1.00  0.00     0.311 C 
ATOM      7  O   UNL A   1      35.635  20.108  25.007  1.00  0.00    -0.252 OA
BRANCH   6   8
ATOM      8  C   UNL A   1      34.379  21.748  26.217  1.00  0.00     0.123 C 
ATOM      9  C   UNL A   1      32.609  21.408  24.291  1.00  0.00     0.032 C 
ATOM     10  C   UNL A   1      32.927  21.890  25.697  1.00  0.00     0.096 C 
ATOM     11  N   UNL A   1      32.574  23.297  25.931  1.00  0.00    -0.334 N 
ATOM     12  C   UNL A   1      34.737  23.112  26.833  1.00  0.00     0.039 C 
ATOM     13  C   UNL A   1      33.727  24.088  26.284  1.00  0.00     0.121 C 
BRANCH  11  14
ATOM     14  C   UNL A   1      31.326  23.754  26.322  1.00  0.00     0.264 C 
ATOM     15  O   UNL A   1      30.820  23.364  27.376  1.00  0.00    -0.268 OA
BRANCH  14  16
ATOM     16  C   UNL A   1      30.672  24.789  25.552  1.00  0.00     0.093 A 
ATOM     17  C   UNL A   1      30.362  26.061  25.996  1.00  0.00     0.034 A 
ATOM     18  S   UNL A   1      30.983  24.844  23.860  1.00  0.00    -0.130 S 
ATOM     19  C   UNL A   1      31.165  27.001  25.248  1.00  0.00    -0.004 A 
ATOM     20  C   UNL A   1      31.642  26.432  24.061  1.00  0.00     0.035 A 
ATOM     21  C   UNL A   1      31.622  28.290  25.604  1.00  0.00     0.048 A 
ATOM     22  C   UNL A   1      32.562  27.095  23.229  1.00  0.00     0.022 A 
ATOM     23  C   UNL A   1      32.598  28.905  24.824  1.00  0.00     0.123 A 
ATOM     24  C   UNL A   1      33.071  28.321  23.659  1.00  0.00     0.041 A 
ATOM     25  F   UNL A   1      33.127  30.066  25.238  1.00  0.00    -0.207 F 
ENDBRANCH  14  16
ENDBRANCH  11  14
ENDBRANCH   6   8
ENDBRANCH   5   6
ENDBRANCH   4   5
ENDBRANCH   3   4
ENDBRANCH   2   3
ENDBRANCH   1   2
BRANCH   1  26
ATOM     26  C   UNL A   1      41.711  22.770  26.067  1.00  0.00     0.261 C 
BRANCH  26  27
ATOM     27  O   UNL A   1      41.867  23.775  27.081  1.00  0.00    -0.460 OA
BRANCH  27  28
ATOM     28  C   UNL A   1      42.069  25.024  26.592  1.00  0.00     0.338 C 
ATOM     29  O   UNL A   1      42.581  25.318  25.526  1.00  0.00    -0.246 OA
BRANCH  28  30
ATOM     30  C   UNL A   1      41.433  26.032  27.464  1.00  0.00     0.060 A 
ATOM     31  C   UNL A   1      42.091  27.262  27.586  1.00  0.00     0.016 A 
ATOM     32  C   UNL A   1      40.286  25.765  28.217  1.00  0.00     0.016 A 
ATOM     33  C   UNL A   1      41.657  28.194  28.522  1.00  0.00     0.010 A 
ATOM     34  C   UNL A   1      39.851  26.705  29.161  1.00  0.00     0.010 A 
ATOM     35  C   UNL A   1      40.569  27.899  29.353  1.00  0.00    -0.014 A 
BRANCH  35  36
ATOM     36  C   UNL A   1      40.327  28.772  30.529  1.00  0.00     0.031 A 
ATOM     37  C   UNL A   1      41.215  28.624  31.738  1.00  0.00     0.074 A 
ATOM     38  C   UNL A   1      39.403  29.748  30.484  1.00  0.00     0.049 A 
ATOM     39  N   UNL A   1      41.263  29.353  32.823  1.00  0.00    -0.248 NA
ATOM     40  C   UNL A   1      42.180  27.513  31.716  1.00  0.00     0.031 C 
ATOM     41  C   UNL A   1      38.507  30.013  29.358  1.00  0.00     0.029 A 
ATOM     42  N   UNL A   1      39.081  30.712  31.405  1.00  0.00    -0.354 N 
ATOM     43  C   UNL A   1      42.264  28.794  33.610  1.00  0.00     0.074 A 
ATOM     44  C   UNL A   1      42.770  27.642  32.895  1.00  0.00     0.031 C 
ATOM     45  C   UNL A   1      37.744  31.080  29.652  1.00  0.00     0.029 A 
ATOM     46  C   UNL A   1      38.087  31.562  30.988  1.00  0.00     0.049 A 
ATOM     47  H   UNL A   1      39.523  30.787  32.282  1.00  0.00     0.167 HD
ATOM     48  C   UNL A   1      42.731  29.206  34.812  1.00  0.00     0.031 A 
ATOM     49  C   UNL A   1      37.519  32.615  31.612  1.00  0.00     0.031 A 
ATOM     50  C   UNL A   1      42.221  30.344  35.529  1.00  0.00     0.049 A 
ATOM     51  C   UNL A   1      38.023  33.028  32.968  1.00  0.00     0.074 A 
ATOM     52  C   UNL A   1      42.631  30.848  36.751  1.00  0.00     0.029 A 
ATOM     53  N   UNL A   1      41.182  31.152  35.092  1.00  0.00    -0.354 N 
ATOM     54  N   UNL A   1      38.992  32.505  33.684  1.00  0.00    -0.248 NA
ATOM     55  C   UNL A   1      37.370  34.187  33.594  1.00  0.00     0.031 C 
ATOM     56  C   UNL A   1      41.809  31.935  37.073  1.00  0.00     0.029 A 
ATOM     57  C   UNL A   1      40.924  32.139  36.027  1.00  0.00     0.049 A 
ATOM     58  H   UNL A   1      40.700  31.040  34.240  1.00  0.00     0.167 HD
ATOM     59  C   UNL A   1      39.081  33.288  34.831  1.00  0.00     0.074 A 
ATOM     60  C   UNL A   1      38.078  34.327  34.705  1.00  0.00     0.031 C 
ATOM     61  C   UNL A   1      39.917  33.161  35.891  1.00  0.00     0.031 A 
BRANCH  48  62
ATOM     62  C   UNL A   1      43.837  28.399  35.438  1.00  0.00    -0.014 A 
ATOM     63  C   UNL A   1      45.188  28.730  35.230  1.00  0.00     0.010 A 
ATOM     64  C   UNL A   1      43.520  27.306  36.264  1.00  0.00     0.010 A 
ATOM     65  C   UNL A   1      46.203  27.958  35.803  1.00  0.00     0.020 A 
ATOM     66  C   UNL A   1      44.531  26.546  36.860  1.00  0.00     0.020 A 
ATOM     67  C   UNL A   1      45.867  26.866  36.609  1.00  0.00     0.054 A 
BRANCH  67  68
ATOM     68  S   UNL A   1      47.201  25.886  37.352  1.00  0.00     0.124 S 
ATOM     69  O   UNL A   1      47.766  26.829  38.314  1.00  0.00    -0.237 OA
ATOM     70  O   UNL A   1      46.484  24.753  37.930  1.00  0.00    -0.237 OA
ATOM     71  O   UNL A   1      48.064  25.561  36.219  1.00  0.00    -0.744 OA
ENDBRANCH  67  68
ENDBRANCH  48  62
BRANCH  49  72
ATOM     72  C   UNL A   1      36.410  33.356  30.952  1.00  0.00    -0.014 A 
ATOM     73  C   UNL A   1      35.191  33.572  31.618  1.00  0.00     0.010 A 
ATOM     74  C   UNL A   1      36.574  33.852  29.647  1.00  0.00     0.010 A 
ATOM     75  C   UNL A   1      34.151  34.260  30.984  1.00  0.00     0.020 A 
ATOM     76  C   UNL A   1      35.547  34.561  29.019  1.00  0.00     0.020 A 
ATOM     77  C   UNL A   1      34.337  34.752  29.688  1.00  0.00     0.054 A 
BRANCH  77  78
ATOM     78  S   UNL A   1      32.998  35.694  28.905  1.00  0.00     0.124 S 
ATOM     79  O   UNL A   1      32.225  36.140  30.060  1.00  0.00    -0.237 OA
ATOM     80  O   UNL A   1      33.724  36.739  28.186  1.00  0.00    -0.237 OA
ATOM     81  O   UNL A   1      32.341  34.705  28.053  1.00  0.00    -0.744 OA
ENDBRANCH  77  78
ENDBRANCH  49  72
BRANCH  61  82
ATOM     82  C   UNL A   1      39.805  34.189  36.985  1.00  0.00    -0.014 A 
ATOM     83  C   UNL A   1      40.439  35.439  36.879  1.00  0.00     0.010 A 
ATOM     84  C   UNL A   1      39.028  33.909  38.124  1.00  0.00     0.010 A 
ATOM     85  C   UNL A   1      40.336  36.374  37.913  1.00  0.00     0.020 A 
ATOM     86  C   UNL A   1      38.899  34.851  39.148  1.00  0.00     0.020 A 
ATOM     87  C   UNL A   1      39.572  36.071  39.044  1.00  0.00     0.054 A 
BRANCH  87  88
ATOM     88  S   UNL A   1      39.437  37.304  40.367  1.00  0.00     0.124 S 
ATOM     89  O   UNL A   1      38.678  36.578  41.381  1.00  0.00    -0.237 OA
ATOM     90  O   UNL A   1      40.832  37.576  40.701  1.00  0.00    -0.237 OA
ATOM     91  O   UNL A   1      38.727  38.415  39.734  1.00  0.00    -0.744 OA
ENDBRANCH  87  88
ENDBRANCH  61  82
ENDBRANCH  35  36
ENDBRANCH  28  30
ENDBRANCH  27  28
ENDBRANCH  26  27
ENDBRANCH   1  26
TORSDOF 19
ENDMDL
