MODEL 1
REMARK VINA RESULT:      -8.5      0.000      0.000
REMARK SMILES Cc1cscc1C(=O)NC1(C(=O)OCCOCCOC(=O)c2ccc(-c3c4nc(c(-c5ccc(S(=O)(=O)[O-])cc5)c5ccc([nH]5)c(-c5ccc(S(=O)(=O)[O-])cc5)c5nc(c(-c6ccc(S(=O)(=O)[O-])cc6)c6ccc3[nH]6)C=C5)C=C4)cc2)CCCC1
REMARK SMILES IDX 17 1 16 2 15 3 14 4 13 5 11 6 12 7 10 8 82 9 85 10 83 11
REMARK SMILES IDX 84 12 9 13 7 14 8 15 6 17 1 18 2 19 3 20 4 21 5 22 18 23
REMARK SMILES IDX 19 24 20 25 21 26 22 27 23 28 81 29 24 30 80 31 25 32 26 33
REMARK SMILES IDX 27 34 74 35 28 36 79 37 73 38 75 39 29 40 78 41 72 42 71 43
REMARK SMILES IDX 30 45 60 46 41 47 59 48 42 49 45 50 58 51 76 52 43 53 44 54
REMARK SMILES IDX 57 56 77 57 46 58 31 59 32 60 40 61 33 62 39 63 34 64 35 65
REMARK SMILES IDX 36 66 37 67 38 68 61 69 62 70 70 71 63 72 69 73 64 74 65 75
REMARK SMILES IDX 66 76 67 77 68 78 47 79 48 80 56 81 49 82 55 83 50 84 51 85
REMARK SMILES IDX 52 86 53 87 54 88
REMARK H PARENT 9 16 75 44 45 55
REMARK Flexibility Score: inf
ROOT
ATOM      1  C   UNL A   1      34.211  34.495  29.696  1.00  0.00     0.202 C 
ENDROOT
BRANCH   1   2
ATOM      2  O   UNL A   1      34.231  34.597  31.116  1.00  0.00    -0.374 OA
BRANCH   2   3
ATOM      3  C   UNL A   1      34.438  33.400  31.864  1.00  0.00     0.202 C 
BRANCH   3   4
ATOM      4  C   UNL A   1      34.304  33.492  33.387  1.00  0.00     0.261 C 
BRANCH   4   5
ATOM      5  O   UNL A   1      35.455  32.975  34.090  1.00  0.00    -0.461 OA
BRANCH   5   6
ATOM      6  C   UNL A   1      36.518  33.825  34.170  1.00  0.00     0.331 C 
ATOM      7  O   UNL A   1      36.457  35.019  33.896  1.00  0.00    -0.249 OA
BRANCH   6   8
ATOM      8  C   UNL A   1      37.837  33.122  34.615  1.00  0.00     0.138 C 
ATOM      9  C   UNL A   1      37.887  32.866  36.106  1.00  0.00     0.040 C 
ATOM     10  C   UNL A   1      39.096  34.009  34.393  1.00  0.00     0.040 C 
ATOM     11  C   UNL A   1      38.504  34.103  36.740  1.00  0.00     0.003 C 
ATOM     12  C   UNL A   1      39.529  34.580  35.739  1.00  0.00     0.003 C 
BRANCH   8  13
ATOM     13  N   UNL A   1      37.998  31.955  33.710  1.00  0.00    -0.336 N 
ATOM     14  C   UNL A   1      38.463  30.670  33.750  1.00  0.00     0.253 C 
ATOM     15  O   UNL A   1      37.663  29.912  33.175  1.00  0.00    -0.269 OA
ATOM     16  H   UNL A   1      37.670  32.173  32.809  1.00  0.00     0.165 HD
BRANCH  14  17
ATOM     17  C   UNL A   1      39.790  30.134  34.134  1.00  0.00     0.053 A 
ATOM     18  C   UNL A   1      40.933  31.401  36.195  1.00  0.00     0.046 C 
ATOM     19  C   UNL A   1      40.858  30.416  35.088  1.00  0.00    -0.028 A 
ATOM     20  C   UNL A   1      41.945  29.565  34.914  1.00  0.00     0.069 A 
ATOM     21  S   UNL A   1      41.705  28.375  33.740  1.00  0.00    -0.151 S 
ATOM     22  C   UNL A   1      40.164  28.993  33.412  1.00  0.00     0.079 A 
ENDBRANCH  14  17
ENDBRANCH   8  13
ENDBRANCH   6   8
ENDBRANCH   5   6
ENDBRANCH   4   5
ENDBRANCH   3   4
ENDBRANCH   2   3
ENDBRANCH   1   2
BRANCH   1  23
ATOM     23  C   UNL A   1      33.702  33.177  29.093  1.00  0.00     0.261 C 
BRANCH  23  24
ATOM     24  O   UNL A   1      34.654  32.539  28.221  1.00  0.00    -0.460 OA
BRANCH  24  25
ATOM     25  C   UNL A   1      34.431  31.215  28.024  1.00  0.00     0.338 C 
ATOM     26  O   UNL A   1      33.397  30.697  27.619  1.00  0.00    -0.246 OA
BRANCH  25  27
ATOM     27  C   UNL A   1      35.667  30.434  28.197  1.00  0.00     0.060 A 
ATOM     28  C   UNL A   1      35.966  29.979  29.488  1.00  0.00     0.016 A 
ATOM     29  C   UNL A   1      36.589  30.278  27.160  1.00  0.00     0.016 A 
ATOM     30  C   UNL A   1      37.210  29.415  29.761  1.00  0.00     0.010 A 
ATOM     31  C   UNL A   1      37.843  29.719  27.439  1.00  0.00     0.010 A 
ATOM     32  C   UNL A   1      38.174  29.326  28.750  1.00  0.00    -0.014 A 
BRANCH  32  33
ATOM     33  C   UNL A   1      39.569  28.972  29.115  1.00  0.00     0.031 A 
ATOM     34  C   UNL A   1      40.402  29.968  29.879  1.00  0.00     0.074 A 
ATOM     35  C   UNL A   1      40.070  27.758  28.822  1.00  0.00     0.049 A 
ATOM     36  N   UNL A   1      41.631  29.857  30.315  1.00  0.00    -0.248 NA
ATOM     37  C   UNL A   1      39.764  31.256  30.199  1.00  0.00     0.031 C 
ATOM     38  C   UNL A   1      39.350  26.690  28.130  1.00  0.00     0.029 A 
ATOM     39  N   UNL A   1      41.305  27.219  29.080  1.00  0.00    -0.354 N 
ATOM     40  C   UNL A   1      41.916  31.059  30.954  1.00  0.00     0.074 A 
ATOM     41  C   UNL A   1      40.741  31.893  30.827  1.00  0.00     0.031 C 
ATOM     42  C   UNL A   1      40.160  25.625  28.011  1.00  0.00     0.029 A 
ATOM     43  C   UNL A   1      41.462  25.942  28.595  1.00  0.00     0.049 A 
ATOM     44  H   UNL A   1      42.014  27.701  29.565  1.00  0.00     0.167 HD
ATOM     45  C   UNL A   1      43.050  31.433  31.592  1.00  0.00     0.031 A 
ATOM     46  C   UNL A   1      42.537  25.128  28.606  1.00  0.00     0.031 A 
ATOM     47  C   UNL A   1      44.222  30.606  31.711  1.00  0.00     0.049 A 
ATOM     48  C   UNL A   1      43.809  25.591  29.265  1.00  0.00     0.074 A 
ATOM     49  C   UNL A   1      45.415  30.891  32.355  1.00  0.00     0.029 A 
ATOM     50  N   UNL A   1      44.353  29.337  31.171  1.00  0.00    -0.354 N 
ATOM     51  N   UNL A   1      44.052  26.721  29.885  1.00  0.00    -0.248 NA
ATOM     52  C   UNL A   1      44.949  24.664  29.232  1.00  0.00     0.031 C 
ATOM     53  C   UNL A   1      46.286  29.814  32.157  1.00  0.00     0.029 A 
ATOM     54  C   UNL A   1      45.617  28.836  31.439  1.00  0.00     0.049 A 
ATOM     55  H   UNL A   1      43.652  28.861  30.670  1.00  0.00     0.167 HD
ATOM     56  C   UNL A   1      45.366  26.632  30.335  1.00  0.00     0.074 A 
ATOM     57  C   UNL A   1      45.860  25.332  29.928  1.00  0.00     0.031 C 
ATOM     58  C   UNL A   1      46.096  27.543  31.024  1.00  0.00     0.031 A 
BRANCH  45  59
ATOM     59  C   UNL A   1      43.092  32.817  32.184  1.00  0.00    -0.014 A 
ATOM     60  C   UNL A   1      42.820  33.037  33.545  1.00  0.00     0.010 A 
ATOM     61  C   UNL A   1      43.451  33.908  31.371  1.00  0.00     0.010 A 
ATOM     62  C   UNL A   1      42.870  34.330  34.075  1.00  0.00     0.020 A 
ATOM     63  C   UNL A   1      43.526  35.198  31.903  1.00  0.00     0.020 A 
ATOM     64  C   UNL A   1      43.220  35.403  33.249  1.00  0.00     0.054 A 
BRANCH  64  65
ATOM     65  S   UNL A   1      43.299  37.068  33.966  1.00  0.00     0.124 S 
ATOM     66  O   UNL A   1      44.393  36.931  34.925  1.00  0.00    -0.237 OA
ATOM     67  O   UNL A   1      43.585  37.905  32.804  1.00  0.00    -0.237 OA
ATOM     68  O   UNL A   1      41.976  37.255  34.554  1.00  0.00    -0.744 OA
ENDBRANCH  64  65
ENDBRANCH  45  59
BRANCH  46  69
ATOM     69  C   UNL A   1      42.462  23.798  27.944  1.00  0.00    -0.014 A 
ATOM     70  C   UNL A   1      42.675  23.666  26.561  1.00  0.00     0.010 A 
ATOM     71  C   UNL A   1      42.176  22.649  28.705  1.00  0.00     0.010 A 
ATOM     72  C   UNL A   1      42.594  22.410  25.950  1.00  0.00     0.020 A 
ATOM     73  C   UNL A   1      42.120  21.391  28.102  1.00  0.00     0.020 A 
ATOM     74  C   UNL A   1      42.320  21.281  26.725  1.00  0.00     0.054 A 
BRANCH  74  75
ATOM     75  S   UNL A   1      42.278  19.653  25.925  1.00  0.00     0.124 S 
ATOM     76  O   UNL A   1      43.277  19.806  24.873  1.00  0.00    -0.237 OA
ATOM     77  O   UNL A   1      42.640  18.754  27.018  1.00  0.00    -0.237 OA
ATOM     78  O   UNL A   1      40.895  19.536  25.466  1.00  0.00    -0.744 OA
ENDBRANCH  74  75
ENDBRANCH  46  69
BRANCH  58  79
ATOM     79  C   UNL A   1      47.501  27.160  31.407  1.00  0.00    -0.014 A 
ATOM     80  C   UNL A   1      47.757  26.384  32.551  1.00  0.00     0.010 A 
ATOM     81  C   UNL A   1      48.574  27.539  30.580  1.00  0.00     0.010 A 
ATOM     82  C   UNL A   1      49.066  26.019  32.878  1.00  0.00     0.020 A 
ATOM     83  C   UNL A   1      49.882  27.154  30.890  1.00  0.00     0.020 A 
ATOM     84  C   UNL A   1      50.121  26.409  32.046  1.00  0.00     0.054 A 
BRANCH  84  85
ATOM     85  S   UNL A   1      51.807  25.890  32.469  1.00  0.00     0.124 S 
ATOM     86  O   UNL A   1      52.286  27.025  33.254  1.00  0.00    -0.237 OA
ATOM     87  O   UNL A   1      51.587  24.657  33.219  1.00  0.00    -0.237 OA
ATOM     88  O   UNL A   1      52.451  25.715  31.169  1.00  0.00    -0.744 OA
ENDBRANCH  84  85
ENDBRANCH  58  79
ENDBRANCH  32  33
ENDBRANCH  25  27
ENDBRANCH  24  25
ENDBRANCH  23  24
ENDBRANCH   1  23
TORSDOF 19
ENDMDL
MODEL 2
REMARK VINA RESULT:      -8.4      4.364     11.385
REMARK SMILES Cc1cscc1C(=O)NC1(C(=O)OCCOCCOC(=O)c2ccc(-c3c4nc(c(-c5ccc(S(=O)(=O)[O-])cc5)c5ccc([nH]5)c(-c5ccc(S(=O)(=O)[O-])cc5)c5nc(c(-c6ccc(S(=O)(=O)[O-])cc6)c6ccc3[nH]6)C=C5)C=C4)cc2)CCCC1
REMARK SMILES IDX 17 1 16 2 15 3 14 4 13 5 11 6 12 7 10 8 82 9 85 10 83 11
REMARK SMILES IDX 84 12 9 13 7 14 8 15 6 17 1 18 2 19 3 20 4 21 5 22 18 23
REMARK SMILES IDX 19 24 20 25 21 26 22 27 23 28 81 29 24 30 80 31 25 32 26 33
REMARK SMILES IDX 27 34 74 35 28 36 79 37 73 38 75 39 29 40 78 41 72 42 71 43
REMARK SMILES IDX 30 45 60 46 41 47 59 48 42 49 45 50 58 51 76 52 43 53 44 54
REMARK SMILES IDX 57 56 77 57 46 58 31 59 32 60 40 61 33 62 39 63 34 64 35 65
REMARK SMILES IDX 36 66 37 67 38 68 61 69 62 70 70 71 63 72 69 73 64 74 65 75
REMARK SMILES IDX 66 76 67 77 68 78 47 79 48 80 56 81 49 82 55 83 50 84 51 85
REMARK SMILES IDX 52 86 53 87 54 88
REMARK H PARENT 9 16 75 44 45 55
REMARK Flexibility Score: inf
ROOT
ATOM      1  C   UNL A   1      36.825  20.418  25.038  1.00  0.00     0.202 C 
ENDROOT
BRANCH   1   2
ATOM      2  O   UNL A   1      35.519  20.826  25.432  1.00  0.00    -0.374 OA
BRANCH   2   3
ATOM      3  C   UNL A   1      34.409  20.136  24.861  1.00  0.00     0.202 C 
BRANCH   3   4
ATOM      4  C   UNL A   1      33.011  20.690  25.155  1.00  0.00     0.261 C 
BRANCH   4   5
ATOM      5  O   UNL A   1      33.036  21.925  25.904  1.00  0.00    -0.461 OA
BRANCH   5   6
ATOM      6  C   UNL A   1      32.222  22.910  25.429  1.00  0.00     0.331 C 
ATOM      7  O   UNL A   1      31.045  22.735  25.130  1.00  0.00    -0.249 OA
BRANCH   6   8
ATOM      8  C   UNL A   1      32.944  24.284  25.271  1.00  0.00     0.138 C 
ATOM      9  C   UNL A   1      33.319  24.583  23.836  1.00  0.00     0.040 C 
ATOM     10  C   UNL A   1      34.325  24.323  25.987  1.00  0.00     0.040 C 
ATOM     11  C   UNL A   1      34.704  23.994  23.617  1.00  0.00     0.003 C 
ATOM     12  C   UNL A   1      35.419  24.187  24.933  1.00  0.00     0.003 C 
BRANCH   8  13
ATOM     13  N   UNL A   1      32.091  25.272  25.980  1.00  0.00    -0.336 N 
ATOM     14  C   UNL A   1      31.049  26.118  25.719  1.00  0.00     0.253 C 
ATOM     15  O   UNL A   1      30.194  26.027  26.616  1.00  0.00    -0.269 OA
ATOM     16  H   UNL A   1      32.356  25.337  26.925  1.00  0.00     0.165 HD
BRANCH  14  17
ATOM     17  C   UNL A   1      30.918  27.212  24.729  1.00  0.00     0.053 A 
ATOM     18  C   UNL A   1      33.051  28.819  24.577  1.00  0.00     0.046 C 
ATOM     19  C   UNL A   1      31.677  28.364  24.252  1.00  0.00    -0.028 A 
ATOM     20  C   UNL A   1      30.966  29.099  23.309  1.00  0.00     0.069 A 
ATOM     21  S   UNL A   1      29.480  28.416  22.884  1.00  0.00    -0.151 S 
ATOM     22  C   UNL A   1      29.737  27.149  23.977  1.00  0.00     0.079 A 
ENDBRANCH  14  17
ENDBRANCH   8  13
ENDBRANCH   6   8
ENDBRANCH   5   6
ENDBRANCH   4   5
ENDBRANCH   3   4
ENDBRANCH   2   3
ENDBRANCH   1   2
BRANCH   1  23
ATOM     23  C   UNL A   1      37.898  21.512  24.928  1.00  0.00     0.261 C 
BRANCH  23  24
ATOM     24  O   UNL A   1      38.148  22.198  26.169  1.00  0.00    -0.460 OA
BRANCH  24  25
ATOM     25  C   UNL A   1      39.418  22.656  26.308  1.00  0.00     0.338 C 
ATOM     26  O   UNL A   1      40.441  22.117  25.904  1.00  0.00    -0.246 OA
BRANCH  25  27
ATOM     27  C   UNL A   1      39.435  24.014  26.877  1.00  0.00     0.060 A 
ATOM     28  C   UNL A   1      40.171  24.990  26.192  1.00  0.00     0.016 A 
ATOM     29  C   UNL A   1      38.874  24.296  28.123  1.00  0.00     0.016 A 
ATOM     30  C   UNL A   1      40.398  26.234  26.775  1.00  0.00     0.010 A 
ATOM     31  C   UNL A   1      39.111  25.545  28.713  1.00  0.00     0.010 A 
ATOM     32  C   UNL A   1      39.910  26.502  28.061  1.00  0.00    -0.014 A 
BRANCH  32  33
ATOM     33  C   UNL A   1      40.380  27.720  28.768  1.00  0.00     0.031 A 
ATOM     34  C   UNL A   1      41.785  27.757  29.310  1.00  0.00     0.074 A 
ATOM     35  C   UNL A   1      39.587  28.802  28.877  1.00  0.00     0.049 A 
ATOM     36  N   UNL A   1      42.403  28.723  29.941  1.00  0.00    -0.248 NA
ATOM     37  C   UNL A   1      42.602  26.549  29.110  1.00  0.00     0.031 C 
ATOM     38  C   UNL A   1      38.226  28.909  28.353  1.00  0.00     0.029 A 
ATOM     39  N   UNL A   1      39.820  30.022  29.461  1.00  0.00    -0.354 N 
ATOM     40  C   UNL A   1      43.677  28.239  30.218  1.00  0.00     0.074 A 
ATOM     41  C   UNL A   1      43.735  26.886  29.709  1.00  0.00     0.031 C 
ATOM     42  C   UNL A   1      37.741  30.128  28.646  1.00  0.00     0.029 A 
ATOM     43  C   UNL A   1      38.746  30.877  29.399  1.00  0.00     0.049 A 
ATOM     44  H   UNL A   1      40.676  30.262  29.885  1.00  0.00     0.167 HD
ATOM     45  C   UNL A   1      44.708  28.865  30.835  1.00  0.00     0.031 A 
ATOM     46  C   UNL A   1      38.584  32.116  29.906  1.00  0.00     0.031 A 
ATOM     47  C   UNL A   1      44.648  30.208  31.348  1.00  0.00     0.049 A 
ATOM     48  C   UNL A   1      39.722  32.767  30.645  1.00  0.00     0.074 A 
ATOM     49  C   UNL A   1      45.646  30.936  31.974  1.00  0.00     0.029 A 
ATOM     50  N   UNL A   1      43.529  31.024  31.302  1.00  0.00    -0.354 N 
ATOM     51  N   UNL A   1      40.927  32.304  30.877  1.00  0.00    -0.248 NA
ATOM     52  C   UNL A   1      39.479  34.113  31.185  1.00  0.00     0.031 C 
ATOM     53  C   UNL A   1      45.113  32.172  32.354  1.00  0.00     0.029 A 
ATOM     54  C   UNL A   1      43.801  32.236  31.914  1.00  0.00     0.049 A 
ATOM     55  H   UNL A   1      42.667  30.778  30.894  1.00  0.00     0.167 HD
ATOM     56  C   UNL A   1      41.593  33.310  31.570  1.00  0.00     0.074 A 
ATOM     57  C   UNL A   1      40.662  34.411  31.707  1.00  0.00     0.031 C 
ATOM     58  C   UNL A   1      42.863  33.321  32.048  1.00  0.00     0.031 A 
BRANCH  45  59
ATOM     59  C   UNL A   1      45.983  28.087  31.023  1.00  0.00    -0.014 A 
ATOM     60  C   UNL A   1      46.988  28.086  30.039  1.00  0.00     0.010 A 
ATOM     61  C   UNL A   1      46.195  27.381  32.220  1.00  0.00     0.010 A 
ATOM     62  C   UNL A   1      48.168  27.361  30.237  1.00  0.00     0.020 A 
ATOM     63  C   UNL A   1      47.383  26.675  32.432  1.00  0.00     0.020 A 
ATOM     64  C   UNL A   1      48.356  26.657  31.431  1.00  0.00     0.054 A 
BRANCH  64  65
ATOM     65  S   UNL A   1      49.905  25.743  31.671  1.00  0.00     0.124 S 
ATOM     66  O   UNL A   1      49.515  24.749  32.668  1.00  0.00    -0.237 OA
ATOM     67  O   UNL A   1      50.177  25.218  30.335  1.00  0.00    -0.237 OA
ATOM     68  O   UNL A   1      50.839  26.762  32.139  1.00  0.00    -0.744 OA
ENDBRANCH  64  65
ENDBRANCH  45  59
BRANCH  46  69
ATOM     69  C   UNL A   1      37.277  32.811  29.752  1.00  0.00    -0.014 A 
ATOM     70  C   UNL A   1      36.319  32.782  30.780  1.00  0.00     0.010 A 
ATOM     71  C   UNL A   1      36.989  33.512  28.567  1.00  0.00     0.010 A 
ATOM     72  C   UNL A   1      35.091  33.433  30.619  1.00  0.00     0.020 A 
ATOM     73  C   UNL A   1      35.775  34.185  28.415  1.00  0.00     0.020 A 
ATOM     74  C   UNL A   1      34.829  34.133  29.439  1.00  0.00     0.054 A 
BRANCH  74  75
ATOM     75  S   UNL A   1      33.256  35.022  29.273  1.00  0.00     0.124 S 
ATOM     76  O   UNL A   1      32.555  34.217  28.277  1.00  0.00    -0.237 OA
ATOM     77  O   UNL A   1      32.715  34.963  30.629  1.00  0.00    -0.237 OA
ATOM     78  O   UNL A   1      33.663  36.354  28.831  1.00  0.00    -0.744 OA
ENDBRANCH  74  75
ENDBRANCH  46  69
BRANCH  58  79
ATOM     79  C   UNL A   1      43.332  34.572  32.742  1.00  0.00    -0.014 A 
ATOM     80  C   UNL A   1      43.315  34.675  34.144  1.00  0.00     0.010 A 
ATOM     81  C   UNL A   1      43.845  35.638  31.981  1.00  0.00     0.010 A 
ATOM     82  C   UNL A   1      43.777  35.836  34.772  1.00  0.00     0.020 A 
ATOM     83  C   UNL A   1      44.331  36.789  32.606  1.00  0.00     0.020 A 
ATOM     84  C   UNL A   1      44.279  36.887  33.998  1.00  0.00     0.054 A 
BRANCH  84  85
ATOM     85  S   UNL A   1      44.909  38.367  34.836  1.00  0.00     0.124 S 
ATOM     86  O   UNL A   1      44.730  39.395  33.813  1.00  0.00    -0.237 OA
ATOM     87  O   UNL A   1      44.032  38.479  35.998  1.00  0.00    -0.237 OA
ATOM     88  O   UNL A   1      46.298  38.028  35.142  1.00  0.00    -0.744 OA
ENDBRANCH  84  85
ENDBRANCH  58  79
ENDBRANCH  32  33
ENDBRANCH  25  27
ENDBRANCH  24  25
ENDBRANCH  23  24
ENDBRANCH   1  23
TORSDOF 19
ENDMDL
MODEL 3
REMARK VINA RESULT:      -8.3      3.980      7.187
REMARK SMILES Cc1cscc1C(=O)NC1(C(=O)OCCOCCOC(=O)c2ccc(-c3c4nc(c(-c5ccc(S(=O)(=O)[O-])cc5)c5ccc([nH]5)c(-c5ccc(S(=O)(=O)[O-])cc5)c5nc(c(-c6ccc(S(=O)(=O)[O-])cc6)c6ccc3[nH]6)C=C5)C=C4)cc2)CCCC1
REMARK SMILES IDX 17 1 16 2 15 3 14 4 13 5 11 6 12 7 10 8 82 9 85 10 83 11
REMARK SMILES IDX 84 12 9 13 7 14 8 15 6 17 1 18 2 19 3 20 4 21 5 22 18 23
REMARK SMILES IDX 19 24 20 25 21 26 22 27 23 28 81 29 24 30 80 31 25 32 26 33
REMARK SMILES IDX 27 34 74 35 28 36 79 37 73 38 75 39 29 40 78 41 72 42 71 43
REMARK SMILES IDX 30 45 60 46 41 47 59 48 42 49 45 50 58 51 76 52 43 53 44 54
REMARK SMILES IDX 57 56 77 57 46 58 31 59 32 60 40 61 33 62 39 63 34 64 35 65
REMARK SMILES IDX 36 66 37 67 38 68 61 69 62 70 70 71 63 72 69 73 64 74 65 75
REMARK SMILES IDX 66 76 67 77 68 78 47 79 48 80 56 81 49 82 55 83 50 84 51 85
REMARK SMILES IDX 52 86 53 87 54 88
REMARK H PARENT 9 16 75 44 45 55
REMARK Flexibility Score: inf
ROOT
ATOM      1  C   UNL A   1      31.903  29.266  26.890  1.00  0.00     0.202 C 
ENDROOT
BRANCH   1   2
ATOM      2  O   UNL A   1      31.563  29.359  25.510  1.00  0.00    -0.374 OA
BRANCH   2   3
ATOM      3  C   UNL A   1      31.225  28.154  24.828  1.00  0.00     0.202 C 
BRANCH   3   4
ATOM      4  C   UNL A   1      31.531  26.833  25.542  1.00  0.00     0.261 C 
BRANCH   4   5
ATOM      5  O   UNL A   1      31.885  25.766  24.635  1.00  0.00    -0.461 OA
BRANCH   5   6
ATOM      6  C   UNL A   1      33.222  25.539  24.496  1.00  0.00     0.331 C 
ATOM      7  O   UNL A   1      34.034  26.411  24.202  1.00  0.00    -0.249 OA
BRANCH   6   8
ATOM      8  C   UNL A   1      33.620  24.047  24.715  1.00  0.00     0.138 C 
ATOM      9  C   UNL A   1      34.638  23.872  25.820  1.00  0.00     0.040 C 
ATOM     10  C   UNL A   1      34.358  23.435  23.489  1.00  0.00     0.040 C 
ATOM     11  C   UNL A   1      36.009  23.990  25.172  1.00  0.00     0.003 C 
ATOM     12  C   UNL A   1      35.848  23.363  23.808  1.00  0.00     0.003 C 
BRANCH   8  13
ATOM     13  N   UNL A   1      32.341  23.301  24.832  1.00  0.00    -0.336 N 
ATOM     14  C   UNL A   1      31.898  22.049  25.157  1.00  0.00     0.253 C 
ATOM     15  O   UNL A   1      30.924  22.130  25.924  1.00  0.00    -0.269 OA
ATOM     16  H   UNL A   1      31.582  23.886  24.610  1.00  0.00     0.165 HD
BRANCH  14  17
ATOM     17  C   UNL A   1      32.232  20.726  24.580  1.00  0.00     0.053 A 
ATOM     18  C   UNL A   1      31.966  20.587  21.922  1.00  0.00     0.046 C 
ATOM     19  C   UNL A   1      32.237  20.059  23.282  1.00  0.00    -0.028 A 
ATOM     20  C   UNL A   1      32.603  18.722  23.388  1.00  0.00     0.069 A 
ATOM     21  S   UNL A   1      33.049  18.253  24.948  1.00  0.00    -0.151 S 
ATOM     22  C   UNL A   1      32.725  19.813  25.521  1.00  0.00     0.079 A 
ENDBRANCH  14  17
ENDBRANCH   8  13
ENDBRANCH   6   8
ENDBRANCH   5   6
ENDBRANCH   4   5
ENDBRANCH   3   4
ENDBRANCH   2   3
ENDBRANCH   1   2
BRANCH   1  23
ATOM     23  C   UNL A   1      33.389  29.392  27.258  1.00  0.00     0.261 C 
BRANCH  23  24
ATOM     24  O   UNL A   1      33.889  30.740  27.170  1.00  0.00    -0.460 OA
BRANCH  24  25
ATOM     25  C   UNL A   1      34.636  31.129  28.235  1.00  0.00     0.338 C 
ATOM     26  O   UNL A   1      34.307  31.916  29.113  1.00  0.00    -0.246 OA
BRANCH  25  27
ATOM     27  C   UNL A   1      35.881  30.348  28.325  1.00  0.00     0.060 A 
ATOM     28  C   UNL A   1      36.197  29.782  29.567  1.00  0.00     0.016 A 
ATOM     29  C   UNL A   1      36.793  30.294  27.270  1.00  0.00     0.016 A 
ATOM     30  C   UNL A   1      37.448  29.208  29.778  1.00  0.00     0.010 A 
ATOM     31  C   UNL A   1      38.055  29.724  27.486  1.00  0.00     0.010 A 
ATOM     32  C   UNL A   1      38.403  29.219  28.753  1.00  0.00    -0.014 A 
BRANCH  32  33
ATOM     33  C   UNL A   1      39.805  28.847  29.071  1.00  0.00     0.031 A 
ATOM     34  C   UNL A   1      40.687  29.848  29.771  1.00  0.00     0.074 A 
ATOM     35  C   UNL A   1      40.270  27.615  28.795  1.00  0.00     0.049 A 
ATOM     36  N   UNL A   1      41.931  29.725  30.160  1.00  0.00    -0.248 NA
ATOM     37  C   UNL A   1      40.088  31.157  30.079  1.00  0.00     0.031 C 
ATOM     38  C   UNL A   1      39.502  26.543  28.164  1.00  0.00     0.029 A 
ATOM     39  N   UNL A   1      41.504  27.059  29.019  1.00  0.00    -0.354 N 
ATOM     40  C   UNL A   1      42.265  30.938  30.751  1.00  0.00     0.074 A 
ATOM     41  C   UNL A   1      41.102  31.793  30.647  1.00  0.00     0.031 C 
ATOM     42  C   UNL A   1      40.285  25.458  28.045  1.00  0.00     0.029 A 
ATOM     43  C   UNL A   1      41.616  25.766  28.566  1.00  0.00     0.049 A 
ATOM     44  H   UNL A   1      42.241  27.540  29.460  1.00  0.00     0.167 HD
ATOM     45  C   UNL A   1      43.431  31.307  31.332  1.00  0.00     0.031 A 
ATOM     46  C   UNL A   1      42.675  24.931  28.558  1.00  0.00     0.031 A 
ATOM     47  C   UNL A   1      44.591  30.461  31.428  1.00  0.00     0.049 A 
ATOM     48  C   UNL A   1      43.981  25.386  29.150  1.00  0.00     0.074 A 
ATOM     49  C   UNL A   1      45.814  30.740  32.013  1.00  0.00     0.029 A 
ATOM     50  N   UNL A   1      44.676  29.174  30.920  1.00  0.00    -0.354 N 
ATOM     51  N   UNL A   1      44.271  26.529  29.726  1.00  0.00    -0.248 NA
ATOM     52  C   UNL A   1      45.101  24.435  29.099  1.00  0.00     0.031 C 
ATOM     53  C   UNL A   1      46.655  29.640  31.812  1.00  0.00     0.029 A 
ATOM     54  C   UNL A   1      45.939  28.656  31.152  1.00  0.00     0.049 A 
ATOM     55  H   UNL A   1      43.945  28.699  30.462  1.00  0.00     0.167 HD
ATOM     56  C   UNL A   1      45.600  26.426  30.125  1.00  0.00     0.074 A 
ATOM     57  C   UNL A   1      46.052  25.105  29.737  1.00  0.00     0.031 C 
ATOM     58  C   UNL A   1      46.376  27.342  30.757  1.00  0.00     0.031 A 
BRANCH  45  59
ATOM     59  C   UNL A   1      43.524  32.707  31.879  1.00  0.00    -0.014 A 
ATOM     60  C   UNL A   1      43.164  32.996  33.207  1.00  0.00     0.010 A 
ATOM     61  C   UNL A   1      44.019  33.740  31.062  1.00  0.00     0.010 A 
ATOM     62  C   UNL A   1      43.264  34.302  33.697  1.00  0.00     0.020 A 
ATOM     63  C   UNL A   1      44.143  35.042  31.556  1.00  0.00     0.020 A 
ATOM     64  C   UNL A   1      43.750  35.317  32.867  1.00  0.00     0.054 A 
BRANCH  64  65
ATOM     65  S   UNL A   1      43.889  36.999  33.534  1.00  0.00     0.124 S 
ATOM     66  O   UNL A   1      42.734  37.066  34.426  1.00  0.00    -0.237 OA
ATOM     67  O   UNL A   1      45.192  36.975  34.194  1.00  0.00    -0.237 OA
ATOM     68  O   UNL A   1      43.810  37.849  32.349  1.00  0.00    -0.744 OA
ENDBRANCH  64  65
ENDBRANCH  45  59
BRANCH  46  69
ATOM     69  C   UNL A   1      42.547  23.583  27.939  1.00  0.00    -0.014 A 
ATOM     70  C   UNL A   1      42.166  22.470  28.707  1.00  0.00     0.010 A 
ATOM     71  C   UNL A   1      42.808  23.412  26.568  1.00  0.00     0.010 A 
ATOM     72  C   UNL A   1      42.057  21.207  28.115  1.00  0.00     0.020 A 
ATOM     73  C   UNL A   1      42.676  22.158  25.968  1.00  0.00     0.020 A 
ATOM     74  C   UNL A   1      42.311  21.060  26.748  1.00  0.00     0.054 A 
BRANCH  74  75
ATOM     75  S   UNL A   1      42.107  19.426  25.986  1.00  0.00     0.124 S 
ATOM     76  O   UNL A   1      40.669  19.384  25.738  1.00  0.00    -0.237 OA
ATOM     77  O   UNL A   1      42.952  19.524  24.798  1.00  0.00    -0.237 OA
ATOM     78  O   UNL A   1      42.594  18.509  27.013  1.00  0.00    -0.744 OA
ENDBRANCH  74  75
ENDBRANCH  46  69
BRANCH  58  79
ATOM     79  C   UNL A   1      47.787  26.941  31.094  1.00  0.00    -0.014 A 
ATOM     80  C   UNL A   1      48.119  26.447  32.368  1.00  0.00     0.010 A 
ATOM     81  C   UNL A   1      48.785  27.012  30.104  1.00  0.00     0.010 A 
ATOM     82  C   UNL A   1      49.431  26.059  32.655  1.00  0.00     0.020 A 
ATOM     83  C   UNL A   1      50.092  26.600  30.380  1.00  0.00     0.020 A 
ATOM     84  C   UNL A   1      50.409  26.140  31.659  1.00  0.00     0.054 A 
BRANCH  84  85
ATOM     85  S   UNL A   1      52.096  25.593  32.043  1.00  0.00     0.124 S 
ATOM     86  O   UNL A   1      51.942  24.141  32.081  1.00  0.00    -0.237 OA
ATOM     87  O   UNL A   1      52.868  26.113  30.918  1.00  0.00    -0.237 OA
ATOM     88  O   UNL A   1      52.380  26.224  33.330  1.00  0.00    -0.744 OA
ENDBRANCH  84  85
ENDBRANCH  58  79
ENDBRANCH  32  33
ENDBRANCH  25  27
ENDBRANCH  24  25
ENDBRANCH  23  24
ENDBRANCH   1  23
TORSDOF 19
ENDMDL
