MODEL 1
REMARK VINA RESULT:     -11.4      0.000      0.000
REMARK SMILES Cc1ccc(Nc2c(C)cccc2Cl)c(CC(=O)OCCOCCOC(=O)c2ccc(-c3c4nc(c(-c5ccc(S(=O)(=O)[O-])cc5)c5ccc([nH]5)c(-c5ccc(S(=O)(=O)[O-])cc5)c5nc(c(-c6ccc(S(=O)(=O)[O-])cc6)c6ccc3[nH]6)C=C5)C=C4)cc2)c1
REMARK SMILES IDX 22 1 21 2 20 3 19 4 17 5 18 6 16 7 15 8 1 9 2 10 3 11 88 12
REMARK SMILES IDX 4 13 5 14 6 15 7 17 8 18 13 19 9 20 10 21 12 22 14 23 11 24
REMARK SMILES IDX 23 25 24 26 25 27 26 28 27 29 28 30 29 31 87 32 30 33 86 34
REMARK SMILES IDX 31 35 32 36 33 37 80 38 34 39 85 40 79 41 81 42 35 43 84 44
REMARK SMILES IDX 78 45 77 46 36 48 66 49 47 50 65 51 48 52 51 53 64 54 82 55
REMARK SMILES IDX 49 56 50 57 63 59 83 60 52 61 37 62 38 63 46 64 39 65 45 66
REMARK SMILES IDX 40 67 41 68 42 69 43 70 44 71 67 72 68 73 76 74 69 75 75 76
REMARK SMILES IDX 70 77 71 78 72 79 73 80 74 81 53 82 54 83 62 84 55 85 61 86
REMARK SMILES IDX 56 87 57 88 58 89 59 90 60 91
REMARK H PARENT 6 16 81 47 51 58
REMARK Flexibility Score: inf
ROOT
ATOM      1  O   UNL A   1      33.171  27.483  25.418  1.00  0.00    -0.374 OA
ENDROOT
BRANCH   1   2
ATOM      2  C   UNL A   1      31.951  26.794  25.268  1.00  0.00     0.202 C 
BRANCH   2   3
ATOM      3  C   UNL A   1      31.915  25.781  26.387  1.00  0.00     0.261 C 
BRANCH   3   4
ATOM      4  O   UNL A   1      32.717  24.638  26.171  1.00  0.00    -0.463 OA
BRANCH   4   5
ATOM      5  C   UNL A   1      32.220  23.424  26.580  1.00  0.00     0.310 C 
ATOM      6  O   UNL A   1      31.164  22.918  26.270  1.00  0.00    -0.252 OA
BRANCH   5   7
ATOM      7  C   UNL A   1      33.198  22.764  27.540  1.00  0.00     0.160 C 
BRANCH   7   8
ATOM      8  C   UNL A   1      34.371  22.213  26.752  1.00  0.00    -0.013 A 
ATOM      9  C   UNL A   1      37.631  23.940  25.744  1.00  0.00     0.044 C 
ATOM     10  C   UNL A   1      36.501  22.954  25.789  1.00  0.00    -0.051 A 
ATOM     11  C   UNL A   1      36.319  22.033  24.762  1.00  0.00     0.005 A 
ATOM     12  C   UNL A   1      35.558  22.995  26.812  1.00  0.00     0.009 A 
ATOM     13  C   UNL A   1      35.186  21.207  24.738  1.00  0.00     0.026 A 
ATOM     14  C   UNL A   1      34.170  21.285  25.709  1.00  0.00     0.042 A 
BRANCH  14  15
ATOM     15  N   UNL A   1      32.986  20.493  25.619  1.00  0.00    -0.354 N 
ATOM     16  H   UNL A   1      32.408  20.490  26.415  1.00  0.00     0.167 HD
BRANCH  15  17
ATOM     17  C   UNL A   1      32.537  19.706  24.519  1.00  0.00     0.060 A 
ATOM     18  C   UNL A   1      32.608  18.303  24.557  1.00  0.00    -0.026 A 
ATOM     19  C   UNL A   1      32.191  20.300  23.289  1.00  0.00     0.064 A 
ATOM     20  C   UNL A   1      32.545  17.555  25.861  1.00  0.00     0.046 C 
ATOM     21  C   UNL A   1      32.650  17.573  23.358  1.00  0.00     0.005 A 
ATOM     22  C   UNL A   1      32.259  19.577  22.094  1.00  0.00     0.023 A 
ATOM     23  Cl  UNL A   1      31.549  21.904  23.222  1.00  0.00    -0.082 Cl
ATOM     24  C   UNL A   1      32.548  18.217  22.128  1.00  0.00     0.002 A 
ENDBRANCH  15  17
ENDBRANCH  14  15
ENDBRANCH   7   8
ENDBRANCH   5   7
ENDBRANCH   4   5
ENDBRANCH   3   4
ENDBRANCH   2   3
ENDBRANCH   1   2
BRANCH   1  25
ATOM     25  C   UNL A   1      33.304  28.207  26.611  1.00  0.00     0.202 C 
BRANCH  25  26
ATOM     26  C   UNL A   1      33.406  29.674  26.239  1.00  0.00     0.261 C 
BRANCH  26  27
ATOM     27  O   UNL A   1      33.559  30.539  27.396  1.00  0.00    -0.460 OA
BRANCH  27  28
ATOM     28  C   UNL A   1      34.749  31.201  27.540  1.00  0.00     0.338 C 
ATOM     29  O   UNL A   1      34.853  32.414  27.448  1.00  0.00    -0.246 OA
BRANCH  28  30
ATOM     30  C   UNL A   1      35.832  30.332  28.073  1.00  0.00     0.060 A 
ATOM     31  C   UNL A   1      35.753  29.778  29.361  1.00  0.00     0.016 A 
ATOM     32  C   UNL A   1      37.008  30.219  27.337  1.00  0.00     0.016 A 
ATOM     33  C   UNL A   1      36.904  29.258  29.976  1.00  0.00     0.010 A 
ATOM     34  C   UNL A   1      38.157  29.813  27.985  1.00  0.00     0.010 A 
ATOM     35  C   UNL A   1      38.122  29.343  29.310  1.00  0.00    -0.014 A 
BRANCH  35  36
ATOM     36  C   UNL A   1      39.440  28.981  29.836  1.00  0.00     0.031 A 
ATOM     37  C   UNL A   1      40.027  27.703  29.378  1.00  0.00     0.074 A 
ATOM     38  C   UNL A   1      40.223  29.874  30.487  1.00  0.00     0.049 A 
ATOM     39  N   UNL A   1      41.164  27.265  29.777  1.00  0.00    -0.248 NA
ATOM     40  C   UNL A   1      39.371  26.771  28.457  1.00  0.00     0.031 C 
ATOM     41  C   UNL A   1      41.685  29.952  30.544  1.00  0.00     0.029 A 
ATOM     42  N   UNL A   1      39.846  30.902  31.316  1.00  0.00    -0.354 N 
ATOM     43  C   UNL A   1      41.555  26.277  28.910  1.00  0.00     0.074 A 
ATOM     44  C   UNL A   1      40.363  25.913  28.192  1.00  0.00     0.031 C 
ATOM     45  C   UNL A   1      42.060  30.826  31.498  1.00  0.00     0.029 A 
ATOM     46  C   UNL A   1      40.858  31.258  32.194  1.00  0.00     0.049 A 
ATOM     47  H   UNL A   1      38.961  31.334  31.290  1.00  0.00     0.167 HD
ATOM     48  C   UNL A   1      42.884  26.002  28.835  1.00  0.00     0.031 A 
ATOM     49  C   UNL A   1      40.577  31.183  33.528  1.00  0.00     0.031 A 
ATOM     50  C   UNL A   1      43.624  26.677  29.915  1.00  0.00     0.049 A 
ATOM     51  C   UNL A   1      41.296  29.981  34.103  1.00  0.00     0.074 A 
ATOM     52  C   UNL A   1      44.541  27.711  29.975  1.00  0.00     0.029 A 
ATOM     53  N   UNL A   1      43.179  26.495  31.223  1.00  0.00    -0.354 N 
ATOM     54  N   UNL A   1      41.937  29.126  33.352  1.00  0.00    -0.248 NA
ATOM     55  C   UNL A   1      41.399  29.634  35.515  1.00  0.00     0.031 C 
ATOM     56  C   UNL A   1      44.600  28.168  31.334  1.00  0.00     0.029 A 
ATOM     57  C   UNL A   1      43.753  27.387  32.106  1.00  0.00     0.049 A 
ATOM     58  H   UNL A   1      42.527  25.807  31.487  1.00  0.00     0.167 HD
ATOM     59  C   UNL A   1      42.582  28.201  34.099  1.00  0.00     0.074 A 
ATOM     60  C   UNL A   1      42.143  28.509  35.457  1.00  0.00     0.031 C 
ATOM     61  C   UNL A   1      43.429  27.288  33.533  1.00  0.00     0.031 A 
BRANCH  48  62
ATOM     62  C   UNL A   1      43.540  25.249  27.699  1.00  0.00    -0.014 A 
ATOM     63  C   UNL A   1      44.361  24.144  27.999  1.00  0.00     0.010 A 
ATOM     64  C   UNL A   1      43.467  25.616  26.337  1.00  0.00     0.010 A 
ATOM     65  C   UNL A   1      45.069  23.451  27.005  1.00  0.00     0.020 A 
ATOM     66  C   UNL A   1      44.146  24.913  25.328  1.00  0.00     0.020 A 
ATOM     67  C   UNL A   1      44.955  23.837  25.671  1.00  0.00     0.054 A 
BRANCH  67  68
ATOM     68  S   UNL A   1      45.884  22.932  24.406  1.00  0.00     0.124 S 
ATOM     69  O   UNL A   1      46.463  21.831  25.172  1.00  0.00    -0.237 OA
ATOM     70  O   UNL A   1      44.841  22.557  23.454  1.00  0.00    -0.237 OA
ATOM     71  O   UNL A   1      46.848  23.912  23.911  1.00  0.00    -0.744 OA
ENDBRANCH  67  68
ENDBRANCH  48  62
BRANCH  49  72
ATOM     72  C   UNL A   1      39.181  31.711  33.796  1.00  0.00    -0.014 A 
ATOM     73  C   UNL A   1      38.999  33.109  33.613  1.00  0.00     0.010 A 
ATOM     74  C   UNL A   1      38.043  30.891  33.644  1.00  0.00     0.010 A 
ATOM     75  C   UNL A   1      37.781  33.645  33.159  1.00  0.00     0.020 A 
ATOM     76  C   UNL A   1      36.815  31.431  33.192  1.00  0.00     0.020 A 
ATOM     77  C   UNL A   1      36.699  32.799  32.919  1.00  0.00     0.054 A 
BRANCH  77  78
ATOM     78  S   UNL A   1      35.226  33.471  32.063  1.00  0.00     0.124 S 
ATOM     79  O   UNL A   1      35.559  33.257  30.660  1.00  0.00    -0.237 OA
ATOM     80  O   UNL A   1      34.139  32.637  32.575  1.00  0.00    -0.237 OA
ATOM     81  O   UNL A   1      35.189  34.863  32.499  1.00  0.00    -0.744 OA
ENDBRANCH  77  78
ENDBRANCH  49  72
BRANCH  61  82
ATOM     82  C   UNL A   1      44.006  26.148  34.312  1.00  0.00    -0.014 A 
ATOM     83  C   UNL A   1      43.276  25.004  34.644  1.00  0.00     0.010 A 
ATOM     84  C   UNL A   1      45.348  26.221  34.750  1.00  0.00     0.010 A 
ATOM     85  C   UNL A   1      43.904  23.908  35.236  1.00  0.00     0.020 A 
ATOM     86  C   UNL A   1      45.974  25.153  35.383  1.00  0.00     0.020 A 
ATOM     87  C   UNL A   1      45.255  23.984  35.578  1.00  0.00     0.054 A 
BRANCH  87  88
ATOM     88  S   UNL A   1      46.053  22.544  36.311  1.00  0.00     0.124 S 
ATOM     89  O   UNL A   1      45.759  22.712  37.732  1.00  0.00    -0.237 OA
ATOM     90  O   UNL A   1      45.353  21.446  35.650  1.00  0.00    -0.237 OA
ATOM     91  O   UNL A   1      47.459  22.700  35.946  1.00  0.00    -0.744 OA
ENDBRANCH  87  88
ENDBRANCH  61  82
ENDBRANCH  35  36
ENDBRANCH  28  30
ENDBRANCH  27  28
ENDBRANCH  26  27
ENDBRANCH  25  26
ENDBRANCH   1  25
TORSDOF 20
ENDMDL
MODEL 2
REMARK VINA RESULT:     -11.3      1.535      2.872
REMARK SMILES Cc1ccc(Nc2c(C)cccc2Cl)c(CC(=O)OCCOCCOC(=O)c2ccc(-c3c4nc(c(-c5ccc(S(=O)(=O)[O-])cc5)c5ccc([nH]5)c(-c5ccc(S(=O)(=O)[O-])cc5)c5nc(c(-c6ccc(S(=O)(=O)[O-])cc6)c6ccc3[nH]6)C=C5)C=C4)cc2)c1
REMARK SMILES IDX 22 1 21 2 20 3 19 4 17 5 18 6 16 7 15 8 1 9 2 10 3 11 88 12
REMARK SMILES IDX 4 13 5 14 6 15 7 17 8 18 13 19 9 20 10 21 12 22 14 23 11 24
REMARK SMILES IDX 23 25 24 26 25 27 26 28 27 29 28 30 29 31 87 32 30 33 86 34
REMARK SMILES IDX 31 35 32 36 33 37 80 38 34 39 85 40 79 41 81 42 35 43 84 44
REMARK SMILES IDX 78 45 77 46 36 48 66 49 47 50 65 51 48 52 51 53 64 54 82 55
REMARK SMILES IDX 49 56 50 57 63 59 83 60 52 61 37 62 38 63 46 64 39 65 45 66
REMARK SMILES IDX 40 67 41 68 42 69 43 70 44 71 67 72 68 73 76 74 69 75 75 76
REMARK SMILES IDX 70 77 71 78 72 79 73 80 74 81 53 82 54 83 62 84 55 85 61 86
REMARK SMILES IDX 56 87 57 88 58 89 59 90 60 91
REMARK H PARENT 6 16 81 47 51 58
REMARK Flexibility Score: inf
ROOT
ATOM      1  O   UNL A   1      33.823  28.129  24.330  1.00  0.00    -0.374 OA
ENDROOT
BRANCH   1   2
ATOM      2  C   UNL A   1      34.224  28.593  23.062  1.00  0.00     0.202 C 
BRANCH   2   3
ATOM      3  C   UNL A   1      33.643  27.618  22.068  1.00  0.00     0.261 C 
BRANCH   3   4
ATOM      4  O   UNL A   1      33.673  26.267  22.484  1.00  0.00    -0.463 OA
BRANCH   4   5
ATOM      5  C   UNL A   1      33.054  25.339  21.681  1.00  0.00     0.310 C 
ATOM      6  O   UNL A   1      32.908  25.383  20.481  1.00  0.00    -0.252 OA
BRANCH   5   7
ATOM      7  C   UNL A   1      32.524  24.195  22.533  1.00  0.00     0.160 C 
BRANCH   7   8
ATOM      8  C   UNL A   1      31.347  24.690  23.350  1.00  0.00    -0.013 A 
ATOM      9  C   UNL A   1      29.654  28.120  23.318  1.00  0.00     0.044 C 
ATOM     10  C   UNL A   1      30.073  26.747  23.755  1.00  0.00    -0.051 A 
ATOM     11  C   UNL A   1      29.866  26.322  25.063  1.00  0.00     0.005 A 
ATOM     12  C   UNL A   1      30.758  25.900  22.887  1.00  0.00     0.009 A 
ATOM     13  C   UNL A   1      30.380  25.094  25.503  1.00  0.00     0.026 A 
ATOM     14  C   UNL A   1      31.153  24.256  24.677  1.00  0.00     0.042 A 
BRANCH  14  15
ATOM     15  N   UNL A   1      31.737  23.050  25.172  1.00  0.00    -0.354 N 
ATOM     16  H   UNL A   1      31.123  22.431  25.629  1.00  0.00     0.167 HD
BRANCH  15  17
ATOM     17  C   UNL A   1      33.096  22.632  25.085  1.00  0.00     0.060 A 
ATOM     18  C   UNL A   1      33.429  21.350  24.615  1.00  0.00    -0.026 A 
ATOM     19  C   UNL A   1      34.134  23.403  25.643  1.00  0.00     0.064 A 
ATOM     20  C   UNL A   1      32.541  20.621  23.643  1.00  0.00     0.046 C 
ATOM     21  C   UNL A   1      34.652  20.766  24.986  1.00  0.00     0.005 A 
ATOM     22  C   UNL A   1      35.341  22.814  26.034  1.00  0.00     0.023 A 
ATOM     23  Cl  UNL A   1      34.010  25.124  25.750  1.00  0.00    -0.082 Cl
ATOM     24  C   UNL A   1      35.574  21.471  25.754  1.00  0.00     0.002 A 
ENDBRANCH  15  17
ENDBRANCH  14  15
ENDBRANCH   7   8
ENDBRANCH   5   7
ENDBRANCH   4   5
ENDBRANCH   3   4
ENDBRANCH   2   3
ENDBRANCH   1   2
BRANCH   1  25
ATOM     25  C   UNL A   1      32.828  28.892  24.957  1.00  0.00     0.202 C 
BRANCH  25  26
ATOM     26  C   UNL A   1      32.691  28.374  26.377  1.00  0.00     0.261 C 
BRANCH  26  27
ATOM     27  O   UNL A   1      33.897  28.564  27.163  1.00  0.00    -0.460 OA
BRANCH  27  28
ATOM     28  C   UNL A   1      34.157  29.825  27.631  1.00  0.00     0.338 C 
ATOM     29  O   UNL A   1      33.285  30.658  27.823  1.00  0.00    -0.246 OA
BRANCH  28  30
ATOM     30  C   UNL A   1      35.552  29.981  28.122  1.00  0.00     0.060 A 
ATOM     31  C   UNL A   1      36.613  30.224  27.235  1.00  0.00     0.016 A 
ATOM     32  C   UNL A   1      35.811  29.710  29.462  1.00  0.00     0.016 A 
ATOM     33  C   UNL A   1      37.940  30.030  27.656  1.00  0.00     0.010 A 
ATOM     34  C   UNL A   1      37.106  29.411  29.838  1.00  0.00     0.010 A 
ATOM     35  C   UNL A   1      38.179  29.552  28.940  1.00  0.00    -0.014 A 
BRANCH  35  36
ATOM     36  C   UNL A   1      39.471  29.166  29.509  1.00  0.00     0.031 A 
ATOM     37  C   UNL A   1      40.046  27.874  29.074  1.00  0.00     0.074 A 
ATOM     38  C   UNL A   1      40.252  30.046  30.181  1.00  0.00     0.049 A 
ATOM     39  N   UNL A   1      41.161  27.414  29.511  1.00  0.00    -0.248 NA
ATOM     40  C   UNL A   1      39.399  26.951  28.137  1.00  0.00     0.031 C 
ATOM     41  C   UNL A   1      41.712  30.094  30.283  1.00  0.00     0.029 A 
ATOM     42  N   UNL A   1      39.870  31.085  30.993  1.00  0.00    -0.354 N 
ATOM     43  C   UNL A   1      41.558  26.415  28.661  1.00  0.00     0.074 A 
ATOM     44  C   UNL A   1      40.381  26.072  27.906  1.00  0.00     0.031 C 
ATOM     45  C   UNL A   1      42.076  30.964  31.245  1.00  0.00     0.029 A 
ATOM     46  C   UNL A   1      40.862  31.424  31.901  1.00  0.00     0.049 A 
ATOM     47  H   UNL A   1      38.996  31.535  30.938  1.00  0.00     0.167 HD
ATOM     48  C   UNL A   1      42.882  26.112  28.628  1.00  0.00     0.031 A 
ATOM     49  C   UNL A   1      40.537  31.361  33.226  1.00  0.00     0.031 A 
ATOM     50  C   UNL A   1      43.602  26.777  29.728  1.00  0.00     0.049 A 
ATOM     51  C   UNL A   1      41.214  30.147  33.828  1.00  0.00     0.074 A 
ATOM     52  C   UNL A   1      44.538  27.792  29.813  1.00  0.00     0.029 A 
ATOM     53  N   UNL A   1      43.113  26.610  31.022  1.00  0.00    -0.354 N 
ATOM     54  N   UNL A   1      41.860  29.275  33.101  1.00  0.00    -0.248 NA
ATOM     55  C   UNL A   1      41.265  29.804  35.244  1.00  0.00     0.031 C 
ATOM     56  C   UNL A   1      44.564  28.253  31.172  1.00  0.00     0.029 A 
ATOM     57  C   UNL A   1      43.677  27.493  31.919  1.00  0.00     0.049 A 
ATOM     58  H   UNL A   1      42.438  25.936  31.268  1.00  0.00     0.167 HD
ATOM     59  C   UNL A   1      42.462  28.341  33.872  1.00  0.00     0.074 A 
ATOM     60  C   UNL A   1      41.987  28.664  35.213  1.00  0.00     0.031 C 
ATOM     61  C   UNL A   1      43.307  27.408  33.335  1.00  0.00     0.031 A 
BRANCH  48  62
ATOM     62  C   UNL A   1      43.558  25.341  27.516  1.00  0.00    -0.014 A 
ATOM     63  C   UNL A   1      43.632  23.937  27.609  1.00  0.00     0.010 A 
ATOM     64  C   UNL A   1      44.209  25.924  26.407  1.00  0.00     0.010 A 
ATOM     65  C   UNL A   1      44.317  23.163  26.659  1.00  0.00     0.020 A 
ATOM     66  C   UNL A   1      44.873  25.160  25.433  1.00  0.00     0.020 A 
ATOM     67  C   UNL A   1      44.932  23.779  25.571  1.00  0.00     0.054 A 
BRANCH  67  68
ATOM     68  S   UNL A   1      45.816  22.760  24.362  1.00  0.00     0.124 S 
ATOM     69  O   UNL A   1      46.400  21.716  25.201  1.00  0.00    -0.237 OA
ATOM     70  O   UNL A   1      44.744  22.325  23.470  1.00  0.00    -0.237 OA
ATOM     71  O   UNL A   1      46.779  23.682  23.765  1.00  0.00    -0.744 OA
ENDBRANCH  67  68
ENDBRANCH  48  62
BRANCH  49  72
ATOM     72  C   UNL A   1      39.145  31.919  33.448  1.00  0.00    -0.014 A 
ATOM     73  C   UNL A   1      38.972  33.297  33.144  1.00  0.00     0.010 A 
ATOM     74  C   UNL A   1      38.002  31.095  33.369  1.00  0.00     0.010 A 
ATOM     75  C   UNL A   1      37.756  33.799  32.646  1.00  0.00     0.020 A 
ATOM     76  C   UNL A   1      36.777  31.602  32.871  1.00  0.00     0.020 A 
ATOM     77  C   UNL A   1      36.669  32.941  32.481  1.00  0.00     0.054 A 
BRANCH  77  78
ATOM     78  S   UNL A   1      35.199  33.546  31.571  1.00  0.00     0.124 S 
ATOM     79  O   UNL A   1      34.385  32.341  31.464  1.00  0.00    -0.237 OA
ATOM     80  O   UNL A   1      34.663  34.577  32.459  1.00  0.00    -0.237 OA
ATOM     81  O   UNL A   1      35.759  34.044  30.320  1.00  0.00    -0.744 OA
ENDBRANCH  77  78
ENDBRANCH  49  72
BRANCH  61  82
ATOM     82  C   UNL A   1      43.836  26.260  34.137  1.00  0.00    -0.014 A 
ATOM     83  C   UNL A   1      43.015  25.276  34.692  1.00  0.00     0.010 A 
ATOM     84  C   UNL A   1      45.227  26.158  34.362  1.00  0.00     0.010 A 
ATOM     85  C   UNL A   1      43.569  24.147  35.297  1.00  0.00     0.020 A 
ATOM     86  C   UNL A   1      45.790  25.062  35.005  1.00  0.00     0.020 A 
ATOM     87  C   UNL A   1      44.954  24.039  35.427  1.00  0.00     0.054 A 
BRANCH  87  88
ATOM     88  S   UNL A   1      45.649  22.558  36.182  1.00  0.00     0.124 S 
ATOM     89  O   UNL A   1      45.321  22.742  37.593  1.00  0.00    -0.237 OA
ATOM     90  O   UNL A   1      44.909  21.499  35.498  1.00  0.00    -0.237 OA
ATOM     91  O   UNL A   1      47.072  22.636  35.860  1.00  0.00    -0.744 OA
ENDBRANCH  87  88
ENDBRANCH  61  82
ENDBRANCH  35  36
ENDBRANCH  28  30
ENDBRANCH  27  28
ENDBRANCH  26  27
ENDBRANCH  25  26
ENDBRANCH   1  25
TORSDOF 20
ENDMDL
MODEL 3
REMARK VINA RESULT:     -11.2      2.173      3.599
REMARK SMILES Cc1ccc(Nc2c(C)cccc2Cl)c(CC(=O)OCCOCCOC(=O)c2ccc(-c3c4nc(c(-c5ccc(S(=O)(=O)[O-])cc5)c5ccc([nH]5)c(-c5ccc(S(=O)(=O)[O-])cc5)c5nc(c(-c6ccc(S(=O)(=O)[O-])cc6)c6ccc3[nH]6)C=C5)C=C4)cc2)c1
REMARK SMILES IDX 22 1 21 2 20 3 19 4 17 5 18 6 16 7 15 8 1 9 2 10 3 11 88 12
REMARK SMILES IDX 4 13 5 14 6 15 7 17 8 18 13 19 9 20 10 21 12 22 14 23 11 24
REMARK SMILES IDX 23 25 24 26 25 27 26 28 27 29 28 30 29 31 87 32 30 33 86 34
REMARK SMILES IDX 31 35 32 36 33 37 80 38 34 39 85 40 79 41 81 42 35 43 84 44
REMARK SMILES IDX 78 45 77 46 36 48 66 49 47 50 65 51 48 52 51 53 64 54 82 55
REMARK SMILES IDX 49 56 50 57 63 59 83 60 52 61 37 62 38 63 46 64 39 65 45 66
REMARK SMILES IDX 40 67 41 68 42 69 43 70 44 71 67 72 68 73 76 74 69 75 75 76
REMARK SMILES IDX 70 77 71 78 72 79 73 80 74 81 53 82 54 83 62 84 55 85 61 86
REMARK SMILES IDX 56 87 57 88 58 89 59 90 60 91
REMARK H PARENT 6 16 81 47 51 58
REMARK Flexibility Score: inf
ROOT
ATOM      1  O   UNL A   1      34.221  28.672  24.716  1.00  0.00    -0.374 OA
ENDROOT
BRANCH   1   2
ATOM      2  C   UNL A   1      33.882  29.145  23.434  1.00  0.00     0.202 C 
BRANCH   2   3
ATOM      3  C   UNL A   1      33.181  27.998  22.749  1.00  0.00     0.261 C 
BRANCH   3   4
ATOM      4  O   UNL A   1      33.851  26.757  22.844  1.00  0.00    -0.463 OA
BRANCH   4   5
ATOM      5  C   UNL A   1      33.439  25.743  22.013  1.00  0.00     0.310 C 
ATOM      6  O   UNL A   1      33.167  25.820  20.836  1.00  0.00    -0.252 OA
BRANCH   5   7
ATOM      7  C   UNL A   1      33.335  24.445  22.799  1.00  0.00     0.160 C 
BRANCH   7   8
ATOM      8  C   UNL A   1      32.348  24.630  23.935  1.00  0.00    -0.013 A 
ATOM      9  C   UNL A   1      28.959  26.405  23.927  1.00  0.00     0.044 C 
ATOM     10  C   UNL A   1      30.225  25.763  24.413  1.00  0.00    -0.051 A 
ATOM     11  C   UNL A   1      30.651  25.934  25.726  1.00  0.00     0.005 A 
ATOM     12  C   UNL A   1      31.049  25.055  23.540  1.00  0.00     0.009 A 
ATOM     13  C   UNL A   1      31.901  25.450  26.139  1.00  0.00     0.026 A 
ATOM     14  C   UNL A   1      32.794  24.809  25.260  1.00  0.00     0.042 A 
BRANCH  14  15
ATOM     15  N   UNL A   1      34.094  24.399  25.683  1.00  0.00    -0.354 N 
ATOM     16  H   UNL A   1      34.704  25.120  25.960  1.00  0.00     0.167 HD
BRANCH  15  17
ATOM     17  C   UNL A   1      34.619  23.077  25.754  1.00  0.00     0.060 A 
ATOM     18  C   UNL A   1      35.984  22.827  25.531  1.00  0.00    -0.026 A 
ATOM     19  C   UNL A   1      33.769  21.958  25.856  1.00  0.00     0.064 A 
ATOM     20  C   UNL A   1      37.025  23.874  25.821  1.00  0.00     0.046 C 
ATOM     21  C   UNL A   1      36.402  21.554  25.111  1.00  0.00     0.005 A 
ATOM     22  C   UNL A   1      34.179  20.696  25.414  1.00  0.00     0.023 A 
ATOM     23  Cl  UNL A   1      32.235  22.071  26.646  1.00  0.00    -0.082 Cl
ATOM     24  C   UNL A   1      35.489  20.511  24.984  1.00  0.00     0.002 A 
ENDBRANCH  15  17
ENDBRANCH  14  15
ENDBRANCH   7   8
ENDBRANCH   5   7
ENDBRANCH   4   5
ENDBRANCH   3   4
ENDBRANCH   2   3
ENDBRANCH   1   2
BRANCH   1  25
ATOM     25  C   UNL A   1      33.229  28.832  25.693  1.00  0.00     0.202 C 
BRANCH  25  26
ATOM     26  C   UNL A   1      33.869  28.541  27.038  1.00  0.00     0.261 C 
BRANCH  26  27
ATOM     27  O   UNL A   1      35.315  28.673  27.012  1.00  0.00    -0.460 OA
BRANCH  27  28
ATOM     28  C   UNL A   1      35.861  29.792  27.582  1.00  0.00     0.338 C 
ATOM     29  O   UNL A   1      35.194  30.748  27.946  1.00  0.00    -0.246 OA
BRANCH  28  30
ATOM     30  C   UNL A   1      37.291  29.614  27.947  1.00  0.00     0.060 A 
ATOM     31  C   UNL A   1      38.286  29.502  26.963  1.00  0.00     0.016 A 
ATOM     32  C   UNL A   1      37.605  29.386  29.284  1.00  0.00     0.016 A 
ATOM     33  C   UNL A   1      39.555  28.998  27.298  1.00  0.00     0.010 A 
ATOM     34  C   UNL A   1      38.811  28.788  29.588  1.00  0.00     0.010 A 
ATOM     35  C   UNL A   1      39.790  28.574  28.602  1.00  0.00    -0.014 A 
BRANCH  35  36
ATOM     36  C   UNL A   1      40.991  27.905  29.106  1.00  0.00     0.031 A 
ATOM     37  C   UNL A   1      41.177  26.482  28.752  1.00  0.00     0.074 A 
ATOM     38  C   UNL A   1      42.030  28.597  29.633  1.00  0.00     0.049 A 
ATOM     39  N   UNL A   1      42.175  25.780  29.144  1.00  0.00    -0.248 NA
ATOM     40  C   UNL A   1      40.231  25.695  27.955  1.00  0.00     0.031 C 
ATOM     41  C   UNL A   1      43.458  28.272  29.621  1.00  0.00     0.029 A 
ATOM     42  N   UNL A   1      42.003  29.755  30.372  1.00  0.00    -0.354 N 
ATOM     43  C   UNL A   1      42.223  24.655  28.364  1.00  0.00     0.074 A 
ATOM     44  C   UNL A   1      40.932  24.577  27.734  1.00  0.00     0.031 C 
ATOM     45  C   UNL A   1      44.119  29.083  30.469  1.00  0.00     0.029 A 
ATOM     46  C   UNL A   1      43.130  29.888  31.168  1.00  0.00     0.049 A 
ATOM     47  H   UNL A   1      41.270  30.412  30.340  1.00  0.00     0.167 HD
ATOM     48  C   UNL A   1      43.419  24.016  28.260  1.00  0.00     0.031 A 
ATOM     49  C   UNL A   1      42.929  30.005  32.513  1.00  0.00     0.031 A 
ATOM     50  C   UNL A   1      44.385  24.547  29.238  1.00  0.00     0.049 A 
ATOM     51  C   UNL A   1      43.331  28.702  33.174  1.00  0.00     0.074 A 
ATOM     52  C   UNL A   1      45.552  25.287  29.158  1.00  0.00     0.029 A 
ATOM     53  N   UNL A   1      43.996  24.604  30.574  1.00  0.00    -0.354 N 
ATOM     54  N   UNL A   1      43.663  27.644  32.484  1.00  0.00    -0.248 NA
ATOM     55  C   UNL A   1      43.429  28.459  34.608  1.00  0.00     0.031 C 
ATOM     56  C   UNL A   1      45.823  25.821  30.462  1.00  0.00     0.029 A 
ATOM     57  C   UNL A   1      44.849  25.372  31.341  1.00  0.00     0.049 A 
ATOM     58  H   UNL A   1      43.200  24.148  30.931  1.00  0.00     0.167 HD
ATOM     59  C   UNL A   1      44.080  26.642  33.292  1.00  0.00     0.074 A 
ATOM     60  C   UNL A   1      43.833  27.171  34.629  1.00  0.00     0.031 C 
ATOM     61  C   UNL A   1      44.606  25.486  32.783  1.00  0.00     0.031 A 
BRANCH  48  62
ATOM     62  C   UNL A   1      43.768  23.020  27.178  1.00  0.00    -0.014 A 
ATOM     63  C   UNL A   1      42.874  21.963  26.911  1.00  0.00     0.010 A 
ATOM     64  C   UNL A   1      44.978  23.006  26.450  1.00  0.00     0.010 A 
ATOM     65  C   UNL A   1      43.170  20.955  25.981  1.00  0.00     0.020 A 
ATOM     66  C   UNL A   1      45.275  22.019  25.495  1.00  0.00     0.020 A 
ATOM     67  C   UNL A   1      44.369  20.989  25.273  1.00  0.00     0.054 A 
BRANCH  67  68
ATOM     68  S   UNL A   1      44.732  19.672  24.083  1.00  0.00     0.124 S 
ATOM     69  O   UNL A   1      44.597  20.363  22.803  1.00  0.00    -0.237 OA
ATOM     70  O   UNL A   1      46.092  19.282  24.448  1.00  0.00    -0.237 OA
ATOM     71  O   UNL A   1      43.708  18.666  24.352  1.00  0.00    -0.744 OA
ENDBRANCH  67  68
ENDBRANCH  48  62
BRANCH  49  72
ATOM     72  C   UNL A   1      41.751  30.919  32.786  1.00  0.00    -0.014 A 
ATOM     73  C   UNL A   1      41.883  32.258  32.327  1.00  0.00     0.010 A 
ATOM     74  C   UNL A   1      40.440  30.412  32.914  1.00  0.00     0.010 A 
ATOM     75  C   UNL A   1      40.777  33.002  31.879  1.00  0.00     0.020 A 
ATOM     76  C   UNL A   1      39.325  31.162  32.467  1.00  0.00     0.020 A 
ATOM     77  C   UNL A   1      39.502  32.439  31.922  1.00  0.00     0.054 A 
BRANCH  77  78
ATOM     78  S   UNL A   1      38.127  33.305  31.076  1.00  0.00     0.124 S 
ATOM     79  O   UNL A   1      38.217  34.648  31.636  1.00  0.00    -0.237 OA
ATOM     80  O   UNL A   1      38.489  33.197  29.663  1.00  0.00    -0.237 OA
ATOM     81  O   UNL A   1      36.952  32.533  31.469  1.00  0.00    -0.744 OA
ENDBRANCH  77  78
ENDBRANCH  49  72
BRANCH  61  82
ATOM     82  C   UNL A   1      44.903  24.300  33.645  1.00  0.00    -0.014 A 
ATOM     83  C   UNL A   1      43.908  23.469  34.167  1.00  0.00     0.010 A 
ATOM     84  C   UNL A   1      46.245  23.998  33.967  1.00  0.00     0.010 A 
ATOM     85  C   UNL A   1      44.244  22.292  34.836  1.00  0.00     0.020 A 
ATOM     86  C   UNL A   1      46.592  22.852  34.672  1.00  0.00     0.020 A 
ATOM     87  C   UNL A   1      45.586  21.981  35.061  1.00  0.00     0.054 A 
BRANCH  87  88
ATOM     88  S   UNL A   1      45.998  20.438  35.897  1.00  0.00     0.124 S 
ATOM     89  O   UNL A   1      45.142  19.473  35.212  1.00  0.00    -0.237 OA
ATOM     90  O   UNL A   1      47.427  20.320  35.618  1.00  0.00    -0.237 OA
ATOM     91  O   UNL A   1      45.651  20.695  37.293  1.00  0.00    -0.744 OA
ENDBRANCH  87  88
ENDBRANCH  61  82
ENDBRANCH  35  36
ENDBRANCH  28  30
ENDBRANCH  27  28
ENDBRANCH  26  27
ENDBRANCH  25  26
ENDBRANCH   1  25
TORSDOF 20
ENDMDL
