MODEL 1
REMARK VINA RESULT:     -10.5      0.000      0.000
REMARK SMILES O=C(OCCOCCOC(=O)[C@H]1C[C@](O)(c2ccc(F)cc2)[C@@H](c2ccc(F)cc2)O1)c1ccc(-c2c3nc(c(-c4ccc(S(=O)(=O)[O-])cc4)c4ccc([nH]4)c(-c4ccc(S(=O)(=O)[O-])cc4)c4nc(c(-c5ccc(S(=O)(=O)[O-])cc5)c5ccc2[nH]5)C=C4)C=C3)cc1
REMARK SMILES IDX 5 1 4 2 3 3 2 4 1 5 32 6 33 7 91 8 34 9 90 10 35 11 36 12
REMARK SMILES IDX 37 13 84 14 38 15 89 16 83 17 85 18 39 19 88 20 82 21 81 22
REMARK SMILES IDX 40 24 70 25 51 26 69 27 52 28 55 29 68 30 86 31 53 32 54 33
REMARK SMILES IDX 67 35 87 36 56 37 41 38 42 39 50 40 43 41 49 42 44 43 45 44
REMARK SMILES IDX 46 45 47 46 48 47 71 48 72 49 80 50 73 51 79 52 74 53 75 54
REMARK SMILES IDX 76 55 77 56 78 57 57 58 58 59 66 60 59 61 65 62 60 63 61 64
REMARK SMILES IDX 62 65 63 66 64 67 6 68 7 69 8 70 9 71 10 72 11 73 12 74
REMARK SMILES IDX 13 75 31 76 14 77 23 78 16 79 17 80 22 81 18 82 21 83 19 84
REMARK SMILES IDX 20 85 15 86 24 88 25 89 30 90 26 91 29 92 27 93 28 94
REMARK H PARENT 85 23 55 34 15 87
REMARK Flexibility Score: inf
ROOT
ATOM      1  C   UNL A   1      41.356  19.815  27.006  1.00  0.00     0.202 C 
ENDROOT
BRANCH   1   2
ATOM      2  C   UNL A   1      42.373  18.911  26.264  1.00  0.00     0.261 C 
BRANCH   2   3
ATOM      3  O   UNL A   1      42.712  19.429  24.950  1.00  0.00    -0.460 OA
BRANCH   3   4
ATOM      4  C   UNL A   1      43.823  20.103  24.558  1.00  0.00     0.338 C 
ATOM      5  O   UNL A   1      44.632  19.562  23.810  1.00  0.00    -0.246 OA
BRANCH   4   6
ATOM      6  C   UNL A   1      44.133  21.450  25.103  1.00  0.00     0.060 A 
ATOM      7  C   UNL A   1      43.635  22.597  24.514  1.00  0.00     0.016 A 
ATOM      8  C   UNL A   1      44.901  21.595  26.267  1.00  0.00     0.016 A 
ATOM      9  C   UNL A   1      43.934  23.854  24.955  1.00  0.00     0.010 A 
ATOM     10  C   UNL A   1      45.179  22.874  26.772  1.00  0.00     0.010 A 
ATOM     11  C   UNL A   1      44.704  24.002  26.091  1.00  0.00    -0.014 A 
BRANCH  11  12
ATOM     12  C   UNL A   1      45.098  25.388  26.352  1.00  0.00     0.031 A 
ATOM     13  C   UNL A   1      44.133  26.238  27.115  1.00  0.00     0.074 A 
ATOM     14  C   UNL A   1      46.395  25.720  26.200  1.00  0.00     0.049 A 
ATOM     15  N   UNL A   1      44.265  27.467  27.522  1.00  0.00    -0.248 NA
ATOM     16  C   UNL A   1      42.857  25.605  27.505  1.00  0.00     0.031 C 
ATOM     17  C   UNL A   1      47.443  24.818  25.695  1.00  0.00     0.029 A 
ATOM     18  N   UNL A   1      47.072  26.855  26.533  1.00  0.00    -0.354 N 
ATOM     19  C   UNL A   1      43.073  27.772  28.165  1.00  0.00     0.074 A 
ATOM     20  C   UNL A   1      42.235  26.598  28.120  1.00  0.00     0.031 C 
ATOM     21  C   UNL A   1      48.633  25.430  25.792  1.00  0.00     0.029 A 
ATOM     22  C   UNL A   1      48.419  26.789  26.266  1.00  0.00     0.049 A 
ATOM     23  H   UNL A   1      46.638  27.647  26.926  1.00  0.00     0.167 HD
ATOM     24  C   UNL A   1      42.714  28.952  28.716  1.00  0.00     0.031 A 
ATOM     25  C   UNL A   1      49.356  27.750  26.354  1.00  0.00     0.031 A 
ATOM     26  C   UNL A   1      43.590  30.091  28.719  1.00  0.00     0.049 A 
ATOM     27  C   UNL A   1      48.892  29.099  26.826  1.00  0.00     0.074 A 
ATOM     28  C   UNL A   1      43.333  31.385  29.120  1.00  0.00     0.029 A 
ATOM     29  N   UNL A   1      44.914  30.050  28.292  1.00  0.00    -0.354 N 
ATOM     30  N   UNL A   1      47.711  29.443  27.291  1.00  0.00    -0.248 NA
ATOM     31  C   UNL A   1      49.864  30.193  26.763  1.00  0.00     0.031 C 
ATOM     32  C   UNL A   1      44.488  32.141  28.884  1.00  0.00     0.029 A 
ATOM     33  C   UNL A   1      45.484  31.302  28.400  1.00  0.00     0.049 A 
ATOM     34  H   UNL A   1      45.376  29.246  27.963  1.00  0.00     0.167 HD
ATOM     35  C   UNL A   1      47.798  30.795  27.587  1.00  0.00     0.074 A 
ATOM     36  C   UNL A   1      49.158  31.196  27.270  1.00  0.00     0.031 C 
ATOM     37  C   UNL A   1      46.849  31.636  28.069  1.00  0.00     0.031 A 
BRANCH  24  38
ATOM     38  C   UNL A   1      41.299  29.074  29.208  1.00  0.00    -0.014 A 
ATOM     39  C   UNL A   1      40.230  29.374  28.346  1.00  0.00     0.010 A 
ATOM     40  C   UNL A   1      41.050  28.952  30.588  1.00  0.00     0.010 A 
ATOM     41  C   UNL A   1      38.947  29.596  28.861  1.00  0.00     0.020 A 
ATOM     42  C   UNL A   1      39.766  29.148  31.104  1.00  0.00     0.020 A 
ATOM     43  C   UNL A   1      38.726  29.490  30.238  1.00  0.00     0.054 A 
BRANCH  43  44
ATOM     44  S   UNL A   1      37.060  29.799  30.885  1.00  0.00     0.124 S 
ATOM     45  O   UNL A   1      37.064  31.251  31.044  1.00  0.00    -0.237 OA
ATOM     46  O   UNL A   1      36.202  29.288  29.818  1.00  0.00    -0.237 OA
ATOM     47  O   UNL A   1      37.023  29.037  32.130  1.00  0.00    -0.744 OA
ENDBRANCH  43  44
ENDBRANCH  24  38
BRANCH  25  48
ATOM     48  C   UNL A   1      50.749  27.500  25.887  1.00  0.00    -0.014 A 
ATOM     49  C   UNL A   1      51.081  27.517  24.523  1.00  0.00     0.010 A 
ATOM     50  C   UNL A   1      51.767  27.236  26.827  1.00  0.00     0.010 A 
ATOM     51  C   UNL A   1      52.394  27.258  24.107  1.00  0.00     0.020 A 
ATOM     52  C   UNL A   1      53.085  27.010  26.419  1.00  0.00     0.020 A 
ATOM     53  C   UNL A   1      53.386  27.006  25.059  1.00  0.00     0.054 A 
BRANCH  53  54
ATOM     54  S   UNL A   1      55.087  26.696  24.502  1.00  0.00     0.124 S 
ATOM     55  O   UNL A   1      54.977  26.905  23.062  1.00  0.00    -0.237 OA
ATOM     56  O   UNL A   1      55.847  27.708  25.232  1.00  0.00    -0.237 OA
ATOM     57  O   UNL A   1      55.339  25.319  24.917  1.00  0.00    -0.744 OA
ENDBRANCH  53  54
ENDBRANCH  25  48
BRANCH  37  58
ATOM     58  C   UNL A   1      47.275  33.052  28.316  1.00  0.00    -0.014 A 
ATOM     59  C   UNL A   1      47.850  33.434  29.539  1.00  0.00     0.010 A 
ATOM     60  C   UNL A   1      47.148  33.993  27.279  1.00  0.00     0.010 A 
ATOM     61  C   UNL A   1      48.266  34.752  29.732  1.00  0.00     0.020 A 
ATOM     62  C   UNL A   1      47.591  35.300  27.458  1.00  0.00     0.020 A 
ATOM     63  C   UNL A   1      48.135  35.675  28.689  1.00  0.00     0.054 A 
BRANCH  63  64
ATOM     64  S   UNL A   1      48.731  37.366  28.944  1.00  0.00     0.124 S 
ATOM     65  O   UNL A   1      49.612  37.552  27.795  1.00  0.00    -0.237 OA
ATOM     66  O   UNL A   1      47.497  38.147  28.924  1.00  0.00    -0.237 OA
ATOM     67  O   UNL A   1      49.401  37.304  30.241  1.00  0.00    -0.744 OA
ENDBRANCH  63  64
ENDBRANCH  37  58
ENDBRANCH  11  12
ENDBRANCH   4   6
ENDBRANCH   3   4
ENDBRANCH   2   3
ENDBRANCH   1   2
BRANCH   1  68
ATOM     68  O   UNL A   1      41.803  21.055  27.563  1.00  0.00    -0.374 OA
BRANCH  68  69
ATOM     69  C   UNL A   1      40.804  22.053  27.805  1.00  0.00     0.202 C 
BRANCH  69  70
ATOM     70  C   UNL A   1      40.143  22.564  26.525  1.00  0.00     0.261 C 
BRANCH  70  71
ATOM     71  O   UNL A   1      38.771  22.149  26.456  1.00  0.00    -0.461 OA
BRANCH  71  72
ATOM     72  C   UNL A   1      37.943  22.913  25.700  1.00  0.00     0.335 C 
ATOM     73  O   UNL A   1      37.876  24.138  25.732  1.00  0.00    -0.249 OA
BRANCH  72  74
ATOM     74  C   UNL A   1      37.132  22.061  24.715  1.00  0.00     0.232 C 
ATOM     75  C   UNL A   1      36.567  20.828  25.401  1.00  0.00     0.087 C 
ATOM     76  O   UNL A   1      36.074  22.709  24.017  1.00  0.00    -0.355 OA
ATOM     77  C   UNL A   1      35.042  20.983  25.369  1.00  0.00     0.123 C 
ATOM     78  C   UNL A   1      34.803  22.312  24.570  1.00  0.00     0.186 C 
BRANCH  77  79
ATOM     79  C   UNL A   1      34.481  19.688  24.758  1.00  0.00    -0.013 A 
ATOM     80  C   UNL A   1      33.102  19.600  24.455  1.00  0.00     0.010 A 
ATOM     81  C   UNL A   1      35.262  18.533  24.590  1.00  0.00     0.010 A 
ATOM     82  C   UNL A   1      32.541  18.421  23.964  1.00  0.00     0.039 A 
ATOM     83  C   UNL A   1      34.702  17.356  24.086  1.00  0.00     0.039 A 
ATOM     84  C   UNL A   1      33.350  17.311  23.776  1.00  0.00     0.123 A 
ATOM     85  F   UNL A   1      32.817  16.175  23.308  1.00  0.00    -0.207 F 
ENDBRANCH  77  79
BRANCH  77  86
ATOM     86  O   UNL A   1      34.542  21.040  26.705  1.00  0.00    -0.382 OA
ATOM     87  H   UNL A   1      34.791  21.887  27.108  1.00  0.00     0.212 HD
ENDBRANCH  77  86
BRANCH  78  88
ATOM     88  C   UNL A   1      34.150  23.563  25.157  1.00  0.00    -0.016 A 
ATOM     89  C   UNL A   1      34.716  24.840  25.135  1.00  0.00     0.009 A 
ATOM     90  C   UNL A   1      32.854  23.454  25.701  1.00  0.00     0.009 A 
ATOM     91  C   UNL A   1      34.039  25.966  25.621  1.00  0.00     0.039 A 
ATOM     92  C   UNL A   1      32.173  24.572  26.200  1.00  0.00     0.039 A 
ATOM     93  C   UNL A   1      32.770  25.821  26.148  1.00  0.00     0.123 A 
ATOM     94  F   UNL A   1      32.112  26.894  26.604  1.00  0.00    -0.207 F 
ENDBRANCH  78  88
ENDBRANCH  72  74
ENDBRANCH  71  72
ENDBRANCH  70  71
ENDBRANCH  69  70
ENDBRANCH  68  69
ENDBRANCH   1  68
TORSDOF 20
ENDMDL
MODEL 2
REMARK VINA RESULT:     -10.5      2.910      9.173
REMARK SMILES O=C(OCCOCCOC(=O)[C@H]1C[C@](O)(c2ccc(F)cc2)[C@@H](c2ccc(F)cc2)O1)c1ccc(-c2c3nc(c(-c4ccc(S(=O)(=O)[O-])cc4)c4ccc([nH]4)c(-c4ccc(S(=O)(=O)[O-])cc4)c4nc(c(-c5ccc(S(=O)(=O)[O-])cc5)c5ccc2[nH]5)C=C4)C=C3)cc1
REMARK SMILES IDX 5 1 4 2 3 3 2 4 1 5 32 6 33 7 91 8 34 9 90 10 35 11 36 12
REMARK SMILES IDX 37 13 84 14 38 15 89 16 83 17 85 18 39 19 88 20 82 21 81 22
REMARK SMILES IDX 40 24 70 25 51 26 69 27 52 28 55 29 68 30 86 31 53 32 54 33
REMARK SMILES IDX 67 35 87 36 56 37 41 38 42 39 50 40 43 41 49 42 44 43 45 44
REMARK SMILES IDX 46 45 47 46 48 47 71 48 72 49 80 50 73 51 79 52 74 53 75 54
REMARK SMILES IDX 76 55 77 56 78 57 57 58 58 59 66 60 59 61 65 62 60 63 61 64
REMARK SMILES IDX 62 65 63 66 64 67 6 68 7 69 8 70 9 71 10 72 11 73 12 74
REMARK SMILES IDX 13 75 31 76 14 77 23 78 16 79 17 80 22 81 18 82 21 83 19 84
REMARK SMILES IDX 20 85 15 86 24 88 25 89 30 90 26 91 29 92 27 93 28 94
REMARK H PARENT 85 23 55 34 15 87
REMARK Flexibility Score: inf
ROOT
ATOM      1  C   UNL A   1      35.187  32.460  28.128  1.00  0.00     0.202 C 
ENDROOT
BRANCH   1   2
ATOM      2  C   UNL A   1      35.660  32.069  29.550  1.00  0.00     0.261 C 
BRANCH   2   3
ATOM      3  O   UNL A   1      35.859  30.636  29.689  1.00  0.00    -0.460 OA
BRANCH   3   4
ATOM      4  C   UNL A   1      36.709  29.967  30.509  1.00  0.00     0.338 C 
ATOM      5  O   UNL A   1      36.326  29.600  31.616  1.00  0.00    -0.246 OA
BRANCH   4   6
ATOM      6  C   UNL A   1      38.132  29.762  30.133  1.00  0.00     0.060 A 
ATOM      7  C   UNL A   1      38.580  30.009  28.848  1.00  0.00     0.016 A 
ATOM      8  C   UNL A   1      39.077  29.362  31.087  1.00  0.00     0.016 A 
ATOM      9  C   UNL A   1      39.867  29.789  28.450  1.00  0.00     0.010 A 
ATOM     10  C   UNL A   1      40.418  29.180  30.717  1.00  0.00     0.010 A 
ATOM     11  C   UNL A   1      40.798  29.378  29.383  1.00  0.00    -0.014 A 
BRANCH  11  12
ATOM     12  C   UNL A   1      42.087  29.008  28.797  1.00  0.00     0.031 A 
ATOM     13  C   UNL A   1      43.218  29.971  28.976  1.00  0.00     0.074 A 
ATOM     14  C   UNL A   1      42.278  27.724  28.437  1.00  0.00     0.049 A 
ATOM     15  N   UNL A   1      44.460  29.856  28.609  1.00  0.00    -0.248 NA
ATOM     16  C   UNL A   1      42.914  31.221  29.702  1.00  0.00     0.031 C 
ATOM     17  C   UNL A   1      41.252  26.670  28.496  1.00  0.00     0.029 A 
ATOM     18  N   UNL A   1      43.404  27.064  28.042  1.00  0.00    -0.354 N 
ATOM     19  C   UNL A   1      45.074  31.037  29.007  1.00  0.00     0.074 A 
ATOM     20  C   UNL A   1      44.079  31.848  29.666  1.00  0.00     0.031 C 
ATOM     21  C   UNL A   1      41.815  25.492  28.186  1.00  0.00     0.029 A 
ATOM     22  C   UNL A   1      43.202  25.723  27.812  1.00  0.00     0.049 A 
ATOM     23  H   UNL A   1      44.277  27.505  27.931  1.00  0.00     0.167 HD
ATOM     24  C   UNL A   1      46.357  31.407  28.802  1.00  0.00     0.031 A 
ATOM     25  C   UNL A   1      44.045  24.807  27.305  1.00  0.00     0.031 A 
ATOM     26  C   UNL A   1      47.298  30.557  28.127  1.00  0.00     0.049 A 
ATOM     27  C   UNL A   1      45.422  25.288  26.944  1.00  0.00     0.074 A 
ATOM     28  C   UNL A   1      48.590  30.832  27.731  1.00  0.00     0.029 A 
ATOM     29  N   UNL A   1      47.026  29.244  27.752  1.00  0.00    -0.354 N 
ATOM     30  N   UNL A   1      45.965  26.463  27.173  1.00  0.00    -0.248 NA
ATOM     31  C   UNL A   1      46.289  24.344  26.235  1.00  0.00     0.031 C 
ATOM     32  C   UNL A   1      49.081  29.702  27.067  1.00  0.00     0.029 A 
ATOM     33  C   UNL A   1      48.119  28.701  27.109  1.00  0.00     0.049 A 
ATOM     34  H   UNL A   1      46.179  28.774  27.920  1.00  0.00     0.167 HD
ATOM     35  C   UNL A   1      47.247  26.399  26.645  1.00  0.00     0.074 A 
ATOM     36  C   UNL A   1      47.400  25.057  26.108  1.00  0.00     0.031 C 
ATOM     37  C   UNL A   1      48.209  27.353  26.598  1.00  0.00     0.031 A 
BRANCH  24  38
ATOM     38  C   UNL A   1      46.732  32.810  29.189  1.00  0.00    -0.014 A 
ATOM     39  C   UNL A   1      46.682  33.877  28.274  1.00  0.00     0.010 A 
ATOM     40  C   UNL A   1      47.216  33.047  30.489  1.00  0.00     0.010 A 
ATOM     41  C   UNL A   1      47.153  35.144  28.639  1.00  0.00     0.020 A 
ATOM     42  C   UNL A   1      47.664  34.316  30.866  1.00  0.00     0.020 A 
ATOM     43  C   UNL A   1      47.649  35.352  29.931  1.00  0.00     0.054 A 
BRANCH  43  44
ATOM     44  S   UNL A   1      48.270  36.997  30.376  1.00  0.00     0.124 S 
ATOM     45  O   UNL A   1      48.939  36.732  31.648  1.00  0.00    -0.237 OA
ATOM     46  O   UNL A   1      49.154  37.320  29.259  1.00  0.00    -0.237 OA
ATOM     47  O   UNL A   1      47.061  37.812  30.467  1.00  0.00    -0.744 OA
ENDBRANCH  43  44
ENDBRANCH  24  38
BRANCH  25  48
ATOM     48  C   UNL A   1      43.578  23.422  27.013  1.00  0.00    -0.014 A 
ATOM     49  C   UNL A   1      43.018  22.610  28.013  1.00  0.00     0.010 A 
ATOM     50  C   UNL A   1      43.698  22.901  25.708  1.00  0.00     0.010 A 
ATOM     51  C   UNL A   1      42.606  21.303  27.719  1.00  0.00     0.020 A 
ATOM     52  C   UNL A   1      43.258  21.609  25.403  1.00  0.00     0.020 A 
ATOM     53  C   UNL A   1      42.730  20.812  26.417  1.00  0.00     0.054 A 
BRANCH  53  54
ATOM     54  S   UNL A   1      42.168  19.125  26.051  1.00  0.00     0.124 S 
ATOM     55  O   UNL A   1      42.565  18.405  27.256  1.00  0.00    -0.237 OA
ATOM     56  O   UNL A   1      40.730  19.305  25.865  1.00  0.00    -0.237 OA
ATOM     57  O   UNL A   1      42.905  18.773  24.839  1.00  0.00    -0.744 OA
ENDBRANCH  53  54
ENDBRANCH  25  48
BRANCH  37  58
ATOM     58  C   UNL A   1      49.516  26.953  25.982  1.00  0.00    -0.014 A 
ATOM     59  C   UNL A   1      49.929  27.479  24.747  1.00  0.00     0.010 A 
ATOM     60  C   UNL A   1      50.363  26.080  26.688  1.00  0.00     0.010 A 
ATOM     61  C   UNL A   1      51.163  27.113  24.211  1.00  0.00     0.020 A 
ATOM     62  C   UNL A   1      51.610  25.738  26.170  1.00  0.00     0.020 A 
ATOM     63  C   UNL A   1      51.996  26.246  24.928  1.00  0.00     0.054 A 
BRANCH  63  64
ATOM     64  S   UNL A   1      53.616  25.828  24.237  1.00  0.00     0.124 S 
ATOM     65  O   UNL A   1      53.864  24.513  24.822  1.00  0.00    -0.237 OA
ATOM     66  O   UNL A   1      53.364  25.838  22.798  1.00  0.00    -0.237 OA
ATOM     67  O   UNL A   1      54.485  26.899  24.718  1.00  0.00    -0.744 OA
ENDBRANCH  63  64
ENDBRANCH  37  58
ENDBRANCH  11  12
ENDBRANCH   4   6
ENDBRANCH   3   4
ENDBRANCH   2   3
ENDBRANCH   1   2
BRANCH   1  68
ATOM     68  O   UNL A   1      34.424  31.520  27.364  1.00  0.00    -0.374 OA
BRANCH  68  69
ATOM     69  C   UNL A   1      33.006  31.519  27.569  1.00  0.00     0.202 C 
BRANCH  69  70
ATOM     70  C   UNL A   1      32.306  30.329  26.914  1.00  0.00     0.261 C 
BRANCH  70  71
ATOM     71  O   UNL A   1      33.012  29.108  27.181  1.00  0.00    -0.461 OA
BRANCH  71  72
ATOM     72  C   UNL A   1      32.266  27.977  27.249  1.00  0.00     0.335 C 
ATOM     73  O   UNL A   1      31.307  27.800  27.994  1.00  0.00    -0.249 OA
BRANCH  72  74
ATOM     74  C   UNL A   1      32.712  26.943  26.209  1.00  0.00     0.232 C 
ATOM     75  C   UNL A   1      32.046  25.600  26.456  1.00  0.00     0.087 C 
ATOM     76  O   UNL A   1      32.535  27.284  24.837  1.00  0.00    -0.355 OA
ATOM     77  C   UNL A   1      31.149  25.338  25.240  1.00  0.00     0.123 C 
ATOM     78  C   UNL A   1      31.417  26.557  24.290  1.00  0.00     0.186 C 
BRANCH  77  79
ATOM     79  C   UNL A   1      31.521  23.943  24.712  1.00  0.00    -0.013 A 
ATOM     80  C   UNL A   1      31.324  22.810  25.536  1.00  0.00     0.010 A 
ATOM     81  C   UNL A   1      32.162  23.748  23.478  1.00  0.00     0.010 A 
ATOM     82  C   UNL A   1      31.711  21.535  25.123  1.00  0.00     0.039 A 
ATOM     83  C   UNL A   1      32.538  22.470  23.058  1.00  0.00     0.039 A 
ATOM     84  C   UNL A   1      32.308  21.377  23.882  1.00  0.00     0.123 A 
ATOM     85  F   UNL A   1      32.685  20.156  23.479  1.00  0.00    -0.207 F 
ENDBRANCH  77  79
BRANCH  77  86
ATOM     86  O   UNL A   1      29.788  25.252  25.662  1.00  0.00    -0.382 OA
ATOM     87  H   UNL A   1      29.260  24.826  24.969  1.00  0.00     0.212 HD
ENDBRANCH  77  86
BRANCH  78  88
ATOM     88  C   UNL A   1      30.358  27.583  23.887  1.00  0.00    -0.016 A 
ATOM     89  C   UNL A   1      30.610  28.937  23.656  1.00  0.00     0.009 A 
ATOM     90  C   UNL A   1      29.041  27.136  23.657  1.00  0.00     0.009 A 
ATOM     91  C   UNL A   1      29.616  29.818  23.214  1.00  0.00     0.039 A 
ATOM     92  C   UNL A   1      28.036  28.011  23.226  1.00  0.00     0.039 A 
ATOM     93  C   UNL A   1      28.335  29.345  23.001  1.00  0.00     0.123 A 
ATOM     94  F   UNL A   1      27.381  30.179  22.568  1.00  0.00    -0.207 F 
ENDBRANCH  78  88
ENDBRANCH  72  74
ENDBRANCH  71  72
ENDBRANCH  70  71
ENDBRANCH  69  70
ENDBRANCH  68  69
ENDBRANCH   1  68
TORSDOF 20
ENDMDL
MODEL 3
REMARK VINA RESULT:     -10.5      0.742      8.065
REMARK SMILES O=C(OCCOCCOC(=O)[C@H]1C[C@](O)(c2ccc(F)cc2)[C@@H](c2ccc(F)cc2)O1)c1ccc(-c2c3nc(c(-c4ccc(S(=O)(=O)[O-])cc4)c4ccc([nH]4)c(-c4ccc(S(=O)(=O)[O-])cc4)c4nc(c(-c5ccc(S(=O)(=O)[O-])cc5)c5ccc2[nH]5)C=C4)C=C3)cc1
REMARK SMILES IDX 5 1 4 2 3 3 2 4 1 5 32 6 33 7 91 8 34 9 90 10 35 11 36 12
REMARK SMILES IDX 37 13 84 14 38 15 89 16 83 17 85 18 39 19 88 20 82 21 81 22
REMARK SMILES IDX 40 24 70 25 51 26 69 27 52 28 55 29 68 30 86 31 53 32 54 33
REMARK SMILES IDX 67 35 87 36 56 37 41 38 42 39 50 40 43 41 49 42 44 43 45 44
REMARK SMILES IDX 46 45 47 46 48 47 71 48 72 49 80 50 73 51 79 52 74 53 75 54
REMARK SMILES IDX 76 55 77 56 78 57 57 58 58 59 66 60 59 61 65 62 60 63 61 64
REMARK SMILES IDX 62 65 63 66 64 67 6 68 7 69 8 70 9 71 10 72 11 73 12 74
REMARK SMILES IDX 13 75 31 76 14 77 23 78 16 79 17 80 22 81 18 82 21 83 19 84
REMARK SMILES IDX 20 85 15 86 24 88 25 89 30 90 26 91 29 92 27 93 28 94
REMARK H PARENT 85 23 55 34 15 87
REMARK Flexibility Score: inf
ROOT
ATOM      1  C   UNL A   1      41.436  20.040  27.040  1.00  0.00     0.202 C 
ENDROOT
BRANCH   1   2
ATOM      2  C   UNL A   1      42.493  19.077  26.445  1.00  0.00     0.261 C 
BRANCH   2   3
ATOM      3  O   UNL A   1      42.908  19.473  25.111  1.00  0.00    -0.460 OA
BRANCH   3   4
ATOM      4  C   UNL A   1      44.102  19.973  24.701  1.00  0.00     0.338 C 
ATOM      5  O   UNL A   1      44.913  19.238  24.146  1.00  0.00    -0.246 OA
BRANCH   4   6
ATOM      6  C   UNL A   1      44.490  21.375  25.008  1.00  0.00     0.060 A 
ATOM      7  C   UNL A   1      45.169  21.696  26.169  1.00  0.00     0.016 A 
ATOM      8  C   UNL A   1      44.225  22.410  24.100  1.00  0.00     0.016 A 
ATOM      9  C   UNL A   1      45.502  22.975  26.510  1.00  0.00     0.010 A 
ATOM     10  C   UNL A   1      44.604  23.726  24.403  1.00  0.00     0.010 A 
ATOM     11  C   UNL A   1      45.227  23.999  25.627  1.00  0.00    -0.014 A 
BRANCH  11  12
ATOM     12  C   UNL A   1      45.469  25.331  26.185  1.00  0.00     0.031 A 
ATOM     13  C   UNL A   1      46.812  25.941  25.933  1.00  0.00     0.074 A 
ATOM     14  C   UNL A   1      44.407  26.055  26.587  1.00  0.00     0.049 A 
ATOM     15  N   UNL A   1      47.253  27.119  26.264  1.00  0.00    -0.248 NA
ATOM     16  C   UNL A   1      47.777  25.125  25.171  1.00  0.00     0.031 C 
ATOM     17  C   UNL A   1      43.015  25.576  26.601  1.00  0.00     0.029 A 
ATOM     18  N   UNL A   1      44.307  27.361  26.970  1.00  0.00    -0.354 N 
ATOM     19  C   UNL A   1      48.562  27.166  25.802  1.00  0.00     0.074 A 
ATOM     20  C   UNL A   1      48.841  25.912  25.145  1.00  0.00     0.031 C 
ATOM     21  C   UNL A   1      42.204  26.591  26.936  1.00  0.00     0.029 A 
ATOM     22  C   UNL A   1      43.021  27.752  27.257  1.00  0.00     0.049 A 
ATOM     23  H   UNL A   1      45.083  27.964  27.035  1.00  0.00     0.167 HD
ATOM     24  C   UNL A   1      49.452  28.172  25.951  1.00  0.00     0.031 A 
ATOM     25  C   UNL A   1      42.575  28.911  27.770  1.00  0.00     0.031 A 
ATOM     26  C   UNL A   1      49.116  29.394  26.627  1.00  0.00     0.049 A 
ATOM     27  C   UNL A   1      43.613  29.957  28.069  1.00  0.00     0.074 A 
ATOM     28  C   UNL A   1      49.932  30.451  26.970  1.00  0.00     0.029 A 
ATOM     29  N   UNL A   1      47.832  29.712  27.061  1.00  0.00    -0.354 N 
ATOM     30  N   UNL A   1      44.894  29.945  27.777  1.00  0.00    -0.248 NA
ATOM     31  C   UNL A   1      43.161  31.153  28.784  1.00  0.00     0.031 C 
ATOM     32  C   UNL A   1      49.152  31.386  27.661  1.00  0.00     0.029 A 
ATOM     33  C   UNL A   1      47.835  30.941  27.688  1.00  0.00     0.049 A 
ATOM     34  H   UNL A   1      47.038  29.144  26.937  1.00  0.00     0.167 HD
ATOM     35  C   UNL A   1      45.406  31.138  28.266  1.00  0.00     0.074 A 
ATOM     36  C   UNL A   1      44.285  31.856  28.848  1.00  0.00     0.031 C 
ATOM     37  C   UNL A   1      46.681  31.603  28.246  1.00  0.00     0.031 A 
BRANCH  24  38
ATOM     38  C   UNL A   1      50.861  27.908  25.500  1.00  0.00    -0.014 A 
ATOM     39  C   UNL A   1      51.298  28.208  24.198  1.00  0.00     0.010 A 
ATOM     40  C   UNL A   1      51.750  27.277  26.391  1.00  0.00     0.010 A 
ATOM     41  C   UNL A   1      52.583  27.838  23.781  1.00  0.00     0.020 A 
ATOM     42  C   UNL A   1      53.041  26.929  25.987  1.00  0.00     0.020 A 
ATOM     43  C   UNL A   1      53.442  27.193  24.676  1.00  0.00     0.054 A 
BRANCH  43  44
ATOM     44  S   UNL A   1      55.096  26.708  24.109  1.00  0.00     0.124 S 
ATOM     45  O   UNL A   1      55.928  27.774  24.662  1.00  0.00    -0.237 OA
ATOM     46  O   UNL A   1      55.272  25.394  24.723  1.00  0.00    -0.237 OA
ATOM     47  O   UNL A   1      54.976  26.703  22.653  1.00  0.00    -0.744 OA
ENDBRANCH  43  44
ENDBRANCH  24  38
BRANCH  25  48
ATOM     48  C   UNL A   1      41.139  29.083  28.129  1.00  0.00    -0.014 A 
ATOM     49  C   UNL A   1      40.158  29.302  27.148  1.00  0.00     0.010 A 
ATOM     50  C   UNL A   1      40.741  29.029  29.481  1.00  0.00     0.010 A 
ATOM     51  C   UNL A   1      38.816  29.482  27.511  1.00  0.00     0.020 A 
ATOM     52  C   UNL A   1      39.400  29.175  29.846  1.00  0.00     0.020 A 
ATOM     53  C   UNL A   1      38.447  29.418  28.857  1.00  0.00     0.054 A 
BRANCH  53  54
ATOM     54  S   UNL A   1      36.701  29.629  29.306  1.00  0.00     0.124 S 
ATOM     55  O   UNL A   1      36.021  28.956  28.204  1.00  0.00    -0.237 OA
ATOM     56  O   UNL A   1      36.625  28.959  30.602  1.00  0.00    -0.237 OA
ATOM     57  O   UNL A   1      36.532  31.080  29.354  1.00  0.00    -0.744 OA
ENDBRANCH  53  54
ENDBRANCH  25  48
BRANCH  37  58
ATOM     58  C   UNL A   1      46.903  32.964  28.834  1.00  0.00    -0.014 A 
ATOM     59  C   UNL A   1      47.179  33.129  30.201  1.00  0.00     0.010 A 
ATOM     60  C   UNL A   1      46.892  34.084  27.984  1.00  0.00     0.010 A 
ATOM     61  C   UNL A   1      47.413  34.403  30.716  1.00  0.00     0.020 A 
ATOM     62  C   UNL A   1      47.156  35.354  28.490  1.00  0.00     0.020 A 
ATOM     63  C   UNL A   1      47.401  35.507  29.857  1.00  0.00     0.054 A 
BRANCH  63  64
ATOM     64  S   UNL A   1      47.760  37.145  30.539  1.00  0.00     0.124 S 
ATOM     65  O   UNL A   1      49.169  37.020  30.902  1.00  0.00    -0.237 OA
ATOM     66  O   UNL A   1      47.477  38.031  29.413  1.00  0.00    -0.237 OA
ATOM     67  O   UNL A   1      46.834  37.262  31.664  1.00  0.00    -0.744 OA
ENDBRANCH  63  64
ENDBRANCH  37  58
ENDBRANCH  11  12
ENDBRANCH   4   6
ENDBRANCH   3   4
ENDBRANCH   2   3
ENDBRANCH   1   2
BRANCH   1  68
ATOM     68  O   UNL A   1      41.854  21.318  27.530  1.00  0.00    -0.374 OA
BRANCH  68  69
ATOM     69  C   UNL A   1      40.894  22.379  27.470  1.00  0.00     0.202 C 
BRANCH  69  70
ATOM     70  C   UNL A   1      40.076  22.379  26.179  1.00  0.00     0.261 C 
BRANCH  70  71
ATOM     71  O   UNL A   1      38.680  22.189  26.455  1.00  0.00    -0.461 OA
BRANCH  71  72
ATOM     72  C   UNL A   1      37.809  22.911  25.708  1.00  0.00     0.335 C 
ATOM     73  O   UNL A   1      37.672  24.130  25.752  1.00  0.00    -0.249 OA
BRANCH  72  74
ATOM     74  C   UNL A   1      37.049  22.025  24.714  1.00  0.00     0.232 C 
ATOM     75  C   UNL A   1      36.490  20.791  25.404  1.00  0.00     0.087 C 
ATOM     76  O   UNL A   1      35.998  22.636  23.972  1.00  0.00    -0.355 OA
ATOM     77  C   UNL A   1      34.964  20.911  25.322  1.00  0.00     0.123 C 
ATOM     78  C   UNL A   1      34.720  22.220  24.493  1.00  0.00     0.186 C 
BRANCH  77  79
ATOM     79  C   UNL A   1      34.452  19.593  24.718  1.00  0.00    -0.013 A 
ATOM     80  C   UNL A   1      33.092  19.479  24.344  1.00  0.00     0.010 A 
ATOM     81  C   UNL A   1      35.253  18.443  24.624  1.00  0.00     0.010 A 
ATOM     82  C   UNL A   1      32.571  18.281  23.856  1.00  0.00     0.039 A 
ATOM     83  C   UNL A   1      34.734  17.246  24.123  1.00  0.00     0.039 A 
ATOM     84  C   UNL A   1      33.402  17.176  23.742  1.00  0.00     0.123 A 
ATOM     85  F   UNL A   1      32.908  16.021  23.277  1.00  0.00    -0.207 F 
ENDBRANCH  77  79
BRANCH  77  86
ATOM     86  O   UNL A   1      34.421  20.979  26.641  1.00  0.00    -0.382 OA
ATOM     87  H   UNL A   1      34.438  21.898  26.951  1.00  0.00     0.212 HD
ENDBRANCH  77  86
BRANCH  78  88
ATOM     88  C   UNL A   1      34.022  23.465  25.038  1.00  0.00    -0.016 A 
ATOM     89  C   UNL A   1      32.860  23.451  25.814  1.00  0.00     0.009 A 
ATOM     90  C   UNL A   1      34.616  24.724  24.811  1.00  0.00     0.009 A 
ATOM     91  C   UNL A   1      32.305  24.619  26.350  1.00  0.00     0.039 A 
ATOM     92  C   UNL A   1      34.063  25.899  25.333  1.00  0.00     0.039 A 
ATOM     93  C   UNL A   1      32.914  25.835  26.106  1.00  0.00     0.123 A 
ATOM     94  F   UNL A   1      32.396  26.955  26.625  1.00  0.00    -0.207 F 
ENDBRANCH  78  88
ENDBRANCH  72  74
ENDBRANCH  71  72
ENDBRANCH  70  71
ENDBRANCH  69  70
ENDBRANCH  68  69
ENDBRANCH   1  68
TORSDOF 20
ENDMDL
