MODEL 1
REMARK VINA RESULT:      -9.6      0.000      0.000
REMARK SMILES C[C@@H]1C[N@@H+](C[C@]2(C(=O)OCCOCCOC(=O)c3ccc(-c4c5nc(c(-c6ccc(S(=O)(=O)[O-])cc6)c6ccc([nH]6)c(-c6ccc(S(=O)(=O)[O-])cc6)c6nc(c(-c7ccc(S(=O)(=O)[O-])cc7)c7ccc4[nH]7)C=C6)C=C5)cc3)CCOC2)C[C@@H]1C
REMARK SMILES IDX 13 1 12 2 11 3 10 4 9 5 7 6 8 7 6 8 78 9 81 10 79 11 80 12
REMARK SMILES IDX 5 13 4 14 1 15 2 16 3 17 83 18 82 19 84 20 14 22 15 23 16 24
REMARK SMILES IDX 17 25 18 26 19 27 77 28 20 29 76 30 21 31 22 32 23 33 70 34
REMARK SMILES IDX 24 35 75 36 69 37 71 38 25 39 74 40 68 41 67 42 26 44 56 45
REMARK SMILES IDX 37 46 55 47 38 48 41 49 54 50 72 51 39 52 40 53 53 55 73 56
REMARK SMILES IDX 42 57 27 58 28 59 36 60 29 61 35 62 30 63 31 64 32 65 33 66
REMARK SMILES IDX 34 67 57 68 58 69 66 70 59 71 65 72 60 73 61 74 62 75 63 76
REMARK SMILES IDX 64 77 43 78 44 79 52 80 45 81 51 82 46 83 47 84 48 85 49 86
REMARK SMILES IDX 50 87
REMARK H PARENT 4 21 71 43 41 54
REMARK Flexibility Score: inf
ROOT
ATOM      1  C   UNL A   1      31.930  28.146  25.893  1.00  0.00     0.202 C 
ENDROOT
BRANCH   1   2
ATOM      2  O   UNL A   1      31.697  27.678  24.565  1.00  0.00    -0.374 OA
BRANCH   2   3
ATOM      3  C   UNL A   1      30.441  27.041  24.333  1.00  0.00     0.202 C 
BRANCH   3   4
ATOM      4  C   UNL A   1      29.978  26.040  25.397  1.00  0.00     0.261 C 
BRANCH   4   5
ATOM      5  O   UNL A   1      30.515  24.718  25.189  1.00  0.00    -0.463 OA
BRANCH   5   6
ATOM      6  C   UNL A   1      31.386  24.280  26.139  1.00  0.00     0.320 C 
ATOM      7  O   UNL A   1      31.352  24.628  27.315  1.00  0.00    -0.251 OA
BRANCH   6   8
ATOM      8  C   UNL A   1      32.352  23.218  25.609  1.00  0.00     0.142 C 
ATOM      9  C   UNL A   1      31.708  21.839  25.537  1.00  0.00     0.055 C 
ATOM     10  C   UNL A   1      32.555  23.558  24.133  1.00  0.00     0.185 C 
ATOM     11  C   UNL A   1      32.162  21.265  24.216  1.00  0.00     0.161 C 
ATOM     12  O   UNL A   1      32.467  22.357  23.355  1.00  0.00    -0.380 OA
BRANCH   8  13
ATOM     13  C   UNL A   1      33.612  23.309  26.525  1.00  0.00     0.283 C 
BRANCH  13  14
ATOM     14  N   UNL A   1      34.971  22.912  26.181  1.00  0.00    -0.333 N 
ATOM     15  C   UNL A   1      36.814  22.901  22.962  1.00  0.00     0.014 C 
ATOM     16  C   UNL A   1      35.826  22.515  24.048  1.00  0.00     0.049 C 
ATOM     17  C   UNL A   1      35.640  23.602  25.094  1.00  0.00     0.265 C 
ATOM     18  C   UNL A   1      36.137  21.268  24.888  1.00  0.00     0.049 C 
ATOM     19  C   UNL A   1      35.357  21.510  26.196  1.00  0.00     0.265 C 
ATOM     20  C   UNL A   1      37.624  21.038  25.151  1.00  0.00     0.014 C 
ATOM     21  H   UNL A   1      35.329  23.289  27.059  1.00  0.00     0.348 HD
ENDBRANCH  13  14
ENDBRANCH   8  13
ENDBRANCH   6   8
ENDBRANCH   5   6
ENDBRANCH   4   5
ENDBRANCH   3   4
ENDBRANCH   2   3
ENDBRANCH   1   2
BRANCH   1  22
ATOM     22  C   UNL A   1      33.276  27.769  26.517  1.00  0.00     0.261 C 
BRANCH  22  23
ATOM     23  O   UNL A   1      34.266  28.782  26.268  1.00  0.00    -0.460 OA
BRANCH  23  24
ATOM     24  C   UNL A   1      34.393  29.700  27.254  1.00  0.00     0.338 C 
ATOM     25  O   UNL A   1      33.498  30.375  27.749  1.00  0.00    -0.246 OA
BRANCH  24  26
ATOM     26  C   UNL A   1      35.753  29.651  27.819  1.00  0.00     0.060 A 
ATOM     27  C   UNL A   1      36.819  29.839  26.929  1.00  0.00     0.016 A 
ATOM     28  C   UNL A   1      35.994  29.375  29.166  1.00  0.00     0.016 A 
ATOM     29  C   UNL A   1      38.130  29.681  27.366  1.00  0.00     0.010 A 
ATOM     30  C   UNL A   1      37.313  29.209  29.603  1.00  0.00     0.010 A 
ATOM     31  C   UNL A   1      38.382  29.316  28.694  1.00  0.00    -0.014 A 
BRANCH  31  32
ATOM     32  C   UNL A   1      39.746  28.878  29.075  1.00  0.00     0.031 A 
ATOM     33  C   UNL A   1      40.631  29.836  29.824  1.00  0.00     0.074 A 
ATOM     34  C   UNL A   1      40.171  27.631  28.806  1.00  0.00     0.049 A 
ATOM     35  N   UNL A   1      41.853  29.668  30.259  1.00  0.00    -0.248 NA
ATOM     36  C   UNL A   1      40.062  31.160  30.121  1.00  0.00     0.031 C 
ATOM     37  C   UNL A   1      39.390  26.600  28.125  1.00  0.00     0.029 A 
ATOM     38  N   UNL A   1      41.373  27.025  29.075  1.00  0.00    -0.354 N 
ATOM     39  C   UNL A   1      42.200  30.864  30.877  1.00  0.00     0.074 A 
ATOM     40  C   UNL A   1      41.074  31.761  30.727  1.00  0.00     0.031 C 
ATOM     41  C   UNL A   1      40.139  25.490  28.017  1.00  0.00     0.029 A 
ATOM     42  C   UNL A   1      41.459  25.742  28.594  1.00  0.00     0.049 A 
ATOM     43  H   UNL A   1      42.103  27.468  29.565  1.00  0.00     0.167 HD
ATOM     44  C   UNL A   1      43.348  31.185  31.521  1.00  0.00     0.031 A 
ATOM     45  C   UNL A   1      42.492  24.877  28.596  1.00  0.00     0.031 A 
ATOM     46  C   UNL A   1      44.475  30.300  31.644  1.00  0.00     0.049 A 
ATOM     47  C   UNL A   1      43.786  25.275  29.252  1.00  0.00     0.074 A 
ATOM     48  C   UNL A   1      45.685  30.528  32.276  1.00  0.00     0.029 A 
ATOM     49  N   UNL A   1      44.536  29.019  31.114  1.00  0.00    -0.354 N 
ATOM     50  N   UNL A   1      44.094  26.401  29.852  1.00  0.00    -0.248 NA
ATOM     51  C   UNL A   1      44.869  24.282  29.245  1.00  0.00     0.031 C 
ATOM     52  C   UNL A   1      46.498  29.406  32.079  1.00  0.00     0.029 A 
ATOM     53  C   UNL A   1      45.772  28.454  31.381  1.00  0.00     0.049 A 
ATOM     54  H   UNL A   1      43.807  28.578  30.622  1.00  0.00     0.167 HD
ATOM     55  C   UNL A   1      45.398  26.246  30.309  1.00  0.00     0.074 A 
ATOM     56  C   UNL A   1      45.815  24.911  29.930  1.00  0.00     0.031 C 
ATOM     57  C   UNL A   1      46.178  27.128  30.985  1.00  0.00     0.031 A 
BRANCH  44  58
ATOM     58  C   UNL A   1      43.445  32.575  32.097  1.00  0.00    -0.014 A 
ATOM     59  C   UNL A   1      43.933  33.650  31.333  1.00  0.00     0.010 A 
ATOM     60  C   UNL A   1      43.049  32.807  33.427  1.00  0.00     0.010 A 
ATOM     61  C   UNL A   1      44.081  34.916  31.904  1.00  0.00     0.020 A 
ATOM     62  C   UNL A   1      43.167  34.079  33.994  1.00  0.00     0.020 A 
ATOM     63  C   UNL A   1      43.707  35.120  33.236  1.00  0.00     0.054 A 
BRANCH  63  64
ATOM     64  S   UNL A   1      43.927  36.767  33.962  1.00  0.00     0.124 S 
ATOM     65  O   UNL A   1      44.582  37.488  32.874  1.00  0.00    -0.237 OA
ATOM     66  O   UNL A   1      42.554  37.178  34.249  1.00  0.00    -0.237 OA
ATOM     67  O   UNL A   1      44.759  36.521  35.136  1.00  0.00    -0.744 OA
ENDBRANCH  63  64
ENDBRANCH  44  58
BRANCH  45  68
ATOM     68  C   UNL A   1      42.337  23.556  27.930  1.00  0.00    -0.014 A 
ATOM     69  C   UNL A   1      42.990  23.275  26.718  1.00  0.00     0.010 A 
ATOM     70  C   UNL A   1      41.564  22.550  28.540  1.00  0.00     0.010 A 
ATOM     71  C   UNL A   1      42.876  22.010  26.131  1.00  0.00     0.020 A 
ATOM     72  C   UNL A   1      41.469  21.278  27.971  1.00  0.00     0.020 A 
ATOM     73  C   UNL A   1      42.124  21.017  26.766  1.00  0.00     0.054 A 
BRANCH  73  74
ATOM     74  S   UNL A   1      42.069  19.356  26.036  1.00  0.00     0.124 S 
ATOM     75  O   UNL A   1      40.642  19.180  25.789  1.00  0.00    -0.237 OA
ATOM     76  O   UNL A   1      42.904  19.508  24.848  1.00  0.00    -0.237 OA
ATOM     77  O   UNL A   1      42.636  18.506  27.080  1.00  0.00    -0.744 OA
ENDBRANCH  73  74
ENDBRANCH  45  68
BRANCH  57  78
ATOM     78  C   UNL A   1      47.558  26.672  31.380  1.00  0.00    -0.014 A 
ATOM     79  C   UNL A   1      47.763  25.848  32.500  1.00  0.00     0.010 A 
ATOM     80  C   UNL A   1      48.661  27.026  30.580  1.00  0.00     0.010 A 
ATOM     81  C   UNL A   1      49.049  25.412  32.832  1.00  0.00     0.020 A 
ATOM     82  C   UNL A   1      49.944  26.570  30.892  1.00  0.00     0.020 A 
ATOM     83  C   UNL A   1      50.132  25.776  32.025  1.00  0.00     0.054 A 
BRANCH  83  84
ATOM     84  S   UNL A   1      51.785  25.164  32.452  1.00  0.00     0.124 S 
ATOM     85  O   UNL A   1      52.615  25.789  31.426  1.00  0.00    -0.237 OA
ATOM     86  O   UNL A   1      51.974  25.672  33.809  1.00  0.00    -0.237 OA
ATOM     87  O   UNL A   1      51.654  23.712  32.350  1.00  0.00    -0.744 OA
ENDBRANCH  83  84
ENDBRANCH  57  78
ENDBRANCH  31  32
ENDBRANCH  24  26
ENDBRANCH  23  24
ENDBRANCH  22  23
ENDBRANCH   1  22
TORSDOF 19
ENDMDL
MODEL 2
REMARK VINA RESULT:      -9.6      1.466      2.247
REMARK SMILES C[C@@H]1C[N@@H+](C[C@]2(C(=O)OCCOCCOC(=O)c3ccc(-c4c5nc(c(-c6ccc(S(=O)(=O)[O-])cc6)c6ccc([nH]6)c(-c6ccc(S(=O)(=O)[O-])cc6)c6nc(c(-c7ccc(S(=O)(=O)[O-])cc7)c7ccc4[nH]7)C=C6)C=C5)cc3)CCOC2)C[C@@H]1C
REMARK SMILES IDX 13 1 12 2 11 3 10 4 9 5 7 6 8 7 6 8 78 9 81 10 79 11 80 12
REMARK SMILES IDX 5 13 4 14 1 15 2 16 3 17 83 18 82 19 84 20 14 22 15 23 16 24
REMARK SMILES IDX 17 25 18 26 19 27 77 28 20 29 76 30 21 31 22 32 23 33 70 34
REMARK SMILES IDX 24 35 75 36 69 37 71 38 25 39 74 40 68 41 67 42 26 44 56 45
REMARK SMILES IDX 37 46 55 47 38 48 41 49 54 50 72 51 39 52 40 53 53 55 73 56
REMARK SMILES IDX 42 57 27 58 28 59 36 60 29 61 35 62 30 63 31 64 32 65 33 66
REMARK SMILES IDX 34 67 57 68 58 69 66 70 59 71 65 72 60 73 61 74 62 75 63 76
REMARK SMILES IDX 64 77 43 78 44 79 52 80 45 81 51 82 46 83 47 84 48 85 49 86
REMARK SMILES IDX 50 87
REMARK H PARENT 4 21 71 43 41 54
REMARK Flexibility Score: inf
ROOT
ATOM      1  C   UNL A   1      32.217  27.155  26.492  1.00  0.00     0.202 C 
ENDROOT
BRANCH   1   2
ATOM      2  O   UNL A   1      32.499  27.086  25.095  1.00  0.00    -0.374 OA
BRANCH   2   3
ATOM      3  C   UNL A   1      32.391  25.796  24.494  1.00  0.00     0.202 C 
BRANCH   3   4
ATOM      4  C   UNL A   1      32.527  24.593  25.434  1.00  0.00     0.261 C 
BRANCH   4   5
ATOM      5  O   UNL A   1      33.901  24.242  25.693  1.00  0.00    -0.463 OA
BRANCH   5   6
ATOM      6  C   UNL A   1      34.109  22.976  26.148  1.00  0.00     0.320 C 
ATOM      7  O   UNL A   1      33.673  22.547  27.211  1.00  0.00    -0.251 OA
BRANCH   6   8
ATOM      8  C   UNL A   1      34.858  22.102  25.138  1.00  0.00     0.142 C 
ATOM      9  C   UNL A   1      35.427  22.917  23.983  1.00  0.00     0.055 C 
ATOM     10  C   UNL A   1      36.121  21.640  25.863  1.00  0.00     0.185 C 
ATOM     11  C   UNL A   1      36.813  22.360  23.760  1.00  0.00     0.161 C 
ATOM     12  O   UNL A   1      37.247  21.782  24.987  1.00  0.00    -0.380 OA
BRANCH   8  13
ATOM     13  C   UNL A   1      33.846  20.990  24.722  1.00  0.00     0.283 C 
BRANCH  13  14
ATOM     14  N   UNL A   1      33.871  19.591  25.130  1.00  0.00    -0.333 N 
ATOM     15  C   UNL A   1      34.234  16.447  23.194  1.00  0.00     0.014 C 
ATOM     16  C   UNL A   1      33.628  17.719  23.760  1.00  0.00     0.049 C 
ATOM     17  C   UNL A   1      34.666  18.657  24.353  1.00  0.00     0.265 C 
ATOM     18  C   UNL A   1      32.596  17.579  24.889  1.00  0.00     0.049 C 
ATOM     19  C   UNL A   1      32.664  18.939  25.612  1.00  0.00     0.265 C 
ATOM     20  C   UNL A   1      32.859  16.417  25.845  1.00  0.00     0.014 C 
ATOM     21  H   UNL A   1      34.396  19.822  25.974  1.00  0.00     0.348 HD
ENDBRANCH  13  14
ENDBRANCH   8  13
ENDBRANCH   6   8
ENDBRANCH   5   6
ENDBRANCH   4   5
ENDBRANCH   3   4
ENDBRANCH   2   3
ENDBRANCH   1   2
BRANCH   1  22
ATOM     22  C   UNL A   1      32.599  28.459  27.197  1.00  0.00     0.261 C 
BRANCH  22  23
ATOM     23  O   UNL A   1      34.026  28.575  27.338  1.00  0.00    -0.460 OA
BRANCH  23  24
ATOM     24  C   UNL A   1      34.462  29.819  27.641  1.00  0.00     0.338 C 
ATOM     25  O   UNL A   1      33.794  30.846  27.671  1.00  0.00    -0.246 OA
BRANCH  24  26
ATOM     26  C   UNL A   1      35.848  29.761  28.140  1.00  0.00     0.060 A 
ATOM     27  C   UNL A   1      36.870  29.986  27.209  1.00  0.00     0.016 A 
ATOM     28  C   UNL A   1      36.153  29.440  29.465  1.00  0.00     0.016 A 
ATOM     29  C   UNL A   1      38.201  29.822  27.579  1.00  0.00     0.010 A 
ATOM     30  C   UNL A   1      37.491  29.269  29.834  1.00  0.00     0.010 A 
ATOM     31  C   UNL A   1      38.516  29.415  28.881  1.00  0.00    -0.014 A 
BRANCH  31  32
ATOM     32  C   UNL A   1      39.899  28.974  29.182  1.00  0.00     0.031 A 
ATOM     33  C   UNL A   1      40.829  29.931  29.875  1.00  0.00     0.074 A 
ATOM     34  C   UNL A   1      40.304  27.725  28.894  1.00  0.00     0.049 A 
ATOM     35  N   UNL A   1      42.074  29.762  30.239  1.00  0.00    -0.248 NA
ATOM     36  C   UNL A   1      40.282  31.258  30.201  1.00  0.00     0.031 C 
ATOM     37  C   UNL A   1      39.482  26.694  28.263  1.00  0.00     0.029 A 
ATOM     38  N   UNL A   1      41.518  27.116  29.093  1.00  0.00    -0.354 N 
ATOM     39  C   UNL A   1      42.460  30.958  30.832  1.00  0.00     0.074 A 
ATOM     40  C   UNL A   1      41.330  31.858  30.745  1.00  0.00     0.031 C 
ATOM     41  C   UNL A   1      40.220  25.581  28.114  1.00  0.00     0.029 A 
ATOM     42  C   UNL A   1      41.572  25.831  28.612  1.00  0.00     0.049 A 
ATOM     43  H   UNL A   1      42.276  27.559  29.539  1.00  0.00     0.167 HD
ATOM     44  C   UNL A   1      43.644  31.278  31.407  1.00  0.00     0.031 A 
ATOM     45  C   UNL A   1      42.601  24.963  28.557  1.00  0.00     0.031 A 
ATOM     46  C   UNL A   1      44.774  30.390  31.467  1.00  0.00     0.049 A 
ATOM     47  C   UNL A   1      43.933  25.360  29.135  1.00  0.00     0.074 A 
ATOM     48  C   UNL A   1      46.019  30.616  32.026  1.00  0.00     0.029 A 
ATOM     49  N   UNL A   1      44.800  29.107  30.939  1.00  0.00    -0.354 N 
ATOM     50  N   UNL A   1      44.278  26.487  29.712  1.00  0.00    -0.248 NA
ATOM     51  C   UNL A   1      45.011  24.363  29.067  1.00  0.00     0.031 C 
ATOM     52  C   UNL A   1      46.816  29.491  31.786  1.00  0.00     0.029 A 
ATOM     53  C   UNL A   1      46.048  28.539  31.134  1.00  0.00     0.049 A 
ATOM     54  H   UNL A   1      44.042  28.666  30.491  1.00  0.00     0.167 HD
ATOM     55  C   UNL A   1      45.606  26.329  30.093  1.00  0.00     0.074 A 
ATOM     56  C   UNL A   1      45.997  24.992  29.694  1.00  0.00     0.031 C 
ATOM     57  C   UNL A   1      46.427  27.210  30.719  1.00  0.00     0.031 A 
BRANCH  44  58
ATOM     58  C   UNL A   1      43.778  32.669  31.972  1.00  0.00    -0.014 A 
ATOM     59  C   UNL A   1      43.531  32.932  33.333  1.00  0.00     0.010 A 
ATOM     60  C   UNL A   1      44.148  33.731  31.128  1.00  0.00     0.010 A 
ATOM     61  C   UNL A   1      43.592  34.238  33.824  1.00  0.00     0.020 A 
ATOM     62  C   UNL A   1      44.241  35.035  31.622  1.00  0.00     0.020 A 
ATOM     63  C   UNL A   1      43.937  35.284  32.962  1.00  0.00     0.054 A 
BRANCH  63  64
ATOM     64  S   UNL A   1      43.991  36.973  33.619  1.00  0.00     0.124 S 
ATOM     65  O   UNL A   1      44.241  37.757  32.412  1.00  0.00    -0.237 OA
ATOM     66  O   UNL A   1      42.663  37.132  34.207  1.00  0.00    -0.237 OA
ATOM     67  O   UNL A   1      45.093  36.938  34.577  1.00  0.00    -0.744 OA
ENDBRANCH  63  64
ENDBRANCH  44  58
BRANCH  45  68
ATOM     68  C   UNL A   1      42.404  23.641  27.905  1.00  0.00    -0.014 A 
ATOM     69  C   UNL A   1      43.160  23.267  26.781  1.00  0.00     0.010 A 
ATOM     70  C   UNL A   1      41.481  22.725  28.443  1.00  0.00     0.010 A 
ATOM     71  C   UNL A   1      43.000  21.999  26.211  1.00  0.00     0.020 A 
ATOM     72  C   UNL A   1      41.337  21.449  27.894  1.00  0.00     0.020 A 
ATOM     73  C   UNL A   1      42.096  21.096  26.778  1.00  0.00     0.054 A 
BRANCH  73  74
ATOM     74  S   UNL A   1      41.974  19.424  26.080  1.00  0.00     0.124 S 
ATOM     75  O   UNL A   1      40.545  19.312  25.807  1.00  0.00    -0.237 OA
ATOM     76  O   UNL A   1      42.840  19.509  24.908  1.00  0.00    -0.237 OA
ATOM     77  O   UNL A   1      42.476  18.570  27.154  1.00  0.00    -0.744 OA
ENDBRANCH  73  74
ENDBRANCH  45  68
BRANCH  57  78
ATOM     78  C   UNL A   1      47.826  26.752  31.035  1.00  0.00    -0.014 A 
ATOM     79  C   UNL A   1      48.886  26.968  30.136  1.00  0.00     0.010 A 
ATOM     80  C   UNL A   1      48.095  26.149  32.277  1.00  0.00     0.010 A 
ATOM     81  C   UNL A   1      50.183  26.561  30.462  1.00  0.00     0.020 A 
ATOM     82  C   UNL A   1      49.395  25.766  32.618  1.00  0.00     0.020 A 
ATOM     83  C   UNL A   1      50.429  25.962  31.702  1.00  0.00     0.054 A 
BRANCH  83  84
ATOM     84  S   UNL A   1      52.127  25.481  32.118  1.00  0.00     0.124 S 
ATOM     85  O   UNL A   1      52.349  26.201  33.369  1.00  0.00    -0.237 OA
ATOM     86  O   UNL A   1      52.029  24.028  32.238  1.00  0.00    -0.237 OA
ATOM     87  O   UNL A   1      52.912  25.953  30.979  1.00  0.00    -0.744 OA
ENDBRANCH  83  84
ENDBRANCH  57  78
ENDBRANCH  31  32
ENDBRANCH  24  26
ENDBRANCH  23  24
ENDBRANCH  22  23
ENDBRANCH   1  22
TORSDOF 19
ENDMDL
MODEL 3
REMARK VINA RESULT:      -9.4      1.108      2.100
REMARK SMILES C[C@@H]1C[N@@H+](C[C@]2(C(=O)OCCOCCOC(=O)c3ccc(-c4c5nc(c(-c6ccc(S(=O)(=O)[O-])cc6)c6ccc([nH]6)c(-c6ccc(S(=O)(=O)[O-])cc6)c6nc(c(-c7ccc(S(=O)(=O)[O-])cc7)c7ccc4[nH]7)C=C6)C=C5)cc3)CCOC2)C[C@@H]1C
REMARK SMILES IDX 13 1 12 2 11 3 10 4 9 5 7 6 8 7 6 8 78 9 81 10 79 11 80 12
REMARK SMILES IDX 5 13 4 14 1 15 2 16 3 17 83 18 82 19 84 20 14 22 15 23 16 24
REMARK SMILES IDX 17 25 18 26 19 27 77 28 20 29 76 30 21 31 22 32 23 33 70 34
REMARK SMILES IDX 24 35 75 36 69 37 71 38 25 39 74 40 68 41 67 42 26 44 56 45
REMARK SMILES IDX 37 46 55 47 38 48 41 49 54 50 72 51 39 52 40 53 53 55 73 56
REMARK SMILES IDX 42 57 27 58 28 59 36 60 29 61 35 62 30 63 31 64 32 65 33 66
REMARK SMILES IDX 34 67 57 68 58 69 66 70 59 71 65 72 60 73 61 74 62 75 63 76
REMARK SMILES IDX 64 77 43 78 44 79 52 80 45 81 51 82 46 83 47 84 48 85 49 86
REMARK SMILES IDX 50 87
REMARK H PARENT 4 21 71 43 41 54
REMARK Flexibility Score: inf
ROOT
ATOM      1  C   UNL A   1      31.820  31.164  26.436  1.00  0.00     0.202 C 
ENDROOT
BRANCH   1   2
ATOM      2  O   UNL A   1      31.098  30.477  25.415  1.00  0.00    -0.374 OA
BRANCH   2   3
ATOM      3  C   UNL A   1      31.499  29.131  25.156  1.00  0.00     0.202 C 
BRANCH   3   4
ATOM      4  C   UNL A   1      32.316  28.897  23.881  1.00  0.00     0.261 C 
BRANCH   4   5
ATOM      5  O   UNL A   1      32.826  27.552  23.787  1.00  0.00    -0.463 OA
BRANCH   5   6
ATOM      6  C   UNL A   1      31.989  26.644  23.215  1.00  0.00     0.320 C 
ATOM      7  O   UNL A   1      31.534  26.748  22.081  1.00  0.00    -0.251 OA
BRANCH   6   8
ATOM      8  C   UNL A   1      31.760  25.414  24.098  1.00  0.00     0.142 C 
ATOM      9  C   UNL A   1      32.590  25.461  25.376  1.00  0.00     0.055 C 
ATOM     10  C   UNL A   1      30.336  25.561  24.632  1.00  0.00     0.185 C 
ATOM     11  C   UNL A   1      31.654  24.996  26.466  1.00  0.00     0.161 C 
ATOM     12  O   UNL A   1      30.324  25.268  26.035  1.00  0.00    -0.380 OA
BRANCH   8  13
ATOM     13  C   UNL A   1      32.037  24.186  23.178  1.00  0.00     0.283 C 
BRANCH  13  14
ATOM     14  N   UNL A   1      33.293  23.459  23.048  1.00  0.00    -0.333 N 
ATOM     15  C   UNL A   1      35.119  21.221  25.376  1.00  0.00     0.014 C 
ATOM     16  C   UNL A   1      34.540  22.482  24.760  1.00  0.00     0.049 C 
ATOM     17  C   UNL A   1      33.441  22.197  23.751  1.00  0.00     0.265 C 
ATOM     18  C   UNL A   1      35.495  23.405  23.989  1.00  0.00     0.049 C 
ATOM     19  C   UNL A   1      34.561  24.172  23.031  1.00  0.00     0.265 C 
ATOM     20  C   UNL A   1      36.605  22.678  23.233  1.00  0.00     0.014 C 
ATOM     21  H   UNL A   1      33.099  23.251  22.069  1.00  0.00     0.348 HD
ENDBRANCH  13  14
ENDBRANCH   8  13
ENDBRANCH   6   8
ENDBRANCH   5   6
ENDBRANCH   4   5
ENDBRANCH   3   4
ENDBRANCH   2   3
ENDBRANCH   1   2
BRANCH   1  22
ATOM     22  C   UNL A   1      32.791  30.319  27.265  1.00  0.00     0.261 C 
BRANCH  22  23
ATOM     23  O   UNL A   1      34.154  30.714  27.031  1.00  0.00    -0.460 OA
BRANCH  23  24
ATOM     24  C   UNL A   1      34.824  31.109  28.138  1.00  0.00     0.338 C 
ATOM     25  O   UNL A   1      34.422  31.876  29.005  1.00  0.00    -0.246 OA
BRANCH  24  26
ATOM     26  C   UNL A   1      36.065  30.329  28.284  1.00  0.00     0.060 A 
ATOM     27  C   UNL A   1      36.279  29.696  29.516  1.00  0.00     0.016 A 
ATOM     28  C   UNL A   1      37.027  30.257  27.273  1.00  0.00     0.016 A 
ATOM     29  C   UNL A   1      37.484  29.049  29.769  1.00  0.00     0.010 A 
ATOM     30  C   UNL A   1      38.241  29.612  27.531  1.00  0.00     0.010 A 
ATOM     31  C   UNL A   1      38.490  29.046  28.796  1.00  0.00    -0.014 A 
BRANCH  31  32
ATOM     32  C   UNL A   1      39.855  28.607  29.172  1.00  0.00     0.031 A 
ATOM     33  C   UNL A   1      40.728  29.549  29.955  1.00  0.00     0.074 A 
ATOM     34  C   UNL A   1      40.292  27.372  28.870  1.00  0.00     0.049 A 
ATOM     35  N   UNL A   1      41.949  29.378  30.393  1.00  0.00    -0.248 NA
ATOM     36  C   UNL A   1      40.147  30.860  30.288  1.00  0.00     0.031 C 
ATOM     37  C   UNL A   1      39.523  26.356  28.153  1.00  0.00     0.029 A 
ATOM     38  N   UNL A   1      41.497  26.768  29.128  1.00  0.00    -0.354 N 
ATOM     39  C   UNL A   1      42.283  30.557  31.049  1.00  0.00     0.074 A 
ATOM     40  C   UNL A   1      41.151  31.449  30.918  1.00  0.00     0.031 C 
ATOM     41  C   UNL A   1      40.281  25.255  28.016  1.00  0.00     0.029 A 
ATOM     42  C   UNL A   1      41.596  25.500  28.610  1.00  0.00     0.049 A 
ATOM     43  H   UNL A   1      42.220  27.201  29.636  1.00  0.00     0.167 HD
ATOM     44  C   UNL A   1      43.423  30.868  31.710  1.00  0.00     0.031 A 
ATOM     45  C   UNL A   1      42.635  24.643  28.593  1.00  0.00     0.031 A 
ATOM     46  C   UNL A   1      44.557  29.988  31.813  1.00  0.00     0.049 A 
ATOM     47  C   UNL A   1      43.922  25.031  29.269  1.00  0.00     0.074 A 
ATOM     48  C   UNL A   1      45.761  30.206  32.460  1.00  0.00     0.029 A 
ATOM     49  N   UNL A   1      44.631  28.724  31.247  1.00  0.00    -0.354 N 
ATOM     50  N   UNL A   1      44.217  26.142  29.904  1.00  0.00    -0.248 NA
ATOM     51  C   UNL A   1      45.013  24.047  29.239  1.00  0.00     0.031 C 
ATOM     52  C   UNL A   1      46.583  29.097  32.235  1.00  0.00     0.029 A 
ATOM     53  C   UNL A   1      45.870  28.161  31.504  1.00  0.00     0.049 A 
ATOM     54  H   UNL A   1      43.908  28.292  30.736  1.00  0.00     0.167 HD
ATOM     55  C   UNL A   1      45.520  25.983  30.365  1.00  0.00     0.074 A 
ATOM     56  C   UNL A   1      45.950  24.663  29.949  1.00  0.00     0.031 C 
ATOM     57  C   UNL A   1      46.288  26.849  31.071  1.00  0.00     0.031 A 
BRANCH  44  58
ATOM     58  C   UNL A   1      43.506  32.240  32.328  1.00  0.00    -0.014 A 
ATOM     59  C   UNL A   1      42.955  32.505  33.596  1.00  0.00     0.010 A 
ATOM     60  C   UNL A   1      44.135  33.283  31.626  1.00  0.00     0.010 A 
ATOM     61  C   UNL A   1      42.980  33.798  34.122  1.00  0.00     0.020 A 
ATOM     62  C   UNL A   1      44.189  34.573  32.162  1.00  0.00     0.020 A 
ATOM     63  C   UNL A   1      43.588  34.827  33.396  1.00  0.00     0.054 A 
BRANCH  63  64
ATOM     64  S   UNL A   1      43.590  36.502  34.092  1.00  0.00     0.124 S 
ATOM     65  O   UNL A   1      43.036  37.285  32.991  1.00  0.00    -0.237 OA
ATOM     66  O   UNL A   1      42.725  36.365  35.262  1.00  0.00    -0.237 OA
ATOM     67  O   UNL A   1      44.997  36.754  34.388  1.00  0.00    -0.744 OA
ENDBRANCH  63  64
ENDBRANCH  44  58
BRANCH  45  68
ATOM     68  C   UNL A   1      42.495  23.341  27.886  1.00  0.00    -0.014 A 
ATOM     69  C   UNL A   1      43.195  23.084  26.696  1.00  0.00     0.010 A 
ATOM     70  C   UNL A   1      41.686  22.329  28.437  1.00  0.00     0.010 A 
ATOM     71  C   UNL A   1      43.093  21.836  26.072  1.00  0.00     0.020 A 
ATOM     72  C   UNL A   1      41.602  21.073  27.832  1.00  0.00     0.020 A 
ATOM     73  C   UNL A   1      42.305  20.836  26.649  1.00  0.00     0.054 A 
BRANCH  73  74
ATOM     74  S   UNL A   1      42.263  19.195  25.874  1.00  0.00     0.124 S 
ATOM     75  O   UNL A   1      40.835  19.004  25.644  1.00  0.00    -0.237 OA
ATOM     76  O   UNL A   1      43.078  19.391  24.678  1.00  0.00    -0.237 OA
ATOM     77  O   UNL A   1      42.858  18.325  26.886  1.00  0.00    -0.744 OA
ENDBRANCH  73  74
ENDBRANCH  45  68
BRANCH  57  78
ATOM     78  C   UNL A   1      47.670  26.393  31.462  1.00  0.00    -0.014 A 
ATOM     79  C   UNL A   1      48.762  26.539  30.589  1.00  0.00     0.010 A 
ATOM     80  C   UNL A   1      47.887  25.863  32.747  1.00  0.00     0.010 A 
ATOM     81  C   UNL A   1      50.041  26.136  30.983  1.00  0.00     0.020 A 
ATOM     82  C   UNL A   1      49.169  25.484  33.156  1.00  0.00     0.020 A 
ATOM     83  C   UNL A   1      50.237  25.611  32.265  1.00  0.00     0.054 A 
BRANCH  83  84
ATOM     84  S   UNL A   1      51.912  25.134  32.768  1.00  0.00     0.124 S 
ATOM     85  O   UNL A   1      51.942  23.716  32.419  1.00  0.00    -0.237 OA
ATOM     86  O   UNL A   1      52.753  26.001  31.944  1.00  0.00    -0.237 OA
ATOM     87  O   UNL A   1      51.942  25.425  34.199  1.00  0.00    -0.744 OA
ENDBRANCH  83  84
ENDBRANCH  57  78
ENDBRANCH  31  32
ENDBRANCH  24  26
ENDBRANCH  23  24
ENDBRANCH  22  23
ENDBRANCH   1  22
TORSDOF 19
ENDMDL
