MODEL 1
REMARK VINA RESULT:      -9.8      0.000      0.000
REMARK SMILES CC[C@H]1CCC[C@](Cc2ccc(OC)cc2)(C(=O)OCCOCCOC(=O)c2ccc(-c3c4nc(c(-c5ccc(S(=O)(=O)[O-])cc5)c5ccc([nH]5)c(-c5ccc(S(=O)(=O)[O-])cc5)c5nc(c(-c6ccc(S(=O)(=O)[O-])cc6)c6ccc3[nH]6)C=C5)C=C4)cc2)C1
REMARK SMILES IDX 22 1 21 2 20 3 19 4 17 5 18 6 7 7 3 8 4 9 88 10 5 11 6 12
REMARK SMILES IDX 2 13 1 14 8 15 9 16 10 17 16 18 11 19 15 20 12 21 13 22
REMARK SMILES IDX 14 23 23 24 24 25 25 26 26 27 27 28 28 29 29 30 87 31 30 32
REMARK SMILES IDX 86 33 31 34 32 35 33 36 80 37 34 38 85 39 79 40 81 41 35 42
REMARK SMILES IDX 84 43 78 44 77 45 36 47 66 48 47 49 65 50 48 51 51 52 64 53
REMARK SMILES IDX 82 54 49 55 50 56 63 58 83 59 52 60 37 61 38 62 46 63 39 64
REMARK SMILES IDX 45 65 40 66 41 67 42 68 43 69 44 70 67 71 68 72 76 73 69 74
REMARK SMILES IDX 75 75 70 76 71 77 72 78 73 79 74 80 53 81 54 82 62 83 55 84
REMARK SMILES IDX 61 85 56 86 57 87 58 88 59 89 60 90
REMARK H PARENT 81 46 51 57
REMARK Flexibility Score: inf
ROOT
ATOM      1  O   UNL A   1      32.203  28.459  24.975  1.00  0.00    -0.374 OA
ENDROOT
BRANCH   1   2
ATOM      2  C   UNL A   1      31.207  28.633  23.970  1.00  0.00     0.202 C 
BRANCH   2   3
ATOM      3  C   UNL A   1      30.167  27.517  23.820  1.00  0.00     0.261 C 
BRANCH   3   4
ATOM      4  O   UNL A   1      30.632  26.259  24.342  1.00  0.00    -0.463 OA
BRANCH   4   5
ATOM      5  C   UNL A   1      31.309  25.475  23.463  1.00  0.00     0.312 C 
ATOM      6  O   UNL A   1      31.138  25.505  22.247  1.00  0.00    -0.252 OA
BRANCH   5   7
ATOM      7  C   UNL A   1      32.385  24.571  24.120  1.00  0.00     0.072 C 
ATOM      8  C   UNL A   1      31.948  21.920  24.354  1.00  0.00    -0.010 C 
ATOM      9  C   UNL A   1      31.401  22.262  25.736  1.00  0.00     0.003 C 
ATOM     10  C   UNL A   1      32.168  23.162  23.464  1.00  0.00     0.022 C 
ATOM     11  C   UNL A   1      32.170  23.376  26.418  1.00  0.00     0.001 C 
ATOM     12  C   UNL A   1      32.064  24.670  25.635  1.00  0.00     0.019 C 
BRANCH   8  13
ATOM     13  C   UNL A   1      33.116  20.900  24.289  1.00  0.00     0.000 C 
ATOM     14  C   UNL A   1      33.758  20.457  25.592  1.00  0.00     0.004 C 
ENDBRANCH   8  13
BRANCH   7  15
ATOM     15  C   UNL A   1      33.827  25.104  23.811  1.00  0.00     0.054 C 
BRANCH  15  16
ATOM     16  C   UNL A   1      34.995  24.228  24.229  1.00  0.00    -0.047 A 
ATOM     17  C   UNL A   1      35.474  24.251  25.547  1.00  0.00     0.007 A 
ATOM     18  C   UNL A   1      35.637  23.394  23.301  1.00  0.00     0.007 A 
ATOM     19  C   UNL A   1      36.507  23.397  25.948  1.00  0.00     0.046 A 
ATOM     20  C   UNL A   1      36.668  22.538  23.700  1.00  0.00     0.046 A 
ATOM     21  C   UNL A   1      37.069  22.514  25.033  1.00  0.00     0.118 A 
BRANCH  21  22
ATOM     22  O   UNL A   1      38.052  21.667  25.466  1.00  0.00    -0.497 OA
ATOM     23  C   UNL A   1      39.016  22.375  26.247  1.00  0.00     0.278 C 
ENDBRANCH  21  22
ENDBRANCH  15  16
ENDBRANCH   7  15
ENDBRANCH   5   7
ENDBRANCH   4   5
ENDBRANCH   3   4
ENDBRANCH   2   3
ENDBRANCH   1   2
BRANCH   1  24
ATOM     24  C   UNL A   1      31.861  28.796  26.318  1.00  0.00     0.202 C 
BRANCH  24  25
ATOM     25  C   UNL A   1      32.734  28.214  27.435  1.00  0.00     0.261 C 
BRANCH  25  26
ATOM     26  O   UNL A   1      34.133  28.480  27.235  1.00  0.00    -0.460 OA
BRANCH  26  27
ATOM     27  C   UNL A   1      34.527  29.724  27.602  1.00  0.00     0.338 C 
ATOM     28  O   UNL A   1      33.823  30.723  27.688  1.00  0.00    -0.246 OA
BRANCH  27  29
ATOM     29  C   UNL A   1      35.920  29.705  28.082  1.00  0.00     0.060 A 
ATOM     30  C   UNL A   1      36.926  29.976  27.146  1.00  0.00     0.016 A 
ATOM     31  C   UNL A   1      36.246  29.341  29.390  1.00  0.00     0.016 A 
ATOM     32  C   UNL A   1      38.265  29.829  27.498  1.00  0.00     0.010 A 
ATOM     33  C   UNL A   1      37.592  29.181  29.738  1.00  0.00     0.010 A 
ATOM     34  C   UNL A   1      38.604  29.387  28.783  1.00  0.00    -0.014 A 
BRANCH  34  35
ATOM     35  C   UNL A   1      40.006  28.992  29.065  1.00  0.00     0.031 A 
ATOM     36  C   UNL A   1      40.925  29.985  29.724  1.00  0.00     0.074 A 
ATOM     37  C   UNL A   1      40.442  27.751  28.782  1.00  0.00     0.049 A 
ATOM     38  N   UNL A   1      42.177  29.847  30.073  1.00  0.00    -0.248 NA
ATOM     39  C   UNL A   1      40.352  31.306  30.035  1.00  0.00     0.031 C 
ATOM     40  C   UNL A   1      39.636  26.686  28.185  1.00  0.00     0.029 A 
ATOM     41  N   UNL A   1      41.675  27.178  28.965  1.00  0.00    -0.354 N 
ATOM     42  C   UNL A   1      42.545  31.062  30.642  1.00  0.00     0.074 A 
ATOM     43  C   UNL A   1      41.392  31.932  30.566  1.00  0.00     0.031 C 
ATOM     44  C   UNL A   1      40.399  25.588  28.047  1.00  0.00     0.029 A 
ATOM     45  C   UNL A   1      41.752  25.881  28.520  1.00  0.00     0.049 A 
ATOM     46  H   UNL A   1      42.433  27.651  29.377  1.00  0.00     0.167 HD
ATOM     47  C   UNL A   1      43.735  31.419  31.183  1.00  0.00     0.031 A 
ATOM     48  C   UNL A   1      42.797  25.031  28.484  1.00  0.00     0.031 A 
ATOM     49  C   UNL A   1      44.886  30.560  31.243  1.00  0.00     0.049 A 
ATOM     50  C   UNL A   1      44.129  25.474  29.027  1.00  0.00     0.074 A 
ATOM     51  C   UNL A   1      46.134  30.828  31.779  1.00  0.00     0.029 A 
ATOM     52  N   UNL A   1      44.935  29.267  30.742  1.00  0.00    -0.354 N 
ATOM     53  N   UNL A   1      44.455  26.618  29.581  1.00  0.00    -0.248 NA
ATOM     54  C   UNL A   1      45.234  24.508  28.947  1.00  0.00     0.031 C 
ATOM     55  C   UNL A   1      46.952  29.714  31.558  1.00  0.00     0.029 A 
ATOM     56  C   UNL A   1      46.198  28.734  30.934  1.00  0.00     0.049 A 
ATOM     57  H   UNL A   1      44.183  28.800  30.315  1.00  0.00     0.167 HD
ATOM     58  C   UNL A   1      45.794  26.499  29.937  1.00  0.00     0.074 A 
ATOM     59  C   UNL A   1      46.214  25.169  29.547  1.00  0.00     0.031 C 
ATOM     60  C   UNL A   1      46.602  27.409  30.537  1.00  0.00     0.031 A 
BRANCH  47  61
ATOM     61  C   UNL A   1      43.856  32.819  31.723  1.00  0.00    -0.014 A 
ATOM     62  C   UNL A   1      43.598  33.101  33.077  1.00  0.00     0.010 A 
ATOM     63  C   UNL A   1      44.259  33.862  30.870  1.00  0.00     0.010 A 
ATOM     64  C   UNL A   1      43.704  34.408  33.558  1.00  0.00     0.020 A 
ATOM     65  C   UNL A   1      44.390  35.167  31.354  1.00  0.00     0.020 A 
ATOM     66  C   UNL A   1      44.094  35.434  32.692  1.00  0.00     0.054 A 
BRANCH  66  67
ATOM     67  S   UNL A   1      44.238  37.121  33.345  1.00  0.00     0.124 S 
ATOM     68  O   UNL A   1      45.306  36.971  34.330  1.00  0.00    -0.237 OA
ATOM     69  O   UNL A   1      44.584  37.897  32.158  1.00  0.00    -0.237 OA
ATOM     70  O   UNL A   1      42.913  37.393  33.898  1.00  0.00    -0.744 OA
ENDBRANCH  66  67
ENDBRANCH  47  61
BRANCH  48  71
ATOM     71  C   UNL A   1      42.628  23.675  27.895  1.00  0.00    -0.014 A 
ATOM     72  C   UNL A   1      42.243  22.586  28.696  1.00  0.00     0.010 A 
ATOM     73  C   UNL A   1      42.848  23.470  26.521  1.00  0.00     0.010 A 
ATOM     74  C   UNL A   1      42.094  21.313  28.134  1.00  0.00     0.020 A 
ATOM     75  C   UNL A   1      42.676  22.206  25.952  1.00  0.00     0.020 A 
ATOM     76  C   UNL A   1      42.309  21.132  26.765  1.00  0.00     0.054 A 
BRANCH  76  77
ATOM     77  S   UNL A   1      42.053  19.487  26.045  1.00  0.00     0.124 S 
ATOM     78  O   UNL A   1      42.871  19.552  24.839  1.00  0.00    -0.237 OA
ATOM     79  O   UNL A   1      42.543  18.600  27.098  1.00  0.00    -0.237 OA
ATOM     80  O   UNL A   1      40.609  19.435  25.822  1.00  0.00    -0.744 OA
ENDBRANCH  76  77
ENDBRANCH  48  71
BRANCH  60  81
ATOM     81  C   UNL A   1      48.016  26.989  30.836  1.00  0.00    -0.014 A 
ATOM     82  C   UNL A   1      49.062  27.261  29.937  1.00  0.00     0.010 A 
ATOM     83  C   UNL A   1      48.309  26.363  32.062  1.00  0.00     0.010 A 
ATOM     84  C   UNL A   1      50.374  26.885  30.246  1.00  0.00     0.020 A 
ATOM     85  C   UNL A   1      49.622  26.009  32.385  1.00  0.00     0.020 A 
ATOM     86  C   UNL A   1      50.644  26.259  31.467  1.00  0.00     0.054 A 
BRANCH  86  87
ATOM     87  S   UNL A   1      52.358  25.819  31.865  1.00  0.00     0.124 S 
ATOM     88  O   UNL A   1      52.239  24.401  32.192  1.00  0.00    -0.237 OA
ATOM     89  O   UNL A   1      53.066  26.120  30.623  1.00  0.00    -0.237 OA
ATOM     90  O   UNL A   1      52.687  26.692  32.989  1.00  0.00    -0.744 OA
ENDBRANCH  86  87
ENDBRANCH  60  81
ENDBRANCH  34  35
ENDBRANCH  27  29
ENDBRANCH  26  27
ENDBRANCH  25  26
ENDBRANCH  24  25
ENDBRANCH   1  24
TORSDOF 21
ENDMDL
MODEL 2
REMARK VINA RESULT:      -9.6      4.616      9.766
REMARK SMILES CC[C@H]1CCC[C@](Cc2ccc(OC)cc2)(C(=O)OCCOCCOC(=O)c2ccc(-c3c4nc(c(-c5ccc(S(=O)(=O)[O-])cc5)c5ccc([nH]5)c(-c5ccc(S(=O)(=O)[O-])cc5)c5nc(c(-c6ccc(S(=O)(=O)[O-])cc6)c6ccc3[nH]6)C=C5)C=C4)cc2)C1
REMARK SMILES IDX 22 1 21 2 20 3 19 4 17 5 18 6 7 7 3 8 4 9 88 10 5 11 6 12
REMARK SMILES IDX 2 13 1 14 8 15 9 16 10 17 16 18 11 19 15 20 12 21 13 22
REMARK SMILES IDX 14 23 23 24 24 25 25 26 26 27 27 28 28 29 29 30 87 31 30 32
REMARK SMILES IDX 86 33 31 34 32 35 33 36 80 37 34 38 85 39 79 40 81 41 35 42
REMARK SMILES IDX 84 43 78 44 77 45 36 47 66 48 47 49 65 50 48 51 51 52 64 53
REMARK SMILES IDX 82 54 49 55 50 56 63 58 83 59 52 60 37 61 38 62 46 63 39 64
REMARK SMILES IDX 45 65 40 66 41 67 42 68 43 69 44 70 67 71 68 72 76 73 69 74
REMARK SMILES IDX 75 75 70 76 71 77 72 78 73 79 74 80 53 81 54 82 62 83 55 84
REMARK SMILES IDX 61 85 56 86 57 87 58 88 59 89 60 90
REMARK H PARENT 81 46 51 57
REMARK Flexibility Score: inf
ROOT
ATOM      1  O   UNL A   1      38.885  21.911  26.471  1.00  0.00    -0.374 OA
ENDROOT
BRANCH   1   2
ATOM      2  C   UNL A   1      38.123  21.833  25.267  1.00  0.00     0.202 C 
BRANCH   2   3
ATOM      3  C   UNL A   1      36.776  21.108  25.341  1.00  0.00     0.261 C 
BRANCH   3   4
ATOM      4  O   UNL A   1      35.795  21.679  24.457  1.00  0.00    -0.463 OA
BRANCH   4   5
ATOM      5  C   UNL A   1      34.538  21.174  24.572  1.00  0.00     0.312 C 
ATOM      6  O   UNL A   1      34.293  19.983  24.749  1.00  0.00    -0.252 OA
BRANCH   5   7
ATOM      7  C   UNL A   1      33.418  22.247  24.533  1.00  0.00     0.072 C 
ATOM      8  C   UNL A   1      33.296  24.129  26.459  1.00  0.00    -0.010 C 
ATOM      9  C   UNL A   1      32.342  23.168  27.160  1.00  0.00     0.003 C 
ATOM     10  C   UNL A   1      34.037  23.488  25.266  1.00  0.00     0.022 C 
ATOM     11  C   UNL A   1      31.431  22.432  26.198  1.00  0.00     0.001 C 
ATOM     12  C   UNL A   1      32.231  21.555  25.253  1.00  0.00     0.019 C 
BRANCH   8  13
ATOM     13  C   UNL A   1      32.767  25.558  26.160  1.00  0.00     0.000 C 
ATOM     14  C   UNL A   1      33.704  26.547  25.491  1.00  0.00     0.004 C 
ENDBRANCH   8  13
BRANCH   7  15
ATOM     15  C   UNL A   1      33.046  22.612  23.053  1.00  0.00     0.054 C 
BRANCH  15  16
ATOM     16  C   UNL A   1      32.428  23.977  22.811  1.00  0.00    -0.047 A 
ATOM     17  C   UNL A   1      33.151  24.986  22.157  1.00  0.00     0.007 A 
ATOM     18  C   UNL A   1      31.130  24.270  23.256  1.00  0.00     0.007 A 
ATOM     19  C   UNL A   1      32.561  26.223  21.876  1.00  0.00     0.046 A 
ATOM     20  C   UNL A   1      30.537  25.504  22.974  1.00  0.00     0.046 A 
ATOM     21  C   UNL A   1      31.241  26.459  22.247  1.00  0.00     0.118 A 
BRANCH  21  22
ATOM     22  O   UNL A   1      30.682  27.666  21.925  1.00  0.00    -0.497 OA
ATOM     23  C   UNL A   1      31.151  28.687  22.807  1.00  0.00     0.278 C 
ENDBRANCH  21  22
ENDBRANCH  15  16
ENDBRANCH   7  15
ENDBRANCH   5   7
ENDBRANCH   4   5
ENDBRANCH   3   4
ENDBRANCH   2   3
ENDBRANCH   1   2
BRANCH   1  24
ATOM     24  C   UNL A   1      40.286  21.658  26.390  1.00  0.00     0.202 C 
BRANCH  24  25
ATOM     25  C   UNL A   1      41.231  22.839  26.640  1.00  0.00     0.261 C 
BRANCH  25  26
ATOM     26  O   UNL A   1      40.546  24.104  26.627  1.00  0.00    -0.460 OA
BRANCH  26  27
ATOM     27  C   UNL A   1      41.361  25.184  26.543  1.00  0.00     0.338 C 
ATOM     28  O   UNL A   1      42.214  25.397  25.691  1.00  0.00    -0.246 OA
BRANCH  27  29
ATOM     29  C   UNL A   1      40.970  26.205  27.531  1.00  0.00     0.060 A 
ATOM     30  C   UNL A   1      41.741  27.372  27.590  1.00  0.00     0.016 A 
ATOM     31  C   UNL A   1      39.933  25.992  28.442  1.00  0.00     0.016 A 
ATOM     32  C   UNL A   1      41.516  28.307  28.597  1.00  0.00     0.010 A 
ATOM     33  C   UNL A   1      39.717  26.927  29.461  1.00  0.00     0.010 A 
ATOM     34  C   UNL A   1      40.533  28.068  29.565  1.00  0.00    -0.014 A 
BRANCH  34  35
ATOM     35  C   UNL A   1      40.475  28.936  30.766  1.00  0.00     0.031 A 
ATOM     36  C   UNL A   1      39.462  30.048  30.814  1.00  0.00     0.074 A 
ATOM     37  C   UNL A   1      41.280  28.708  31.820  1.00  0.00     0.049 A 
ATOM     38  N   UNL A   1      39.228  30.913  31.766  1.00  0.00    -0.248 NA
ATOM     39  C   UNL A   1      38.594  30.199  29.634  1.00  0.00     0.031 C 
ATOM     40  C   UNL A   1      42.271  27.636  31.912  1.00  0.00     0.029 A 
ATOM     41  N   UNL A   1      41.386  29.370  33.017  1.00  0.00    -0.354 N 
ATOM     42  C   UNL A   1      38.191  31.714  31.301  1.00  0.00     0.074 A 
ATOM     43  C   UNL A   1      37.859  31.248  29.972  1.00  0.00     0.031 C 
ATOM     44  C   UNL A   1      42.889  27.716  33.103  1.00  0.00     0.029 A 
ATOM     45  C   UNL A   1      42.357  28.859  33.845  1.00  0.00     0.049 A 
ATOM     46  H   UNL A   1      40.821  30.137  33.261  1.00  0.00     0.167 HD
ATOM     47  C   UNL A   1      37.567  32.742  31.926  1.00  0.00     0.031 A 
ATOM     48  C   UNL A   1      42.778  29.274  35.055  1.00  0.00     0.031 A 
ATOM     49  C   UNL A   1      37.907  33.215  33.240  1.00  0.00     0.049 A 
ATOM     50  C   UNL A   1      42.117  30.462  35.701  1.00  0.00     0.074 A 
ATOM     51  C   UNL A   1      37.328  34.245  33.962  1.00  0.00     0.029 A 
ATOM     52  N   UNL A   1      38.925  32.697  34.028  1.00  0.00    -0.354 N 
ATOM     53  N   UNL A   1      41.123  31.195  35.257  1.00  0.00    -0.248 NA
ATOM     54  C   UNL A   1      42.630  30.876  37.015  1.00  0.00     0.031 C 
ATOM     55  C   UNL A   1      38.028  34.380  35.166  1.00  0.00     0.029 A 
ATOM     56  C   UNL A   1      39.006  33.401  35.217  1.00  0.00     0.049 A 
ATOM     57  H   UNL A   1      39.503  31.941  33.778  1.00  0.00     0.167 HD
ATOM     58  C   UNL A   1      40.876  32.139  36.248  1.00  0.00     0.074 A 
ATOM     59  C   UNL A   1      41.817  31.878  37.319  1.00  0.00     0.031 C 
ATOM     60  C   UNL A   1      39.951  33.131  36.271  1.00  0.00     0.031 A 
BRANCH  47  61
ATOM     61  C   UNL A   1      36.469  33.444  31.173  1.00  0.00    -0.014 A 
ATOM     62  C   UNL A   1      36.674  33.921  29.866  1.00  0.00     0.010 A 
ATOM     63  C   UNL A   1      35.207  33.606  31.773  1.00  0.00     0.010 A 
ATOM     64  C   UNL A   1      35.647  34.581  29.186  1.00  0.00     0.020 A 
ATOM     65  C   UNL A   1      34.170  34.244  31.086  1.00  0.00     0.020 A 
ATOM     66  C   UNL A   1      34.403  34.744  29.804  1.00  0.00     0.054 A 
BRANCH  66  67
ATOM     67  S   UNL A   1      33.081  35.592  28.895  1.00  0.00     0.124 S 
ATOM     68  O   UNL A   1      33.835  36.558  28.100  1.00  0.00    -0.237 OA
ATOM     69  O   UNL A   1      32.461  34.507  28.141  1.00  0.00    -0.237 OA
ATOM     70  O   UNL A   1      32.249  36.168  29.949  1.00  0.00    -0.744 OA
ENDBRANCH  66  67
ENDBRANCH  47  61
BRANCH  48  71
ATOM     71  C   UNL A   1      43.899  28.566  35.731  1.00  0.00    -0.014 A 
ATOM     72  C   UNL A   1      45.231  28.952  35.508  1.00  0.00     0.010 A 
ATOM     73  C   UNL A   1      43.632  27.501  36.611  1.00  0.00     0.010 A 
ATOM     74  C   UNL A   1      46.279  28.276  36.143  1.00  0.00     0.020 A 
ATOM     75  C   UNL A   1      44.675  26.840  37.266  1.00  0.00     0.020 A 
ATOM     76  C   UNL A   1      45.993  27.226  37.020  1.00  0.00     0.054 A 
BRANCH  76  77
ATOM     77  S   UNL A   1      47.362  26.402  37.880  1.00  0.00     0.124 S 
ATOM     78  O   UNL A   1      46.742  26.021  39.144  1.00  0.00    -0.237 OA
ATOM     79  O   UNL A   1      47.687  25.301  36.975  1.00  0.00    -0.237 OA
ATOM     80  O   UNL A   1      48.383  27.444  37.970  1.00  0.00    -0.744 OA
ENDBRANCH  76  77
ENDBRANCH  48  71
BRANCH  60  81
ATOM     81  C   UNL A   1      39.888  33.992  37.504  1.00  0.00    -0.014 A 
ATOM     82  C   UNL A   1      40.674  35.152  37.623  1.00  0.00     0.010 A 
ATOM     83  C   UNL A   1      38.988  33.663  38.535  1.00  0.00     0.010 A 
ATOM     84  C   UNL A   1      40.581  35.953  38.767  1.00  0.00     0.020 A 
ATOM     85  C   UNL A   1      38.875  34.474  39.667  1.00  0.00     0.020 A 
ATOM     86  C   UNL A   1      39.685  35.607  39.782  1.00  0.00     0.054 A 
BRANCH  86  87
ATOM     87  S   UNL A   1      39.551  36.683  41.237  1.00  0.00     0.124 S 
ATOM     88  O   UNL A   1      38.727  35.878  42.134  1.00  0.00    -0.237 OA
ATOM     89  O   UNL A   1      40.944  36.850  41.644  1.00  0.00    -0.237 OA
ATOM     90  O   UNL A   1      38.912  37.888  40.717  1.00  0.00    -0.744 OA
ENDBRANCH  86  87
ENDBRANCH  60  81
ENDBRANCH  34  35
ENDBRANCH  27  29
ENDBRANCH  26  27
ENDBRANCH  25  26
ENDBRANCH  24  25
ENDBRANCH   1  24
TORSDOF 21
ENDMDL
MODEL 3
REMARK VINA RESULT:      -9.5      3.198      4.405
REMARK SMILES CC[C@H]1CCC[C@](Cc2ccc(OC)cc2)(C(=O)OCCOCCOC(=O)c2ccc(-c3c4nc(c(-c5ccc(S(=O)(=O)[O-])cc5)c5ccc([nH]5)c(-c5ccc(S(=O)(=O)[O-])cc5)c5nc(c(-c6ccc(S(=O)(=O)[O-])cc6)c6ccc3[nH]6)C=C5)C=C4)cc2)C1
REMARK SMILES IDX 22 1 21 2 20 3 19 4 17 5 18 6 7 7 3 8 4 9 88 10 5 11 6 12
REMARK SMILES IDX 2 13 1 14 8 15 9 16 10 17 16 18 11 19 15 20 12 21 13 22
REMARK SMILES IDX 14 23 23 24 24 25 25 26 26 27 27 28 28 29 29 30 87 31 30 32
REMARK SMILES IDX 86 33 31 34 32 35 33 36 80 37 34 38 85 39 79 40 81 41 35 42
REMARK SMILES IDX 84 43 78 44 77 45 36 47 66 48 47 49 65 50 48 51 51 52 64 53
REMARK SMILES IDX 82 54 49 55 50 56 63 58 83 59 52 60 37 61 38 62 46 63 39 64
REMARK SMILES IDX 45 65 40 66 41 67 42 68 43 69 44 70 67 71 68 72 76 73 69 74
REMARK SMILES IDX 75 75 70 76 71 77 72 78 73 79 74 80 53 81 54 82 62 83 55 84
REMARK SMILES IDX 61 85 56 86 57 87 58 88 59 89 60 90
REMARK H PARENT 81 46 51 57
REMARK Flexibility Score: inf
ROOT
ATOM      1  O   UNL A   1      34.316  32.431  27.867  1.00  0.00    -0.374 OA
ENDROOT
BRANCH   1   2
ATOM      2  C   UNL A   1      33.314  31.589  27.301  1.00  0.00     0.202 C 
BRANCH   2   3
ATOM      3  C   UNL A   1      33.741  30.175  26.893  1.00  0.00     0.261 C 
BRANCH   3   4
ATOM      4  O   UNL A   1      32.625  29.274  26.783  1.00  0.00    -0.463 OA
BRANCH   4   5
ATOM      5  C   UNL A   1      32.396  28.775  25.539  1.00  0.00     0.312 C 
ATOM      6  O   UNL A   1      32.317  29.468  24.528  1.00  0.00    -0.252 OA
BRANCH   5   7
ATOM      7  C   UNL A   1      32.308  27.227  25.484  1.00  0.00     0.072 C 
ATOM      8  C   UNL A   1      30.991  26.031  23.458  1.00  0.00    -0.010 C 
ATOM      9  C   UNL A   1      29.787  26.058  24.393  1.00  0.00     0.003 C 
ATOM     10  C   UNL A   1      32.169  26.897  23.957  1.00  0.00     0.022 C 
ATOM     11  C   UNL A   1      30.158  25.812  25.842  1.00  0.00     0.001 C 
ATOM     12  C   UNL A   1      31.072  26.904  26.364  1.00  0.00     0.019 C 
BRANCH   8  13
ATOM     13  C   UNL A   1      31.432  24.645  22.915  1.00  0.00     0.000 C 
ATOM     14  C   UNL A   1      32.726  24.559  22.125  1.00  0.00     0.004 C 
ENDBRANCH   8  13
BRANCH   7  15
ATOM     15  C   UNL A   1      33.607  26.573  26.072  1.00  0.00     0.054 C 
BRANCH  15  16
ATOM     16  C   UNL A   1      33.865  25.116  25.729  1.00  0.00    -0.047 A 
ATOM     17  C   UNL A   1      33.020  24.105  26.210  1.00  0.00     0.007 A 
ATOM     18  C   UNL A   1      34.968  24.745  24.945  1.00  0.00     0.007 A 
ATOM     19  C   UNL A   1      33.219  22.770  25.843  1.00  0.00     0.046 A 
ATOM     20  C   UNL A   1      35.168  23.412  24.574  1.00  0.00     0.046 A 
ATOM     21  C   UNL A   1      34.267  22.437  24.991  1.00  0.00     0.118 A 
BRANCH  21  22
ATOM     22  O   UNL A   1      34.412  21.127  24.621  1.00  0.00    -0.497 OA
ATOM     23  C   UNL A   1      33.160  20.444  24.693  1.00  0.00     0.278 C 
ENDBRANCH  21  22
ENDBRANCH  15  16
ENDBRANCH   7  15
ENDBRANCH   5   7
ENDBRANCH   4   5
ENDBRANCH   3   4
ENDBRANCH   2   3
ENDBRANCH   1   2
BRANCH   1  24
ATOM     24  C   UNL A   1      35.652  31.936  27.918  1.00  0.00     0.202 C 
BRANCH  24  25
ATOM     25  C   UNL A   1      36.125  31.318  29.239  1.00  0.00     0.261 C 
BRANCH  25  26
ATOM     26  O   UNL A   1      36.289  29.891  29.152  1.00  0.00    -0.460 OA
BRANCH  26  27
ATOM     27  C   UNL A   1      37.108  29.361  30.092  1.00  0.00     0.338 C 
ATOM     28  O   UNL A   1      36.827  29.112  31.257  1.00  0.00    -0.246 OA
BRANCH  27  29
ATOM     29  C   UNL A   1      38.381  28.931  29.485  1.00  0.00     0.060 A 
ATOM     30  C   UNL A   1      39.322  28.324  30.325  1.00  0.00     0.016 A 
ATOM     31  C   UNL A   1      38.689  29.198  28.149  1.00  0.00     0.016 A 
ATOM     32  C   UNL A   1      40.596  28.029  29.849  1.00  0.00     0.010 A 
ATOM     33  C   UNL A   1      39.975  28.913  27.675  1.00  0.00     0.010 A 
ATOM     34  C   UNL A   1      40.945  28.364  28.534  1.00  0.00    -0.014 A 
BRANCH  34  35
ATOM     35  C   UNL A   1      42.366  28.282  28.120  1.00  0.00     0.031 A 
ATOM     36  C   UNL A   1      43.261  29.472  28.343  1.00  0.00     0.074 A 
ATOM     37  C   UNL A   1      42.867  27.148  27.599  1.00  0.00     0.049 A 
ATOM     38  N   UNL A   1      44.532  29.613  28.072  1.00  0.00    -0.248 NA
ATOM     39  C   UNL A   1      42.638  30.657  28.957  1.00  0.00     0.031 C 
ATOM     40  C   UNL A   1      42.114  25.914  27.376  1.00  0.00     0.029 A 
ATOM     41  N   UNL A   1      44.135  26.853  27.163  1.00  0.00    -0.354 N 
ATOM     42  C   UNL A   1      44.863  30.901  28.478  1.00  0.00     0.074 A 
ATOM     43  C   UNL A   1      43.653  31.509  28.989  1.00  0.00     0.031 C 
ATOM     44  C   UNL A   1      42.935  24.993  26.840  1.00  0.00     0.029 A 
ATOM     45  C   UNL A   1      44.262  25.581  26.658  1.00  0.00     0.049 A 
ATOM     46  H   UNL A   1      44.882  27.490  27.210  1.00  0.00     0.167 HD
ATOM     47  C   UNL A   1      46.067  31.522  28.434  1.00  0.00     0.031 A 
ATOM     48  C   UNL A   1      45.323  24.967  26.100  1.00  0.00     0.031 A 
ATOM     49  C   UNL A   1      47.265  30.924  27.912  1.00  0.00     0.049 A 
ATOM     50  C   UNL A   1      46.633  25.700  25.997  1.00  0.00     0.074 A 
ATOM     51  C   UNL A   1      48.536  31.469  27.832  1.00  0.00     0.029 A 
ATOM     52  N   UNL A   1      47.342  29.649  27.371  1.00  0.00    -0.354 N 
ATOM     53  N   UNL A   1      46.935  26.910  26.406  1.00  0.00    -0.248 NA
ATOM     54  C   UNL A   1      47.749  24.982  25.366  1.00  0.00     0.031 C 
ATOM     55  C   UNL A   1      49.369  30.540  27.198  1.00  0.00     0.029 A 
ATOM     56  C   UNL A   1      48.631  29.399  26.932  1.00  0.00     0.049 A 
ATOM     57  H   UNL A   1      46.591  29.017  27.308  1.00  0.00     0.167 HD
ATOM     58  C   UNL A   1      48.281  27.088  26.103  1.00  0.00     0.074 A 
ATOM     59  C   UNL A   1      48.737  25.858  25.487  1.00  0.00     0.031 C 
ATOM     60  C   UNL A   1      49.069  28.171  26.318  1.00  0.00     0.031 A 
BRANCH  47  61
ATOM     61  C   UNL A   1      46.133  32.938  28.940  1.00  0.00    -0.014 A 
ATOM     62  C   UNL A   1      45.834  34.025  28.099  1.00  0.00     0.010 A 
ATOM     63  C   UNL A   1      46.474  33.182  30.283  1.00  0.00     0.010 A 
ATOM     64  C   UNL A   1      45.912  35.334  28.583  1.00  0.00     0.020 A 
ATOM     65  C   UNL A   1      46.529  34.489  30.776  1.00  0.00     0.020 A 
ATOM     66  C   UNL A   1      46.265  35.557  29.917  1.00  0.00     0.054 A 
BRANCH  66  67
ATOM     67  S   UNL A   1      46.346  37.265  30.525  1.00  0.00     0.124 S 
ATOM     68  O   UNL A   1      45.157  37.857  29.917  1.00  0.00    -0.237 OA
ATOM     69  O   UNL A   1      46.292  37.095  31.973  1.00  0.00    -0.237 OA
ATOM     70  O   UNL A   1      47.620  37.758  30.006  1.00  0.00    -0.744 OA
ENDBRANCH  66  67
ENDBRANCH  47  61
BRANCH  48  71
ATOM     71  C   UNL A   1      45.184  23.581  25.576  1.00  0.00    -0.014 A 
ATOM     72  C   UNL A   1      45.449  22.472  26.397  1.00  0.00     0.010 A 
ATOM     73  C   UNL A   1      44.777  23.367  24.246  1.00  0.00     0.010 A 
ATOM     74  C   UNL A   1      45.322  21.173  25.893  1.00  0.00     0.020 A 
ATOM     75  C   UNL A   1      44.625  22.071  23.747  1.00  0.00     0.020 A 
ATOM     76  C   UNL A   1      44.909  20.981  24.571  1.00  0.00     0.054 A 
BRANCH  76  77
ATOM     77  S   UNL A   1      44.693  19.288  23.955  1.00  0.00     0.124 S 
ATOM     78  O   UNL A   1      44.544  19.504  22.520  1.00  0.00    -0.237 OA
ATOM     79  O   UNL A   1      45.932  18.638  24.375  1.00  0.00    -0.237 OA
ATOM     80  O   UNL A   1      43.492  18.825  24.648  1.00  0.00    -0.744 OA
ENDBRANCH  76  77
ENDBRANCH  48  71
BRANCH  60  81
ATOM     81  C   UNL A   1      50.514  28.068  25.913  1.00  0.00    -0.014 A 
ATOM     82  C   UNL A   1      51.501  27.662  26.829  1.00  0.00     0.010 A 
ATOM     83  C   UNL A   1      50.881  28.328  24.579  1.00  0.00     0.010 A 
ATOM     84  C   UNL A   1      52.835  27.548  26.425  1.00  0.00     0.020 A 
ATOM     85  C   UNL A   1      52.209  28.190  24.166  1.00  0.00     0.020 A 
ATOM     86  C   UNL A   1      53.181  27.815  25.097  1.00  0.00     0.054 A 
BRANCH  86  87
ATOM     87  S   UNL A   1      54.910  27.618  24.585  1.00  0.00     0.124 S 
ATOM     88  O   UNL A   1      55.482  28.912  24.950  1.00  0.00    -0.237 OA
ATOM     89  O   UNL A   1      55.358  26.484  25.389  1.00  0.00    -0.237 OA
ATOM     90  O   UNL A   1      54.819  27.359  23.151  1.00  0.00    -0.744 OA
ENDBRANCH  86  87
ENDBRANCH  60  81
ENDBRANCH  34  35
ENDBRANCH  27  29
ENDBRANCH  26  27
ENDBRANCH  25  26
ENDBRANCH  24  25
ENDBRANCH   1  24
TORSDOF 21
ENDMDL
