MODEL 1
REMARK VINA RESULT:      -9.1      0.000      0.000
REMARK SMILES O=C(OCCOCCOC(=O)c1ccc(OC[C@H]2C[C@H]3CC[C@@H]2C3)c(Cl)c1)c1ccc(-c2c3nc(c(-c4ccc(S(=O)(=O)[O-])cc4)c4ccc([nH]4)c(-c4ccc(S(=O)(=O)[O-])cc4)c4nc(c(-c5ccc(S(=O)(=O)[O-])cc5)c5ccc2[nH]5)C=C4)C=C3)cc1
REMARK SMILES IDX 6 1 5 2 4 3 3 4 2 5 1 6 28 7 29 8 87 9 30 10 86 11 31 12
REMARK SMILES IDX 32 13 33 14 80 15 34 16 85 17 79 18 81 19 35 20 84 21 78 22
REMARK SMILES IDX 77 23 36 25 66 26 47 27 65 28 48 29 51 30 64 31 82 32 49 33
REMARK SMILES IDX 50 34 63 36 83 37 52 38 37 39 38 40 46 41 39 42 45 43 40 44
REMARK SMILES IDX 41 45 42 46 43 47 44 48 67 49 68 50 76 51 69 52 75 53 70 54
REMARK SMILES IDX 71 55 72 56 73 57 74 58 53 59 54 60 62 61 55 62 61 63 56 64
REMARK SMILES IDX 57 65 58 66 59 67 60 68 7 69 8 70 9 71 10 72 11 73 12 74
REMARK SMILES IDX 13 75 27 76 14 77 25 78 15 79 26 80 16 81 17 82 18 83 19 84
REMARK SMILES IDX 23 85 20 86 22 87 24 88 21 89
REMARK H PARENT 81 24 51 35
REMARK Flexibility Score: inf
ROOT
ATOM      1  O   UNL A   1      33.426  34.452  29.180  1.00  0.00    -0.374 OA
ENDROOT
BRANCH   1   2
ATOM      2  C   UNL A   1      34.179  33.693  28.229  1.00  0.00     0.202 C 
BRANCH   2   3
ATOM      3  C   UNL A   1      33.446  32.520  27.581  1.00  0.00     0.261 C 
BRANCH   3   4
ATOM      4  O   UNL A   1      33.844  31.287  28.200  1.00  0.00    -0.460 OA
BRANCH   4   5
ATOM      5  C   UNL A   1      34.507  30.258  27.624  1.00  0.00     0.338 C 
ATOM      6  O   UNL A   1      33.935  29.590  26.766  1.00  0.00    -0.246 OA
BRANCH   5   7
ATOM      7  C   UNL A   1      35.908  29.894  27.989  1.00  0.00     0.060 A 
ATOM      8  C   UNL A   1      37.014  30.090  27.159  1.00  0.00     0.016 A 
ATOM      9  C   UNL A   1      36.129  29.421  29.291  1.00  0.00     0.016 A 
ATOM     10  C   UNL A   1      38.294  29.742  27.568  1.00  0.00     0.010 A 
ATOM     11  C   UNL A   1      37.423  29.130  29.734  1.00  0.00     0.010 A 
ATOM     12  C   UNL A   1      38.509  29.274  28.863  1.00  0.00    -0.014 A 
BRANCH  12  13
ATOM     13  C   UNL A   1      39.881  28.912  29.264  1.00  0.00     0.031 A 
ATOM     14  C   UNL A   1      40.657  29.853  30.133  1.00  0.00     0.074 A 
ATOM     15  C   UNL A   1      40.367  27.703  28.924  1.00  0.00     0.049 A 
ATOM     16  N   UNL A   1      41.880  29.746  30.575  1.00  0.00    -0.248 NA
ATOM     17  C   UNL A   1      39.958  31.074  30.570  1.00  0.00     0.031 C 
ATOM     18  C   UNL A   1      39.639  26.685  28.162  1.00  0.00     0.029 A 
ATOM     19  N   UNL A   1      41.572  27.113  29.198  1.00  0.00    -0.354 N 
ATOM     20  C   UNL A   1      42.108  30.895  31.322  1.00  0.00     0.074 A 
ATOM     21  C   UNL A   1      40.900  31.687  31.272  1.00  0.00     0.031 C 
ATOM     22  C   UNL A   1      40.400  25.583  28.061  1.00  0.00     0.029 A 
ATOM     23  C   UNL A   1      41.690  25.841  28.688  1.00  0.00     0.049 A 
ATOM     24  H   UNL A   1      42.286  27.557  29.711  1.00  0.00     0.167 HD
ATOM     25  C   UNL A   1      43.235  31.254  31.981  1.00  0.00     0.031 A 
ATOM     26  C   UNL A   1      42.737  24.995  28.705  1.00  0.00     0.031 A 
ATOM     27  C   UNL A   1      44.429  30.455  31.995  1.00  0.00     0.049 A 
ATOM     28  C   UNL A   1      44.004  25.454  29.373  1.00  0.00     0.074 A 
ATOM     29  C   UNL A   1      45.657  30.743  32.561  1.00  0.00     0.029 A 
ATOM     30  N   UNL A   1      44.538  29.201  31.409  1.00  0.00    -0.354 N 
ATOM     31  N   UNL A   1      44.231  26.574  30.021  1.00  0.00    -0.248 NA
ATOM     32  C   UNL A   1      45.159  24.551  29.299  1.00  0.00     0.031 C 
ATOM     33  C   UNL A   1      46.521  29.678  32.282  1.00  0.00     0.029 A 
ATOM     34  C   UNL A   1      45.817  28.706  31.585  1.00  0.00     0.049 A 
ATOM     35  H   UNL A   1      43.812  28.733  30.937  1.00  0.00     0.167 HD
ATOM     36  C   UNL A   1      45.554  26.509  30.437  1.00  0.00     0.074 A 
ATOM     37  C   UNL A   1      46.067  25.228  29.988  1.00  0.00     0.031 C 
ATOM     38  C   UNL A   1      46.286  27.425  31.118  1.00  0.00     0.031 A 
BRANCH  25  39
ATOM     39  C   UNL A   1      43.230  32.597  32.658  1.00  0.00    -0.014 A 
ATOM     40  C   UNL A   1      43.569  33.771  31.961  1.00  0.00     0.010 A 
ATOM     41  C   UNL A   1      42.917  32.679  34.027  1.00  0.00     0.010 A 
ATOM     42  C   UNL A   1      43.645  34.995  32.634  1.00  0.00     0.020 A 
ATOM     43  C   UNL A   1      42.971  33.904  34.698  1.00  0.00     0.020 A 
ATOM     44  C   UNL A   1      43.358  35.050  34.002  1.00  0.00     0.054 A 
BRANCH  44  45
ATOM     45  S   UNL A   1      43.491  36.643  34.860  1.00  0.00     0.124 S 
ATOM     46  O   UNL A   1      42.353  36.587  35.773  1.00  0.00    -0.237 OA
ATOM     47  O   UNL A   1      44.806  36.563  35.490  1.00  0.00    -0.237 OA
ATOM     48  O   UNL A   1      43.379  37.627  33.785  1.00  0.00    -0.744 OA
ENDBRANCH  44  45
ENDBRANCH  25  39
BRANCH  26  49
ATOM     49  C   UNL A   1      42.645  23.673  28.026  1.00  0.00    -0.014 A 
ATOM     50  C   UNL A   1      42.305  22.511  28.742  1.00  0.00     0.010 A 
ATOM     51  C   UNL A   1      42.886  23.570  26.642  1.00  0.00     0.010 A 
ATOM     52  C   UNL A   1      42.221  21.275  28.091  1.00  0.00     0.020 A 
ATOM     53  C   UNL A   1      42.777  22.342  25.984  1.00  0.00     0.020 A 
ATOM     54  C   UNL A   1      42.458  21.198  26.716  1.00  0.00     0.054 A 
BRANCH  54  55
ATOM     55  S   UNL A   1      42.300  19.595  25.879  1.00  0.00     0.124 S 
ATOM     56  O   UNL A   1      40.903  19.612  25.456  1.00  0.00    -0.237 OA
ATOM     57  O   UNL A   1      43.287  19.697  24.807  1.00  0.00    -0.237 OA
ATOM     58  O   UNL A   1      42.626  18.630  26.926  1.00  0.00    -0.744 OA
ENDBRANCH  54  55
ENDBRANCH  26  49
BRANCH  38  59
ATOM     59  C   UNL A   1      47.709  27.060  31.430  1.00  0.00    -0.014 A 
ATOM     60  C   UNL A   1      48.019  26.255  32.539  1.00  0.00     0.010 A 
ATOM     61  C   UNL A   1      48.736  27.477  30.566  1.00  0.00     0.010 A 
ATOM     62  C   UNL A   1      49.343  25.889  32.791  1.00  0.00     0.020 A 
ATOM     63  C   UNL A   1      50.057  27.094  30.803  1.00  0.00     0.020 A 
ATOM     64  C   UNL A   1      50.353  26.311  31.922  1.00  0.00     0.054 A 
BRANCH  64  65
ATOM     65  S   UNL A   1      52.056  25.776  32.235  1.00  0.00     0.124 S 
ATOM     66  O   UNL A   1      52.680  25.972  30.930  1.00  0.00    -0.237 OA
ATOM     67  O   UNL A   1      52.495  26.692  33.286  1.00  0.00    -0.237 OA
ATOM     68  O   UNL A   1      51.909  24.384  32.653  1.00  0.00    -0.744 OA
ENDBRANCH  64  65
ENDBRANCH  38  59
ENDBRANCH  12  13
ENDBRANCH   5   7
ENDBRANCH   4   5
ENDBRANCH   3   4
ENDBRANCH   2   3
ENDBRANCH   1   2
BRANCH   1  69
ATOM     69  C   UNL A   1      33.396  35.869  28.952  1.00  0.00     0.202 C 
BRANCH  69  70
ATOM     70  C   UNL A   1      32.923  36.589  30.222  1.00  0.00     0.261 C 
BRANCH  70  71
ATOM     71  O   UNL A   1      32.943  35.643  31.307  1.00  0.00    -0.460 OA
BRANCH  71  72
ATOM     72  C   UNL A   1      33.504  36.118  32.446  1.00  0.00     0.338 C 
ATOM     73  O   UNL A   1      33.211  37.121  33.070  1.00  0.00    -0.246 OA
BRANCH  72  74
ATOM     74  C   UNL A   1      34.335  35.030  32.986  1.00  0.00     0.061 A 
ATOM     75  C   UNL A   1      34.804  35.041  34.297  1.00  0.00     0.019 A 
ATOM     76  C   UNL A   1      34.782  34.066  32.078  1.00  0.00     0.040 A 
ATOM     77  C   UNL A   1      35.686  34.041  34.702  1.00  0.00     0.049 A 
ATOM     78  C   UNL A   1      35.760  33.148  32.457  1.00  0.00     0.083 A 
ATOM     79  C   UNL A   1      36.147  33.069  33.797  1.00  0.00     0.137 A 
ATOM     80  Cl  UNL A   1      36.554  32.291  31.181  1.00  0.00    -0.080 Cl
BRANCH  79  81
ATOM     81  O   UNL A   1      36.963  32.150  34.379  1.00  0.00    -0.492 OA
BRANCH  81  82
ATOM     82  C   UNL A   1      38.351  32.070  34.050  1.00  0.00     0.233 C 
BRANCH  82  83
ATOM     83  C   UNL A   1      39.406  32.538  35.068  1.00  0.00     0.030 C 
ATOM     84  C   UNL A   1      39.347  34.064  35.316  1.00  0.00     0.011 C 
ATOM     85  C   UNL A   1      39.401  31.960  36.500  1.00  0.00    -0.004 C 
ATOM     86  C   UNL A   1      39.369  34.158  36.852  1.00  0.00    -0.010 C 
ATOM     87  C   UNL A   1      38.043  32.171  37.176  1.00  0.00     0.004 C 
ATOM     88  C   UNL A   1      40.273  32.987  37.229  1.00  0.00     0.007 C 
ATOM     89  C   UNL A   1      38.007  33.690  37.394  1.00  0.00     0.004 C 
ENDBRANCH  82  83
ENDBRANCH  81  82
ENDBRANCH  79  81
ENDBRANCH  72  74
ENDBRANCH  71  72
ENDBRANCH  70  71
ENDBRANCH  69  70
ENDBRANCH   1  69
TORSDOF 20
ENDMDL
MODEL 2
REMARK VINA RESULT:      -9.0      5.225      8.157
REMARK SMILES O=C(OCCOCCOC(=O)c1ccc(OC[C@H]2C[C@H]3CC[C@@H]2C3)c(Cl)c1)c1ccc(-c2c3nc(c(-c4ccc(S(=O)(=O)[O-])cc4)c4ccc([nH]4)c(-c4ccc(S(=O)(=O)[O-])cc4)c4nc(c(-c5ccc(S(=O)(=O)[O-])cc5)c5ccc2[nH]5)C=C4)C=C3)cc1
REMARK SMILES IDX 6 1 5 2 4 3 3 4 2 5 1 6 28 7 29 8 87 9 30 10 86 11 31 12
REMARK SMILES IDX 32 13 33 14 80 15 34 16 85 17 79 18 81 19 35 20 84 21 78 22
REMARK SMILES IDX 77 23 36 25 66 26 47 27 65 28 48 29 51 30 64 31 82 32 49 33
REMARK SMILES IDX 50 34 63 36 83 37 52 38 37 39 38 40 46 41 39 42 45 43 40 44
REMARK SMILES IDX 41 45 42 46 43 47 44 48 67 49 68 50 76 51 69 52 75 53 70 54
REMARK SMILES IDX 71 55 72 56 73 57 74 58 53 59 54 60 62 61 55 62 61 63 56 64
REMARK SMILES IDX 57 65 58 66 59 67 60 68 7 69 8 70 9 71 10 72 11 73 12 74
REMARK SMILES IDX 13 75 27 76 14 77 25 78 15 79 26 80 16 81 17 82 18 83 19 84
REMARK SMILES IDX 23 85 20 86 22 87 24 88 21 89
REMARK H PARENT 81 24 51 35
REMARK Flexibility Score: inf
ROOT
ATOM      1  O   UNL A   1      32.698  29.502  26.616  1.00  0.00    -0.374 OA
ENDROOT
BRANCH   1   2
ATOM      2  C   UNL A   1      34.033  30.000  26.744  1.00  0.00     0.202 C 
BRANCH   2   3
ATOM      3  C   UNL A   1      34.740  29.686  28.061  1.00  0.00     0.261 C 
BRANCH   3   4
ATOM      4  O   UNL A   1      36.153  29.557  27.843  1.00  0.00    -0.460 OA
BRANCH   4   5
ATOM      5  C   UNL A   1      37.106  29.311  28.771  1.00  0.00     0.338 C 
ATOM      6  O   UNL A   1      36.776  29.231  29.953  1.00  0.00    -0.246 OA
BRANCH   5   7
ATOM      7  C   UNL A   1      38.547  29.135  28.424  1.00  0.00     0.060 A 
ATOM      8  C   UNL A   1      39.079  29.332  27.148  1.00  0.00     0.016 A 
ATOM      9  C   UNL A   1      39.430  28.855  29.477  1.00  0.00     0.016 A 
ATOM     10  C   UNL A   1      40.435  29.167  26.898  1.00  0.00     0.010 A 
ATOM     11  C   UNL A   1      40.806  28.751  29.246  1.00  0.00     0.010 A 
ATOM     12  C   UNL A   1      41.309  28.890  27.947  1.00  0.00    -0.014 A 
BRANCH  12  13
ATOM     13  C   UNL A   1      42.742  28.718  27.646  1.00  0.00     0.031 A 
ATOM     14  C   UNL A   1      43.689  29.834  27.959  1.00  0.00     0.074 A 
ATOM     15  C   UNL A   1      43.179  27.529  27.189  1.00  0.00     0.049 A 
ATOM     16  N   UNL A   1      44.976  29.905  27.751  1.00  0.00    -0.248 NA
ATOM     17  C   UNL A   1      43.113  31.027  28.604  1.00  0.00     0.031 C 
ATOM     18  C   UNL A   1      42.335  26.355  26.950  1.00  0.00     0.029 A 
ATOM     19  N   UNL A   1      44.440  27.100  26.874  1.00  0.00    -0.354 N 
ATOM     20  C   UNL A   1      45.361  31.157  28.214  1.00  0.00     0.074 A 
ATOM     21  C   UNL A   1      44.173  31.814  28.712  1.00  0.00     0.031 C 
ATOM     22  C   UNL A   1      43.108  25.330  26.560  1.00  0.00     0.029 A 
ATOM     23  C   UNL A   1      44.487  25.791  26.455  1.00  0.00     0.049 A 
ATOM     24  H   UNL A   1      45.238  27.673  26.941  1.00  0.00     0.167 HD
ATOM     25  C   UNL A   1      46.597  31.707  28.211  1.00  0.00     0.031 A 
ATOM     26  C   UNL A   1      45.527  25.061  26.010  1.00  0.00     0.031 A 
ATOM     27  C   UNL A   1      47.756  31.037  27.687  1.00  0.00     0.049 A 
ATOM     28  C   UNL A   1      46.875  25.723  25.939  1.00  0.00     0.074 A 
ATOM     29  C   UNL A   1      49.047  31.514  27.559  1.00  0.00     0.029 A 
ATOM     30  N   UNL A   1      47.756  29.735  27.206  1.00  0.00    -0.354 N 
ATOM     31  N   UNL A   1      47.216  26.934  26.319  1.00  0.00    -0.248 NA
ATOM     32  C   UNL A   1      47.973  24.936  25.366  1.00  0.00     0.031 C 
ATOM     33  C   UNL A   1      49.820  30.511  26.960  1.00  0.00     0.029 A 
ATOM     34  C   UNL A   1      49.021  29.394  26.763  1.00  0.00     0.049 A 
ATOM     35  H   UNL A   1      46.971  29.141  27.182  1.00  0.00     0.167 HD
ATOM     36  C   UNL A   1      48.569  27.052  26.035  1.00  0.00     0.074 A 
ATOM     37  C   UNL A   1      48.988  25.781  25.475  1.00  0.00     0.031 C 
ATOM     38  C   UNL A   1      49.393  28.115  26.209  1.00  0.00     0.031 A 
BRANCH  25  39
ATOM     39  C   UNL A   1      46.718  33.118  28.715  1.00  0.00    -0.014 A 
ATOM     40  C   UNL A   1      47.058  33.393  30.051  1.00  0.00     0.010 A 
ATOM     41  C   UNL A   1      46.447  34.188  27.842  1.00  0.00     0.010 A 
ATOM     42  C   UNL A   1      47.075  34.711  30.520  1.00  0.00     0.020 A 
ATOM     43  C   UNL A   1      46.484  35.508  28.301  1.00  0.00     0.020 A 
ATOM     44  C   UNL A   1      46.775  35.759  29.644  1.00  0.00     0.054 A 
BRANCH  44  45
ATOM     45  S   UNL A   1      46.775  37.458  30.279  1.00  0.00     0.124 S 
ATOM     46  O   UNL A   1      47.111  37.252  31.686  1.00  0.00    -0.237 OA
ATOM     47  O   UNL A   1      47.810  38.104  29.476  1.00  0.00    -0.237 OA
ATOM     48  O   UNL A   1      45.413  37.924  30.026  1.00  0.00    -0.744 OA
ENDBRANCH  44  45
ENDBRANCH  25  39
BRANCH  26  49
ATOM     49  C   UNL A   1      45.318  23.660  25.550  1.00  0.00    -0.014 A 
ATOM     50  C   UNL A   1      45.468  22.576  26.433  1.00  0.00     0.010 A 
ATOM     51  C   UNL A   1      44.951  23.401  24.215  1.00  0.00     0.010 A 
ATOM     52  C   UNL A   1      45.268  21.264  25.988  1.00  0.00     0.020 A 
ATOM     53  C   UNL A   1      44.724  22.094  23.774  1.00  0.00     0.020 A 
ATOM     54  C   UNL A   1      44.897  21.031  24.661  1.00  0.00     0.054 A 
BRANCH  54  55
ATOM     55  S   UNL A   1      44.597  19.328  24.111  1.00  0.00     0.124 S 
ATOM     56  O   UNL A   1      43.313  19.030  24.737  1.00  0.00    -0.237 OA
ATOM     57  O   UNL A   1      44.576  19.461  22.656  1.00  0.00    -0.237 OA
ATOM     58  O   UNL A   1      45.740  18.590  24.645  1.00  0.00    -0.744 OA
ENDBRANCH  54  55
ENDBRANCH  26  49
BRANCH  38  59
ATOM     59  C   UNL A   1      50.829  27.935  25.805  1.00  0.00    -0.014 A 
ATOM     60  C   UNL A   1      51.256  28.253  24.504  1.00  0.00     0.010 A 
ATOM     61  C   UNL A   1      51.767  27.503  26.757  1.00  0.00     0.010 A 
ATOM     62  C   UNL A   1      52.601  28.121  24.157  1.00  0.00     0.020 A 
ATOM     63  C   UNL A   1      53.116  27.392  26.419  1.00  0.00     0.020 A 
ATOM     64  C   UNL A   1      53.522  27.691  25.116  1.00  0.00     0.054 A 
BRANCH  64  65
ATOM     65  S   UNL A   1      55.274  27.583  24.660  1.00  0.00     0.124 S 
ATOM     66  O   UNL A   1      55.225  26.733  23.473  1.00  0.00    -0.237 OA
ATOM     67  O   UNL A   1      55.632  28.978  24.420  1.00  0.00    -0.237 OA
ATOM     68  O   UNL A   1      55.899  26.979  25.834  1.00  0.00    -0.744 OA
ENDBRANCH  64  65
ENDBRANCH  38  59
ENDBRANCH  12  13
ENDBRANCH   5   7
ENDBRANCH   4   5
ENDBRANCH   3   4
ENDBRANCH   2   3
ENDBRANCH   1   2
BRANCH   1  69
ATOM     69  C   UNL A   1      32.322  29.074  25.298  1.00  0.00     0.202 C 
BRANCH  69  70
ATOM     70  C   UNL A   1      31.290  30.046  24.711  1.00  0.00     0.261 C 
BRANCH  70  71
ATOM     71  O   UNL A   1      30.168  29.277  24.242  1.00  0.00    -0.460 OA
BRANCH  71  72
ATOM     72  C   UNL A   1      30.302  28.817  22.973  1.00  0.00     0.338 C 
ATOM     73  O   UNL A   1      30.520  29.454  21.960  1.00  0.00    -0.246 OA
BRANCH  72  74
ATOM     74  C   UNL A   1      30.455  27.357  23.074  1.00  0.00     0.061 A 
ATOM     75  C   UNL A   1      29.909  26.629  24.128  1.00  0.00     0.019 A 
ATOM     76  C   UNL A   1      31.318  26.748  22.159  1.00  0.00     0.040 A 
ATOM     77  C   UNL A   1      30.198  25.269  24.223  1.00  0.00     0.049 A 
ATOM     78  C   UNL A   1      31.701  25.419  22.337  1.00  0.00     0.083 A 
ATOM     79  C   UNL A   1      31.069  24.645  23.313  1.00  0.00     0.137 A 
ATOM     80  Cl  UNL A   1      33.076  24.883  21.434  1.00  0.00    -0.080 Cl
BRANCH  79  81
ATOM     81  O   UNL A   1      31.196  23.310  23.533  1.00  0.00    -0.492 OA
BRANCH  81  82
ATOM     82  C   UNL A   1      31.432  22.789  24.842  1.00  0.00     0.233 C 
BRANCH  82  83
ATOM     83  C   UNL A   1      32.863  22.418  25.270  1.00  0.00     0.030 C 
ATOM     84  C   UNL A   1      33.856  22.440  24.084  1.00  0.00     0.011 C 
ATOM     85  C   UNL A   1      33.590  23.265  26.338  1.00  0.00    -0.004 C 
ATOM     86  C   UNL A   1      35.037  23.250  24.647  1.00  0.00    -0.010 C 
ATOM     87  C   UNL A   1      33.643  24.740  25.930  1.00  0.00     0.004 C 
ATOM     88  C   UNL A   1      35.041  22.828  26.114  1.00  0.00     0.007 C 
ATOM     89  C   UNL A   1      34.619  24.728  24.746  1.00  0.00     0.004 C 
ENDBRANCH  82  83
ENDBRANCH  81  82
ENDBRANCH  79  81
ENDBRANCH  72  74
ENDBRANCH  71  72
ENDBRANCH  70  71
ENDBRANCH  69  70
ENDBRANCH   1  69
TORSDOF 20
ENDMDL
MODEL 3
REMARK VINA RESULT:      -9.0      4.230      8.367
REMARK SMILES O=C(OCCOCCOC(=O)c1ccc(OC[C@H]2C[C@H]3CC[C@@H]2C3)c(Cl)c1)c1ccc(-c2c3nc(c(-c4ccc(S(=O)(=O)[O-])cc4)c4ccc([nH]4)c(-c4ccc(S(=O)(=O)[O-])cc4)c4nc(c(-c5ccc(S(=O)(=O)[O-])cc5)c5ccc2[nH]5)C=C4)C=C3)cc1
REMARK SMILES IDX 6 1 5 2 4 3 3 4 2 5 1 6 28 7 29 8 87 9 30 10 86 11 31 12
REMARK SMILES IDX 32 13 33 14 80 15 34 16 85 17 79 18 81 19 35 20 84 21 78 22
REMARK SMILES IDX 77 23 36 25 66 26 47 27 65 28 48 29 51 30 64 31 82 32 49 33
REMARK SMILES IDX 50 34 63 36 83 37 52 38 37 39 38 40 46 41 39 42 45 43 40 44
REMARK SMILES IDX 41 45 42 46 43 47 44 48 67 49 68 50 76 51 69 52 75 53 70 54
REMARK SMILES IDX 71 55 72 56 73 57 74 58 53 59 54 60 62 61 55 62 61 63 56 64
REMARK SMILES IDX 57 65 58 66 59 67 60 68 7 69 8 70 9 71 10 72 11 73 12 74
REMARK SMILES IDX 13 75 27 76 14 77 25 78 15 79 26 80 16 81 17 82 18 83 19 84
REMARK SMILES IDX 23 85 20 86 22 87 24 88 21 89
REMARK H PARENT 81 24 51 35
REMARK Flexibility Score: inf
ROOT
ATOM      1  O   UNL A   1      34.810  34.726  28.810  1.00  0.00    -0.374 OA
ENDROOT
BRANCH   1   2
ATOM      2  C   UNL A   1      33.399  34.680  28.579  1.00  0.00     0.202 C 
BRANCH   2   3
ATOM      3  C   UNL A   1      32.573  35.759  29.277  1.00  0.00     0.261 C 
BRANCH   3   4
ATOM      4  O   UNL A   1      33.150  36.074  30.552  1.00  0.00    -0.460 OA
BRANCH   4   5
ATOM      5  C   UNL A   1      33.203  35.280  31.647  1.00  0.00     0.338 C 
ATOM      6  O   UNL A   1      32.181  35.116  32.310  1.00  0.00    -0.246 OA
BRANCH   5   7
ATOM      7  C   UNL A   1      34.453  34.594  32.089  1.00  0.00     0.060 A 
ATOM      8  C   UNL A   1      34.554  33.223  32.335  1.00  0.00     0.016 A 
ATOM      9  C   UNL A   1      35.619  35.371  32.160  1.00  0.00     0.016 A 
ATOM     10  C   UNL A   1      35.754  32.647  32.729  1.00  0.00     0.010 A 
ATOM     11  C   UNL A   1      36.845  34.787  32.493  1.00  0.00     0.010 A 
ATOM     12  C   UNL A   1      36.910  33.422  32.797  1.00  0.00    -0.014 A 
BRANCH  12  13
ATOM     13  C   UNL A   1      38.167  32.779  33.222  1.00  0.00     0.031 A 
ATOM     14  C   UNL A   1      38.623  32.940  34.639  1.00  0.00     0.074 A 
ATOM     15  C   UNL A   1      38.823  31.983  32.356  1.00  0.00     0.049 A 
ATOM     16  N   UNL A   1      39.704  32.487  35.212  1.00  0.00    -0.248 NA
ATOM     17  C   UNL A   1      37.737  33.706  35.533  1.00  0.00     0.031 C 
ATOM     18  C   UNL A   1      38.393  31.692  30.985  1.00  0.00     0.029 A 
ATOM     19  N   UNL A   1      39.969  31.248  32.507  1.00  0.00    -0.354 N 
ATOM     20  C   UNL A   1      39.644  32.932  36.527  1.00  0.00     0.074 A 
ATOM     21  C   UNL A   1      38.422  33.692  36.667  1.00  0.00     0.031 C 
ATOM     22  C   UNL A   1      39.246  30.814  30.434  1.00  0.00     0.029 A 
ATOM     23  C   UNL A   1      40.316  30.535  31.384  1.00  0.00     0.049 A 
ATOM     24  H   UNL A   1      40.494  31.233  33.339  1.00  0.00     0.167 HD
ATOM     25  C   UNL A   1      40.539  32.728  37.522  1.00  0.00     0.031 A 
ATOM     26  C   UNL A   1      41.395  29.766  31.146  1.00  0.00     0.031 A 
ATOM     27  C   UNL A   1      41.757  31.985  37.346  1.00  0.00     0.049 A 
ATOM     28  C   UNL A   1      42.415  29.623  32.241  1.00  0.00     0.074 A 
ATOM     29  C   UNL A   1      42.779  31.771  38.252  1.00  0.00     0.029 A 
ATOM     30  N   UNL A   1      42.112  31.332  36.173  1.00  0.00    -0.354 N 
ATOM     31  N   UNL A   1      42.380  30.104  33.464  1.00  0.00    -0.248 NA
ATOM     32  C   UNL A   1      43.625  28.854  31.927  1.00  0.00     0.031 C 
ATOM     33  C   UNL A   1      43.772  31.021  37.612  1.00  0.00     0.029 A 
ATOM     34  C   UNL A   1      43.346  30.726  36.325  1.00  0.00     0.049 A 
ATOM     35  H   UNL A   1      41.566  31.304  35.354  1.00  0.00     0.167 HD
ATOM     36  C   UNL A   1      43.561  29.693  34.066  1.00  0.00     0.074 A 
ATOM     37  C   UNL A   1      44.275  28.902  33.081  1.00  0.00     0.031 C 
ATOM     38  C   UNL A   1      44.022  29.950  35.315  1.00  0.00     0.031 A 
BRANCH  25  39
ATOM     39  C   UNL A   1      40.254  33.388  38.841  1.00  0.00    -0.014 A 
ATOM     40  C   UNL A   1      39.367  32.817  39.772  1.00  0.00     0.010 A 
ATOM     41  C   UNL A   1      40.856  34.624  39.139  1.00  0.00     0.010 A 
ATOM     42  C   UNL A   1      39.048  33.494  40.953  1.00  0.00     0.020 A 
ATOM     43  C   UNL A   1      40.557  35.294  40.329  1.00  0.00     0.020 A 
ATOM     44  C   UNL A   1      39.635  34.735  41.218  1.00  0.00     0.054 A 
BRANCH  44  45
ATOM     45  S   UNL A   1      39.186  35.609  42.742  1.00  0.00     0.124 S 
ATOM     46  O   UNL A   1      40.047  34.959  43.726  1.00  0.00    -0.237 OA
ATOM     47  O   UNL A   1      39.524  36.996  42.432  1.00  0.00    -0.237 OA
ATOM     48  O   UNL A   1      37.758  35.338  42.889  1.00  0.00    -0.744 OA
ENDBRANCH  44  45
ENDBRANCH  25  39
BRANCH  26  49
ATOM     49  C   UNL A   1      41.585  29.130  29.812  1.00  0.00    -0.014 A 
ATOM     50  C   UNL A   1      42.137  29.849  28.737  1.00  0.00     0.010 A 
ATOM     51  C   UNL A   1      41.223  27.784  29.613  1.00  0.00     0.010 A 
ATOM     52  C   UNL A   1      42.311  29.240  27.489  1.00  0.00     0.020 A 
ATOM     53  C   UNL A   1      41.420  27.164  28.376  1.00  0.00     0.020 A 
ATOM     54  C   UNL A   1      41.951  27.901  27.316  1.00  0.00     0.054 A 
BRANCH  54  55
ATOM     55  S   UNL A   1      42.226  27.112  25.705  1.00  0.00     0.124 S 
ATOM     56  O   UNL A   1      42.270  28.263  24.808  1.00  0.00    -0.237 OA
ATOM     57  O   UNL A   1      43.496  26.416  25.903  1.00  0.00    -0.237 OA
ATOM     58  O   UNL A   1      41.065  26.239  25.549  1.00  0.00    -0.744 OA
ENDBRANCH  54  55
ENDBRANCH  26  49
BRANCH  38  59
ATOM     59  C   UNL A   1      45.351  29.354  35.684  1.00  0.00    -0.014 A 
ATOM     60  C   UNL A   1      46.545  30.056  35.446  1.00  0.00     0.010 A 
ATOM     61  C   UNL A   1      45.395  28.109  36.332  1.00  0.00     0.010 A 
ATOM     62  C   UNL A   1      47.769  29.508  35.833  1.00  0.00     0.020 A 
ATOM     63  C   UNL A   1      46.616  27.568  36.740  1.00  0.00     0.020 A 
ATOM     64  C   UNL A   1      47.796  28.268  36.478  1.00  0.00     0.054 A 
BRANCH  64  65
ATOM     65  S   UNL A   1      49.391  27.602  37.025  1.00  0.00     0.124 S 
ATOM     66  O   UNL A   1      50.335  28.395  36.242  1.00  0.00    -0.237 OA
ATOM     67  O   UNL A   1      49.380  27.874  38.460  1.00  0.00    -0.237 OA
ATOM     68  O   UNL A   1      49.316  26.188  36.665  1.00  0.00    -0.744 OA
ENDBRANCH  64  65
ENDBRANCH  38  59
ENDBRANCH  12  13
ENDBRANCH   5   7
ENDBRANCH   4   5
ENDBRANCH   3   4
ENDBRANCH   2   3
ENDBRANCH   1   2
BRANCH   1  69
ATOM     69  C   UNL A   1      35.597  33.839  28.001  1.00  0.00     0.202 C 
BRANCH  69  70
ATOM     70  C   UNL A   1      35.631  32.444  28.641  1.00  0.00     0.261 C 
BRANCH  70  71
ATOM     71  O   UNL A   1      35.744  31.471  27.588  1.00  0.00    -0.460 OA
BRANCH  71  72
ATOM     72  C   UNL A   1      35.283  30.239  27.918  1.00  0.00     0.338 C 
ATOM     73  O   UNL A   1      35.492  29.604  28.935  1.00  0.00    -0.246 OA
BRANCH  72  74
ATOM     74  C   UNL A   1      34.211  29.924  26.960  1.00  0.00     0.061 A 
ATOM     75  C   UNL A   1      33.069  30.711  26.846  1.00  0.00     0.019 A 
ATOM     76  C   UNL A   1      34.304  28.702  26.288  1.00  0.00     0.040 A 
ATOM     77  C   UNL A   1      32.042  30.284  26.007  1.00  0.00     0.049 A 
ATOM     78  C   UNL A   1      33.221  28.223  25.553  1.00  0.00     0.083 A 
ATOM     79  C   UNL A   1      32.121  29.054  25.329  1.00  0.00     0.137 A 
ATOM     80  Cl  UNL A   1      33.257  26.548  25.123  1.00  0.00    -0.080 Cl
BRANCH  79  81
ATOM     81  O   UNL A   1      31.050  28.826  24.522  1.00  0.00    -0.492 OA
BRANCH  81  82
ATOM     82  C   UNL A   1      31.078  29.162  23.134  1.00  0.00     0.233 C 
BRANCH  82  83
ATOM     83  C   UNL A   1      29.771  29.156  22.321  1.00  0.00     0.030 C 
ATOM     84  C   UNL A   1      28.578  28.593  23.128  1.00  0.00     0.011 C 
ATOM     85  C   UNL A   1      29.209  30.481  21.761  1.00  0.00    -0.004 C 
ATOM     86  C   UNL A   1      27.479  29.641  22.881  1.00  0.00    -0.010 C 
ATOM     87  C   UNL A   1      29.003  31.509  22.876  1.00  0.00     0.004 C 
ATOM     88  C   UNL A   1      27.766  30.071  21.446  1.00  0.00     0.007 C 
ATOM     89  C   UNL A   1      27.827  30.917  23.668  1.00  0.00     0.004 C 
ENDBRANCH  82  83
ENDBRANCH  81  82
ENDBRANCH  79  81
ENDBRANCH  72  74
ENDBRANCH  71  72
ENDBRANCH  70  71
ENDBRANCH  69  70
ENDBRANCH   1  69
TORSDOF 20
ENDMDL
