MODEL 1
REMARK VINA RESULT:     -10.4      0.000      0.000
REMARK SMILES COC(=O)c1cccc(NC(=O)[C@@H]2[C@@H]3CC[C@@H](C3)[C@@H]2C(=O)OCCOCCOC(=O)c2ccc(-c3c4nc(c(-c5ccc(S(=O)(=O)[O-])cc5)c5ccc([nH]5)c(-c5ccc(S(=O)(=O)[O-])cc5)c5nc(c(-c6ccc(S(=O)(=O)[O-])cc6)c6ccc3[nH]6)C=C5)C=C4)cc2)c1
REMARK SMILES IDX 24 1 23 2 22 3 20 4 21 5 19 6 13 7 14 8 15 9 18 10 17 11
REMARK SMILES IDX 16 12 11 13 10 14 12 16 9 17 5 18 6 19 91 20 7 21 8 22 3 23
REMARK SMILES IDX 4 24 2 25 1 26 25 27 26 28 27 29 28 30 29 31 30 32 31 33
REMARK SMILES IDX 32 34 90 35 33 36 89 37 34 38 35 39 36 40 83 41 37 42 88 43
REMARK SMILES IDX 82 44 84 45 38 46 87 47 81 48 80 49 39 51 69 52 50 53 68 54
REMARK SMILES IDX 51 55 54 56 67 57 85 58 52 59 53 60 66 62 86 63 55 64 40 65
REMARK SMILES IDX 41 66 49 67 42 68 48 69 43 70 44 71 45 72 46 73 47 74 70 75
REMARK SMILES IDX 71 76 79 77 72 78 78 79 73 80 74 81 75 82 76 83 77 84 56 85
REMARK SMILES IDX 57 86 65 87 58 88 64 89 59 90 60 91 61 92 62 93 63 94
REMARK H PARENT 10 15 84 50 54 61
REMARK Flexibility Score: inf
ROOT
ATOM      1  C   UNL A   1      30.460  30.357  24.421  1.00  0.00     0.202 C 
ENDROOT
BRANCH   1   2
ATOM      2  C   UNL A   1      29.982  29.474  23.254  1.00  0.00     0.261 C 
BRANCH   2   3
ATOM      3  O   UNL A   1      29.848  28.057  23.507  1.00  0.00    -0.463 OA
BRANCH   3   4
ATOM      4  C   UNL A   1      30.897  27.334  23.037  1.00  0.00     0.310 C 
ATOM      5  O   UNL A   1      30.929  26.904  21.889  1.00  0.00    -0.252 OA
BRANCH   4   6
ATOM      6  C   UNL A   1      31.881  26.896  24.122  1.00  0.00     0.115 C 
ATOM      7  C   UNL A   1      32.910  25.703  24.123  1.00  0.00     0.096 C 
ATOM      8  C   UNL A   1      32.449  24.892  25.351  1.00  0.00     0.003 C 
ATOM      9  C   UNL A   1      31.090  24.226  25.097  1.00  0.00     0.005 C 
ATOM     10  C   UNL A   1      32.091  26.003  26.339  1.00  0.00     0.009 C 
ATOM     11  C   UNL A   1      31.044  26.602  25.418  1.00  0.00     0.004 C 
ATOM     12  C   UNL A   1      30.113  25.383  25.242  1.00  0.00     0.005 C 
BRANCH   7  13
ATOM     13  C   UNL A   1      33.411  25.014  22.835  1.00  0.00     0.228 C 
ATOM     14  N   UNL A   1      33.399  23.660  22.618  1.00  0.00    -0.326 N 
ATOM     15  H   UNL A   1      33.013  23.372  21.759  1.00  0.00     0.169 HD
ATOM     16  O   UNL A   1      33.826  25.726  21.913  1.00  0.00    -0.274 OA
BRANCH  14  17
ATOM     17  C   UNL A   1      33.863  22.623  23.452  1.00  0.00     0.042 A 
ATOM     18  C   UNL A   1      35.691  21.469  24.531  1.00  0.00     0.062 A 
ATOM     19  C   UNL A   1      34.848  20.391  24.824  1.00  0.00     0.016 A 
ATOM     20  C   UNL A   1      35.206  22.595  23.850  1.00  0.00     0.041 A 
ATOM     21  C   UNL A   1      33.491  20.493  24.555  1.00  0.00     0.003 A 
ATOM     22  C   UNL A   1      32.999  21.632  23.919  1.00  0.00     0.026 A 
BRANCH  18  23
ATOM     23  C   UNL A   1      37.085  21.354  25.001  1.00  0.00     0.337 C 
ATOM     24  O   UNL A   1      37.798  20.389  24.788  1.00  0.00    -0.246 OA
BRANCH  23  25
ATOM     25  O   UNL A   1      37.319  22.367  25.870  1.00  0.00    -0.465 OA
ATOM     26  C   UNL A   1      38.708  22.567  26.144  1.00  0.00     0.282 C 
ENDBRANCH  23  25
ENDBRANCH  18  23
ENDBRANCH  14  17
ENDBRANCH   7  13
ENDBRANCH   4   6
ENDBRANCH   3   4
ENDBRANCH   2   3
ENDBRANCH   1   2
BRANCH   1  27
ATOM     27  O   UNL A   1      31.594  29.957  25.163  1.00  0.00    -0.374 OA
BRANCH  27  28
ATOM     28  C   UNL A   1      31.912  30.574  26.397  1.00  0.00     0.202 C 
BRANCH  28  29
ATOM     29  C   UNL A   1      33.301  31.112  26.757  1.00  0.00     0.261 C 
BRANCH  29  30
ATOM     30  O   UNL A   1      34.122  30.360  27.630  1.00  0.00    -0.460 OA
BRANCH  30  31
ATOM     31  C   UNL A   1      34.737  31.038  28.608  1.00  0.00     0.338 C 
ATOM     32  O   UNL A   1      34.292  31.934  29.302  1.00  0.00    -0.246 OA
BRANCH  31  33
ATOM     33  C   UNL A   1      36.062  30.420  28.717  1.00  0.00     0.060 A 
ATOM     34  C   UNL A   1      36.435  29.836  29.927  1.00  0.00     0.016 A 
ATOM     35  C   UNL A   1      36.901  30.384  27.598  1.00  0.00     0.016 A 
ATOM     36  C   UNL A   1      37.696  29.263  30.043  1.00  0.00     0.010 A 
ATOM     37  C   UNL A   1      38.161  29.805  27.716  1.00  0.00     0.010 A 
ATOM     38  C   UNL A   1      38.578  29.282  28.951  1.00  0.00    -0.014 A 
BRANCH  38  39
ATOM     39  C   UNL A   1      39.991  28.905  29.160  1.00  0.00     0.031 A 
ATOM     40  C   UNL A   1      40.909  29.904  29.806  1.00  0.00     0.074 A 
ATOM     41  C   UNL A   1      40.427  27.680  28.818  1.00  0.00     0.049 A 
ATOM     42  N   UNL A   1      42.171  29.783  30.123  1.00  0.00    -0.248 NA
ATOM     43  C   UNL A   1      40.329  31.217  30.140  1.00  0.00     0.031 C 
ATOM     44  C   UNL A   1      39.606  26.631  28.211  1.00  0.00     0.029 A 
ATOM     45  N   UNL A   1      41.665  27.110  28.944  1.00  0.00    -0.354 N 
ATOM     46  C   UNL A   1      42.536  31.001  30.685  1.00  0.00     0.074 A 
ATOM     47  C   UNL A   1      41.375  31.861  30.632  1.00  0.00     0.031 C 
ATOM     48  C   UNL A   1      40.365  25.536  28.030  1.00  0.00     0.029 A 
ATOM     49  C   UNL A   1      41.727  25.819  28.476  1.00  0.00     0.049 A 
ATOM     50  H   UNL A   1      42.439  27.579  29.332  1.00  0.00     0.167 HD
ATOM     51  C   UNL A   1      43.732  31.366  31.203  1.00  0.00     0.031 A 
ATOM     52  C   UNL A   1      42.770  24.968  28.409  1.00  0.00     0.031 A 
ATOM     53  C   UNL A   1      44.880  30.501  31.237  1.00  0.00     0.049 A 
ATOM     54  C   UNL A   1      44.105  25.418  28.940  1.00  0.00     0.074 A 
ATOM     55  C   UNL A   1      46.134  30.757  31.759  1.00  0.00     0.029 A 
ATOM     56  N   UNL A   1      44.916  29.216  30.714  1.00  0.00    -0.354 N 
ATOM     57  N   UNL A   1      44.426  26.559  29.506  1.00  0.00    -0.248 NA
ATOM     58  C   UNL A   1      45.217  24.465  28.833  1.00  0.00     0.031 C 
ATOM     59  C   UNL A   1      46.947  29.649  31.495  1.00  0.00     0.029 A 
ATOM     60  C   UNL A   1      46.180  28.677  30.871  1.00  0.00     0.049 A 
ATOM     61  H   UNL A   1      44.153  28.756  30.293  1.00  0.00     0.167 HD
ATOM     62  C   UNL A   1      45.770  26.449  29.848  1.00  0.00     0.074 A 
ATOM     63  C   UNL A   1      46.195  25.126  29.439  1.00  0.00     0.031 C 
ATOM     64  C   UNL A   1      46.578  27.356  30.450  1.00  0.00     0.031 A 
BRANCH  51  65
ATOM     65  C   UNL A   1      43.863  32.768  31.736  1.00  0.00    -0.014 A 
ATOM     66  C   UNL A   1      44.290  33.830  30.917  1.00  0.00     0.010 A 
ATOM     67  C   UNL A   1      43.528  33.034  33.077  1.00  0.00     0.010 A 
ATOM     68  C   UNL A   1      44.415  35.122  31.438  1.00  0.00     0.020 A 
ATOM     69  C   UNL A   1      43.624  34.329  33.594  1.00  0.00     0.020 A 
ATOM     70  C   UNL A   1      44.083  35.362  32.775  1.00  0.00     0.054 A 
BRANCH  70  71
ATOM     71  S   UNL A   1      44.231  37.052  33.418  1.00  0.00     0.124 S 
ATOM     72  O   UNL A   1      45.551  37.022  34.042  1.00  0.00    -0.237 OA
ATOM     73  O   UNL A   1      44.126  37.864  32.209  1.00  0.00    -0.237 OA
ATOM     74  O   UNL A   1      43.108  37.171  34.344  1.00  0.00    -0.744 OA
ENDBRANCH  70  71
ENDBRANCH  51  65
BRANCH  52  75
ATOM     75  C   UNL A   1      42.590  23.614  27.819  1.00  0.00    -0.014 A 
ATOM     76  C   UNL A   1      42.784  23.395  26.444  1.00  0.00     0.010 A 
ATOM     77  C   UNL A   1      42.233  22.527  28.638  1.00  0.00     0.010 A 
ATOM     78  C   UNL A   1      42.611  22.120  25.897  1.00  0.00     0.020 A 
ATOM     79  C   UNL A   1      42.087  21.245  28.100  1.00  0.00     0.020 A 
ATOM     80  C   UNL A   1      42.267  21.052  26.730  1.00  0.00     0.054 A 
BRANCH  80  81
ATOM     81  S   UNL A   1      42.098  19.396  26.006  1.00  0.00     0.124 S 
ATOM     82  O   UNL A   1      42.939  19.496  24.818  1.00  0.00    -0.237 OA
ATOM     83  O   UNL A   1      42.605  18.535  27.071  1.00  0.00    -0.237 OA
ATOM     84  O   UNL A   1      40.664  19.278  25.752  1.00  0.00    -0.744 OA
ENDBRANCH  80  81
ENDBRANCH  52  75
BRANCH  64  85
ATOM     85  C   UNL A   1      47.997  26.937  30.733  1.00  0.00    -0.014 A 
ATOM     86  C   UNL A   1      49.042  27.247  29.846  1.00  0.00     0.010 A 
ATOM     87  C   UNL A   1      48.294  26.275  31.939  1.00  0.00     0.010 A 
ATOM     88  C   UNL A   1      50.354  26.871  30.144  1.00  0.00     0.020 A 
ATOM     89  C   UNL A   1      49.608  25.926  32.256  1.00  0.00     0.020 A 
ATOM     90  C   UNL A   1      50.629  26.214  31.349  1.00  0.00     0.054 A 
BRANCH  90  91
ATOM     91  S   UNL A   1      52.346  25.776  31.730  1.00  0.00     0.124 S 
ATOM     92  O   UNL A   1      52.225  24.372  32.111  1.00  0.00    -0.237 OA
ATOM     93  O   UNL A   1      53.030  26.028  30.464  1.00  0.00    -0.237 OA
ATOM     94  O   UNL A   1      52.704  26.687  32.816  1.00  0.00    -0.744 OA
ENDBRANCH  90  91
ENDBRANCH  64  85
ENDBRANCH  38  39
ENDBRANCH  31  33
ENDBRANCH  30  31
ENDBRANCH  29  30
ENDBRANCH  28  29
ENDBRANCH  27  28
ENDBRANCH   1  27
TORSDOF 21
ENDMDL
MODEL 2
REMARK VINA RESULT:     -10.1      2.593      3.077
REMARK SMILES COC(=O)c1cccc(NC(=O)[C@@H]2[C@@H]3CC[C@@H](C3)[C@@H]2C(=O)OCCOCCOC(=O)c2ccc(-c3c4nc(c(-c5ccc(S(=O)(=O)[O-])cc5)c5ccc([nH]5)c(-c5ccc(S(=O)(=O)[O-])cc5)c5nc(c(-c6ccc(S(=O)(=O)[O-])cc6)c6ccc3[nH]6)C=C5)C=C4)cc2)c1
REMARK SMILES IDX 24 1 23 2 22 3 20 4 21 5 19 6 13 7 14 8 15 9 18 10 17 11
REMARK SMILES IDX 16 12 11 13 10 14 12 16 9 17 5 18 6 19 91 20 7 21 8 22 3 23
REMARK SMILES IDX 4 24 2 25 1 26 25 27 26 28 27 29 28 30 29 31 30 32 31 33
REMARK SMILES IDX 32 34 90 35 33 36 89 37 34 38 35 39 36 40 83 41 37 42 88 43
REMARK SMILES IDX 82 44 84 45 38 46 87 47 81 48 80 49 39 51 69 52 50 53 68 54
REMARK SMILES IDX 51 55 54 56 67 57 85 58 52 59 53 60 66 62 86 63 55 64 40 65
REMARK SMILES IDX 41 66 49 67 42 68 48 69 43 70 44 71 45 72 46 73 47 74 70 75
REMARK SMILES IDX 71 76 79 77 72 78 78 79 73 80 74 81 75 82 76 83 77 84 56 85
REMARK SMILES IDX 57 86 65 87 58 88 64 89 59 90 60 91 61 92 62 93 63 94
REMARK H PARENT 10 15 84 50 54 61
REMARK Flexibility Score: inf
ROOT
ATOM      1  C   UNL A   1      30.325  30.408  24.324  1.00  0.00     0.202 C 
ENDROOT
BRANCH   1   2
ATOM      2  C   UNL A   1      30.141  29.572  23.045  1.00  0.00     0.261 C 
BRANCH   2   3
ATOM      3  O   UNL A   1      29.868  28.162  23.209  1.00  0.00    -0.463 OA
BRANCH   3   4
ATOM      4  C   UNL A   1      30.901  27.373  22.819  1.00  0.00     0.310 C 
ATOM      5  O   UNL A   1      30.910  26.799  21.736  1.00  0.00    -0.252 OA
BRANCH   4   6
ATOM      6  C   UNL A   1      31.902  27.070  23.935  1.00  0.00     0.115 C 
ATOM      7  C   UNL A   1      32.998  25.941  24.022  1.00  0.00     0.096 C 
ATOM      8  C   UNL A   1      32.575  25.192  25.303  1.00  0.00     0.003 C 
ATOM      9  C   UNL A   1      31.258  24.432  25.092  1.00  0.00     0.005 C 
ATOM     10  C   UNL A   1      32.147  26.347  26.209  1.00  0.00     0.009 C 
ATOM     11  C   UNL A   1      31.074  26.818  25.246  1.00  0.00     0.004 C 
ATOM     12  C   UNL A   1      30.215  25.539  25.153  1.00  0.00     0.005 C 
BRANCH   7  13
ATOM     13  C   UNL A   1      33.546  25.194  22.788  1.00  0.00     0.228 C 
ATOM     14  N   UNL A   1      33.699  23.834  22.701  1.00  0.00    -0.326 N 
ATOM     15  H   UNL A   1      33.329  23.417  21.889  1.00  0.00     0.169 HD
ATOM     16  O   UNL A   1      33.843  25.856  21.786  1.00  0.00    -0.274 OA
BRANCH  14  17
ATOM     17  C   UNL A   1      34.313  22.950  23.611  1.00  0.00     0.042 A 
ATOM     18  C   UNL A   1      36.265  22.249  24.850  1.00  0.00     0.062 A 
ATOM     19  C   UNL A   1      35.649  21.029  25.146  1.00  0.00     0.016 A 
ATOM     20  C   UNL A   1      35.602  23.222  24.087  1.00  0.00     0.041 A 
ATOM     21  C   UNL A   1      34.321  20.831  24.795  1.00  0.00     0.003 A 
ATOM     22  C   UNL A   1      33.646  21.816  24.075  1.00  0.00     0.026 A 
BRANCH  18  23
ATOM     23  C   UNL A   1      37.617  22.450  25.405  1.00  0.00     0.337 C 
ATOM     24  O   UNL A   1      38.453  21.568  25.499  1.00  0.00    -0.246 OA
BRANCH  23  25
ATOM     25  O   UNL A   1      37.657  23.677  25.980  1.00  0.00    -0.465 OA
ATOM     26  C   UNL A   1      38.930  23.995  26.545  1.00  0.00     0.282 C 
ENDBRANCH  23  25
ENDBRANCH  18  23
ENDBRANCH  14  17
ENDBRANCH   7  13
ENDBRANCH   4   6
ENDBRANCH   3   4
ENDBRANCH   2   3
ENDBRANCH   1   2
BRANCH   1  27
ATOM     27  O   UNL A   1      31.578  30.394  24.978  1.00  0.00    -0.374 OA
BRANCH  27  28
ATOM     28  C   UNL A   1      31.689  30.732  26.348  1.00  0.00     0.202 C 
BRANCH  28  29
ATOM     29  C   UNL A   1      32.790  30.206  27.276  1.00  0.00     0.261 C 
BRANCH  29  30
ATOM     30  O   UNL A   1      34.114  30.674  27.102  1.00  0.00    -0.460 OA
BRANCH  30  31
ATOM     31  C   UNL A   1      34.566  31.546  28.014  1.00  0.00     0.338 C 
ATOM     32  O   UNL A   1      34.015  32.543  28.446  1.00  0.00    -0.246 OA
BRANCH  31  33
ATOM     33  C   UNL A   1      35.859  31.002  28.442  1.00  0.00     0.060 A 
ATOM     34  C   UNL A   1      35.926  29.673  28.860  1.00  0.00     0.016 A 
ATOM     35  C   UNL A   1      37.001  31.807  28.377  1.00  0.00     0.016 A 
ATOM     36  C   UNL A   1      37.144  29.155  29.283  1.00  0.00     0.010 A 
ATOM     37  C   UNL A   1      38.221  31.284  28.797  1.00  0.00     0.010 A 
ATOM     38  C   UNL A   1      38.286  29.971  29.292  1.00  0.00    -0.014 A 
BRANCH  38  39
ATOM     39  C   UNL A   1      39.506  29.495  29.976  1.00  0.00     0.031 A 
ATOM     40  C   UNL A   1      39.896  30.145  31.275  1.00  0.00     0.074 A 
ATOM     41  C   UNL A   1      40.219  28.476  29.468  1.00  0.00     0.049 A 
ATOM     42  N   UNL A   1      40.896  29.870  32.069  1.00  0.00    -0.248 NA
ATOM     43  C   UNL A   1      39.045  31.254  31.742  1.00  0.00     0.031 C 
ATOM     44  C   UNL A   1      39.906  27.762  28.229  1.00  0.00     0.029 A 
ATOM     45  N   UNL A   1      41.348  27.858  29.937  1.00  0.00    -0.354 N 
ATOM     46  C   UNL A   1      40.801  30.773  33.121  1.00  0.00     0.074 A 
ATOM     47  C   UNL A   1      39.667  31.628  32.848  1.00  0.00     0.031 C 
ATOM     48  C   UNL A   1      40.818  26.791  28.045  1.00  0.00     0.029 A 
ATOM     49  C   UNL A   1      41.793  26.838  29.131  1.00  0.00     0.049 A 
ATOM     50  H   UNL A   1      41.798  28.120  30.773  1.00  0.00     0.167 HD
ATOM     51  C   UNL A   1      41.584  30.874  34.219  1.00  0.00     0.031 A 
ATOM     52  C   UNL A   1      42.872  26.041  29.256  1.00  0.00     0.031 A 
ATOM     53  C   UNL A   1      42.716  30.022  34.470  1.00  0.00     0.049 A 
ATOM     54  C   UNL A   1      43.762  26.211  30.458  1.00  0.00     0.074 A 
ATOM     55  C   UNL A   1      43.566  30.019  35.560  1.00  0.00     0.029 A 
ATOM     56  N   UNL A   1      43.161  29.028  33.608  1.00  0.00    -0.354 N 
ATOM     57  N   UNL A   1      43.636  27.042  31.467  1.00  0.00    -0.248 NA
ATOM     58  C   UNL A   1      44.934  25.332  30.545  1.00  0.00     0.031 C 
ATOM     59  C   UNL A   1      44.563  29.066  35.327  1.00  0.00     0.029 A 
ATOM     60  C   UNL A   1      44.293  28.428  34.127  1.00  0.00     0.049 A 
ATOM     61  H   UNL A   1      42.733  28.788  32.755  1.00  0.00     0.167 HD
ATOM     62  C   UNL A   1      44.697  26.766  32.323  1.00  0.00     0.074 A 
ATOM     63  C   UNL A   1      45.444  25.681  31.719  1.00  0.00     0.031 C 
ATOM     64  C   UNL A   1      45.022  27.351  33.502  1.00  0.00     0.031 A 
BRANCH  51  65
ATOM     65  C   UNL A   1      41.266  31.966  35.207  1.00  0.00    -0.014 A 
ATOM     66  C   UNL A   1      41.888  33.227  35.135  1.00  0.00     0.010 A 
ATOM     67  C   UNL A   1      40.307  31.735  36.210  1.00  0.00     0.010 A 
ATOM     68  C   UNL A   1      41.584  34.221  36.070  1.00  0.00     0.020 A 
ATOM     69  C   UNL A   1      39.979  32.736  37.128  1.00  0.00     0.020 A 
ATOM     70  C   UNL A   1      40.632  33.968  37.063  1.00  0.00     0.054 A 
BRANCH  70  71
ATOM     71  S   UNL A   1      40.239  35.285  38.247  1.00  0.00     0.124 S 
ATOM     72  O   UNL A   1      41.482  36.052  38.268  1.00  0.00    -0.237 OA
ATOM     73  O   UNL A   1      39.101  35.950  37.620  1.00  0.00    -0.237 OA
ATOM     74  O   UNL A   1      39.933  34.563  39.480  1.00  0.00    -0.744 OA
ENDBRANCH  70  71
ENDBRANCH  51  65
BRANCH  52  75
ATOM     75  C   UNL A   1      43.165  25.016  28.217  1.00  0.00    -0.014 A 
ATOM     76  C   UNL A   1      44.015  25.308  27.136  1.00  0.00     0.010 A 
ATOM     77  C   UNL A   1      42.600  23.731  28.311  1.00  0.00     0.010 A 
ATOM     78  C   UNL A   1      44.284  24.341  26.163  1.00  0.00     0.020 A 
ATOM     79  C   UNL A   1      42.888  22.752  27.356  1.00  0.00     0.020 A 
ATOM     80  C   UNL A   1      43.721  23.066  26.281  1.00  0.00     0.054 A 
BRANCH  80  81
ATOM     81  S   UNL A   1      44.125  21.812  25.034  1.00  0.00     0.124 S 
ATOM     82  O   UNL A   1      43.882  22.531  23.788  1.00  0.00    -0.237 OA
ATOM     83  O   UNL A   1      45.524  21.513  25.331  1.00  0.00    -0.237 OA
ATOM     84  O   UNL A   1      43.190  20.727  25.325  1.00  0.00    -0.744 OA
ENDBRANCH  80  81
ENDBRANCH  52  75
BRANCH  64  85
ATOM     85  C   UNL A   1      46.220  26.808  34.236  1.00  0.00    -0.014 A 
ATOM     86  C   UNL A   1      46.114  25.689  35.081  1.00  0.00     0.010 A 
ATOM     87  C   UNL A   1      47.482  27.392  34.025  1.00  0.00     0.010 A 
ATOM     88  C   UNL A   1      47.245  25.187  35.730  1.00  0.00     0.020 A 
ATOM     89  C   UNL A   1      48.621  26.874  34.647  1.00  0.00     0.020 A 
ATOM     90  C   UNL A   1      48.492  25.783  35.507  1.00  0.00     0.054 A 
BRANCH  90  91
ATOM     91  S   UNL A   1      49.950  25.085  36.328  1.00  0.00     0.124 S 
ATOM     92  O   UNL A   1      49.411  23.865  36.921  1.00  0.00    -0.237 OA
ATOM     93  O   UNL A   1      50.879  24.888  35.218  1.00  0.00    -0.237 OA
ATOM     94  O   UNL A   1      50.340  26.121  37.282  1.00  0.00    -0.744 OA
ENDBRANCH  90  91
ENDBRANCH  64  85
ENDBRANCH  38  39
ENDBRANCH  31  33
ENDBRANCH  30  31
ENDBRANCH  29  30
ENDBRANCH  28  29
ENDBRANCH  27  28
ENDBRANCH   1  27
TORSDOF 21
ENDMDL
MODEL 3
REMARK VINA RESULT:     -10.1      1.074      8.127
REMARK SMILES COC(=O)c1cccc(NC(=O)[C@@H]2[C@@H]3CC[C@@H](C3)[C@@H]2C(=O)OCCOCCOC(=O)c2ccc(-c3c4nc(c(-c5ccc(S(=O)(=O)[O-])cc5)c5ccc([nH]5)c(-c5ccc(S(=O)(=O)[O-])cc5)c5nc(c(-c6ccc(S(=O)(=O)[O-])cc6)c6ccc3[nH]6)C=C5)C=C4)cc2)c1
REMARK SMILES IDX 24 1 23 2 22 3 20 4 21 5 19 6 13 7 14 8 15 9 18 10 17 11
REMARK SMILES IDX 16 12 11 13 10 14 12 16 9 17 5 18 6 19 91 20 7 21 8 22 3 23
REMARK SMILES IDX 4 24 2 25 1 26 25 27 26 28 27 29 28 30 29 31 30 32 31 33
REMARK SMILES IDX 32 34 90 35 33 36 89 37 34 38 35 39 36 40 83 41 37 42 88 43
REMARK SMILES IDX 82 44 84 45 38 46 87 47 81 48 80 49 39 51 69 52 50 53 68 54
REMARK SMILES IDX 51 55 54 56 67 57 85 58 52 59 53 60 66 62 86 63 55 64 40 65
REMARK SMILES IDX 41 66 49 67 42 68 48 69 43 70 44 71 45 72 46 73 47 74 70 75
REMARK SMILES IDX 71 76 79 77 72 78 78 79 73 80 74 81 75 82 76 83 77 84 56 85
REMARK SMILES IDX 57 86 65 87 58 88 64 89 59 90 60 91 61 92 62 93 63 94
REMARK H PARENT 10 15 84 50 54 61
REMARK Flexibility Score: inf
ROOT
ATOM      1  C   UNL A   1      30.606  29.881  24.180  1.00  0.00     0.202 C 
ENDROOT
BRANCH   1   2
ATOM      2  C   UNL A   1      30.164  28.711  23.284  1.00  0.00     0.261 C 
BRANCH   2   3
ATOM      3  O   UNL A   1      29.715  27.505  23.943  1.00  0.00    -0.463 OA
BRANCH   3   4
ATOM      4  C   UNL A   1      30.546  26.450  23.741  1.00  0.00     0.310 C 
ATOM      5  O   UNL A   1      30.140  25.372  23.321  1.00  0.00    -0.252 OA
BRANCH   4   6
ATOM      6  C   UNL A   1      31.948  26.649  24.318  1.00  0.00     0.115 C 
ATOM      7  C   UNL A   1      33.300  25.931  23.944  1.00  0.00     0.096 C 
ATOM      8  C   UNL A   1      33.711  25.313  25.296  1.00  0.00     0.003 C 
ATOM      9  C   UNL A   1      32.767  24.170  25.693  1.00  0.00     0.005 C 
ATOM     10  C   UNL A   1      33.317  26.420  26.275  1.00  0.00     0.009 C 
ATOM     11  C   UNL A   1      31.857  26.382  25.863  1.00  0.00     0.004 C 
ATOM     12  C   UNL A   1      31.527  24.907  26.178  1.00  0.00     0.005 C 
BRANCH   7  13
ATOM     13  C   UNL A   1      33.525  25.189  22.609  1.00  0.00     0.228 C 
ATOM     14  N   UNL A   1      33.454  23.829  22.449  1.00  0.00    -0.326 N 
ATOM     15  H   UNL A   1      32.900  23.520  21.696  1.00  0.00     0.169 HD
ATOM     16  O   UNL A   1      33.756  25.861  21.597  1.00  0.00    -0.274 OA
BRANCH  14  17
ATOM     17  C   UNL A   1      34.063  22.813  23.212  1.00  0.00     0.042 A 
ATOM     18  C   UNL A   1      33.892  20.765  24.483  1.00  0.00     0.062 A 
ATOM     19  C   UNL A   1      35.175  20.969  25.000  1.00  0.00     0.016 A 
ATOM     20  C   UNL A   1      33.327  21.679  23.581  1.00  0.00     0.041 A 
ATOM     21  C   UNL A   1      35.948  22.015  24.516  1.00  0.00     0.003 A 
ATOM     22  C   UNL A   1      35.405  22.899  23.585  1.00  0.00     0.026 A 
BRANCH  18  23
ATOM     23  C   UNL A   1      33.199  19.538  24.919  1.00  0.00     0.337 C 
ATOM     24  O   UNL A   1      32.105  19.527  25.455  1.00  0.00    -0.246 OA
BRANCH  23  25
ATOM     25  O   UNL A   1      34.075  18.508  24.831  1.00  0.00    -0.465 OA
ATOM     26  C   UNL A   1      33.521  17.257  25.243  1.00  0.00     0.282 C 
ENDBRANCH  23  25
ENDBRANCH  18  23
ENDBRANCH  14  17
ENDBRANCH   7  13
ENDBRANCH   4   6
ENDBRANCH   3   4
ENDBRANCH   2   3
ENDBRANCH   1   2
BRANCH   1  27
ATOM     27  O   UNL A   1      31.873  29.827  24.803  1.00  0.00    -0.374 OA
BRANCH  27  28
ATOM     28  C   UNL A   1      32.086  30.416  26.073  1.00  0.00     0.202 C 
BRANCH  28  29
ATOM     29  C   UNL A   1      32.638  29.662  27.287  1.00  0.00     0.261 C 
BRANCH  29  30
ATOM     30  O   UNL A   1      34.040  29.572  27.459  1.00  0.00    -0.460 OA
BRANCH  30  31
ATOM     31  C   UNL A   1      34.632  30.588  28.102  1.00  0.00     0.338 C 
ATOM     32  O   UNL A   1      34.149  31.654  28.438  1.00  0.00    -0.246 OA
BRANCH  31  33
ATOM     33  C   UNL A   1      35.990  30.113  28.381  1.00  0.00     0.060 A 
ATOM     34  C   UNL A   1      36.274  29.587  29.642  1.00  0.00     0.016 A 
ATOM     35  C   UNL A   1      36.956  30.149  27.370  1.00  0.00     0.016 A 
ATOM     36  C   UNL A   1      37.564  29.150  29.920  1.00  0.00     0.010 A 
ATOM     37  C   UNL A   1      38.246  29.706  27.650  1.00  0.00     0.010 A 
ATOM     38  C   UNL A   1      38.563  29.247  28.938  1.00  0.00    -0.014 A 
BRANCH  38  39
ATOM     39  C   UNL A   1      39.972  29.022  29.321  1.00  0.00     0.031 A 
ATOM     40  C   UNL A   1      40.613  27.713  28.949  1.00  0.00     0.074 A 
ATOM     41  C   UNL A   1      40.671  29.985  29.945  1.00  0.00     0.049 A 
ATOM     42  N   UNL A   1      41.840  27.310  29.144  1.00  0.00    -0.248 NA
ATOM     43  C   UNL A   1      39.756  26.727  28.267  1.00  0.00     0.031 C 
ATOM     44  C   UNL A   1      40.146  31.299  30.323  1.00  0.00     0.029 A 
ATOM     45  N   UNL A   1      41.975  30.010  30.362  1.00  0.00    -0.354 N 
ATOM     46  C   UNL A   1      41.901  26.024  28.618  1.00  0.00     0.074 A 
ATOM     47  C   UNL A   1      40.580  25.700  28.128  1.00  0.00     0.031 C 
ATOM     48  C   UNL A   1      41.129  32.007  30.905  1.00  0.00     0.029 A 
ATOM     49  C   UNL A   1      42.337  31.188  30.971  1.00  0.00     0.049 A 
ATOM     50  H   UNL A   1      42.597  29.255  30.238  1.00  0.00     0.167 HD
ATOM     51  C   UNL A   1      42.966  25.193  28.544  1.00  0.00     0.031 A 
ATOM     52  C   UNL A   1      43.509  31.555  31.525  1.00  0.00     0.031 A 
ATOM     53  C   UNL A   1      44.271  25.527  29.047  1.00  0.00     0.049 A 
ATOM     54  C   UNL A   1      44.663  30.589  31.482  1.00  0.00     0.074 A 
ATOM     55  C   UNL A   1      45.428  24.772  29.005  1.00  0.00     0.029 A 
ATOM     56  N   UNL A   1      44.587  26.713  29.696  1.00  0.00    -0.354 N 
ATOM     57  N   UNL A   1      44.718  29.392  30.944  1.00  0.00    -0.248 NA
ATOM     58  C   UNL A   1      45.916  31.025  32.111  1.00  0.00     0.031 C 
ATOM     59  C   UNL A   1      46.428  25.474  29.686  1.00  0.00     0.029 A 
ATOM     60  C   UNL A   1      45.912  26.697  30.089  1.00  0.00     0.049 A 
ATOM     61  H   UNL A   1      43.959  27.455  29.853  1.00  0.00     0.167 HD
ATOM     62  C   UNL A   1      46.019  28.944  31.145  1.00  0.00     0.074 A 
ATOM     63  C   UNL A   1      46.720  30.006  31.840  1.00  0.00     0.031 C 
ATOM     64  C   UNL A   1      46.585  27.766  30.785  1.00  0.00     0.031 A 
BRANCH  51  65
ATOM     65  C   UNL A   1      42.749  23.833  27.934  1.00  0.00    -0.014 A 
ATOM     66  C   UNL A   1      42.923  23.608  26.556  1.00  0.00     0.010 A 
ATOM     67  C   UNL A   1      42.390  22.752  28.761  1.00  0.00     0.010 A 
ATOM     68  C   UNL A   1      42.705  22.339  26.011  1.00  0.00     0.020 A 
ATOM     69  C   UNL A   1      42.199  21.475  28.226  1.00  0.00     0.020 A 
ATOM     70  C   UNL A   1      42.343  21.280  26.850  1.00  0.00     0.054 A 
BRANCH  70  71
ATOM     71  S   UNL A   1      42.090  19.639  26.121  1.00  0.00     0.124 S 
ATOM     72  O   UNL A   1      40.653  19.643  25.859  1.00  0.00    -0.237 OA
ATOM     73  O   UNL A   1      42.944  19.680  24.937  1.00  0.00    -0.237 OA
ATOM     74  O   UNL A   1      42.528  18.721  27.170  1.00  0.00    -0.744 OA
ENDBRANCH  70  71
ENDBRANCH  51  65
BRANCH  52  75
ATOM     75  C   UNL A   1      43.644  32.893  32.164  1.00  0.00    -0.014 A 
ATOM     76  C   UNL A   1      43.615  33.029  33.562  1.00  0.00     0.010 A 
ATOM     77  C   UNL A   1      43.815  34.042  31.370  1.00  0.00     0.010 A 
ATOM     78  C   UNL A   1      43.740  34.290  34.154  1.00  0.00     0.020 A 
ATOM     79  C   UNL A   1      43.970  35.300  31.959  1.00  0.00     0.020 A 
ATOM     80  C   UNL A   1      43.921  35.418  33.348  1.00  0.00     0.054 A 
BRANCH  80  81
ATOM     81  S   UNL A   1      44.133  37.036  34.141  1.00  0.00     0.124 S 
ATOM     82  O   UNL A   1      45.573  37.074  34.376  1.00  0.00    -0.237 OA
ATOM     83  O   UNL A   1      43.634  37.953  33.120  1.00  0.00    -0.237 OA
ATOM     84  O   UNL A   1      43.304  36.941  35.341  1.00  0.00    -0.744 OA
ENDBRANCH  80  81
ENDBRANCH  52  75
BRANCH  64  85
ATOM     85  C   UNL A   1      48.044  27.574  31.106  1.00  0.00    -0.014 A 
ATOM     86  C   UNL A   1      48.455  26.933  32.287  1.00  0.00     0.010 A 
ATOM     87  C   UNL A   1      49.016  27.990  30.176  1.00  0.00     0.010 A 
ATOM     88  C   UNL A   1      49.814  26.743  32.550  1.00  0.00     0.020 A 
ATOM     89  C   UNL A   1      50.374  27.772  30.420  1.00  0.00     0.020 A 
ATOM     90  C   UNL A   1      50.765  27.162  31.612  1.00  0.00     0.054 A 
BRANCH  90  91
ATOM     91  S   UNL A   1      52.520  26.864  31.958  1.00  0.00     0.124 S 
ATOM     92  O   UNL A   1      52.574  27.017  33.408  1.00  0.00    -0.237 OA
ATOM     93  O   UNL A   1      52.717  25.505  31.461  1.00  0.00    -0.237 OA
ATOM     94  O   UNL A   1      53.205  27.905  31.196  1.00  0.00    -0.744 OA
ENDBRANCH  90  91
ENDBRANCH  64  85
ENDBRANCH  38  39
ENDBRANCH  31  33
ENDBRANCH  30  31
ENDBRANCH  29  30
ENDBRANCH  28  29
ENDBRANCH  27  28
ENDBRANCH   1  27
TORSDOF 21
ENDMDL
