MODEL 1
REMARK VINA RESULT:      -8.6      0.000      0.000
REMARK SMILES O=C(OCCOCCOC(=O)[C@@H]1C[C@H]1c1cccc(F)c1F)c1ccc(-c2c3nc(c(-c4ccc(S(=O)(=O)[O-])cc4)c4ccc([nH]4)c(-c4ccc(S(=O)(=O)[O-])cc4)c4nc(c(-c5ccc(S(=O)(=O)[O-])cc5)c5ccc2[nH]5)C=C4)C=C3)cc1
REMARK SMILES IDX 5 1 4 2 3 3 2 4 1 5 23 6 24 7 82 8 25 9 81 10 26 11 27 12
REMARK SMILES IDX 28 13 75 14 29 15 80 16 74 17 76 18 30 19 79 20 73 21 72 22
REMARK SMILES IDX 31 24 61 25 42 26 60 27 43 28 46 29 59 30 77 31 44 32 45 33
REMARK SMILES IDX 58 35 78 36 47 37 32 38 33 39 41 40 34 41 40 42 35 43 36 44
REMARK SMILES IDX 37 45 38 46 39 47 62 48 63 49 71 50 64 51 70 52 65 53 66 54
REMARK SMILES IDX 67 55 68 56 69 57 48 58 49 59 57 60 50 61 56 62 51 63 52 64
REMARK SMILES IDX 53 65 54 66 55 67 6 68 7 69 8 70 9 71 10 72 11 73 12 74
REMARK SMILES IDX 13 75 14 76 15 77 16 78 21 79 17 80 19 81 22 82 18 83 20 84
REMARK H PARENT 76 23 46 34
REMARK Flexibility Score: inf
ROOT
ATOM      1  C   UNL A   1      34.252  33.446  29.479  1.00  0.00     0.202 C 
ENDROOT
BRANCH   1   2
ATOM      2  C   UNL A   1      34.467  32.634  28.202  1.00  0.00     0.261 C 
BRANCH   2   3
ATOM      3  O   UNL A   1      33.857  31.340  28.307  1.00  0.00    -0.460 OA
BRANCH   3   4
ATOM      4  C   UNL A   1      34.443  30.166  27.965  1.00  0.00     0.338 C 
ATOM      5  O   UNL A   1      33.781  29.284  27.426  1.00  0.00    -0.246 OA
BRANCH   4   6
ATOM      6  C   UNL A   1      35.888  29.935  28.213  1.00  0.00     0.060 A 
ATOM      7  C   UNL A   1      36.369  29.520  29.451  1.00  0.00     0.016 A 
ATOM      8  C   UNL A   1      36.795  30.059  27.158  1.00  0.00     0.016 A 
ATOM      9  C   UNL A   1      37.703  29.340  29.702  1.00  0.00     0.010 A 
ATOM     10  C   UNL A   1      38.144  29.753  27.365  1.00  0.00     0.010 A 
ATOM     11  C   UNL A   1      38.587  29.381  28.642  1.00  0.00    -0.014 A 
BRANCH  11  12
ATOM     12  C   UNL A   1      39.969  29.014  28.957  1.00  0.00     0.031 A 
ATOM     13  C   UNL A   1      40.812  30.001  29.681  1.00  0.00     0.074 A 
ATOM     14  C   UNL A   1      40.363  27.745  28.723  1.00  0.00     0.049 A 
ATOM     15  N   UNL A   1      42.075  29.924  29.981  1.00  0.00    -0.248 NA
ATOM     16  C   UNL A   1      40.148  31.237  30.140  1.00  0.00     0.031 C 
ATOM     17  C   UNL A   1      39.511  26.677  28.173  1.00  0.00     0.029 A 
ATOM     18  N   UNL A   1      41.556  27.121  28.950  1.00  0.00    -0.354 N 
ATOM     19  C   UNL A   1      42.377  31.124  30.606  1.00  0.00     0.074 A 
ATOM     20  C   UNL A   1      41.163  31.904  30.671  1.00  0.00     0.031 C 
ATOM     21  C   UNL A   1      40.208  25.533  28.128  1.00  0.00     0.029 A 
ATOM     22  C   UNL A   1      41.575  25.809  28.534  1.00  0.00     0.049 A 
ATOM     23  H   UNL A   1      42.327  27.566  29.370  1.00  0.00     0.167 HD
ATOM     24  C   UNL A   1      43.584  31.529  31.049  1.00  0.00     0.031 A 
ATOM     25  C   UNL A   1      42.610  24.958  28.428  1.00  0.00     0.031 A 
ATOM     26  C   UNL A   1      44.757  30.707  30.958  1.00  0.00     0.049 A 
ATOM     27  C   UNL A   1      43.962  25.484  28.825  1.00  0.00     0.074 A 
ATOM     28  C   UNL A   1      46.053  31.011  31.329  1.00  0.00     0.029 A 
ATOM     29  N   UNL A   1      44.770  29.413  30.454  1.00  0.00    -0.354 N 
ATOM     30  N   UNL A   1      44.264  26.646  29.362  1.00  0.00    -0.248 NA
ATOM     31  C   UNL A   1      45.112  24.609  28.584  1.00  0.00     0.031 C 
ATOM     32  C   UNL A   1      46.860  29.924  30.982  1.00  0.00     0.029 A 
ATOM     33  C   UNL A   1      46.058  28.915  30.465  1.00  0.00     0.049 A 
ATOM     34  H   UNL A   1      43.978  28.922  30.136  1.00  0.00     0.167 HD
ATOM     35  C   UNL A   1      45.641  26.635  29.532  1.00  0.00     0.074 A 
ATOM     36  C   UNL A   1      46.103  25.338  29.075  1.00  0.00     0.031 C 
ATOM     37  C   UNL A   1      46.457  27.609  30.005  1.00  0.00     0.031 A 
BRANCH  24  38
ATOM     38  C   UNL A   1      43.704  32.935  31.557  1.00  0.00    -0.014 A 
ATOM     39  C   UNL A   1      43.593  33.246  32.923  1.00  0.00     0.010 A 
ATOM     40  C   UNL A   1      43.963  33.966  30.634  1.00  0.00     0.010 A 
ATOM     41  C   UNL A   1      43.738  34.567  33.355  1.00  0.00     0.020 A 
ATOM     42  C   UNL A   1      44.132  35.281  31.065  1.00  0.00     0.020 A 
ATOM     43  C   UNL A   1      44.016  35.574  32.424  1.00  0.00     0.054 A 
BRANCH  43  44
ATOM     44  S   UNL A   1      44.279  37.264  33.025  1.00  0.00     0.124 S 
ATOM     45  O   UNL A   1      43.148  37.443  33.932  1.00  0.00    -0.237 OA
ATOM     46  O   UNL A   1      45.589  37.173  33.664  1.00  0.00    -0.237 OA
ATOM     47  O   UNL A   1      44.236  38.075  31.810  1.00  0.00    -0.744 OA
ENDBRANCH  43  44
ENDBRANCH  24  38
BRANCH  25  48
ATOM     48  C   UNL A   1      42.440  23.609  27.816  1.00  0.00    -0.014 A 
ATOM     49  C   UNL A   1      41.983  22.517  28.574  1.00  0.00     0.010 A 
ATOM     50  C   UNL A   1      42.789  23.395  26.467  1.00  0.00     0.010 A 
ATOM     51  C   UNL A   1      41.928  21.236  28.012  1.00  0.00     0.020 A 
ATOM     52  C   UNL A   1      42.698  22.126  25.890  1.00  0.00     0.020 A 
ATOM     53  C   UNL A   1      42.292  21.048  26.676  1.00  0.00     0.054 A 
BRANCH  53  54
ATOM     54  S   UNL A   1      42.238  19.375  25.976  1.00  0.00     0.124 S 
ATOM     55  O   UNL A   1      42.833  18.581  27.046  1.00  0.00    -0.237 OA
ATOM     56  O   UNL A   1      40.809  19.172  25.755  1.00  0.00    -0.237 OA
ATOM     57  O   UNL A   1      43.040  19.486  24.759  1.00  0.00    -0.744 OA
ENDBRANCH  53  54
ENDBRANCH  25  48
BRANCH  37  58
ATOM     58  C   UNL A   1      47.920  27.283  30.077  1.00  0.00    -0.014 A 
ATOM     59  C   UNL A   1      48.803  27.697  29.065  1.00  0.00     0.010 A 
ATOM     60  C   UNL A   1      48.421  26.621  31.211  1.00  0.00     0.010 A 
ATOM     61  C   UNL A   1      50.166  27.429  29.176  1.00  0.00     0.020 A 
ATOM     62  C   UNL A   1      49.789  26.385  31.343  1.00  0.00     0.020 A 
ATOM     63  C   UNL A   1      50.650  26.781  30.318  1.00  0.00     0.054 A 
BRANCH  63  64
ATOM     64  S   UNL A   1      52.434  26.507  30.468  1.00  0.00     0.124 S 
ATOM     65  O   UNL A   1      52.811  26.208  29.089  1.00  0.00    -0.237 OA
ATOM     66  O   UNL A   1      52.910  27.787  30.986  1.00  0.00    -0.237 OA
ATOM     67  O   UNL A   1      52.536  25.387  31.399  1.00  0.00    -0.744 OA
ENDBRANCH  63  64
ENDBRANCH  37  58
ENDBRANCH  11  12
ENDBRANCH   4   6
ENDBRANCH   3   4
ENDBRANCH   2   3
ENDBRANCH   1   2
BRANCH   1  68
ATOM     68  O   UNL A   1      35.184  33.303  30.546  1.00  0.00    -0.374 OA
BRANCH  68  69
ATOM     69  C   UNL A   1      34.861  32.360  31.567  1.00  0.00     0.202 C 
BRANCH  69  70
ATOM     70  C   UNL A   1      34.291  33.113  32.768  1.00  0.00     0.261 C 
BRANCH  70  71
ATOM     71  O   UNL A   1      35.193  32.937  33.878  1.00  0.00    -0.463 OA
BRANCH  71  72
ATOM     72  C   UNL A   1      36.001  34.003  34.126  1.00  0.00     0.309 C 
ATOM     73  O   UNL A   1      35.737  35.180  33.965  1.00  0.00    -0.252 OA
BRANCH  72  74
ATOM     74  C   UNL A   1      37.309  33.594  34.693  1.00  0.00     0.107 C 
ATOM     75  C   UNL A   1      38.542  34.459  34.720  1.00  0.00     0.025 C 
ATOM     76  C   UNL A   1      38.431  33.375  33.690  1.00  0.00     0.037 C 
BRANCH  76  77
ATOM     77  C   UNL A   1      39.182  32.082  33.681  1.00  0.00    -0.005 A 
ATOM     78  C   UNL A   1      40.445  32.024  34.304  1.00  0.00     0.007 A 
ATOM     79  C   UNL A   1      38.639  30.883  33.207  1.00  0.00     0.162 A 
ATOM     80  C   UNL A   1      41.144  30.823  34.428  1.00  0.00     0.004 A 
ATOM     81  C   UNL A   1      39.337  29.686  33.323  1.00  0.00     0.159 A 
ATOM     82  F   UNL A   1      37.411  30.878  32.665  1.00  0.00    -0.203 F 
ATOM     83  C   UNL A   1      40.588  29.648  33.930  1.00  0.00     0.042 A 
ATOM     84  F   UNL A   1      38.797  28.548  32.866  1.00  0.00    -0.204 F 
ENDBRANCH  76  77
ENDBRANCH  72  74
ENDBRANCH  71  72
ENDBRANCH  70  71
ENDBRANCH  69  70
ENDBRANCH  68  69
ENDBRANCH   1  68
TORSDOF 18
ENDMDL
MODEL 2
REMARK VINA RESULT:      -8.3      3.522     10.544
REMARK SMILES O=C(OCCOCCOC(=O)[C@@H]1C[C@H]1c1cccc(F)c1F)c1ccc(-c2c3nc(c(-c4ccc(S(=O)(=O)[O-])cc4)c4ccc([nH]4)c(-c4ccc(S(=O)(=O)[O-])cc4)c4nc(c(-c5ccc(S(=O)(=O)[O-])cc5)c5ccc2[nH]5)C=C4)C=C3)cc1
REMARK SMILES IDX 5 1 4 2 3 3 2 4 1 5 23 6 24 7 82 8 25 9 81 10 26 11 27 12
REMARK SMILES IDX 28 13 75 14 29 15 80 16 74 17 76 18 30 19 79 20 73 21 72 22
REMARK SMILES IDX 31 24 61 25 42 26 60 27 43 28 46 29 59 30 77 31 44 32 45 33
REMARK SMILES IDX 58 35 78 36 47 37 32 38 33 39 41 40 34 41 40 42 35 43 36 44
REMARK SMILES IDX 37 45 38 46 39 47 62 48 63 49 71 50 64 51 70 52 65 53 66 54
REMARK SMILES IDX 67 55 68 56 69 57 48 58 49 59 57 60 50 61 56 62 51 63 52 64
REMARK SMILES IDX 53 65 54 66 55 67 6 68 7 69 8 70 9 71 10 72 11 73 12 74
REMARK SMILES IDX 13 75 14 76 15 77 16 78 21 79 17 80 19 81 22 82 18 83 20 84
REMARK H PARENT 76 23 46 34
REMARK Flexibility Score: inf
ROOT
ATOM      1  C   UNL A   1      35.747  21.823  24.458  1.00  0.00     0.202 C 
ENDROOT
BRANCH   1   2
ATOM      2  C   UNL A   1      36.973  21.614  25.345  1.00  0.00     0.261 C 
BRANCH   2   3
ATOM      3  O   UNL A   1      37.735  22.823  25.465  1.00  0.00    -0.460 OA
BRANCH   3   4
ATOM      4  C   UNL A   1      38.934  22.938  26.088  1.00  0.00     0.338 C 
ATOM      5  O   UNL A   1      39.718  21.994  26.088  1.00  0.00    -0.246 OA
BRANCH   4   6
ATOM      6  C   UNL A   1      39.326  24.203  26.758  1.00  0.00     0.060 A 
ATOM      7  C   UNL A   1      38.997  24.471  28.084  1.00  0.00     0.016 A 
ATOM      8  C   UNL A   1      40.115  25.129  26.072  1.00  0.00     0.016 A 
ATOM      9  C   UNL A   1      39.321  25.649  28.702  1.00  0.00     0.010 A 
ATOM     10  C   UNL A   1      40.562  26.279  26.729  1.00  0.00     0.010 A 
ATOM     11  C   UNL A   1      40.169  26.525  28.053  1.00  0.00    -0.014 A 
BRANCH  11  12
ATOM     12  C   UNL A   1      40.605  27.681  28.838  1.00  0.00     0.031 A 
ATOM     13  C   UNL A   1      41.990  27.682  29.378  1.00  0.00     0.074 A 
ATOM     14  C   UNL A   1      39.793  28.757  28.898  1.00  0.00     0.049 A 
ATOM     15  N   UNL A   1      42.552  28.550  30.166  1.00  0.00    -0.248 NA
ATOM     16  C   UNL A   1      42.866  26.565  28.973  1.00  0.00     0.031 C 
ATOM     17  C   UNL A   1      38.486  28.875  28.231  1.00  0.00     0.029 A 
ATOM     18  N   UNL A   1      39.953  29.966  29.511  1.00  0.00    -0.354 N 
ATOM     19  C   UNL A   1      43.825  28.057  30.405  1.00  0.00     0.074 A 
ATOM     20  C   UNL A   1      43.969  26.829  29.659  1.00  0.00     0.031 C 
ATOM     21  C   UNL A   1      37.982  30.096  28.457  1.00  0.00     0.029 A 
ATOM     22  C   UNL A   1      38.867  30.799  29.371  1.00  0.00     0.049 A 
ATOM     23  H   UNL A   1      40.767  30.218  30.005  1.00  0.00     0.167 HD
ATOM     24  C   UNL A   1      44.766  28.589  31.212  1.00  0.00     0.031 A 
ATOM     25  C   UNL A   1      38.595  31.966  29.980  1.00  0.00     0.031 A 
ATOM     26  C   UNL A   1      44.566  29.816  31.928  1.00  0.00     0.049 A 
ATOM     27  C   UNL A   1      39.618  32.470  30.960  1.00  0.00     0.074 A 
ATOM     28  C   UNL A   1      45.418  30.446  32.814  1.00  0.00     0.029 A 
ATOM     29  N   UNL A   1      43.422  30.599  31.837  1.00  0.00    -0.354 N 
ATOM     30  N   UNL A   1      40.803  31.973  31.238  1.00  0.00    -0.248 NA
ATOM     31  C   UNL A   1      39.268  33.669  31.727  1.00  0.00     0.031 C 
ATOM     32  C   UNL A   1      44.758  31.572  33.312  1.00  0.00     0.029 A 
ATOM     33  C   UNL A   1      43.527  31.686  32.682  1.00  0.00     0.049 A 
ATOM     34  H   UNL A   1      42.651  30.408  31.257  1.00  0.00     0.167 HD
ATOM     35  C   UNL A   1      41.344  32.806  32.206  1.00  0.00     0.074 A 
ATOM     36  C   UNL A   1      40.372  33.857  32.436  1.00  0.00     0.031 C 
ATOM     37  C   UNL A   1      42.527  32.709  32.862  1.00  0.00     0.031 A 
BRANCH  24  38
ATOM     38  C   UNL A   1      46.020  27.797  31.437  1.00  0.00    -0.014 A 
ATOM     39  C   UNL A   1      46.109  26.811  32.433  1.00  0.00     0.010 A 
ATOM     40  C   UNL A   1      47.127  28.037  30.601  1.00  0.00     0.010 A 
ATOM     41  C   UNL A   1      47.289  26.078  32.591  1.00  0.00     0.020 A 
ATOM     42  C   UNL A   1      48.297  27.290  30.740  1.00  0.00     0.020 A 
ATOM     43  C   UNL A   1      48.371  26.316  31.737  1.00  0.00     0.054 A 
BRANCH  43  44
ATOM     44  S   UNL A   1      49.858  25.294  31.913  1.00  0.00     0.124 S 
ATOM     45  O   UNL A   1      50.825  26.253  32.441  1.00  0.00    -0.237 OA
ATOM     46  O   UNL A   1      49.423  24.260  32.848  1.00  0.00    -0.237 OA
ATOM     47  O   UNL A   1      50.123  24.829  30.553  1.00  0.00    -0.744 OA
ENDBRANCH  43  44
ENDBRANCH  24  38
BRANCH  25  48
ATOM     48  C   UNL A   1      37.283  32.648  29.791  1.00  0.00    -0.014 A 
ATOM     49  C   UNL A   1      37.099  33.609  28.781  1.00  0.00     0.010 A 
ATOM     50  C   UNL A   1      36.212  32.375  30.666  1.00  0.00     0.010 A 
ATOM     51  C   UNL A   1      35.894  34.314  28.684  1.00  0.00     0.020 A 
ATOM     52  C   UNL A   1      34.994  33.048  30.547  1.00  0.00     0.020 A 
ATOM     53  C   UNL A   1      34.852  34.035  29.572  1.00  0.00     0.054 A 
BRANCH  53  54
ATOM     54  S   UNL A   1      33.309  34.980  29.443  1.00  0.00     0.124 S 
ATOM     55  O   UNL A   1      33.791  36.291  29.023  1.00  0.00    -0.237 OA
ATOM     56  O   UNL A   1      32.561  34.227  28.440  1.00  0.00    -0.237 OA
ATOM     57  O   UNL A   1      32.757  34.921  30.796  1.00  0.00    -0.744 OA
ENDBRANCH  53  54
ENDBRANCH  25  48
BRANCH  37  58
ATOM     58  C   UNL A   1      42.833  33.788  33.858  1.00  0.00    -0.014 A 
ATOM     59  C   UNL A   1      43.438  34.991  33.457  1.00  0.00     0.010 A 
ATOM     60  C   UNL A   1      42.439  33.619  35.197  1.00  0.00     0.010 A 
ATOM     61  C   UNL A   1      43.667  36.002  34.389  1.00  0.00     0.020 A 
ATOM     62  C   UNL A   1      42.632  34.643  36.123  1.00  0.00     0.020 A 
ATOM     63  C   UNL A   1      43.256  35.823  35.713  1.00  0.00     0.054 A 
BRANCH  63  64
ATOM     64  S   UNL A   1      43.504  37.180  36.888  1.00  0.00     0.124 S 
ATOM     65  O   UNL A   1      43.696  38.321  35.996  1.00  0.00    -0.237 OA
ATOM     66  O   UNL A   1      42.256  37.176  37.646  1.00  0.00    -0.237 OA
ATOM     67  O   UNL A   1      44.687  36.773  37.642  1.00  0.00    -0.744 OA
ENDBRANCH  63  64
ENDBRANCH  37  58
ENDBRANCH  11  12
ENDBRANCH   4   6
ENDBRANCH   3   4
ENDBRANCH   2   3
ENDBRANCH   1   2
BRANCH   1  68
ATOM     68  O   UNL A   1      34.650  22.572  24.973  1.00  0.00    -0.374 OA
BRANCH  68  69
ATOM     69  C   UNL A   1      33.339  22.098  24.665  1.00  0.00     0.202 C 
BRANCH  69  70
ATOM     70  C   UNL A   1      32.582  23.197  23.922  1.00  0.00     0.261 C 
BRANCH  70  71
ATOM     71  O   UNL A   1      33.517  24.243  23.592  1.00  0.00    -0.463 OA
BRANCH  71  72
ATOM     72  C   UNL A   1      33.001  25.500  23.639  1.00  0.00     0.309 C 
ATOM     73  O   UNL A   1      31.982  25.898  23.104  1.00  0.00    -0.252 OA
BRANCH  72  74
ATOM     74  C   UNL A   1      33.807  26.406  24.493  1.00  0.00     0.107 C 
ATOM     75  C   UNL A   1      34.420  26.022  25.815  1.00  0.00     0.025 C 
ATOM     76  C   UNL A   1      33.162  26.839  25.800  1.00  0.00     0.037 C 
BRANCH  76  77
ATOM     77  C   UNL A   1      33.047  28.293  26.129  1.00  0.00    -0.005 A 
ATOM     78  C   UNL A   1      31.847  28.967  25.825  1.00  0.00     0.007 A 
ATOM     79  C   UNL A   1      34.017  28.996  26.852  1.00  0.00     0.162 A 
ATOM     80  C   UNL A   1      31.635  30.292  26.208  1.00  0.00     0.004 A 
ATOM     81  C   UNL A   1      33.812  30.319  27.228  1.00  0.00     0.159 A 
ATOM     82  F   UNL A   1      35.149  28.375  27.221  1.00  0.00    -0.203 F 
ATOM     83  C   UNL A   1      32.626  30.973  26.909  1.00  0.00     0.042 A 
ATOM     84  F   UNL A   1      34.753  30.972  27.924  1.00  0.00    -0.204 F 
ENDBRANCH  76  77
ENDBRANCH  72  74
ENDBRANCH  71  72
ENDBRANCH  70  71
ENDBRANCH  69  70
ENDBRANCH  68  69
ENDBRANCH   1  68
TORSDOF 18
ENDMDL
MODEL 3
REMARK VINA RESULT:      -8.3      5.383     10.640
REMARK SMILES O=C(OCCOCCOC(=O)[C@@H]1C[C@H]1c1cccc(F)c1F)c1ccc(-c2c3nc(c(-c4ccc(S(=O)(=O)[O-])cc4)c4ccc([nH]4)c(-c4ccc(S(=O)(=O)[O-])cc4)c4nc(c(-c5ccc(S(=O)(=O)[O-])cc5)c5ccc2[nH]5)C=C4)C=C3)cc1
REMARK SMILES IDX 5 1 4 2 3 3 2 4 1 5 23 6 24 7 82 8 25 9 81 10 26 11 27 12
REMARK SMILES IDX 28 13 75 14 29 15 80 16 74 17 76 18 30 19 79 20 73 21 72 22
REMARK SMILES IDX 31 24 61 25 42 26 60 27 43 28 46 29 59 30 77 31 44 32 45 33
REMARK SMILES IDX 58 35 78 36 47 37 32 38 33 39 41 40 34 41 40 42 35 43 36 44
REMARK SMILES IDX 37 45 38 46 39 47 62 48 63 49 71 50 64 51 70 52 65 53 66 54
REMARK SMILES IDX 67 55 68 56 69 57 48 58 49 59 57 60 50 61 56 62 51 63 52 64
REMARK SMILES IDX 53 65 54 66 55 67 6 68 7 69 8 70 9 71 10 72 11 73 12 74
REMARK SMILES IDX 13 75 14 76 15 77 16 78 21 79 17 80 19 81 22 82 18 83 20 84
REMARK H PARENT 76 23 46 34
REMARK Flexibility Score: inf
ROOT
ATOM      1  C   UNL A   1      38.618  21.765  25.689  1.00  0.00     0.202 C 
ENDROOT
BRANCH   1   2
ATOM      2  C   UNL A   1      39.005  20.317  25.390  1.00  0.00     0.261 C 
BRANCH   2   3
ATOM      3  O   UNL A   1      39.998  19.849  26.312  1.00  0.00    -0.460 OA
BRANCH   3   4
ATOM      4  C   UNL A   1      41.340  19.946  26.139  1.00  0.00     0.338 C 
ATOM      5  O   UNL A   1      41.973  18.989  25.705  1.00  0.00    -0.246 OA
BRANCH   4   6
ATOM      6  C   UNL A   1      42.058  21.209  26.447  1.00  0.00     0.060 A 
ATOM      7  C   UNL A   1      42.333  22.161  25.471  1.00  0.00     0.016 A 
ATOM      8  C   UNL A   1      42.404  21.497  27.769  1.00  0.00     0.016 A 
ATOM      9  C   UNL A   1      43.027  23.311  25.736  1.00  0.00     0.010 A 
ATOM     10  C   UNL A   1      42.998  22.724  28.077  1.00  0.00     0.010 A 
ATOM     11  C   UNL A   1      43.295  23.633  27.052  1.00  0.00    -0.014 A 
BRANCH  11  12
ATOM     12  C   UNL A   1      43.887  24.954  27.271  1.00  0.00     0.031 A 
ATOM     13  C   UNL A   1      43.016  26.037  27.798  1.00  0.00     0.074 A 
ATOM     14  C   UNL A   1      45.223  25.086  27.140  1.00  0.00     0.049 A 
ATOM     15  N   UNL A   1      43.303  27.291  27.982  1.00  0.00    -0.248 NA
ATOM     16  C   UNL A   1      41.641  25.661  28.181  1.00  0.00     0.031 C 
ATOM     17  C   UNL A   1      46.155  24.000  26.794  1.00  0.00     0.029 A 
ATOM     18  N   UNL A   1      46.038  26.166  27.318  1.00  0.00    -0.354 N 
ATOM     19  C   UNL A   1      42.131  27.872  28.441  1.00  0.00     0.074 A 
ATOM     20  C   UNL A   1      41.133  26.833  28.536  1.00  0.00     0.031 C 
ATOM     21  C   UNL A   1      47.411  24.472  26.807  1.00  0.00     0.029 A 
ATOM     22  C   UNL A   1      47.362  25.904  27.048  1.00  0.00     0.049 A 
ATOM     23  H   UNL A   1      45.711  27.048  27.611  1.00  0.00     0.167 HD
ATOM     24  C   UNL A   1      41.923  29.175  28.719  1.00  0.00     0.031 A 
ATOM     25  C   UNL A   1      48.400  26.752  26.936  1.00  0.00     0.031 A 
ATOM     26  C   UNL A   1      42.957  30.164  28.606  1.00  0.00     0.049 A 
ATOM     27  C   UNL A   1      48.105  28.212  27.142  1.00  0.00     0.074 A 
ATOM     28  C   UNL A   1      42.872  31.527  28.815  1.00  0.00     0.029 A 
ATOM     29  N   UNL A   1      44.270  29.888  28.247  1.00  0.00    -0.354 N 
ATOM     30  N   UNL A   1      46.978  28.776  27.517  1.00  0.00    -0.248 NA
ATOM     31  C   UNL A   1      49.200  29.152  26.888  1.00  0.00     0.031 C 
ATOM     32  C   UNL A   1      44.118  32.082  28.513  1.00  0.00     0.029 A 
ATOM     33  C   UNL A   1      44.999  31.059  28.188  1.00  0.00     0.049 A 
ATOM     34  H   UNL A   1      44.629  28.991  28.062  1.00  0.00     0.167 HD
ATOM     35  C   UNL A   1      47.233  30.138  27.554  1.00  0.00     0.074 A 
ATOM     36  C   UNL A   1      48.630  30.307  27.199  1.00  0.00     0.031 C 
ATOM     37  C   UNL A   1      46.393  31.164  27.838  1.00  0.00     0.031 A 
BRANCH  24  38
ATOM     38  C   UNL A   1      40.525  29.601  29.056  1.00  0.00    -0.014 A 
ATOM     39  C   UNL A   1      39.524  29.712  28.077  1.00  0.00     0.010 A 
ATOM     40  C   UNL A   1      40.208  29.870  30.401  1.00  0.00     0.010 A 
ATOM     41  C   UNL A   1      38.227  30.087  28.440  1.00  0.00     0.020 A 
ATOM     42  C   UNL A   1      38.909  30.220  30.769  1.00  0.00     0.020 A 
ATOM     43  C   UNL A   1      37.927  30.329  29.785  1.00  0.00     0.054 A 
BRANCH  43  44
ATOM     44  S   UNL A   1      36.217  30.734  30.234  1.00  0.00     0.124 S 
ATOM     45  O   UNL A   1      35.913  29.705  31.226  1.00  0.00    -0.237 OA
ATOM     46  O   UNL A   1      36.340  32.093  30.755  1.00  0.00    -0.237 OA
ATOM     47  O   UNL A   1      35.490  30.616  28.972  1.00  0.00    -0.744 OA
ENDBRANCH  43  44
ENDBRANCH  24  38
BRANCH  25  48
ATOM     48  C   UNL A   1      49.741  26.274  26.495  1.00  0.00    -0.014 A 
ATOM     49  C   UNL A   1      50.664  25.741  27.412  1.00  0.00     0.010 A 
ATOM     50  C   UNL A   1      50.128  26.401  25.145  1.00  0.00     0.010 A 
ATOM     51  C   UNL A   1      51.956  25.394  26.998  1.00  0.00     0.020 A 
ATOM     52  C   UNL A   1      51.403  26.020  24.720  1.00  0.00     0.020 A 
ATOM     53  C   UNL A   1      52.319  25.543  25.657  1.00  0.00     0.054 A 
BRANCH  53  54
ATOM     54  S   UNL A   1      54.007  25.112  25.149  1.00  0.00     0.124 S 
ATOM     55  O   UNL A   1      54.794  25.588  26.282  1.00  0.00    -0.237 OA
ATOM     56  O   UNL A   1      53.929  23.662  24.995  1.00  0.00    -0.237 OA
ATOM     57  O   UNL A   1      54.190  25.855  23.904  1.00  0.00    -0.744 OA
ENDBRANCH  53  54
ENDBRANCH  25  48
BRANCH  37  58
ATOM     58  C   UNL A   1      46.982  32.544  27.804  1.00  0.00    -0.014 A 
ATOM     59  C   UNL A   1      47.620  33.085  28.933  1.00  0.00     0.010 A 
ATOM     60  C   UNL A   1      46.958  33.272  26.602  1.00  0.00     0.010 A 
ATOM     61  C   UNL A   1      48.206  34.348  28.866  1.00  0.00     0.020 A 
ATOM     62  C   UNL A   1      47.576  34.519  26.521  1.00  0.00     0.020 A 
ATOM     63  C   UNL A   1      48.185  35.052  27.657  1.00  0.00     0.054 A 
BRANCH  63  64
ATOM     64  S   UNL A   1      49.014  36.661  27.580  1.00  0.00     0.124 S 
ATOM     65  O   UNL A   1      47.884  37.578  27.452  1.00  0.00    -0.237 OA
ATOM     66  O   UNL A   1      49.726  36.714  28.853  1.00  0.00    -0.237 OA
ATOM     67  O   UNL A   1      49.866  36.555  26.399  1.00  0.00    -0.744 OA
ENDBRANCH  63  64
ENDBRANCH  37  58
ENDBRANCH  11  12
ENDBRANCH   4   6
ENDBRANCH   3   4
ENDBRANCH   2   3
ENDBRANCH   1   2
BRANCH   1  68
ATOM     68  O   UNL A   1      37.249  22.142  25.586  1.00  0.00    -0.374 OA
BRANCH  68  69
ATOM     69  C   UNL A   1      36.966  23.538  25.488  1.00  0.00     0.202 C 
BRANCH  69  70
ATOM     70  C   UNL A   1      35.583  23.802  26.081  1.00  0.00     0.261 C 
BRANCH  70  71
ATOM     71  O   UNL A   1      34.595  23.391  25.116  1.00  0.00    -0.463 OA
BRANCH  71  72
ATOM     72  C   UNL A   1      33.899  22.273  25.458  1.00  0.00     0.309 C 
ATOM     73  O   UNL A   1      33.408  22.014  26.541  1.00  0.00    -0.252 OA
BRANCH  72  74
ATOM     74  C   UNL A   1      33.732  21.345  24.313  1.00  0.00     0.107 C 
ATOM     75  C   UNL A   1      32.637  21.440  23.283  1.00  0.00     0.025 C 
ATOM     76  C   UNL A   1      32.527  20.420  24.376  1.00  0.00     0.037 C 
BRANCH  76  77
ATOM     77  C   UNL A   1      32.712  18.943  24.231  1.00  0.00    -0.005 A 
ATOM     78  C   UNL A   1      33.000  18.415  22.957  1.00  0.00     0.007 A 
ATOM     79  C   UNL A   1      32.753  18.064  25.319  1.00  0.00     0.162 A 
ATOM     80  C   UNL A   1      33.295  17.064  22.775  1.00  0.00     0.004 A 
ATOM     81  C   UNL A   1      33.040  16.715  25.139  1.00  0.00     0.159 A 
ATOM     82  F   UNL A   1      32.551  18.534  26.561  1.00  0.00    -0.203 F 
ATOM     83  C   UNL A   1      33.309  16.208  23.872  1.00  0.00     0.042 A 
ATOM     84  F   UNL A   1      33.078  15.892  26.196  1.00  0.00    -0.204 F 
ENDBRANCH  76  77
ENDBRANCH  72  74
ENDBRANCH  71  72
ENDBRANCH  70  71
ENDBRANCH  69  70
ENDBRANCH  68  69
ENDBRANCH   1  68
TORSDOF 18
ENDMDL
