MODEL 1
REMARK VINA RESULT:     -11.3      0.000      0.000
REMARK SMILES CC(=O)N[C@@H](CS[C@@H]1CC(=O)N(c2cccc3ccccc23)C1=O)C(=O)OCCOCCOC(=O)c1ccc(-c2c3nc(c(-c4ccc(S(=O)(=O)[O-])cc4)c4ccc([nH]4)c(-c4ccc(S(=O)(=O)[O-])cc4)c4nc(c(-c5ccc(S(=O)(=O)[O-])cc5)c5ccc2[nH]5)C=C4)C=C3)cc1
REMARK SMILES IDX 29 1 28 2 27 3 25 4 26 5 5 6 4 7 1 8 2 9 3 10 6 12 7 13 8 14
REMARK SMILES IDX 9 15 23 16 10 17 12 18 24 19 11 20 13 21 14 22 22 23 15 24
REMARK SMILES IDX 17 25 21 26 16 27 18 28 20 29 19 30 30 31 31 32 32 33 33 34
REMARK SMILES IDX 34 35 35 36 36 37 37 38 95 39 38 40 94 41 39 42 40 43 41 44
REMARK SMILES IDX 88 45 42 46 93 47 87 48 89 49 43 50 92 51 86 52 85 53 44 55
REMARK SMILES IDX 74 56 55 57 73 58 56 59 59 60 72 61 90 62 57 63 58 64 71 66
REMARK SMILES IDX 91 67 60 68 45 69 46 70 54 71 47 72 53 73 48 74 49 75 50 76
REMARK SMILES IDX 51 77 52 78 75 79 76 80 84 81 77 82 83 83 78 84 79 85 80 86
REMARK SMILES IDX 81 87 82 88 61 89 62 90 70 91 63 92 69 93 64 94 65 95 66 96
REMARK SMILES IDX 67 97 68 98
REMARK H PARENT 4 11 89 54 59 65
REMARK Flexibility Score: inf
ROOT
ATOM      1  C   UNL A   1      33.295  30.794  27.485  1.00  0.00     0.202 C 
ENDROOT
BRANCH   1   2
ATOM      2  C   UNL A   1      32.171  31.011  26.466  1.00  0.00     0.261 C 
BRANCH   2   3
ATOM      3  O   UNL A   1      31.621  29.750  26.058  1.00  0.00    -0.462 OA
BRANCH   3   4
ATOM      4  C   UNL A   1      31.884  29.367  24.774  1.00  0.00     0.329 C 
ATOM      5  O   UNL A   1      32.965  29.472  24.209  1.00  0.00    -0.250 OA
BRANCH   4   6
ATOM      6  C   UNL A   1      30.609  28.844  24.093  1.00  0.00     0.202 C 
BRANCH   6   7
ATOM      7  N   UNL A   1      30.391  29.526  22.811  1.00  0.00    -0.342 N 
ATOM      8  C   UNL A   1      27.927  29.644  22.858  1.00  0.00     0.114 C 
ATOM      9  C   UNL A   1      29.243  29.887  22.182  1.00  0.00     0.217 C 
ATOM     10  O   UNL A   1      29.314  30.448  21.092  1.00  0.00    -0.275 OA
ATOM     11  H   UNL A   1      31.215  29.762  22.327  1.00  0.00     0.164 HD
ENDBRANCH   6   7
BRANCH   6  12
ATOM     12  C   UNL A   1      30.642  27.304  23.933  1.00  0.00     0.107 C 
BRANCH  12  13
ATOM     13  S   UNL A   1      31.194  26.303  25.386  1.00  0.00    -0.145 SA
BRANCH  13  14
ATOM     14  C   UNL A   1      32.752  25.480  24.889  1.00  0.00     0.146 C 
ATOM     15  C   UNL A   1      33.003  25.342  23.420  1.00  0.00     0.125 C 
ATOM     16  C   UNL A   1      32.925  24.082  25.433  1.00  0.00     0.247 C 
ATOM     17  C   UNL A   1      33.621  23.996  23.279  1.00  0.00     0.235 C 
ATOM     18  N   UNL A   1      33.320  23.252  24.401  1.00  0.00    -0.249 N 
ATOM     19  O   UNL A   1      32.861  23.830  26.629  1.00  0.00    -0.273 OA
ATOM     20  O   UNL A   1      34.183  23.674  22.241  1.00  0.00    -0.274 OA
BRANCH  18  21
ATOM     21  C   UNL A   1      33.539  21.833  24.497  1.00  0.00     0.060 A 
ATOM     22  C   UNL A   1      32.410  20.986  24.473  1.00  0.00     0.027 A 
ATOM     23  C   UNL A   1      34.839  21.229  24.655  1.00  0.00     0.006 A 
ATOM     24  C   UNL A   1      32.516  19.605  24.577  1.00  0.00     0.003 A 
ATOM     25  C   UNL A   1      34.921  19.806  24.705  1.00  0.00    -0.016 A 
ATOM     26  C   UNL A   1      36.076  21.909  24.827  1.00  0.00     0.011 A 
ATOM     27  C   UNL A   1      33.765  19.021  24.676  1.00  0.00     0.009 A 
ATOM     28  C   UNL A   1      36.160  19.151  24.804  1.00  0.00     0.009 A 
ATOM     29  C   UNL A   1      37.306  21.248  24.909  1.00  0.00     0.001 A 
ATOM     30  C   UNL A   1      37.350  19.866  24.882  1.00  0.00     0.001 A 
ENDBRANCH  18  21
ENDBRANCH  13  14
ENDBRANCH  12  13
ENDBRANCH   6  12
ENDBRANCH   4   6
ENDBRANCH   3   4
ENDBRANCH   2   3
ENDBRANCH   1   2
BRANCH   1  31
ATOM     31  O   UNL A   1      34.312  31.798  27.536  1.00  0.00    -0.374 OA
BRANCH  31  32
ATOM     32  C   UNL A   1      34.394  32.608  28.707  1.00  0.00     0.202 C 
BRANCH  32  33
ATOM     33  C   UNL A   1      35.080  32.007  29.945  1.00  0.00     0.261 C 
BRANCH  33  34
ATOM     34  O   UNL A   1      35.759  30.763  29.694  1.00  0.00    -0.460 OA
BRANCH  34  35
ATOM     35  C   UNL A   1      36.581  30.377  30.700  1.00  0.00     0.338 C 
ATOM     36  O   UNL A   1      36.248  29.947  31.801  1.00  0.00    -0.246 OA
BRANCH  35  37
ATOM     37  C   UNL A   1      37.987  30.364  30.271  1.00  0.00     0.060 A 
ATOM     38  C   UNL A   1      38.231  30.321  28.892  1.00  0.00     0.016 A 
ATOM     39  C   UNL A   1      39.039  30.244  31.182  1.00  0.00     0.016 A 
ATOM     40  C   UNL A   1      39.521  30.098  28.418  1.00  0.00     0.010 A 
ATOM     41  C   UNL A   1      40.337  30.016  30.701  1.00  0.00     0.010 A 
ATOM     42  C   UNL A   1      40.577  29.900  29.319  1.00  0.00    -0.014 A 
BRANCH  42  43
ATOM     43  C   UNL A   1      41.884  29.423  28.797  1.00  0.00     0.031 A 
ATOM     44  C   UNL A   1      43.042  30.384  28.718  1.00  0.00     0.074 A 
ATOM     45  C   UNL A   1      42.059  28.129  28.468  1.00  0.00     0.049 A 
ATOM     46  N   UNL A   1      44.273  30.165  28.332  1.00  0.00    -0.248 NA
ATOM     47  C   UNL A   1      42.779  31.772  29.133  1.00  0.00     0.031 C 
ATOM     48  C   UNL A   1      41.034  27.091  28.549  1.00  0.00     0.029 A 
ATOM     49  N   UNL A   1      43.172  27.470  28.008  1.00  0.00    -0.354 N 
ATOM     50  C   UNL A   1      44.931  31.384  28.453  1.00  0.00     0.074 A 
ATOM     51  C   UNL A   1      43.954  32.346  28.918  1.00  0.00     0.031 C 
ATOM     52  C   UNL A   1      41.566  25.921  28.155  1.00  0.00     0.029 A 
ATOM     53  C   UNL A   1      42.959  26.133  27.768  1.00  0.00     0.049 A 
ATOM     54  H   UNL A   1      44.040  27.912  27.865  1.00  0.00     0.167 HD
ATOM     55  C   UNL A   1      46.231  31.678  28.208  1.00  0.00     0.031 A 
ATOM     56  C   UNL A   1      43.789  25.190  27.279  1.00  0.00     0.031 A 
ATOM     57  C   UNL A   1      47.201  30.724  27.737  1.00  0.00     0.049 A 
ATOM     58  C   UNL A   1      45.212  25.555  26.947  1.00  0.00     0.074 A 
ATOM     59  C   UNL A   1      48.545  30.924  27.469  1.00  0.00     0.029 A 
ATOM     60  N   UNL A   1      46.932  29.393  27.456  1.00  0.00    -0.354 N 
ATOM     61  N   UNL A   1      45.820  26.709  27.086  1.00  0.00    -0.248 NA
ATOM     62  C   UNL A   1      46.061  24.488  26.400  1.00  0.00     0.031 C 
ATOM     63  C   UNL A   1      49.075  29.728  26.975  1.00  0.00     0.029 A 
ATOM     64  C   UNL A   1      48.077  28.766  26.994  1.00  0.00     0.049 A 
ATOM     65  H   UNL A   1      46.057  28.958  27.570  1.00  0.00     0.167 HD
ATOM     66  C   UNL A   1      47.132  26.498  26.669  1.00  0.00     0.074 A 
ATOM     67  C   UNL A   1      47.230  25.104  26.287  1.00  0.00     0.031 C 
ATOM     68  C   UNL A   1      48.162  27.379  26.612  1.00  0.00     0.031 A 
BRANCH  55  69
ATOM     69  C   UNL A   1      46.674  33.103  28.414  1.00  0.00    -0.014 A 
ATOM     70  C   UNL A   1      47.282  33.513  29.614  1.00  0.00     0.010 A 
ATOM     71  C   UNL A   1      46.514  34.037  27.373  1.00  0.00     0.010 A 
ATOM     72  C   UNL A   1      47.687  34.841  29.783  1.00  0.00     0.020 A 
ATOM     73  C   UNL A   1      46.942  35.359  27.530  1.00  0.00     0.020 A 
ATOM     74  C   UNL A   1      47.511  35.756  28.741  1.00  0.00     0.054 A 
BRANCH  74  75
ATOM     75  S   UNL A   1      48.064  37.468  28.980  1.00  0.00     0.124 S 
ATOM     76  O   UNL A   1      49.358  37.463  28.300  1.00  0.00    -0.237 OA
ATOM     77  O   UNL A   1      47.013  38.239  28.324  1.00  0.00    -0.237 OA
ATOM     78  O   UNL A   1      48.126  37.613  30.433  1.00  0.00    -0.744 OA
ENDBRANCH  74  75
ENDBRANCH  55  69
BRANCH  56  79
ATOM     79  C   UNL A   1      43.289  23.804  27.061  1.00  0.00    -0.014 A 
ATOM     80  C   UNL A   1      42.820  23.396  25.801  1.00  0.00     0.010 A 
ATOM     81  C   UNL A   1      43.284  22.882  28.124  1.00  0.00     0.010 A 
ATOM     82  C   UNL A   1      42.340  22.096  25.612  1.00  0.00     0.020 A 
ATOM     83  C   UNL A   1      42.832  21.573  27.932  1.00  0.00     0.020 A 
ATOM     84  C   UNL A   1      42.351  21.192  26.678  1.00  0.00     0.054 A 
BRANCH  84  85
ATOM     85  S   UNL A   1      41.775  19.494  26.396  1.00  0.00     0.124 S 
ATOM     86  O   UNL A   1      40.330  19.677  26.298  1.00  0.00    -0.237 OA
ATOM     87  O   UNL A   1      42.453  19.134  25.153  1.00  0.00    -0.237 OA
ATOM     88  O   UNL A   1      42.239  18.775  27.580  1.00  0.00    -0.744 OA
ENDBRANCH  84  85
ENDBRANCH  56  79
BRANCH  68  89
ATOM     89  C   UNL A   1      49.496  26.857  26.148  1.00  0.00    -0.014 A 
ATOM     90  C   UNL A   1      50.025  27.213  24.894  1.00  0.00     0.010 A 
ATOM     91  C   UNL A   1      50.255  26.035  27.002  1.00  0.00     0.010 A 
ATOM     92  C   UNL A   1      51.272  26.727  24.489  1.00  0.00     0.020 A 
ATOM     93  C   UNL A   1      51.514  25.571  26.613  1.00  0.00     0.020 A 
ATOM     94  C   UNL A   1      52.008  25.908  25.351  1.00  0.00     0.054 A 
BRANCH  94  95
ATOM     95  S   UNL A   1      53.638  25.318  24.818  1.00  0.00     0.124 S 
ATOM     96  O   UNL A   1      53.585  23.906  25.183  1.00  0.00    -0.237 OA
ATOM     97  O   UNL A   1      53.628  25.597  23.383  1.00  0.00    -0.237 OA
ATOM     98  O   UNL A   1      54.573  26.129  25.596  1.00  0.00    -0.744 OA
ENDBRANCH  94  95
ENDBRANCH  68  89
ENDBRANCH  42  43
ENDBRANCH  35  37
ENDBRANCH  34  35
ENDBRANCH  33  34
ENDBRANCH  32  33
ENDBRANCH  31  32
ENDBRANCH   1  31
TORSDOF 22
ENDMDL
MODEL 2
REMARK VINA RESULT:     -10.9      1.266      2.238
REMARK SMILES CC(=O)N[C@@H](CS[C@@H]1CC(=O)N(c2cccc3ccccc23)C1=O)C(=O)OCCOCCOC(=O)c1ccc(-c2c3nc(c(-c4ccc(S(=O)(=O)[O-])cc4)c4ccc([nH]4)c(-c4ccc(S(=O)(=O)[O-])cc4)c4nc(c(-c5ccc(S(=O)(=O)[O-])cc5)c5ccc2[nH]5)C=C4)C=C3)cc1
REMARK SMILES IDX 29 1 28 2 27 3 25 4 26 5 5 6 4 7 1 8 2 9 3 10 6 12 7 13 8 14
REMARK SMILES IDX 9 15 23 16 10 17 12 18 24 19 11 20 13 21 14 22 22 23 15 24
REMARK SMILES IDX 17 25 21 26 16 27 18 28 20 29 19 30 30 31 31 32 32 33 33 34
REMARK SMILES IDX 34 35 35 36 36 37 37 38 95 39 38 40 94 41 39 42 40 43 41 44
REMARK SMILES IDX 88 45 42 46 93 47 87 48 89 49 43 50 92 51 86 52 85 53 44 55
REMARK SMILES IDX 74 56 55 57 73 58 56 59 59 60 72 61 90 62 57 63 58 64 71 66
REMARK SMILES IDX 91 67 60 68 45 69 46 70 54 71 47 72 53 73 48 74 49 75 50 76
REMARK SMILES IDX 51 77 52 78 75 79 76 80 84 81 77 82 83 83 78 84 79 85 80 86
REMARK SMILES IDX 81 87 82 88 61 89 62 90 70 91 63 92 69 93 64 94 65 95 66 96
REMARK SMILES IDX 67 97 68 98
REMARK H PARENT 4 11 89 54 59 65
REMARK Flexibility Score: inf
ROOT
ATOM      1  C   UNL A   1      31.510  30.221  25.816  1.00  0.00     0.202 C 
ENDROOT
BRANCH   1   2
ATOM      2  C   UNL A   1      32.032  29.025  25.011  1.00  0.00     0.261 C 
BRANCH   2   3
ATOM      3  O   UNL A   1      31.643  29.147  23.635  1.00  0.00    -0.462 OA
BRANCH   3   4
ATOM      4  C   UNL A   1      30.490  28.507  23.278  1.00  0.00     0.329 C 
ATOM      5  O   UNL A   1      29.358  28.940  23.444  1.00  0.00    -0.250 OA
BRANCH   4   6
ATOM      6  C   UNL A   1      30.800  27.119  22.695  1.00  0.00     0.202 C 
BRANCH   6   7
ATOM      7  N   UNL A   1      32.250  26.916  22.587  1.00  0.00    -0.342 N 
ATOM      8  C   UNL A   1      32.302  25.704  20.438  1.00  0.00     0.114 C 
ATOM      9  C   UNL A   1      32.988  26.279  21.641  1.00  0.00     0.217 C 
ATOM     10  O   UNL A   1      34.208  26.230  21.773  1.00  0.00    -0.275 OA
ATOM     11  H   UNL A   1      32.775  27.309  23.321  1.00  0.00     0.164 HD
ENDBRANCH   6   7
BRANCH   6  12
ATOM     12  C   UNL A   1      30.117  25.996  23.514  1.00  0.00     0.107 C 
BRANCH  12  13
ATOM     13  S   UNL A   1      30.468  25.922  25.328  1.00  0.00    -0.145 SA
BRANCH  13  14
ATOM     14  C   UNL A   1      31.081  24.231  25.671  1.00  0.00     0.146 C 
ATOM     15  C   UNL A   1      31.294  23.868  27.106  1.00  0.00     0.125 C 
ATOM     16  C   UNL A   1      32.389  23.889  24.998  1.00  0.00     0.247 C 
ATOM     17  C   UNL A   1      32.537  23.052  27.098  1.00  0.00     0.235 C 
ATOM     18  N   UNL A   1      33.228  23.312  25.932  1.00  0.00    -0.249 N 
ATOM     19  O   UNL A   1      32.553  23.992  23.789  1.00  0.00    -0.273 OA
ATOM     20  O   UNL A   1      32.851  22.383  28.073  1.00  0.00    -0.274 OA
BRANCH  18  21
ATOM     21  C   UNL A   1      34.585  22.893  25.701  1.00  0.00     0.060 A 
ATOM     22  C   UNL A   1      35.604  23.864  25.807  1.00  0.00     0.027 A 
ATOM     23  C   UNL A   1      34.961  21.550  25.331  1.00  0.00     0.006 A 
ATOM     24  C   UNL A   1      36.942  23.563  25.585  1.00  0.00     0.003 A 
ATOM     25  C   UNL A   1      36.347  21.259  25.164  1.00  0.00    -0.016 A 
ATOM     26  C   UNL A   1      34.081  20.469  25.053  1.00  0.00     0.011 A 
ATOM     27  C   UNL A   1      37.309  22.265  25.282  1.00  0.00     0.009 A 
ATOM     28  C   UNL A   1      36.785  19.960  24.856  1.00  0.00     0.009 A 
ATOM     29  C   UNL A   1      34.528  19.175  24.764  1.00  0.00     0.001 A 
ATOM     30  C   UNL A   1      35.884  18.916  24.680  1.00  0.00     0.001 A 
ENDBRANCH  18  21
ENDBRANCH  13  14
ENDBRANCH  12  13
ENDBRANCH   6  12
ENDBRANCH   4   6
ENDBRANCH   3   4
ENDBRANCH   2   3
ENDBRANCH   1   2
BRANCH   1  31
ATOM     31  O   UNL A   1      32.018  30.366  27.145  1.00  0.00    -0.374 OA
BRANCH  31  32
ATOM     32  C   UNL A   1      33.404  30.666  27.303  1.00  0.00     0.202 C 
BRANCH  32  33
ATOM     33  C   UNL A   1      34.282  29.628  28.020  1.00  0.00     0.261 C 
BRANCH  33  34
ATOM     34  O   UNL A   1      35.692  29.913  27.964  1.00  0.00    -0.460 OA
BRANCH  34  35
ATOM     35  C   UNL A   1      36.348  29.646  29.120  1.00  0.00     0.338 C 
ATOM     36  O   UNL A   1      35.852  29.297  30.187  1.00  0.00    -0.246 OA
BRANCH  35  37
ATOM     37  C   UNL A   1      37.806  29.653  28.924  1.00  0.00     0.060 A 
ATOM     38  C   UNL A   1      38.270  29.714  27.604  1.00  0.00     0.016 A 
ATOM     39  C   UNL A   1      38.696  29.451  29.981  1.00  0.00     0.016 A 
ATOM     40  C   UNL A   1      39.620  29.515  27.329  1.00  0.00     0.010 A 
ATOM     41  C   UNL A   1      40.056  29.249  29.700  1.00  0.00     0.010 A 
ATOM     42  C   UNL A   1      40.516  29.237  28.370  1.00  0.00    -0.014 A 
BRANCH  42  43
ATOM     43  C   UNL A   1      41.892  28.790  28.031  1.00  0.00     0.031 A 
ATOM     44  C   UNL A   1      43.018  29.791  28.040  1.00  0.00     0.074 A 
ATOM     45  C   UNL A   1      42.150  27.490  27.790  1.00  0.00     0.049 A 
ATOM     46  N   UNL A   1      44.293  29.603  27.814  1.00  0.00    -0.248 NA
ATOM     47  C   UNL A   1      42.660  31.185  28.351  1.00  0.00     0.031 C 
ATOM     48  C   UNL A   1      41.158  26.416  27.802  1.00  0.00     0.029 A 
ATOM     49  N   UNL A   1      43.331  26.855  27.499  1.00  0.00    -0.354 N 
ATOM     50  C   UNL A   1      44.890  30.852  27.951  1.00  0.00     0.074 A 
ATOM     51  C   UNL A   1      43.833  31.795  28.248  1.00  0.00     0.031 C 
ATOM     52  C   UNL A   1      41.773  25.252  27.533  1.00  0.00     0.029 A 
ATOM     53  C   UNL A   1      43.194  25.501  27.303  1.00  0.00     0.049 A 
ATOM     54  H   UNL A   1      44.194  27.324  27.437  1.00  0.00     0.167 HD
ATOM     55  C   UNL A   1      46.199  31.185  27.846  1.00  0.00     0.031 A 
ATOM     56  C   UNL A   1      44.108  24.570  26.964  1.00  0.00     0.031 A 
ATOM     57  C   UNL A   1      47.251  30.251  27.541  1.00  0.00     0.049 A 
ATOM     58  C   UNL A   1      45.547  24.975  26.784  1.00  0.00     0.074 A 
ATOM     59  C   UNL A   1      48.610  30.492  27.424  1.00  0.00     0.029 A 
ATOM     60  N   UNL A   1      47.063  28.899  27.298  1.00  0.00    -0.354 N 
ATOM     61  N   UNL A   1      46.095  26.158  26.935  1.00  0.00    -0.248 NA
ATOM     62  C   UNL A   1      46.492  23.919  26.396  1.00  0.00     0.031 C 
ATOM     63  C   UNL A   1      49.235  29.296  27.057  1.00  0.00     0.029 A 
ATOM     64  C   UNL A   1      48.275  28.297  27.006  1.00  0.00     0.049 A 
ATOM     65  H   UNL A   1      46.196  28.435  27.330  1.00  0.00     0.167 HD
ATOM     66  C   UNL A   1      47.453  25.980  26.687  1.00  0.00     0.074 A 
ATOM     67  C   UNL A   1      47.644  24.576  26.390  1.00  0.00     0.031 C 
ATOM     68  C   UNL A   1      48.452  26.898  26.708  1.00  0.00     0.031 A 
BRANCH  55  69
ATOM     69  C   UNL A   1      46.566  32.635  28.030  1.00  0.00    -0.014 A 
ATOM     70  C   UNL A   1      47.189  33.087  29.207  1.00  0.00     0.010 A 
ATOM     71  C   UNL A   1      46.318  33.552  26.992  1.00  0.00     0.010 A 
ATOM     72  C   UNL A   1      47.522  34.437  29.358  1.00  0.00     0.020 A 
ATOM     73  C   UNL A   1      46.673  34.897  27.128  1.00  0.00     0.020 A 
ATOM     74  C   UNL A   1      47.259  35.334  28.318  1.00  0.00     0.054 A 
BRANCH  74  75
ATOM     75  S   UNL A   1      47.719  37.076  28.531  1.00  0.00     0.124 S 
ATOM     76  O   UNL A   1      47.974  37.491  27.153  1.00  0.00    -0.237 OA
ATOM     77  O   UNL A   1      46.528  37.650  29.149  1.00  0.00    -0.237 OA
ATOM     78  O   UNL A   1      48.899  37.021  29.391  1.00  0.00    -0.744 OA
ENDBRANCH  74  75
ENDBRANCH  55  69
BRANCH  56  79
ATOM     79  C   UNL A   1      43.685  23.157  26.758  1.00  0.00    -0.014 A 
ATOM     80  C   UNL A   1      43.898  22.511  25.528  1.00  0.00     0.010 A 
ATOM     81  C   UNL A   1      43.066  22.448  27.805  1.00  0.00     0.010 A 
ATOM     82  C   UNL A   1      43.483  21.189  25.342  1.00  0.00     0.020 A 
ATOM     83  C   UNL A   1      42.676  21.116  27.632  1.00  0.00     0.020 A 
ATOM     84  C   UNL A   1      42.878  20.499  26.397  1.00  0.00     0.054 A 
BRANCH  84  85
ATOM     85  S   UNL A   1      42.399  18.766  26.151  1.00  0.00     0.124 S 
ATOM     86  O   UNL A   1      41.004  18.892  25.737  1.00  0.00    -0.237 OA
ATOM     87  O   UNL A   1      43.329  18.325  25.113  1.00  0.00    -0.237 OA
ATOM     88  O   UNL A   1      42.612  18.163  27.464  1.00  0.00    -0.744 OA
ENDBRANCH  84  85
ENDBRANCH  56  79
BRANCH  68  89
ATOM     89  C   UNL A   1      49.850  26.409  26.431  1.00  0.00    -0.014 A 
ATOM     90  C   UNL A   1      50.652  25.870  27.453  1.00  0.00     0.010 A 
ATOM     91  C   UNL A   1      50.351  26.447  25.117  1.00  0.00     0.010 A 
ATOM     92  C   UNL A   1      51.942  25.411  27.172  1.00  0.00     0.020 A 
ATOM     93  C   UNL A   1      51.629  25.964  24.826  1.00  0.00     0.020 A 
ATOM     94  C   UNL A   1      52.423  25.462  25.860  1.00  0.00     0.054 A 
BRANCH  94  95
ATOM     95  S   UNL A   1      54.087  24.829  25.513  1.00  0.00     0.124 S 
ATOM     96  O   UNL A   1      53.822  23.427  25.209  1.00  0.00    -0.237 OA
ATOM     97  O   UNL A   1      54.514  25.648  24.380  1.00  0.00    -0.237 OA
ATOM     98  O   UNL A   1      54.816  25.070  26.756  1.00  0.00    -0.744 OA
ENDBRANCH  94  95
ENDBRANCH  68  89
ENDBRANCH  42  43
ENDBRANCH  35  37
ENDBRANCH  34  35
ENDBRANCH  33  34
ENDBRANCH  32  33
ENDBRANCH  31  32
ENDBRANCH   1  31
TORSDOF 22
ENDMDL
MODEL 3
REMARK VINA RESULT:     -10.7      3.262      4.306
REMARK SMILES CC(=O)N[C@@H](CS[C@@H]1CC(=O)N(c2cccc3ccccc23)C1=O)C(=O)OCCOCCOC(=O)c1ccc(-c2c3nc(c(-c4ccc(S(=O)(=O)[O-])cc4)c4ccc([nH]4)c(-c4ccc(S(=O)(=O)[O-])cc4)c4nc(c(-c5ccc(S(=O)(=O)[O-])cc5)c5ccc2[nH]5)C=C4)C=C3)cc1
REMARK SMILES IDX 29 1 28 2 27 3 25 4 26 5 5 6 4 7 1 8 2 9 3 10 6 12 7 13 8 14
REMARK SMILES IDX 9 15 23 16 10 17 12 18 24 19 11 20 13 21 14 22 22 23 15 24
REMARK SMILES IDX 17 25 21 26 16 27 18 28 20 29 19 30 30 31 31 32 32 33 33 34
REMARK SMILES IDX 34 35 35 36 36 37 37 38 95 39 38 40 94 41 39 42 40 43 41 44
REMARK SMILES IDX 88 45 42 46 93 47 87 48 89 49 43 50 92 51 86 52 85 53 44 55
REMARK SMILES IDX 74 56 55 57 73 58 56 59 59 60 72 61 90 62 57 63 58 64 71 66
REMARK SMILES IDX 91 67 60 68 45 69 46 70 54 71 47 72 53 73 48 74 49 75 50 76
REMARK SMILES IDX 51 77 52 78 75 79 76 80 84 81 77 82 83 83 78 84 79 85 80 86
REMARK SMILES IDX 81 87 82 88 61 89 62 90 70 91 63 92 69 93 64 94 65 95 66 96
REMARK SMILES IDX 67 97 68 98
REMARK H PARENT 4 11 89 54 59 65
REMARK Flexibility Score: inf
ROOT
ATOM      1  C   UNL A   1      30.971  29.962  24.688  1.00  0.00     0.202 C 
ENDROOT
BRANCH   1   2
ATOM      2  C   UNL A   1      31.849  29.237  23.662  1.00  0.00     0.261 C 
BRANCH   2   3
ATOM      3  O   UNL A   1      31.079  28.904  22.498  1.00  0.00    -0.462 OA
BRANCH   3   4
ATOM      4  C   UNL A   1      30.061  28.013  22.686  1.00  0.00     0.329 C 
ATOM      5  O   UNL A   1      28.902  28.306  22.949  1.00  0.00    -0.250 OA
BRANCH   4   6
ATOM      6  C   UNL A   1      30.580  26.569  22.595  1.00  0.00     0.202 C 
BRANCH   6   7
ATOM      7  N   UNL A   1      32.047  26.552  22.527  1.00  0.00    -0.342 N 
ATOM      8  C   UNL A   1      32.309  25.626  20.255  1.00  0.00     0.114 C 
ATOM      9  C   UNL A   1      32.884  26.125  21.547  1.00  0.00     0.217 C 
ATOM     10  O   UNL A   1      34.097  26.203  21.726  1.00  0.00    -0.275 OA
ATOM     11  H   UNL A   1      32.499  26.910  23.325  1.00  0.00     0.164 HD
ENDBRANCH   6   7
BRANCH   6  12
ATOM     12  C   UNL A   1      30.042  25.699  23.758  1.00  0.00     0.107 C 
BRANCH  12  13
ATOM     13  S   UNL A   1      30.953  25.758  25.366  1.00  0.00    -0.145 SA
BRANCH  13  14
ATOM     14  C   UNL A   1      31.573  24.063  25.675  1.00  0.00     0.146 C 
ATOM     15  C   UNL A   1      31.769  23.667  27.104  1.00  0.00     0.125 C 
ATOM     16  C   UNL A   1      32.893  23.748  25.012  1.00  0.00     0.247 C 
ATOM     17  C   UNL A   1      33.018  22.859  27.092  1.00  0.00     0.235 C 
ATOM     18  N   UNL A   1      33.723  23.153  25.943  1.00  0.00    -0.249 N 
ATOM     19  O   UNL A   1      33.072  23.881  23.809  1.00  0.00    -0.273 OA
ATOM     20  O   UNL A   1      33.323  22.169  28.055  1.00  0.00    -0.274 OA
BRANCH  18  21
ATOM     21  C   UNL A   1      35.086  22.749  25.721  1.00  0.00     0.060 A 
ATOM     22  C   UNL A   1      36.094  23.731  25.835  1.00  0.00     0.027 A 
ATOM     23  C   UNL A   1      35.479  21.411  25.351  1.00  0.00     0.006 A 
ATOM     24  C   UNL A   1      37.437  23.445  25.622  1.00  0.00     0.003 A 
ATOM     25  C   UNL A   1      36.869  21.135  25.192  1.00  0.00    -0.016 A 
ATOM     26  C   UNL A   1      34.612  20.321  25.065  1.00  0.00     0.011 A 
ATOM     27  C   UNL A   1      37.820  22.151  25.319  1.00  0.00     0.009 A 
ATOM     28  C   UNL A   1      37.323  19.842  24.886  1.00  0.00     0.009 A 
ATOM     29  C   UNL A   1      35.075  19.033  24.776  1.00  0.00     0.001 A 
ATOM     30  C   UNL A   1      36.435  18.789  24.701  1.00  0.00     0.001 A 
ENDBRANCH  18  21
ENDBRANCH  13  14
ENDBRANCH  12  13
ENDBRANCH   6  12
ENDBRANCH   4   6
ENDBRANCH   3   4
ENDBRANCH   2   3
ENDBRANCH   1   2
BRANCH   1  31
ATOM     31  O   UNL A   1      31.442  29.970  26.038  1.00  0.00    -0.374 OA
BRANCH  31  32
ATOM     32  C   UNL A   1      31.740  31.232  26.634  1.00  0.00     0.202 C 
BRANCH  32  33
ATOM     33  C   UNL A   1      33.114  31.399  27.303  1.00  0.00     0.261 C 
BRANCH  33  34
ATOM     34  O   UNL A   1      33.585  30.219  27.979  1.00  0.00    -0.460 OA
BRANCH  34  35
ATOM     35  C   UNL A   1      34.455  29.482  27.246  1.00  0.00     0.338 C 
ATOM     36  O   UNL A   1      34.232  28.927  26.173  1.00  0.00    -0.246 OA
BRANCH  35  37
ATOM     37  C   UNL A   1      35.815  29.546  27.801  1.00  0.00     0.060 A 
ATOM     38  C   UNL A   1      36.863  29.757  26.896  1.00  0.00     0.016 A 
ATOM     39  C   UNL A   1      36.083  29.258  29.142  1.00  0.00     0.016 A 
ATOM     40  C   UNL A   1      38.184  29.624  27.314  1.00  0.00     0.010 A 
ATOM     41  C   UNL A   1      37.415  29.121  29.558  1.00  0.00     0.010 A 
ATOM     42  C   UNL A   1      38.470  29.261  28.637  1.00  0.00    -0.014 A 
BRANCH  42  43
ATOM     43  C   UNL A   1      39.863  28.887  28.992  1.00  0.00     0.031 A 
ATOM     44  C   UNL A   1      40.723  29.870  29.745  1.00  0.00     0.074 A 
ATOM     45  C   UNL A   1      40.335  27.657  28.714  1.00  0.00     0.049 A 
ATOM     46  N   UNL A   1      41.947  29.730  30.186  1.00  0.00    -0.248 NA
ATOM     47  C   UNL A   1      40.121  31.180  30.045  1.00  0.00     0.031 C 
ATOM     48  C   UNL A   1      39.587  26.600  28.037  1.00  0.00     0.029 A 
ATOM     49  N   UNL A   1      41.556  27.090  28.978  1.00  0.00    -0.354 N 
ATOM     50  C   UNL A   1      42.264  30.931  30.811  1.00  0.00     0.074 A 
ATOM     51  C   UNL A   1      41.115  31.800  30.665  1.00  0.00     0.031 C 
ATOM     52  C   UNL A   1      40.364  25.508  27.942  1.00  0.00     0.029 A 
ATOM     53  C   UNL A   1      41.673  25.797  28.525  1.00  0.00     0.049 A 
ATOM     54  H   UNL A   1      42.279  27.563  29.449  1.00  0.00     0.167 HD
ATOM     55  C   UNL A   1      43.405  31.280  31.455  1.00  0.00     0.031 A 
ATOM     56  C   UNL A   1      42.719  24.948  28.563  1.00  0.00     0.031 A 
ATOM     57  C   UNL A   1      44.551  30.421  31.592  1.00  0.00     0.049 A 
ATOM     58  C   UNL A   1      44.002  25.382  29.222  1.00  0.00     0.074 A 
ATOM     59  C   UNL A   1      45.749  30.681  32.237  1.00  0.00     0.029 A 
ATOM     60  N   UNL A   1      44.648  29.139  31.073  1.00  0.00    -0.354 N 
ATOM     61  N   UNL A   1      44.276  26.515  29.824  1.00  0.00    -0.248 NA
ATOM     62  C   UNL A   1      45.112  24.420  29.215  1.00  0.00     0.031 C 
ATOM     63  C   UNL A   1      46.590  29.577  32.060  1.00  0.00     0.029 A 
ATOM     64  C   UNL A   1      45.893  28.604  31.359  1.00  0.00     0.049 A 
ATOM     65  H   UNL A   1      43.936  28.676  30.575  1.00  0.00     0.167 HD
ATOM     66  C   UNL A   1      45.582  26.390  30.291  1.00  0.00     0.074 A 
ATOM     67  C   UNL A   1      46.035  25.067  29.913  1.00  0.00     0.031 C 
ATOM     68  C   UNL A   1      46.335  27.287  30.973  1.00  0.00     0.031 A 
BRANCH  55  69
ATOM     69  C   UNL A   1      43.481  32.669  32.034  1.00  0.00    -0.014 A 
ATOM     70  C   UNL A   1      43.154  32.919  33.378  1.00  0.00     0.010 A 
ATOM     71  C   UNL A   1      43.925  33.734  31.228  1.00  0.00     0.010 A 
ATOM     72  C   UNL A   1      43.233  34.216  33.896  1.00  0.00     0.020 A 
ATOM     73  C   UNL A   1      44.030  35.027  31.749  1.00  0.00     0.020 A 
ATOM     74  C   UNL A   1      43.667  35.262  33.076  1.00  0.00     0.054 A 
BRANCH  74  75
ATOM     75  S   UNL A   1      43.780  36.931  33.779  1.00  0.00     0.124 S 
ATOM     76  O   UNL A   1      44.028  37.742  32.588  1.00  0.00    -0.237 OA
ATOM     77  O   UNL A   1      42.469  37.109  34.396  1.00  0.00    -0.237 OA
ATOM     78  O   UNL A   1      44.899  36.841  34.713  1.00  0.00    -0.744 OA
ENDBRANCH  74  75
ENDBRANCH  55  69
BRANCH  56  79
ATOM     79  C   UNL A   1      42.602  23.599  27.943  1.00  0.00    -0.014 A 
ATOM     80  C   UNL A   1      41.934  22.556  28.606  1.00  0.00     0.010 A 
ATOM     81  C   UNL A   1      43.163  23.356  26.675  1.00  0.00     0.010 A 
ATOM     82  C   UNL A   1      41.844  21.289  28.021  1.00  0.00     0.020 A 
ATOM     83  C   UNL A   1      43.050  22.099  26.074  1.00  0.00     0.020 A 
ATOM     84  C   UNL A   1      42.400  21.070  26.757  1.00  0.00     0.054 A 
BRANCH  84  85
ATOM     85  S   UNL A   1      42.222  19.433  25.992  1.00  0.00     0.124 S 
ATOM     86  O   UNL A   1      42.776  18.557  27.019  1.00  0.00    -0.237 OA
ATOM     87  O   UNL A   1      40.779  19.336  25.787  1.00  0.00    -0.237 OA
ATOM     88  O   UNL A   1      43.011  19.542  24.767  1.00  0.00    -0.744 OA
ENDBRANCH  84  85
ENDBRANCH  56  79
BRANCH  68  89
ATOM     89  C   UNL A   1      47.719  26.862  31.387  1.00  0.00    -0.014 A 
ATOM     90  C   UNL A   1      47.930  26.062  32.525  1.00  0.00     0.010 A 
ATOM     91  C   UNL A   1      48.823  27.229  30.595  1.00  0.00     0.010 A 
ATOM     92  C   UNL A   1      49.223  25.668  32.882  1.00  0.00     0.020 A 
ATOM     93  C   UNL A   1      50.114  26.814  30.933  1.00  0.00     0.020 A 
ATOM     94  C   UNL A   1      50.307  26.048  32.085  1.00  0.00     0.054 A 
BRANCH  94  95
ATOM     95  S   UNL A   1      51.971  25.496  32.550  1.00  0.00     0.124 S 
ATOM     96  O   UNL A   1      51.709  24.171  33.103  1.00  0.00    -0.237 OA
ATOM     97  O   UNL A   1      52.685  25.515  31.275  1.00  0.00    -0.237 OA
ATOM     98  O   UNL A   1      52.411  26.499  33.517  1.00  0.00    -0.744 OA
ENDBRANCH  94  95
ENDBRANCH  68  89
ENDBRANCH  42  43
ENDBRANCH  35  37
ENDBRANCH  34  35
ENDBRANCH  33  34
ENDBRANCH  32  33
ENDBRANCH  31  32
ENDBRANCH   1  31
TORSDOF 22
ENDMDL
