MODEL 1
REMARK VINA RESULT:     -10.1      0.000      0.000
REMARK SMILES O=C(OCCOCCOC(=O)[C@H]1C[NH2+]CCN1c1ncc(C(F)(F)F)cc1Cl)c1ccc(-c2c3nc(c(-c4ccc(S(=O)(=O)[O-])cc4)c4ccc([nH]4)c(-c4ccc(S(=O)(=O)[O-])cc4)c4nc(c(-c5ccc(S(=O)(=O)[O-])cc5)c5ccc2[nH]5)C=C4)C=C3)cc1
REMARK SMILES IDX 5 1 4 2 3 3 2 4 1 5 29 6 30 7 88 8 31 9 87 10 32 11 33 12
REMARK SMILES IDX 34 13 81 14 35 15 86 16 80 17 82 18 36 19 85 20 79 21 78 22
REMARK SMILES IDX 37 24 67 25 48 26 66 27 49 28 52 29 65 30 83 31 50 32 51 33
REMARK SMILES IDX 64 35 84 36 53 37 38 38 39 39 47 40 40 41 46 42 41 43 42 44
REMARK SMILES IDX 43 45 44 46 45 47 68 48 69 49 77 50 70 51 76 52 71 53 72 54
REMARK SMILES IDX 73 55 74 56 75 57 54 58 55 59 63 60 56 61 62 62 57 63 58 64
REMARK SMILES IDX 59 65 60 66 61 67 6 68 7 69 8 70 9 71 10 72 11 73 12 74
REMARK SMILES IDX 13 75 17 76 14 77 16 78 15 79 18 82 19 83 27 84 20 85 26 86
REMARK SMILES IDX 28 87 21 88 22 89 23 90 24 91 25 92
REMARK H PARENT 82 23 52 34 14 80 14 81
REMARK Flexibility Score: inf
ROOT
ATOM      1  C   UNL A   1      32.935  31.135  27.373  1.00  0.00     0.202 C 
ENDROOT
BRANCH   1   2
ATOM      2  C   UNL A   1      32.378  32.562  27.429  1.00  0.00     0.261 C 
BRANCH   2   3
ATOM      3  O   UNL A   1      33.409  33.496  27.795  1.00  0.00    -0.460 OA
BRANCH   3   4
ATOM      4  C   UNL A   1      33.777  33.853  29.050  1.00  0.00     0.338 C 
ATOM      5  O   UNL A   1      33.127  34.710  29.642  1.00  0.00    -0.246 OA
BRANCH   4   6
ATOM      6  C   UNL A   1      34.971  33.269  29.725  1.00  0.00     0.060 A 
ATOM      7  C   UNL A   1      36.241  33.835  29.655  1.00  0.00     0.016 A 
ATOM      8  C   UNL A   1      34.798  32.157  30.560  1.00  0.00     0.016 A 
ATOM      9  C   UNL A   1      37.306  33.367  30.374  1.00  0.00     0.010 A 
ATOM     10  C   UNL A   1      35.870  31.672  31.317  1.00  0.00     0.010 A 
ATOM     11  C   UNL A   1      37.113  32.306  31.234  1.00  0.00    -0.014 A 
BRANCH  11  12
ATOM     12  C   UNL A   1      38.310  31.896  31.960  1.00  0.00     0.031 A 
ATOM     13  C   UNL A   1      39.291  31.038  31.242  1.00  0.00     0.074 A 
ATOM     14  C   UNL A   1      38.582  32.506  33.128  1.00  0.00     0.049 A 
ATOM     15  N   UNL A   1      40.394  30.516  31.689  1.00  0.00    -0.248 NA
ATOM     16  C   UNL A   1      39.010  30.748  29.821  1.00  0.00     0.031 C 
ATOM     17  C   UNL A   1      37.751  33.547  33.754  1.00  0.00     0.029 A 
ATOM     18  N   UNL A   1      39.647  32.385  33.973  1.00  0.00    -0.354 N 
ATOM     19  C   UNL A   1      40.907  29.783  30.631  1.00  0.00     0.074 A 
ATOM     20  C   UNL A   1      40.027  29.961  29.502  1.00  0.00     0.031 C 
ATOM     21  C   UNL A   1      38.342  33.961  34.885  1.00  0.00     0.029 A 
ATOM     22  C   UNL A   1      39.531  33.153  35.107  1.00  0.00     0.049 A 
ATOM     23  H   UNL A   1      40.420  31.805  33.788  1.00  0.00     0.167 HD
ATOM     24  C   UNL A   1      42.002  28.995  30.646  1.00  0.00     0.031 A 
ATOM     25  C   UNL A   1      40.273  33.130  36.228  1.00  0.00     0.031 A 
ATOM     26  C   UNL A   1      42.829  28.856  31.810  1.00  0.00     0.049 A 
ATOM     27  C   UNL A   1      41.405  32.139  36.266  1.00  0.00     0.074 A 
ATOM     28  C   UNL A   1      43.925  28.040  31.998  1.00  0.00     0.029 A 
ATOM     29  N   UNL A   1      42.634  29.559  32.994  1.00  0.00    -0.354 N 
ATOM     30  N   UNL A   1      41.850  31.368  35.297  1.00  0.00    -0.248 NA
ATOM     31  C   UNL A   1      42.112  31.983  37.539  1.00  0.00     0.031 C 
ATOM     32  C   UNL A   1      44.353  28.202  33.320  1.00  0.00     0.029 A 
ATOM     33  C   UNL A   1      43.563  29.165  33.934  1.00  0.00     0.049 A 
ATOM     34  H   UNL A   1      41.935  30.237  33.139  1.00  0.00     0.167 HD
ATOM     35  C   UNL A   1      42.889  30.632  35.847  1.00  0.00     0.074 A 
ATOM     36  C   UNL A   1      43.029  31.081  37.221  1.00  0.00     0.031 C 
ATOM     37  C   UNL A   1      43.651  29.661  35.285  1.00  0.00     0.031 A 
BRANCH  24  38
ATOM     38  C   UNL A   1      42.265  28.149  29.437  1.00  0.00    -0.014 A 
ATOM     39  C   UNL A   1      41.668  26.890  29.262  1.00  0.00     0.010 A 
ATOM     40  C   UNL A   1      43.133  28.644  28.448  1.00  0.00     0.010 A 
ATOM     41  C   UNL A   1      41.940  26.138  28.115  1.00  0.00     0.020 A 
ATOM     42  C   UNL A   1      43.392  27.906  27.292  1.00  0.00     0.020 A 
ATOM     43  C   UNL A   1      42.796  26.654  27.135  1.00  0.00     0.054 A 
BRANCH  43  44
ATOM     44  S   UNL A   1      43.082  25.686  25.628  1.00  0.00     0.124 S 
ATOM     45  O   UNL A   1      42.572  24.372  26.011  1.00  0.00    -0.237 OA
ATOM     46  O   UNL A   1      42.287  26.403  24.634  1.00  0.00    -0.237 OA
ATOM     47  O   UNL A   1      44.528  25.760  25.436  1.00  0.00    -0.744 OA
ENDBRANCH  43  44
ENDBRANCH  24  38
BRANCH  25  48
ATOM     48  C   UNL A   1      39.882  33.928  37.424  1.00  0.00    -0.014 A 
ATOM     49  C   UNL A   1      40.280  35.267  37.576  1.00  0.00     0.010 A 
ATOM     50  C   UNL A   1      39.140  33.324  38.459  1.00  0.00     0.010 A 
ATOM     51  C   UNL A   1      39.981  35.968  38.750  1.00  0.00     0.020 A 
ATOM     52  C   UNL A   1      38.808  34.030  39.618  1.00  0.00     0.020 A 
ATOM     53  C   UNL A   1      39.254  35.342  39.767  1.00  0.00     0.054 A 
BRANCH  53  54
ATOM     54  S   UNL A   1      38.895  36.260  41.291  1.00  0.00     0.124 S 
ATOM     55  O   UNL A   1      37.650  35.639  41.731  1.00  0.00    -0.237 OA
ATOM     56  O   UNL A   1      40.069  35.981  42.113  1.00  0.00    -0.237 OA
ATOM     57  O   UNL A   1      38.777  37.644  40.836  1.00  0.00    -0.744 OA
ENDBRANCH  53  54
ENDBRANCH  25  48
BRANCH  37  58
ATOM     58  C   UNL A   1      44.703  29.046  36.157  1.00  0.00    -0.014 A 
ATOM     59  C   UNL A   1      44.424  27.895  36.914  1.00  0.00     0.010 A 
ATOM     60  C   UNL A   1      46.005  29.575  36.144  1.00  0.00     0.010 A 
ATOM     61  C   UNL A   1      45.434  27.290  37.658  1.00  0.00     0.020 A 
ATOM     62  C   UNL A   1      47.024  28.954  36.862  1.00  0.00     0.020 A 
ATOM     63  C   UNL A   1      46.729  27.818  37.621  1.00  0.00     0.054 A 
BRANCH  63  64
ATOM     64  S   UNL A   1      48.040  26.965  38.533  1.00  0.00     0.124 S 
ATOM     65  O   UNL A   1      47.471  25.631  38.705  1.00  0.00    -0.237 OA
ATOM     66  O   UNL A   1      49.175  27.052  37.617  1.00  0.00    -0.237 OA
ATOM     67  O   UNL A   1      48.175  27.749  39.759  1.00  0.00    -0.744 OA
ENDBRANCH  63  64
ENDBRANCH  37  58
ENDBRANCH  11  12
ENDBRANCH   4   6
ENDBRANCH   3   4
ENDBRANCH   2   3
ENDBRANCH   1   2
BRANCH   1  68
ATOM     68  O   UNL A   1      32.090  30.105  26.864  1.00  0.00    -0.374 OA
BRANCH  68  69
ATOM     69  C   UNL A   1      32.170  28.828  27.498  1.00  0.00     0.202 C 
BRANCH  69  70
ATOM     70  C   UNL A   1      32.197  27.750  26.421  1.00  0.00     0.261 C 
BRANCH  70  71
ATOM     71  O   UNL A   1      31.308  26.703  26.847  1.00  0.00    -0.462 OA
BRANCH  71  72
ATOM     72  C   UNL A   1      31.620  25.422  26.484  1.00  0.00     0.334 C 
ATOM     73  O   UNL A   1      31.355  24.424  27.128  1.00  0.00    -0.250 OA
BRANCH  72  74
ATOM     74  C   UNL A   1      32.302  25.385  25.096  1.00  0.00     0.249 C 
ATOM     75  C   UNL A   1      33.535  24.466  25.012  1.00  0.00     0.298 C 
ATOM     76  N   UNL A   1      31.396  24.965  24.009  1.00  0.00    -0.331 N 
ATOM     77  N   UNL A   1      33.230  23.024  25.172  1.00  0.00    -0.343 N 
ATOM     78  C   UNL A   1      30.968  23.568  24.014  1.00  0.00     0.180 C 
ATOM     79  C   UNL A   1      32.207  22.628  24.174  1.00  0.00     0.282 C 
ATOM     80  H   UNL A   1      32.875  22.851  26.113  1.00  0.00     0.346 HD
ATOM     81  H   UNL A   1      34.079  22.475  25.028  1.00  0.00     0.346 HD
BRANCH  76  82
ATOM     82  C   UNL A   1      30.572  25.982  23.577  1.00  0.00     0.148 A 
ATOM     83  N   UNL A   1      29.288  25.981  23.994  1.00  0.00    -0.237 NA
ATOM     84  C   UNL A   1      31.107  27.059  22.843  1.00  0.00     0.084 A 
ATOM     85  C   UNL A   1      28.537  27.078  23.727  1.00  0.00     0.126 A 
ATOM     86  C   UNL A   1      30.313  28.162  22.569  1.00  0.00     0.039 A 
ATOM     87  Cl  UNL A   1      32.737  27.066  22.258  1.00  0.00    -0.080 Cl
ATOM     88  C   UNL A   1      28.995  28.184  23.022  1.00  0.00     0.075 A 
BRANCH  88  89
ATOM     89  C   UNL A   1      28.091  29.345  22.760  1.00  0.00     0.417 C 
ATOM     90  F   UNL A   1      26.788  29.057  23.024  1.00  0.00    -0.166 F 
ATOM     91  F   UNL A   1      28.400  30.436  23.508  1.00  0.00    -0.166 F 
ATOM     92  F   UNL A   1      28.121  29.760  21.462  1.00  0.00    -0.166 F 
ENDBRANCH  88  89
ENDBRANCH  76  82
ENDBRANCH  72  74
ENDBRANCH  71  72
ENDBRANCH  70  71
ENDBRANCH  69  70
ENDBRANCH  68  69
ENDBRANCH   1  68
TORSDOF 19
ENDMDL
MODEL 2
REMARK VINA RESULT:     -10.0      0.812      8.208
REMARK SMILES O=C(OCCOCCOC(=O)[C@H]1C[NH2+]CCN1c1ncc(C(F)(F)F)cc1Cl)c1ccc(-c2c3nc(c(-c4ccc(S(=O)(=O)[O-])cc4)c4ccc([nH]4)c(-c4ccc(S(=O)(=O)[O-])cc4)c4nc(c(-c5ccc(S(=O)(=O)[O-])cc5)c5ccc2[nH]5)C=C4)C=C3)cc1
REMARK SMILES IDX 5 1 4 2 3 3 2 4 1 5 29 6 30 7 88 8 31 9 87 10 32 11 33 12
REMARK SMILES IDX 34 13 81 14 35 15 86 16 80 17 82 18 36 19 85 20 79 21 78 22
REMARK SMILES IDX 37 24 67 25 48 26 66 27 49 28 52 29 65 30 83 31 50 32 51 33
REMARK SMILES IDX 64 35 84 36 53 37 38 38 39 39 47 40 40 41 46 42 41 43 42 44
REMARK SMILES IDX 43 45 44 46 45 47 68 48 69 49 77 50 70 51 76 52 71 53 72 54
REMARK SMILES IDX 73 55 74 56 75 57 54 58 55 59 63 60 56 61 62 62 57 63 58 64
REMARK SMILES IDX 59 65 60 66 61 67 6 68 7 69 8 70 9 71 10 72 11 73 12 74
REMARK SMILES IDX 13 75 17 76 14 77 16 78 15 79 18 82 19 83 27 84 20 85 26 86
REMARK SMILES IDX 28 87 21 88 22 89 23 90 24 91 25 92
REMARK H PARENT 82 23 52 34 14 80 14 81
REMARK Flexibility Score: inf
ROOT
ATOM      1  C   UNL A   1      32.867  31.137  27.261  1.00  0.00     0.202 C 
ENDROOT
BRANCH   1   2
ATOM      2  C   UNL A   1      32.272  32.548  27.310  1.00  0.00     0.261 C 
BRANCH   2   3
ATOM      3  O   UNL A   1      33.268  33.507  27.707  1.00  0.00    -0.460 OA
BRANCH   3   4
ATOM      4  C   UNL A   1      33.528  33.938  28.965  1.00  0.00     0.338 C 
ATOM      5  O   UNL A   1      32.748  34.719  29.503  1.00  0.00    -0.246 OA
BRANCH   4   6
ATOM      6  C   UNL A   1      34.754  33.529  29.709  1.00  0.00     0.060 A 
ATOM      7  C   UNL A   1      34.777  32.485  30.629  1.00  0.00     0.016 A 
ATOM      8  C   UNL A   1      35.970  34.150  29.399  1.00  0.00     0.016 A 
ATOM      9  C   UNL A   1      35.926  32.034  31.217  1.00  0.00     0.010 A 
ATOM     10  C   UNL A   1      37.161  33.695  29.977  1.00  0.00     0.010 A 
ATOM     11  C   UNL A   1      37.126  32.616  30.864  1.00  0.00    -0.014 A 
BRANCH  11  12
ATOM     12  C   UNL A   1      38.289  32.052  31.541  1.00  0.00     0.031 A 
ATOM     13  C   UNL A   1      38.566  32.508  32.930  1.00  0.00     0.074 A 
ATOM     14  C   UNL A   1      38.891  30.987  30.982  1.00  0.00     0.049 A 
ATOM     15  N   UNL A   1      39.556  32.187  33.707  1.00  0.00    -0.248 NA
ATOM     16  C   UNL A   1      37.585  33.428  33.538  1.00  0.00     0.031 C 
ATOM     17  C   UNL A   1      38.486  30.351  29.718  1.00  0.00     0.029 A 
ATOM     18  N   UNL A   1      39.933  30.219  31.416  1.00  0.00    -0.354 N 
ATOM     19  C   UNL A   1      39.357  32.913  34.871  1.00  0.00     0.074 A 
ATOM     20  C   UNL A   1      38.129  33.656  34.725  1.00  0.00     0.031 C 
ATOM     21  C   UNL A   1      39.278  29.293  29.484  1.00  0.00     0.029 A 
ATOM     22  C   UNL A   1      40.295  29.239  30.523  1.00  0.00     0.049 A 
ATOM     23  H   UNL A   1      40.380  30.355  32.282  1.00  0.00     0.167 HD
ATOM     24  C   UNL A   1      40.178  32.970  35.940  1.00  0.00     0.031 A 
ATOM     25  C   UNL A   1      41.382  28.447  30.524  1.00  0.00     0.031 A 
ATOM     26  C   UNL A   1      41.392  32.210  36.016  1.00  0.00     0.049 A 
ATOM     27  C   UNL A   1      42.349  28.635  31.662  1.00  0.00     0.074 A 
ATOM     28  C   UNL A   1      42.358  32.222  37.001  1.00  0.00     0.029 A 
ATOM     29  N   UNL A   1      41.803  31.300  35.049  1.00  0.00    -0.354 N 
ATOM     30  N   UNL A   1      42.218  29.389  32.732  1.00  0.00    -0.248 NA
ATOM     31  C   UNL A   1      43.617  27.905  31.586  1.00  0.00     0.031 C 
ATOM     32  C   UNL A   1      43.387  31.365  36.595  1.00  0.00     0.029 A 
ATOM     33  C   UNL A   1      43.032  30.773  35.390  1.00  0.00     0.049 A 
ATOM     34  H   UNL A   1      41.293  31.067  34.240  1.00  0.00     0.167 HD
ATOM     35  C   UNL A   1      43.389  29.225  33.456  1.00  0.00     0.074 A 
ATOM     36  C   UNL A   1      44.198  28.271  32.720  1.00  0.00     0.031 C 
ATOM     37  C   UNL A   1      43.779  29.816  34.612  1.00  0.00     0.031 A 
BRANCH  24  38
ATOM     38  C   UNL A   1      39.852  33.967  37.011  1.00  0.00    -0.014 A 
ATOM     39  C   UNL A   1      39.334  33.583  38.258  1.00  0.00     0.010 A 
ATOM     40  C   UNL A   1      40.084  35.330  36.752  1.00  0.00     0.010 A 
ATOM     41  C   UNL A   1      39.050  34.549  39.229  1.00  0.00     0.020 A 
ATOM     42  C   UNL A   1      39.822  36.296  37.724  1.00  0.00     0.020 A 
ATOM     43  C   UNL A   1      39.301  35.899  38.957  1.00  0.00     0.054 A 
BRANCH  43  44
ATOM     44  S   UNL A   1      38.984  37.126  40.254  1.00  0.00     0.124 S 
ATOM     45  O   UNL A   1      40.322  37.339  40.801  1.00  0.00    -0.237 OA
ATOM     46  O   UNL A   1      38.427  38.247  39.502  1.00  0.00    -0.237 OA
ATOM     47  O   UNL A   1      38.047  36.452  41.150  1.00  0.00    -0.744 OA
ENDBRANCH  43  44
ENDBRANCH  24  38
BRANCH  25  48
ATOM     48  C   UNL A   1      41.685  27.557  29.369  1.00  0.00    -0.014 A 
ATOM     49  C   UNL A   1      41.210  26.235  29.317  1.00  0.00     0.010 A 
ATOM     50  C   UNL A   1      42.507  28.020  28.322  1.00  0.00     0.010 A 
ATOM     51  C   UNL A   1      41.585  25.387  28.267  1.00  0.00     0.020 A 
ATOM     52  C   UNL A   1      42.855  27.189  27.254  1.00  0.00     0.020 A 
ATOM     53  C   UNL A   1      42.412  25.868  27.248  1.00  0.00     0.054 A 
BRANCH  53  54
ATOM     54  S   UNL A   1      42.904  24.747  25.908  1.00  0.00     0.124 S 
ATOM     55  O   UNL A   1      43.028  25.663  24.779  1.00  0.00    -0.237 OA
ATOM     56  O   UNL A   1      44.156  24.185  26.409  1.00  0.00    -0.237 OA
ATOM     57  O   UNL A   1      41.794  23.801  25.828  1.00  0.00    -0.744 OA
ENDBRANCH  53  54
ENDBRANCH  25  48
BRANCH  37  58
ATOM     58  C   UNL A   1      45.125  29.426  35.144  1.00  0.00    -0.014 A 
ATOM     59  C   UNL A   1      46.270  30.170  34.812  1.00  0.00     0.010 A 
ATOM     60  C   UNL A   1      45.223  28.361  36.056  1.00  0.00     0.010 A 
ATOM     61  C   UNL A   1      47.501  29.842  35.376  1.00  0.00     0.020 A 
ATOM     62  C   UNL A   1      46.446  28.052  36.645  1.00  0.00     0.020 A 
ATOM     63  C   UNL A   1      47.580  28.791  36.295  1.00  0.00     0.054 A 
BRANCH  63  64
ATOM     64  S   UNL A   1      49.175  28.438  37.075  1.00  0.00     0.124 S 
ATOM     65  O   UNL A   1      49.525  27.151  36.480  1.00  0.00    -0.237 OA
ATOM     66  O   UNL A   1      49.995  29.570  36.652  1.00  0.00    -0.237 OA
ATOM     67  O   UNL A   1      48.862  28.401  38.502  1.00  0.00    -0.744 OA
ENDBRANCH  63  64
ENDBRANCH  37  58
ENDBRANCH  11  12
ENDBRANCH   4   6
ENDBRANCH   3   4
ENDBRANCH   2   3
ENDBRANCH   1   2
BRANCH   1  68
ATOM     68  O   UNL A   1      32.054  30.085  26.744  1.00  0.00    -0.374 OA
BRANCH  68  69
ATOM     69  C   UNL A   1      32.128  28.822  27.408  1.00  0.00     0.202 C 
BRANCH  69  70
ATOM     70  C   UNL A   1      32.109  27.717  26.358  1.00  0.00     0.261 C 
BRANCH  70  71
ATOM     71  O   UNL A   1      31.272  26.665  26.866  1.00  0.00    -0.462 OA
BRANCH  71  72
ATOM     72  C   UNL A   1      31.567  25.384  26.488  1.00  0.00     0.334 C 
ATOM     73  O   UNL A   1      31.275  24.381  27.112  1.00  0.00    -0.250 OA
BRANCH  72  74
ATOM     74  C   UNL A   1      32.268  25.356  25.109  1.00  0.00     0.249 C 
ATOM     75  C   UNL A   1      33.499  24.432  25.035  1.00  0.00     0.298 C 
ATOM     76  N   UNL A   1      31.376  24.950  24.006  1.00  0.00    -0.331 N 
ATOM     77  N   UNL A   1      33.185  22.990  25.177  1.00  0.00    -0.343 N 
ATOM     78  C   UNL A   1      30.942  23.555  23.992  1.00  0.00     0.180 C 
ATOM     79  C   UNL A   1      32.174  22.608  24.161  1.00  0.00     0.282 C 
ATOM     80  H   UNL A   1      32.815  22.811  26.111  1.00  0.00     0.346 HD
ATOM     81  H   UNL A   1      34.033  22.439  25.041  1.00  0.00     0.346 HD
BRANCH  76  82
ATOM     82  C   UNL A   1      30.563  25.975  23.571  1.00  0.00     0.148 A 
ATOM     83  N   UNL A   1      29.280  25.990  23.990  1.00  0.00    -0.237 NA
ATOM     84  C   UNL A   1      31.109  27.043  22.833  1.00  0.00     0.084 A 
ATOM     85  C   UNL A   1      28.540  27.094  23.721  1.00  0.00     0.126 A 
ATOM     86  C   UNL A   1      30.327  28.154  22.556  1.00  0.00     0.039 A 
ATOM     87  Cl  UNL A   1      32.738  27.030  22.246  1.00  0.00    -0.080 Cl
ATOM     88  C   UNL A   1      29.010  28.192  23.011  1.00  0.00     0.075 A 
BRANCH  88  89
ATOM     89  C   UNL A   1      28.119  29.362  22.746  1.00  0.00     0.417 C 
ATOM     90  F   UNL A   1      26.829  29.123  23.104  1.00  0.00    -0.166 F 
ATOM     91  F   UNL A   1      28.500  30.481  23.415  1.00  0.00    -0.166 F 
ATOM     92  F   UNL A   1      28.076  29.711  21.429  1.00  0.00    -0.166 F 
ENDBRANCH  88  89
ENDBRANCH  76  82
ENDBRANCH  72  74
ENDBRANCH  71  72
ENDBRANCH  70  71
ENDBRANCH  69  70
ENDBRANCH  68  69
ENDBRANCH   1  68
TORSDOF 19
ENDMDL
MODEL 3
REMARK VINA RESULT:      -9.9      6.434     11.650
REMARK SMILES O=C(OCCOCCOC(=O)[C@H]1C[NH2+]CCN1c1ncc(C(F)(F)F)cc1Cl)c1ccc(-c2c3nc(c(-c4ccc(S(=O)(=O)[O-])cc4)c4ccc([nH]4)c(-c4ccc(S(=O)(=O)[O-])cc4)c4nc(c(-c5ccc(S(=O)(=O)[O-])cc5)c5ccc2[nH]5)C=C4)C=C3)cc1
REMARK SMILES IDX 5 1 4 2 3 3 2 4 1 5 29 6 30 7 88 8 31 9 87 10 32 11 33 12
REMARK SMILES IDX 34 13 81 14 35 15 86 16 80 17 82 18 36 19 85 20 79 21 78 22
REMARK SMILES IDX 37 24 67 25 48 26 66 27 49 28 52 29 65 30 83 31 50 32 51 33
REMARK SMILES IDX 64 35 84 36 53 37 38 38 39 39 47 40 40 41 46 42 41 43 42 44
REMARK SMILES IDX 43 45 44 46 45 47 68 48 69 49 77 50 70 51 76 52 71 53 72 54
REMARK SMILES IDX 73 55 74 56 75 57 54 58 55 59 63 60 56 61 62 62 57 63 58 64
REMARK SMILES IDX 59 65 60 66 61 67 6 68 7 69 8 70 9 71 10 72 11 73 12 74
REMARK SMILES IDX 13 75 17 76 14 77 16 78 15 79 18 82 19 83 27 84 20 85 26 86
REMARK SMILES IDX 28 87 21 88 22 89 23 90 24 91 25 92
REMARK H PARENT 82 23 52 34 14 80 14 81
REMARK Flexibility Score: inf
ROOT
ATOM      1  C   UNL A   1      39.577  21.967  26.567  1.00  0.00     0.202 C 
ENDROOT
BRANCH   1   2
ATOM      2  C   UNL A   1      39.584  20.615  25.846  1.00  0.00     0.261 C 
BRANCH   2   3
ATOM      3  O   UNL A   1      40.731  19.838  26.234  1.00  0.00    -0.460 OA
BRANCH   3   4
ATOM      4  C   UNL A   1      42.024  20.074  25.905  1.00  0.00     0.338 C 
ATOM      5  O   UNL A   1      42.673  19.189  25.353  1.00  0.00    -0.246 OA
BRANCH   4   6
ATOM      6  C   UNL A   1      42.705  21.361  26.227  1.00  0.00     0.060 A 
ATOM      7  C   UNL A   1      42.985  22.336  25.274  1.00  0.00     0.016 A 
ATOM      8  C   UNL A   1      42.988  21.658  27.566  1.00  0.00     0.016 A 
ATOM      9  C   UNL A   1      43.498  23.564  25.592  1.00  0.00     0.010 A 
ATOM     10  C   UNL A   1      43.498  22.914  27.916  1.00  0.00     0.010 A 
ATOM     11  C   UNL A   1      43.721  23.867  26.919  1.00  0.00    -0.014 A 
BRANCH  11  12
ATOM     12  C   UNL A   1      44.257  25.205  27.147  1.00  0.00     0.031 A 
ATOM     13  C   UNL A   1      43.340  26.225  27.724  1.00  0.00     0.074 A 
ATOM     14  C   UNL A   1      45.589  25.376  27.062  1.00  0.00     0.049 A 
ATOM     15  N   UNL A   1      43.574  27.480  27.970  1.00  0.00    -0.248 NA
ATOM     16  C   UNL A   1      41.988  25.769  28.101  1.00  0.00     0.031 C 
ATOM     17  C   UNL A   1      46.559  24.320  26.730  1.00  0.00     0.029 A 
ATOM     18  N   UNL A   1      46.365  26.474  27.292  1.00  0.00    -0.354 N 
ATOM     19  C   UNL A   1      42.382  27.982  28.468  1.00  0.00     0.074 A 
ATOM     20  C   UNL A   1      41.438  26.893  28.538  1.00  0.00     0.031 C 
ATOM     21  C   UNL A   1      47.799  24.831  26.776  1.00  0.00     0.029 A 
ATOM     22  C   UNL A   1      47.700  26.258  27.044  1.00  0.00     0.049 A 
ATOM     23  H   UNL A   1      46.005  27.334  27.604  1.00  0.00     0.167 HD
ATOM     24  C   UNL A   1      42.114  29.264  28.788  1.00  0.00     0.031 A 
ATOM     25  C   UNL A   1      48.706  27.148  26.966  1.00  0.00     0.031 A 
ATOM     26  C   UNL A   1      43.100  30.302  28.685  1.00  0.00     0.049 A 
ATOM     27  C   UNL A   1      48.345  28.592  27.192  1.00  0.00     0.074 A 
ATOM     28  C   UNL A   1      42.955  31.656  28.902  1.00  0.00     0.029 A 
ATOM     29  N   UNL A   1      44.425  30.084  28.324  1.00  0.00    -0.354 N 
ATOM     30  N   UNL A   1      47.192  29.096  27.579  1.00  0.00    -0.248 NA
ATOM     31  C   UNL A   1      49.390  29.586  26.943  1.00  0.00     0.031 C 
ATOM     32  C   UNL A   1      44.178  32.267  28.608  1.00  0.00     0.029 A 
ATOM     33  C   UNL A   1      45.102  31.285  28.269  1.00  0.00     0.049 A 
ATOM     34  H   UNL A   1      44.821  29.203  28.134  1.00  0.00     0.167 HD
ATOM     35  C   UNL A   1      47.376  30.471  27.616  1.00  0.00     0.074 A 
ATOM     36  C   UNL A   1      48.760  30.711  27.251  1.00  0.00     0.031 C 
ATOM     37  C   UNL A   1      46.486  31.452  27.905  1.00  0.00     0.031 A 
BRANCH  24  38
ATOM     38  C   UNL A   1      40.697  29.612  29.133  1.00  0.00    -0.014 A 
ATOM     39  C   UNL A   1      40.300  29.915  30.445  1.00  0.00     0.010 A 
ATOM     40  C   UNL A   1      39.743  29.641  28.100  1.00  0.00     0.010 A 
ATOM     41  C   UNL A   1      38.967  30.239  30.718  1.00  0.00     0.020 A 
ATOM     42  C   UNL A   1      38.416  29.982  28.364  1.00  0.00     0.020 A 
ATOM     43  C   UNL A   1      38.035  30.275  29.674  1.00  0.00     0.054 A 
BRANCH  43  44
ATOM     44  S   UNL A   1      36.327  30.759  30.044  1.00  0.00     0.124 S 
ATOM     45  O   UNL A   1      36.499  32.127  30.528  1.00  0.00    -0.237 OA
ATOM     46  O   UNL A   1      35.672  30.630  28.745  1.00  0.00    -0.237 OA
ATOM     47  O   UNL A   1      35.902  29.792  31.053  1.00  0.00    -0.744 OA
ENDBRANCH  43  44
ENDBRANCH  24  38
BRANCH  25  48
ATOM     48  C   UNL A   1      50.064  26.735  26.515  1.00  0.00    -0.014 A 
ATOM     49  C   UNL A   1      50.435  26.786  25.161  1.00  0.00     0.010 A 
ATOM     50  C   UNL A   1      50.992  26.233  27.450  1.00  0.00     0.010 A 
ATOM     51  C   UNL A   1      51.683  26.305  24.748  1.00  0.00     0.020 A 
ATOM     52  C   UNL A   1      52.253  25.785  27.048  1.00  0.00     0.020 A 
ATOM     53  C   UNL A   1      52.581  25.801  25.694  1.00  0.00     0.054 A 
BRANCH  53  54
ATOM     54  S   UNL A   1      54.186  25.163  25.136  1.00  0.00     0.124 S 
ATOM     55  O   UNL A   1      54.376  25.882  23.881  1.00  0.00    -0.237 OA
ATOM     56  O   UNL A   1      55.076  25.546  26.228  1.00  0.00    -0.237 OA
ATOM     57  O   UNL A   1      53.955  23.726  25.005  1.00  0.00    -0.744 OA
ENDBRANCH  53  54
ENDBRANCH  25  48
BRANCH  37  58
ATOM     58  C   UNL A   1      47.000  32.859  27.852  1.00  0.00    -0.014 A 
ATOM     59  C   UNL A   1      47.616  33.441  28.973  1.00  0.00     0.010 A 
ATOM     60  C   UNL A   1      46.944  33.567  26.639  1.00  0.00     0.010 A 
ATOM     61  C   UNL A   1      48.158  34.721  28.883  1.00  0.00     0.020 A 
ATOM     62  C   UNL A   1      47.513  34.834  26.538  1.00  0.00     0.020 A 
ATOM     63  C   UNL A   1      48.110  35.406  27.664  1.00  0.00     0.054 A 
BRANCH  63  64
ATOM     64  S   UNL A   1      48.893  37.035  27.554  1.00  0.00     0.124 S 
ATOM     65  O   UNL A   1      47.751  37.902  27.278  1.00  0.00    -0.237 OA
ATOM     66  O   UNL A   1      49.497  37.190  28.875  1.00  0.00    -0.237 OA
ATOM     67  O   UNL A   1      49.844  36.888  26.454  1.00  0.00    -0.744 OA
ENDBRANCH  63  64
ENDBRANCH  37  58
ENDBRANCH  11  12
ENDBRANCH   4   6
ENDBRANCH   3   4
ENDBRANCH   2   3
ENDBRANCH   1   2
BRANCH   1  68
ATOM     68  O   UNL A   1      38.493  22.857  26.309  1.00  0.00    -0.374 OA
BRANCH  68  69
ATOM     69  C   UNL A   1      37.579  22.486  25.277  1.00  0.00     0.202 C 
BRANCH  69  70
ATOM     70  C   UNL A   1      36.746  23.705  24.900  1.00  0.00     0.261 C 
BRANCH  70  71
ATOM     71  O   UNL A   1      35.815  23.929  25.973  1.00  0.00    -0.462 OA
BRANCH  71  72
ATOM     72  C   UNL A   1      34.808  23.018  26.136  1.00  0.00     0.334 C 
ATOM     73  O   UNL A   1      34.420  22.582  27.204  1.00  0.00    -0.250 OA
BRANCH  72  74
ATOM     74  C   UNL A   1      34.160  22.652  24.781  1.00  0.00     0.249 C 
ATOM     75  C   UNL A   1      34.032  21.140  24.519  1.00  0.00     0.298 C 
ATOM     76  N   UNL A   1      32.809  23.220  24.604  1.00  0.00    -0.331 N 
ATOM     77  N   UNL A   1      33.096  20.442  25.432  1.00  0.00    -0.343 N 
ATOM     78  C   UNL A   1      31.749  22.665  25.443  1.00  0.00     0.180 C 
ATOM     79  C   UNL A   1      31.770  21.103  25.370  1.00  0.00     0.282 C 
ATOM     80  H   UNL A   1      33.453  20.484  26.387  1.00  0.00     0.346 HD
ATOM     81  H   UNL A   1      33.005  19.465  25.151  1.00  0.00     0.346 HD
BRANCH  76  82
ATOM     82  C   UNL A   1      32.831  24.548  24.234  1.00  0.00     0.148 A 
ATOM     83  N   UNL A   1      32.693  25.480  25.202  1.00  0.00    -0.237 NA
ATOM     84  C   UNL A   1      33.137  24.905  22.907  1.00  0.00     0.084 A 
ATOM     85  C   UNL A   1      32.908  26.776  24.865  1.00  0.00     0.126 A 
ATOM     86  C   UNL A   1      33.335  26.239  22.585  1.00  0.00     0.039 A 
ATOM     87  Cl  UNL A   1      33.276  23.734  21.638  1.00  0.00    -0.080 Cl
ATOM     88  C   UNL A   1      33.224  27.206  23.583  1.00  0.00     0.075 A 
BRANCH  88  89
ATOM     89  C   UNL A   1      33.429  28.658  23.298  1.00  0.00     0.417 C 
ATOM     90  F   UNL A   1      33.282  29.430  24.409  1.00  0.00    -0.166 F 
ATOM     91  F   UNL A   1      34.664  28.933  22.804  1.00  0.00    -0.166 F 
ATOM     92  F   UNL A   1      32.543  29.152  22.387  1.00  0.00    -0.166 F 
ENDBRANCH  88  89
ENDBRANCH  76  82
ENDBRANCH  72  74
ENDBRANCH  71  72
ENDBRANCH  70  71
ENDBRANCH  69  70
ENDBRANCH  68  69
ENDBRANCH   1  68
TORSDOF 19
ENDMDL
