MODEL 1
REMARK VINA RESULT:      -9.3      0.000      0.000
REMARK SMILES CC(=O)N[C@@H](C)C(=O)N1CCC[C@H]1C(=O)OCCOCCOC(=O)c1ccc(-c2c3nc(c(-c4ccc(S(=O)(=O)[O-])cc4)c4ccc([nH]4)c(-c4ccc(S(=O)(=O)[O-])cc4)c4nc(c(-c5ccc(S(=O)(=O)[O-])cc5)c5ccc2[nH]5)C=C4)C=C3)cc1
REMARK SMILES IDX 19 1 18 2 17 3 16 4 14 5 15 6 13 7 9 8 10 9 11 10 12 11 7 12
REMARK SMILES IDX 8 13 5 14 6 15 4 16 1 17 2 18 3 19 20 21 21 22 22 23 23 24
REMARK SMILES IDX 24 25 25 26 26 27 84 28 27 29 83 30 28 31 29 32 30 33 77 34
REMARK SMILES IDX 31 35 82 36 76 37 78 38 32 39 81 40 75 41 74 42 33 44 63 45
REMARK SMILES IDX 44 46 62 47 45 48 48 49 61 50 79 51 46 52 47 53 60 55 80 56
REMARK SMILES IDX 49 57 34 58 35 59 43 60 36 61 42 62 37 63 38 64 39 65 40 66
REMARK SMILES IDX 41 67 64 68 65 69 73 70 66 71 72 72 67 73 68 74 69 75 70 76
REMARK SMILES IDX 71 77 50 78 51 79 59 80 52 81 58 82 53 83 54 84 55 85 56 86
REMARK SMILES IDX 57 87
REMARK H PARENT 4 20 78 43 48 54
REMARK Flexibility Score: inf
ROOT
ATOM      1  O   UNL A   1      34.623  31.036  27.641  1.00  0.00    -0.374 OA
ENDROOT
BRANCH   1   2
ATOM      2  C   UNL A   1      34.699  29.611  27.559  1.00  0.00     0.202 C 
BRANCH   2   3
ATOM      3  C   UNL A   1      34.088  28.990  26.302  1.00  0.00     0.261 C 
BRANCH   3   4
ATOM      4  O   UNL A   1      34.233  27.560  26.356  1.00  0.00    -0.462 OA
BRANCH   4   5
ATOM      5  C   UNL A   1      33.520  26.847  25.441  1.00  0.00     0.328 C 
ATOM      6  O   UNL A   1      34.007  26.340  24.439  1.00  0.00    -0.250 OA
BRANCH   5   7
ATOM      7  C   UNL A   1      32.030  26.724  25.843  1.00  0.00     0.195 C 
ATOM      8  N   UNL A   1      30.948  27.096  24.894  1.00  0.00    -0.327 N 
ATOM      9  C   UNL A   1      29.864  26.125  24.947  1.00  0.00     0.120 C 
ATOM     10  C   UNL A   1      30.123  25.314  26.203  1.00  0.00     0.024 C 
ATOM     11  C   UNL A   1      31.638  25.307  26.296  1.00  0.00     0.039 C 
BRANCH   8  12
ATOM     12  C   UNL A   1      30.931  28.344  24.306  1.00  0.00     0.245 C 
ATOM     13  O   UNL A   1      30.949  29.365  24.998  1.00  0.00    -0.272 OA
BRANCH  12  14
ATOM     14  C   UNL A   1      30.642  28.517  22.794  1.00  0.00     0.168 C 
ATOM     15  C   UNL A   1      31.801  27.882  22.021  1.00  0.00     0.041 C 
BRANCH  14  16
ATOM     16  N   UNL A   1      30.343  29.849  22.275  1.00  0.00    -0.345 N 
ATOM     17  C   UNL A   1      27.888  29.655  22.499  1.00  0.00     0.114 C 
ATOM     18  C   UNL A   1      29.114  30.395  22.041  1.00  0.00     0.217 C 
ATOM     19  O   UNL A   1      29.042  31.479  21.466  1.00  0.00    -0.275 OA
ATOM     20  H   UNL A   1      31.119  30.419  22.069  1.00  0.00     0.164 HD
ENDBRANCH  14  16
ENDBRANCH  12  14
ENDBRANCH   8  12
ENDBRANCH   5   7
ENDBRANCH   4   5
ENDBRANCH   3   4
ENDBRANCH   2   3
ENDBRANCH   1   2
BRANCH   1  21
ATOM     21  C   UNL A   1      33.323  31.627  27.653  1.00  0.00     0.202 C 
BRANCH  21  22
ATOM     22  C   UNL A   1      33.270  33.146  27.456  1.00  0.00     0.261 C 
BRANCH  22  23
ATOM     23  O   UNL A   1      32.455  33.805  28.442  1.00  0.00    -0.460 OA
BRANCH  23  24
ATOM     24  C   UNL A   1      33.012  34.925  28.961  1.00  0.00     0.338 C 
ATOM     25  O   UNL A   1      32.580  36.070  28.871  1.00  0.00    -0.246 OA
BRANCH  24  26
ATOM     26  C   UNL A   1      34.165  34.591  29.816  1.00  0.00     0.060 A 
ATOM     27  C   UNL A   1      35.436  34.651  29.228  1.00  0.00     0.016 A 
ATOM     28  C   UNL A   1      34.013  34.138  31.128  1.00  0.00     0.016 A 
ATOM     29  C   UNL A   1      36.549  34.189  29.924  1.00  0.00     0.010 A 
ATOM     30  C   UNL A   1      35.135  33.672  31.826  1.00  0.00     0.010 A 
ATOM     31  C   UNL A   1      36.399  33.651  31.208  1.00  0.00    -0.014 A 
BRANCH  31  32
ATOM     32  C   UNL A   1      37.533  32.913  31.817  1.00  0.00     0.031 A 
ATOM     33  C   UNL A   1      38.049  33.355  33.161  1.00  0.00     0.074 A 
ATOM     34  C   UNL A   1      38.058  31.831  31.214  1.00  0.00     0.049 A 
ATOM     35  N   UNL A   1      38.995  32.831  33.899  1.00  0.00    -0.248 NA
ATOM     36  C   UNL A   1      37.413  34.543  33.753  1.00  0.00     0.031 C 
ATOM     37  C   UNL A   1      37.614  31.277  29.936  1.00  0.00     0.029 A 
ATOM     38  N   UNL A   1      39.073  30.997  31.609  1.00  0.00    -0.354 N 
ATOM     39  C   UNL A   1      39.075  33.631  35.034  1.00  0.00     0.074 A 
ATOM     40  C   UNL A   1      38.103  34.691  34.874  1.00  0.00     0.031 C 
ATOM     41  C   UNL A   1      38.346  30.183  29.658  1.00  0.00     0.029 A 
ATOM     42  C   UNL A   1      39.326  29.978  30.723  1.00  0.00     0.049 A 
ATOM     43  H   UNL A   1      39.573  31.118  32.448  1.00  0.00     0.167 HD
ATOM     44  C   UNL A   1      39.880  33.494  36.116  1.00  0.00     0.031 A 
ATOM     45  C   UNL A   1      40.245  28.993  30.765  1.00  0.00     0.031 A 
ATOM     46  C   UNL A   1      40.850  32.443  36.272  1.00  0.00     0.049 A 
ATOM     47  C   UNL A   1      41.174  28.898  31.947  1.00  0.00     0.074 A 
ATOM     48  C   UNL A   1      41.693  32.201  37.341  1.00  0.00     0.029 A 
ATOM     49  N   UNL A   1      41.112  31.464  35.325  1.00  0.00    -0.354 N 
ATOM     50  N   UNL A   1      41.215  29.644  33.026  1.00  0.00    -0.248 NA
ATOM     51  C   UNL A   1      42.173  27.821  31.921  1.00  0.00     0.031 C 
ATOM     52  C   UNL A   1      42.506  31.109  37.017  1.00  0.00     0.029 A 
ATOM     53  C   UNL A   1      42.128  30.635  35.771  1.00  0.00     0.049 A 
ATOM     54  H   UNL A   1      40.646  31.372  34.463  1.00  0.00     0.167 HD
ATOM     55  C   UNL A   1      42.221  29.104  33.821  1.00  0.00     0.074 A 
ATOM     56  C   UNL A   1      42.758  27.968  33.101  1.00  0.00     0.031 C 
ATOM     57  C   UNL A   1      42.655  29.508  35.042  1.00  0.00     0.031 A 
BRANCH  44  58
ATOM     58  C   UNL A   1      39.772  34.542  37.193  1.00  0.00    -0.014 A 
ATOM     59  C   UNL A   1      40.475  35.758  37.106  1.00  0.00     0.010 A 
ATOM     60  C   UNL A   1      38.947  34.306  38.307  1.00  0.00     0.010 A 
ATOM     61  C   UNL A   1      40.396  36.695  38.142  1.00  0.00     0.020 A 
ATOM     62  C   UNL A   1      38.843  35.252  39.330  1.00  0.00     0.020 A 
ATOM     63  C   UNL A   1      39.588  36.431  39.252  1.00  0.00     0.054 A 
BRANCH  63  64
ATOM     64  S   UNL A   1      39.508  37.656  40.587  1.00  0.00     0.124 S 
ATOM     65  O   UNL A   1      39.238  36.814  41.750  1.00  0.00    -0.237 OA
ATOM     66  O   UNL A   1      40.836  38.263  40.547  1.00  0.00    -0.237 OA
ATOM     67  O   UNL A   1      38.412  38.534  40.187  1.00  0.00    -0.744 OA
ENDBRANCH  63  64
ENDBRANCH  44  58
BRANCH  45  68
ATOM     68  C   UNL A   1      40.326  28.006  29.655  1.00  0.00    -0.014 A 
ATOM     69  C   UNL A   1      41.264  28.170  28.620  1.00  0.00     0.010 A 
ATOM     70  C   UNL A   1      39.472  26.889  29.632  1.00  0.00     0.010 A 
ATOM     71  C   UNL A   1      41.340  27.239  27.580  1.00  0.00     0.020 A 
ATOM     72  C   UNL A   1      39.562  25.944  28.607  1.00  0.00     0.020 A 
ATOM     73  C   UNL A   1      40.492  26.130  27.582  1.00  0.00     0.054 A 
BRANCH  73  74
ATOM     74  S   UNL A   1      40.653  24.900  26.256  1.00  0.00     0.124 S 
ATOM     75  O   UNL A   1      41.222  25.695  25.173  1.00  0.00    -0.237 OA
ATOM     76  O   UNL A   1      41.545  23.909  26.853  1.00  0.00    -0.237 OA
ATOM     77  O   UNL A   1      39.280  24.445  26.046  1.00  0.00    -0.744 OA
ENDBRANCH  73  74
ENDBRANCH  45  68
BRANCH  57  78
ATOM     78  C   UNL A   1      43.739  28.695  35.698  1.00  0.00    -0.014 A 
ATOM     79  C   UNL A   1      45.098  29.006  35.520  1.00  0.00     0.010 A 
ATOM     80  C   UNL A   1      43.386  27.627  36.544  1.00  0.00     0.010 A 
ATOM     81  C   UNL A   1      46.086  28.242  36.149  1.00  0.00     0.020 A 
ATOM     82  C   UNL A   1      44.368  26.878  37.195  1.00  0.00     0.020 A 
ATOM     83  C   UNL A   1      45.714  27.182  36.980  1.00  0.00     0.054 A 
BRANCH  83  84
ATOM     84  S   UNL A   1      47.012  26.227  37.815  1.00  0.00     0.124 S 
ATOM     85  O   UNL A   1      47.444  25.316  36.758  1.00  0.00    -0.237 OA
ATOM     86  O   UNL A   1      47.977  27.256  38.192  1.00  0.00    -0.237 OA
ATOM     87  O   UNL A   1      46.314  25.596  38.934  1.00  0.00    -0.744 OA
ENDBRANCH  83  84
ENDBRANCH  57  78
ENDBRANCH  31  32
ENDBRANCH  24  26
ENDBRANCH  23  24
ENDBRANCH  22  23
ENDBRANCH  21  22
ENDBRANCH   1  21
TORSDOF 20
ENDMDL
MODEL 2
REMARK VINA RESULT:      -8.9      6.529     11.931
REMARK SMILES CC(=O)N[C@@H](C)C(=O)N1CCC[C@H]1C(=O)OCCOCCOC(=O)c1ccc(-c2c3nc(c(-c4ccc(S(=O)(=O)[O-])cc4)c4ccc([nH]4)c(-c4ccc(S(=O)(=O)[O-])cc4)c4nc(c(-c5ccc(S(=O)(=O)[O-])cc5)c5ccc2[nH]5)C=C4)C=C3)cc1
REMARK SMILES IDX 19 1 18 2 17 3 16 4 14 5 15 6 13 7 9 8 10 9 11 10 12 11 7 12
REMARK SMILES IDX 8 13 5 14 6 15 4 16 1 17 2 18 3 19 20 21 21 22 22 23 23 24
REMARK SMILES IDX 24 25 25 26 26 27 84 28 27 29 83 30 28 31 29 32 30 33 77 34
REMARK SMILES IDX 31 35 82 36 76 37 78 38 32 39 81 40 75 41 74 42 33 44 63 45
REMARK SMILES IDX 44 46 62 47 45 48 48 49 61 50 79 51 46 52 47 53 60 55 80 56
REMARK SMILES IDX 49 57 34 58 35 59 43 60 36 61 42 62 37 63 38 64 39 65 40 66
REMARK SMILES IDX 41 67 64 68 65 69 73 70 66 71 72 72 67 73 68 74 69 75 70 76
REMARK SMILES IDX 71 77 50 78 51 79 59 80 52 81 58 82 53 83 54 84 55 85 56 86
REMARK SMILES IDX 57 87
REMARK H PARENT 4 20 78 43 48 54
REMARK Flexibility Score: inf
ROOT
ATOM      1  O   UNL A   1      37.392  21.837  24.181  1.00  0.00    -0.374 OA
ENDROOT
BRANCH   1   2
ATOM      2  C   UNL A   1      36.469  22.929  24.170  1.00  0.00     0.202 C 
BRANCH   2   3
ATOM      3  C   UNL A   1      35.147  22.667  23.447  1.00  0.00     0.261 C 
BRANCH   3   4
ATOM      4  O   UNL A   1      34.161  23.612  23.897  1.00  0.00    -0.462 OA
BRANCH   4   5
ATOM      5  C   UNL A   1      33.215  23.975  22.987  1.00  0.00     0.328 C 
ATOM      6  O   UNL A   1      33.252  23.667  21.803  1.00  0.00    -0.250 OA
BRANCH   5   7
ATOM      7  C   UNL A   1      32.072  24.789  23.641  1.00  0.00     0.195 C 
ATOM      8  N   UNL A   1      32.056  26.274  23.574  1.00  0.00    -0.327 N 
ATOM      9  C   UNL A   1      30.711  26.760  23.302  1.00  0.00     0.120 C 
ATOM     10  C   UNL A   1      29.805  25.567  23.541  1.00  0.00     0.024 C 
ATOM     11  C   UNL A   1      30.676  24.393  23.130  1.00  0.00     0.039 C 
BRANCH   8  12
ATOM     12  C   UNL A   1      33.143  27.006  24.006  1.00  0.00     0.245 C 
ATOM     13  O   UNL A   1      33.956  27.462  23.197  1.00  0.00    -0.272 OA
BRANCH  12  14
ATOM     14  C   UNL A   1      33.521  27.075  25.507  1.00  0.00     0.168 C 
ATOM     15  C   UNL A   1      34.584  26.006  25.771  1.00  0.00     0.041 C 
BRANCH  14  16
ATOM     16  N   UNL A   1      32.462  27.011  26.511  1.00  0.00    -0.345 N 
ATOM     17  C   UNL A   1      32.010  29.441  26.549  1.00  0.00     0.114 C 
ATOM     18  C   UNL A   1      31.793  28.053  27.084  1.00  0.00     0.217 C 
ATOM     19  O   UNL A   1      31.028  27.829  28.019  1.00  0.00    -0.275 OA
ATOM     20  H   UNL A   1      32.201  26.109  26.809  1.00  0.00     0.164 HD
ENDBRANCH  14  16
ENDBRANCH  12  14
ENDBRANCH   8  12
ENDBRANCH   5   7
ENDBRANCH   4   5
ENDBRANCH   3   4
ENDBRANCH   2   3
ENDBRANCH   1   2
BRANCH   1  21
ATOM     21  C   UNL A   1      38.094  21.581  25.397  1.00  0.00     0.202 C 
BRANCH  21  22
ATOM     22  C   UNL A   1      38.930  20.296  25.437  1.00  0.00     0.261 C 
BRANCH  22  23
ATOM     23  O   UNL A   1      39.814  20.245  26.570  1.00  0.00    -0.460 OA
BRANCH  23  24
ATOM     24  C   UNL A   1      41.097  19.942  26.258  1.00  0.00     0.338 C 
ATOM     25  O   UNL A   1      41.506  18.899  25.759  1.00  0.00    -0.246 OA
BRANCH  24  26
ATOM     26  C   UNL A   1      41.974  21.111  26.448  1.00  0.00     0.060 A 
ATOM     27  C   UNL A   1      42.285  21.471  27.766  1.00  0.00     0.016 A 
ATOM     28  C   UNL A   1      42.407  21.899  25.379  1.00  0.00     0.016 A 
ATOM     29  C   UNL A   1      42.966  22.656  28.025  1.00  0.00     0.010 A 
ATOM     30  C   UNL A   1      43.091  23.093  25.641  1.00  0.00     0.010 A 
ATOM     31  C   UNL A   1      43.330  23.500  26.967  1.00  0.00    -0.014 A 
BRANCH  31  32
ATOM     32  C   UNL A   1      43.796  24.875  27.271  1.00  0.00     0.031 A 
ATOM     33  C   UNL A   1      45.247  25.216  27.050  1.00  0.00     0.074 A 
ATOM     34  C   UNL A   1      42.934  25.824  27.679  1.00  0.00     0.049 A 
ATOM     35  N   UNL A   1      45.862  26.361  27.202  1.00  0.00    -0.248 NA
ATOM     36  C   UNL A   1      46.119  24.120  26.596  1.00  0.00     0.031 C 
ATOM     37  C   UNL A   1      41.499  25.631  27.883  1.00  0.00     0.029 A 
ATOM     38  N   UNL A   1      43.143  27.145  27.981  1.00  0.00    -0.354 N 
ATOM     39  C   UNL A   1      47.192  26.122  26.875  1.00  0.00     0.074 A 
ATOM     40  C   UNL A   1      47.300  24.717  26.543  1.00  0.00     0.031 C 
ATOM     41  C   UNL A   1      40.953  26.799  28.264  1.00  0.00     0.029 A 
ATOM     42  C   UNL A   1      42.003  27.812  28.358  1.00  0.00     0.049 A 
ATOM     43  H   UNL A   1      44.028  27.576  27.933  1.00  0.00     0.167 HD
ATOM     44  C   UNL A   1      48.230  26.992  26.845  1.00  0.00     0.031 A 
ATOM     45  C   UNL A   1      41.826  29.093  28.738  1.00  0.00     0.031 A 
ATOM     46  C   UNL A   1      48.124  28.387  27.180  1.00  0.00     0.049 A 
ATOM     47  C   UNL A   1      43.007  30.028  28.760  1.00  0.00     0.074 A 
ATOM     48  C   UNL A   1      49.109  29.357  27.155  1.00  0.00     0.029 A 
ATOM     49  N   UNL A   1      46.961  29.009  27.610  1.00  0.00    -0.354 N 
ATOM     50  N   UNL A   1      44.252  29.793  28.417  1.00  0.00    -0.248 NA
ATOM     51  C   UNL A   1      42.755  31.403  29.211  1.00  0.00     0.031 C 
ATOM     52  C   UNL A   1      48.557  30.553  27.625  1.00  0.00     0.029 A 
ATOM     53  C   UNL A   1      47.212  30.343  27.886  1.00  0.00     0.049 A 
ATOM     54  H   UNL A   1      46.086  28.568  27.707  1.00  0.00     0.167 HD
ATOM     55  C   UNL A   1      44.923  31.001  28.579  1.00  0.00     0.074 A 
ATOM     56  C   UNL A   1      43.946  31.963  29.045  1.00  0.00     0.031 C 
ATOM     57  C   UNL A   1      46.230  31.289  28.352  1.00  0.00     0.031 A 
BRANCH  44  58
ATOM     58  C   UNL A   1      49.584  26.439  26.482  1.00  0.00    -0.014 A 
ATOM     59  C   UNL A   1      50.446  25.907  27.459  1.00  0.00     0.010 A 
ATOM     60  C   UNL A   1      49.996  26.447  25.137  1.00  0.00     0.010 A 
ATOM     61  C   UNL A   1      51.716  25.444  27.103  1.00  0.00     0.020 A 
ATOM     62  C   UNL A   1      51.253  25.958  24.773  1.00  0.00     0.020 A 
ATOM     63  C   UNL A   1      52.116  25.482  25.763  1.00  0.00     0.054 A 
BRANCH  63  64
ATOM     64  S   UNL A   1      53.771  24.884  25.326  1.00  0.00     0.124 S 
ATOM     65  O   UNL A   1      54.106  25.735  24.187  1.00  0.00    -0.237 OA
ATOM     66  O   UNL A   1      54.537  25.137  26.544  1.00  0.00    -0.237 OA
ATOM     67  O   UNL A   1      53.559  23.474  25.008  1.00  0.00    -0.744 OA
ENDBRANCH  63  64
ENDBRANCH  44  58
BRANCH  45  68
ATOM     68  C   UNL A   1      40.470  29.573  29.118  1.00  0.00    -0.014 A 
ATOM     69  C   UNL A   1      39.453  29.679  28.153  1.00  0.00     0.010 A 
ATOM     70  C   UNL A   1      40.185  29.917  30.452  1.00  0.00     0.010 A 
ATOM     71  C   UNL A   1      38.178  30.127  28.513  1.00  0.00     0.020 A 
ATOM     72  C   UNL A   1      38.905  30.342  30.821  1.00  0.00     0.020 A 
ATOM     73  C   UNL A   1      37.911  30.451  29.846  1.00  0.00     0.054 A 
BRANCH  73  74
ATOM     74  S   UNL A   1      36.233  30.968  30.303  1.00  0.00     0.124 S 
ATOM     75  O   UNL A   1      35.502  30.760  29.057  1.00  0.00    -0.237 OA
ATOM     76  O   UNL A   1      35.906  30.050  31.391  1.00  0.00    -0.237 OA
ATOM     77  O   UNL A   1      36.403  32.363  30.705  1.00  0.00    -0.744 OA
ENDBRANCH  73  74
ENDBRANCH  45  68
BRANCH  57  78
ATOM     78  C   UNL A   1      46.674  32.711  28.568  1.00  0.00    -0.014 A 
ATOM     79  C   UNL A   1      46.618  33.662  27.535  1.00  0.00     0.010 A 
ATOM     80  C   UNL A   1      47.113  33.111  29.844  1.00  0.00     0.010 A 
ATOM     81  C   UNL A   1      47.024  34.980  27.764  1.00  0.00     0.020 A 
ATOM     82  C   UNL A   1      47.495  34.433  30.085  1.00  0.00     0.020 A 
ATOM     83  C   UNL A   1      47.463  35.356  29.037  1.00  0.00     0.054 A 
BRANCH  83  84
ATOM     84  S   UNL A   1      47.953  37.080  29.321  1.00  0.00     0.124 S 
ATOM     85  O   UNL A   1      48.448  37.474  28.005  1.00  0.00    -0.237 OA
ATOM     86  O   UNL A   1      46.700  37.706  29.735  1.00  0.00    -0.237 OA
ATOM     87  O   UNL A   1      48.970  36.983  30.366  1.00  0.00    -0.744 OA
ENDBRANCH  83  84
ENDBRANCH  57  78
ENDBRANCH  31  32
ENDBRANCH  24  26
ENDBRANCH  23  24
ENDBRANCH  22  23
ENDBRANCH  21  22
ENDBRANCH   1  21
TORSDOF 20
ENDMDL
MODEL 3
REMARK VINA RESULT:      -8.9      6.686     10.668
REMARK SMILES CC(=O)N[C@@H](C)C(=O)N1CCC[C@H]1C(=O)OCCOCCOC(=O)c1ccc(-c2c3nc(c(-c4ccc(S(=O)(=O)[O-])cc4)c4ccc([nH]4)c(-c4ccc(S(=O)(=O)[O-])cc4)c4nc(c(-c5ccc(S(=O)(=O)[O-])cc5)c5ccc2[nH]5)C=C4)C=C3)cc1
REMARK SMILES IDX 19 1 18 2 17 3 16 4 14 5 15 6 13 7 9 8 10 9 11 10 12 11 7 12
REMARK SMILES IDX 8 13 5 14 6 15 4 16 1 17 2 18 3 19 20 21 21 22 22 23 23 24
REMARK SMILES IDX 24 25 25 26 26 27 84 28 27 29 83 30 28 31 29 32 30 33 77 34
REMARK SMILES IDX 31 35 82 36 76 37 78 38 32 39 81 40 75 41 74 42 33 44 63 45
REMARK SMILES IDX 44 46 62 47 45 48 48 49 61 50 79 51 46 52 47 53 60 55 80 56
REMARK SMILES IDX 49 57 34 58 35 59 43 60 36 61 42 62 37 63 38 64 39 65 40 66
REMARK SMILES IDX 41 67 64 68 65 69 73 70 66 71 72 72 67 73 68 74 69 75 70 76
REMARK SMILES IDX 71 77 50 78 51 79 59 80 52 81 58 82 53 83 54 84 55 85 56 86
REMARK SMILES IDX 57 87
REMARK H PARENT 4 20 78 43 48 54
REMARK Flexibility Score: inf
ROOT
ATOM      1  O   UNL A   1      38.133  23.235  25.579  1.00  0.00    -0.374 OA
ENDROOT
BRANCH   1   2
ATOM      2  C   UNL A   1      37.055  22.664  24.834  1.00  0.00     0.202 C 
BRANCH   2   3
ATOM      3  C   UNL A   1      35.832  23.563  24.650  1.00  0.00     0.261 C 
BRANCH   3   4
ATOM      4  O   UNL A   1      34.660  22.880  25.129  1.00  0.00    -0.462 OA
BRANCH   4   5
ATOM      5  C   UNL A   1      33.464  23.338  24.666  1.00  0.00     0.328 C 
ATOM      6  O   UNL A   1      33.215  23.520  23.480  1.00  0.00    -0.250 OA
BRANCH   5   7
ATOM      7  C   UNL A   1      32.451  23.563  25.814  1.00  0.00     0.195 C 
ATOM      8  N   UNL A   1      31.590  24.775  25.848  1.00  0.00    -0.327 N 
ATOM      9  C   UNL A   1      30.234  24.428  26.248  1.00  0.00     0.120 C 
ATOM     10  C   UNL A   1      30.335  23.020  26.805  1.00  0.00     0.024 C 
ATOM     11  C   UNL A   1      31.449  22.407  25.975  1.00  0.00     0.039 C 
BRANCH   8  12
ATOM     12  C   UNL A   1      32.150  26.034  25.778  1.00  0.00     0.245 C 
ATOM     13  O   UNL A   1      32.212  26.751  26.780  1.00  0.00    -0.272 OA
BRANCH  12  14
ATOM     14  C   UNL A   1      32.491  26.688  24.416  1.00  0.00     0.168 C 
ATOM     15  C   UNL A   1      33.760  27.525  24.604  1.00  0.00     0.041 C 
BRANCH  14  16
ATOM     16  N   UNL A   1      31.464  27.456  23.718  1.00  0.00    -0.345 N 
ATOM     17  C   UNL A   1      31.608  26.192  21.599  1.00  0.00     0.114 C 
ATOM     18  C   UNL A   1      31.073  27.334  22.417  1.00  0.00     0.217 C 
ATOM     19  O   UNL A   1      30.291  28.159  21.948  1.00  0.00    -0.275 OA
ATOM     20  H   UNL A   1      31.000  28.143  24.249  1.00  0.00     0.164 HD
ENDBRANCH  14  16
ENDBRANCH  12  14
ENDBRANCH   8  12
ENDBRANCH   5   7
ENDBRANCH   4   5
ENDBRANCH   3   4
ENDBRANCH   2   3
ENDBRANCH   1   2
BRANCH   1  21
ATOM     21  C   UNL A   1      38.839  22.379  26.477  1.00  0.00     0.202 C 
BRANCH  21  22
ATOM     22  C   UNL A   1      39.348  21.057  25.891  1.00  0.00     0.261 C 
BRANCH  22  23
ATOM     23  O   UNL A   1      40.178  20.326  26.811  1.00  0.00    -0.460 OA
BRANCH  23  24
ATOM     24  C   UNL A   1      41.401  20.009  26.322  1.00  0.00     0.338 C 
ATOM     25  O   UNL A   1      41.710  18.985  25.721  1.00  0.00    -0.246 OA
BRANCH  24  26
ATOM     26  C   UNL A   1      42.332  21.144  26.460  1.00  0.00     0.060 A 
ATOM     27  C   UNL A   1      42.531  21.655  27.748  1.00  0.00     0.016 A 
ATOM     28  C   UNL A   1      42.924  21.760  25.354  1.00  0.00     0.016 A 
ATOM     29  C   UNL A   1      43.262  22.825  27.930  1.00  0.00     0.010 A 
ATOM     30  C   UNL A   1      43.658  22.939  25.539  1.00  0.00     0.010 A 
ATOM     31  C   UNL A   1      43.788  23.502  26.822  1.00  0.00    -0.014 A 
BRANCH  31  32
ATOM     32  C   UNL A   1      44.314  24.877  27.001  1.00  0.00     0.031 A 
ATOM     33  C   UNL A   1      43.378  25.956  27.479  1.00  0.00     0.074 A 
ATOM     34  C   UNL A   1      45.615  25.152  26.801  1.00  0.00     0.049 A 
ATOM     35  N   UNL A   1      43.630  27.212  27.750  1.00  0.00    -0.248 NA
ATOM     36  C   UNL A   1      41.972  25.568  27.681  1.00  0.00     0.031 C 
ATOM     37  C   UNL A   1      46.630  24.184  26.384  1.00  0.00     0.029 A 
ATOM     38  N   UNL A   1      46.307  26.329  26.936  1.00  0.00    -0.354 N 
ATOM     39  C   UNL A   1      42.415  27.764  28.142  1.00  0.00     0.074 A 
ATOM     40  C   UNL A   1      41.423  26.716  28.046  1.00  0.00     0.031 C 
ATOM     41  C   UNL A   1      47.820  24.805  26.311  1.00  0.00     0.029 A 
ATOM     42  C   UNL A   1      47.646  26.218  26.648  1.00  0.00     0.049 A 
ATOM     43  H   UNL A   1      45.884  27.174  27.213  1.00  0.00     0.167 HD
ATOM     44  C   UNL A   1      42.149  29.029  28.551  1.00  0.00     0.031 A 
ATOM     45  C   UNL A   1      48.620  27.149  26.652  1.00  0.00     0.031 A 
ATOM     46  C   UNL A   1      43.135  30.072  28.641  1.00  0.00     0.049 A 
ATOM     47  C   UNL A   1      48.288  28.564  27.048  1.00  0.00     0.074 A 
ATOM     48  C   UNL A   1      42.972  31.377  29.069  1.00  0.00     0.029 A 
ATOM     49  N   UNL A   1      44.468  29.931  28.287  1.00  0.00    -0.354 N 
ATOM     50  N   UNL A   1      47.141  29.062  27.446  1.00  0.00    -0.248 NA
ATOM     51  C   UNL A   1      49.386  29.539  27.005  1.00  0.00     0.031 C 
ATOM     52  C   UNL A   1      44.194  32.042  28.920  1.00  0.00     0.029 A 
ATOM     53  C   UNL A   1      45.132  31.135  28.455  1.00  0.00     0.049 A 
ATOM     54  H   UNL A   1      44.882  29.099  27.961  1.00  0.00     0.167 HD
ATOM     55  C   UNL A   1      47.389  30.401  27.733  1.00  0.00     0.074 A 
ATOM     56  C   UNL A   1      48.794  30.632  27.468  1.00  0.00     0.031 C 
ATOM     57  C   UNL A   1      46.531  31.351  28.185  1.00  0.00     0.031 A 
BRANCH  44  58
ATOM     58  C   UNL A   1      40.717  29.359  28.885  1.00  0.00    -0.014 A 
ATOM     59  C   UNL A   1      39.735  29.461  27.882  1.00  0.00     0.010 A 
ATOM     60  C   UNL A   1      40.349  29.562  30.227  1.00  0.00     0.010 A 
ATOM     61  C   UNL A   1      38.423  29.815  28.212  1.00  0.00     0.020 A 
ATOM     62  C   UNL A   1      39.033  29.888  30.564  1.00  0.00     0.020 A 
ATOM     63  C   UNL A   1      38.083  30.037  29.551  1.00  0.00     0.054 A 
BRANCH  63  64
ATOM     64  S   UNL A   1      36.377  30.504  29.955  1.00  0.00     0.124 S 
ATOM     65  O   UNL A   1      36.161  29.790  31.212  1.00  0.00    -0.237 OA
ATOM     66  O   UNL A   1      36.460  31.958  30.066  1.00  0.00    -0.237 OA
ATOM     67  O   UNL A   1      35.604  30.011  28.819  1.00  0.00    -0.744 OA
ENDBRANCH  63  64
ENDBRANCH  44  58
BRANCH  45  68
ATOM     68  C   UNL A   1      50.010  26.770  26.281  1.00  0.00    -0.014 A 
ATOM     69  C   UNL A   1      50.418  26.782  24.935  1.00  0.00     0.010 A 
ATOM     70  C   UNL A   1      50.939  26.408  27.273  1.00  0.00     0.010 A 
ATOM     71  C   UNL A   1      51.726  26.429  24.588  1.00  0.00     0.020 A 
ATOM     72  C   UNL A   1      52.254  26.079  26.932  1.00  0.00     0.020 A 
ATOM     73  C   UNL A   1      52.636  26.084  25.590  1.00  0.00     0.054 A 
BRANCH  73  74
ATOM     74  S   UNL A   1      54.346  25.693  25.123  1.00  0.00     0.124 S 
ATOM     75  O   UNL A   1      54.496  26.431  23.873  1.00  0.00    -0.237 OA
ATOM     76  O   UNL A   1      55.108  26.207  26.259  1.00  0.00    -0.237 OA
ATOM     77  O   UNL A   1      54.340  24.237  24.995  1.00  0.00    -0.744 OA
ENDBRANCH  73  74
ENDBRANCH  45  68
BRANCH  57  78
ATOM     78  C   UNL A   1      47.095  32.720  28.459  1.00  0.00    -0.014 A 
ATOM     79  C   UNL A   1      47.096  33.723  27.474  1.00  0.00     0.010 A 
ATOM     80  C   UNL A   1      47.591  33.019  29.742  1.00  0.00     0.010 A 
ATOM     81  C   UNL A   1      47.614  34.991  27.757  1.00  0.00     0.020 A 
ATOM     82  C   UNL A   1      48.084  34.292  30.037  1.00  0.00     0.020 A 
ATOM     83  C   UNL A   1      48.107  35.265  29.036  1.00  0.00     0.054 A 
BRANCH  83  84
ATOM     84  S   UNL A   1      48.742  36.928  29.391  1.00  0.00     0.124 S 
ATOM     85  O   UNL A   1      48.904  37.483  28.050  1.00  0.00    -0.237 OA
ATOM     86  O   UNL A   1      47.672  37.517  30.191  1.00  0.00    -0.237 OA
ATOM     87  O   UNL A   1      49.987  36.676  30.116  1.00  0.00    -0.744 OA
ENDBRANCH  83  84
ENDBRANCH  57  78
ENDBRANCH  31  32
ENDBRANCH  24  26
ENDBRANCH  23  24
ENDBRANCH  22  23
ENDBRANCH  21  22
ENDBRANCH   1  21
TORSDOF 20
ENDMDL
