MODEL 1
REMARK VINA RESULT:     -10.3      0.000      0.000
REMARK SMILES COC(=O)[C@@H]1C[C@@H](C(=O)OCCOCCOC(=O)c2ccc(-c3c4nc(c(-c5ccc(S(=O)(=O)[O-])cc5)c5ccc([nH]5)c(-c5ccc(S(=O)(=O)[O-])cc5)c5nc(c(-c6ccc(S(=O)(=O)[O-])cc6)c6ccc3[nH]6)C=C5)C=C4)cc2)[C@@H](c2cccc(F)c2F)[N@H+]1C
REMARK SMILES IDX 14 1 13 2 12 3 11 4 10 5 8 6 9 7 7 8 5 9 6 10 88 11 79 12
REMARK SMILES IDX 89 13 3 15 4 16 2 17 1 18 80 19 81 20 86 21 82 22 84 23
REMARK SMILES IDX 87 24 83 25 85 26 15 27 16 28 17 29 18 30 19 31 20 32 78 33
REMARK SMILES IDX 21 34 77 35 22 36 23 37 24 38 71 39 25 40 76 41 70 42 72 43
REMARK SMILES IDX 26 44 75 45 69 46 68 47 27 49 57 50 38 51 56 52 39 53 42 54
REMARK SMILES IDX 55 55 73 56 40 57 41 58 54 60 74 61 43 62 28 63 29 64 37 65
REMARK SMILES IDX 30 66 36 67 31 68 32 69 33 70 34 71 35 72 58 73 59 74 67 75
REMARK SMILES IDX 60 76 66 77 61 78 62 79 63 80 64 81 65 82 44 83 45 84 53 85
REMARK SMILES IDX 46 86 52 87 47 88 48 89 49 90 50 91 51 92
REMARK H PARENT 88 14 72 48 42 59
REMARK Flexibility Score: inf
ROOT
ATOM      1  C   UNL A   1      41.903  21.700  27.178  1.00  0.00     0.202 C 
ENDROOT
BRANCH   1   2
ATOM      2  O   UNL A   1      40.743  21.212  26.505  1.00  0.00    -0.374 OA
BRANCH   2   3
ATOM      3  C   UNL A   1      39.551  21.982  26.684  1.00  0.00     0.202 C 
BRANCH   3   4
ATOM      4  C   UNL A   1      38.633  21.997  25.460  1.00  0.00     0.261 C 
BRANCH   4   5
ATOM      5  O   UNL A   1      37.313  21.548  25.822  1.00  0.00    -0.463 OA
BRANCH   5   6
ATOM      6  C   UNL A   1      36.375  22.501  26.021  1.00  0.00     0.315 C 
ATOM      7  O   UNL A   1      36.617  23.675  26.269  1.00  0.00    -0.252 OA
BRANCH   6   8
ATOM      8  C   UNL A   1      34.968  21.969  25.897  1.00  0.00     0.168 C 
ATOM      9  C   UNL A   1      33.361  20.904  24.446  1.00  0.00     0.296 C 
ATOM     10  C   UNL A   1      34.812  20.798  24.930  1.00  0.00     0.099 C 
ATOM     11  N   UNL A   1      32.761  21.840  25.425  1.00  0.00    -0.319 N 
ATOM     12  C   UNL A   1      33.776  22.912  25.625  1.00  0.00     0.233 C 
ATOM     13  C   UNL A   1      31.405  22.268  25.129  1.00  0.00     0.334 C 
ATOM     14  H   UNL A   1      32.576  21.376  26.315  1.00  0.00     0.349 HD
BRANCH   9  15
ATOM     15  C   UNL A   1      32.640  19.561  24.398  1.00  0.00     0.364 C 
ATOM     16  O   UNL A   1      32.183  19.021  23.399  1.00  0.00    -0.245 OA
BRANCH  15  17
ATOM     17  O   UNL A   1      32.566  19.049  25.665  1.00  0.00    -0.465 OA
ATOM     18  C   UNL A   1      32.662  17.630  25.736  1.00  0.00     0.282 C 
ENDBRANCH  15  17
ENDBRANCH   9  15
BRANCH  12  19
ATOM     19  C   UNL A   1      33.760  23.944  24.497  1.00  0.00     0.049 A 
ATOM     20  C   UNL A   1      33.539  23.650  23.143  1.00  0.00     0.013 A 
ATOM     21  C   UNL A   1      33.846  25.308  24.844  1.00  0.00     0.167 A 
ATOM     22  C   UNL A   1      33.380  24.665  22.189  1.00  0.00     0.004 A 
ATOM     23  C   UNL A   1      33.632  26.315  23.907  1.00  0.00     0.159 A 
ATOM     24  F   UNL A   1      34.078  25.658  26.119  1.00  0.00    -0.203 F 
ATOM     25  C   UNL A   1      33.382  25.999  22.581  1.00  0.00     0.042 A 
ATOM     26  F   UNL A   1      33.653  27.601  24.283  1.00  0.00    -0.204 F 
ENDBRANCH  12  19
ENDBRANCH   6   8
ENDBRANCH   5   6
ENDBRANCH   4   5
ENDBRANCH   3   4
ENDBRANCH   2   3
ENDBRANCH   1   2
BRANCH   1  27
ATOM     27  C   UNL A   1      42.858  22.515  26.306  1.00  0.00     0.261 C 
BRANCH  27  28
ATOM     28  O   UNL A   1      42.316  23.816  26.023  1.00  0.00    -0.460 OA
BRANCH  28  29
ATOM     29  C   UNL A   1      43.163  24.844  26.263  1.00  0.00     0.338 C 
ATOM     30  O   UNL A   1      44.203  25.095  25.674  1.00  0.00    -0.246 OA
BRANCH  29  31
ATOM     31  C   UNL A   1      42.560  25.757  27.254  1.00  0.00     0.060 A 
ATOM     32  C   UNL A   1      43.218  26.961  27.518  1.00  0.00     0.016 A 
ATOM     33  C   UNL A   1      41.390  25.433  27.939  1.00  0.00     0.016 A 
ATOM     34  C   UNL A   1      42.737  27.816  28.509  1.00  0.00     0.010 A 
ATOM     35  C   UNL A   1      40.883  26.316  28.900  1.00  0.00     0.010 A 
ATOM     36  C   UNL A   1      41.580  27.490  29.235  1.00  0.00    -0.014 A 
BRANCH  36  37
ATOM     37  C   UNL A   1      41.207  28.300  30.429  1.00  0.00     0.031 A 
ATOM     38  C   UNL A   1      42.038  28.195  31.688  1.00  0.00     0.074 A 
ATOM     39  C   UNL A   1      40.184  29.178  30.382  1.00  0.00     0.049 A 
ATOM     40  N   UNL A   1      41.950  28.886  32.798  1.00  0.00    -0.248 NA
ATOM     41  C   UNL A   1      43.094  27.168  31.712  1.00  0.00     0.031 C 
ATOM     42  C   UNL A   1      39.286  29.375  29.242  1.00  0.00     0.029 A 
ATOM     43  N   UNL A   1      39.744  30.090  31.311  1.00  0.00    -0.354 N 
ATOM     44  C   UNL A   1      42.927  28.372  33.644  1.00  0.00     0.074 A 
ATOM     45  C   UNL A   1      43.546  27.267  32.951  1.00  0.00     0.031 C 
ATOM     46  C   UNL A   1      38.434  30.376  29.524  1.00  0.00     0.029 A 
ATOM     47  C   UNL A   1      38.704  30.875  30.871  1.00  0.00     0.049 A 
ATOM     48  H   UNL A   1      40.138  30.175  32.210  1.00  0.00     0.167 HD
ATOM     49  C   UNL A   1      43.307  28.794  34.874  1.00  0.00     0.031 A 
ATOM     50  C   UNL A   1      38.050  31.889  31.474  1.00  0.00     0.031 A 
ATOM     51  C   UNL A   1      42.708  29.903  35.568  1.00  0.00     0.049 A 
ATOM     52  C   UNL A   1      38.479  32.335  32.848  1.00  0.00     0.074 A 
ATOM     53  C   UNL A   1      43.053  30.433  36.799  1.00  0.00     0.029 A 
ATOM     54  N   UNL A   1      41.643  30.652  35.094  1.00  0.00    -0.354 N 
ATOM     55  N   UNL A   1      39.449  31.873  33.603  1.00  0.00    -0.248 NA
ATOM     56  C   UNL A   1      37.737  33.457  33.442  1.00  0.00     0.031 C 
ATOM     57  C   UNL A   1      42.155  31.463  37.096  1.00  0.00     0.029 A 
ATOM     58  C   UNL A   1      41.300  31.623  36.019  1.00  0.00     0.049 A 
ATOM     59  H   UNL A   1      41.196  30.513  34.228  1.00  0.00     0.167 HD
ATOM     60  C   UNL A   1      39.452  32.670  34.746  1.00  0.00     0.074 A 
ATOM     61  C   UNL A   1      38.405  33.655  34.569  1.00  0.00     0.031 C 
ATOM     62  C   UNL A   1      40.250  32.594  35.841  1.00  0.00     0.031 A 
BRANCH  49  63
ATOM     63  C   UNL A   1      44.423  28.041  35.553  1.00  0.00    -0.014 A 
ATOM     64  C   UNL A   1      44.160  26.931  36.377  1.00  0.00     0.010 A 
ATOM     65  C   UNL A   1      45.757  28.433  35.343  1.00  0.00     0.010 A 
ATOM     66  C   UNL A   1      45.204  26.257  37.015  1.00  0.00     0.020 A 
ATOM     67  C   UNL A   1      46.808  27.740  35.951  1.00  0.00     0.020 A 
ATOM     68  C   UNL A   1      46.523  26.668  36.799  1.00  0.00     0.054 A 
BRANCH  68  69
ATOM     69  S   UNL A   1      47.861  25.760  37.621  1.00  0.00     0.124 S 
ATOM     70  O   UNL A   1      47.794  26.292  38.979  1.00  0.00    -0.237 OA
ATOM     71  O   UNL A   1      47.442  24.370  37.469  1.00  0.00    -0.237 OA
ATOM     72  O   UNL A   1      49.053  26.137  36.864  1.00  0.00    -0.744 OA
ENDBRANCH  68  69
ENDBRANCH  49  63
BRANCH  50  73
ATOM     73  C   UNL A   1      36.925  32.576  30.775  1.00  0.00    -0.014 A 
ATOM     74  C   UNL A   1      37.172  33.555  29.796  1.00  0.00     0.010 A 
ATOM     75  C   UNL A   1      35.593  32.261  31.101  1.00  0.00     0.010 A 
ATOM     76  C   UNL A   1      36.110  34.222  29.174  1.00  0.00     0.020 A 
ATOM     77  C   UNL A   1      34.529  32.902  30.459  1.00  0.00     0.020 A 
ATOM     78  C   UNL A   1      34.795  33.887  29.508  1.00  0.00     0.054 A 
BRANCH  78  79
ATOM     79  S   UNL A   1      33.433  34.726  28.651  1.00  0.00     0.124 S 
ATOM     80  O   UNL A   1      34.110  35.872  28.052  1.00  0.00    -0.237 OA
ATOM     81  O   UNL A   1      32.972  33.702  27.717  1.00  0.00    -0.237 OA
ATOM     82  O   UNL A   1      32.497  35.043  29.727  1.00  0.00    -0.744 OA
ENDBRANCH  78  79
ENDBRANCH  50  73
BRANCH  62  83
ATOM     83  C   UNL A   1      40.051  33.631  36.918  1.00  0.00    -0.014 A 
ATOM     84  C   UNL A   1      39.271  33.369  38.060  1.00  0.00     0.010 A 
ATOM     85  C   UNL A   1      40.672  34.887  36.792  1.00  0.00     0.010 A 
ATOM     86  C   UNL A   1      39.064  34.365  39.018  1.00  0.00     0.020 A 
ATOM     87  C   UNL A   1      40.498  35.873  37.767  1.00  0.00     0.020 A 
ATOM     88  C   UNL A   1      39.673  35.613  38.861  1.00  0.00     0.054 A 
BRANCH  88  89
ATOM     89  S   UNL A   1      39.382  36.891  40.115  1.00  0.00     0.124 S 
ATOM     90  O   UNL A   1      38.868  37.995  39.310  1.00  0.00    -0.237 OA
ATOM     91  O   UNL A   1      38.411  36.255  41.002  1.00  0.00    -0.237 OA
ATOM     92  O   UNL A   1      40.702  37.109  40.702  1.00  0.00    -0.744 OA
ENDBRANCH  88  89
ENDBRANCH  62  83
ENDBRANCH  36  37
ENDBRANCH  29  31
ENDBRANCH  28  29
ENDBRANCH  27  28
ENDBRANCH   1  27
TORSDOF 20
ENDMDL
MODEL 2
REMARK VINA RESULT:     -10.3      2.950      9.355
REMARK SMILES COC(=O)[C@@H]1C[C@@H](C(=O)OCCOCCOC(=O)c2ccc(-c3c4nc(c(-c5ccc(S(=O)(=O)[O-])cc5)c5ccc([nH]5)c(-c5ccc(S(=O)(=O)[O-])cc5)c5nc(c(-c6ccc(S(=O)(=O)[O-])cc6)c6ccc3[nH]6)C=C5)C=C4)cc2)[C@@H](c2cccc(F)c2F)[N@H+]1C
REMARK SMILES IDX 14 1 13 2 12 3 11 4 10 5 8 6 9 7 7 8 5 9 6 10 88 11 79 12
REMARK SMILES IDX 89 13 3 15 4 16 2 17 1 18 80 19 81 20 86 21 82 22 84 23
REMARK SMILES IDX 87 24 83 25 85 26 15 27 16 28 17 29 18 30 19 31 20 32 78 33
REMARK SMILES IDX 21 34 77 35 22 36 23 37 24 38 71 39 25 40 76 41 70 42 72 43
REMARK SMILES IDX 26 44 75 45 69 46 68 47 27 49 57 50 38 51 56 52 39 53 42 54
REMARK SMILES IDX 55 55 73 56 40 57 41 58 54 60 74 61 43 62 28 63 29 64 37 65
REMARK SMILES IDX 30 66 36 67 31 68 32 69 33 70 34 71 35 72 58 73 59 74 67 75
REMARK SMILES IDX 60 76 66 77 61 78 62 79 63 80 64 81 65 82 44 83 45 84 53 85
REMARK SMILES IDX 46 86 52 87 47 88 48 89 49 90 50 91 51 92
REMARK H PARENT 88 14 72 48 42 59
REMARK Flexibility Score: inf
ROOT
ATOM      1  C   UNL A   1      32.620  28.331  27.018  1.00  0.00     0.202 C 
ENDROOT
BRANCH   1   2
ATOM      2  O   UNL A   1      31.344  27.715  26.845  1.00  0.00    -0.374 OA
BRANCH   2   3
ATOM      3  C   UNL A   1      31.302  26.621  25.925  1.00  0.00     0.202 C 
BRANCH   3   4
ATOM      4  C   UNL A   1      30.492  25.423  26.424  1.00  0.00     0.261 C 
BRANCH   4   5
ATOM      5  O   UNL A   1      31.350  24.500  27.123  1.00  0.00    -0.463 OA
BRANCH   5   6
ATOM      6  C   UNL A   1      31.479  23.263  26.594  1.00  0.00     0.315 C 
ATOM      7  O   UNL A   1      30.546  22.564  26.219  1.00  0.00    -0.252 OA
BRANCH   6   8
ATOM      8  C   UNL A   1      32.918  22.816  26.499  1.00  0.00     0.168 C 
ATOM      9  C   UNL A   1      34.947  22.896  25.195  1.00  0.00     0.296 C 
ATOM     10  C   UNL A   1      33.840  23.789  25.768  1.00  0.00     0.099 C 
ATOM     11  N   UNL A   1      34.760  21.630  25.941  1.00  0.00    -0.319 N 
ATOM     12  C   UNL A   1      33.288  21.408  25.986  1.00  0.00     0.233 C 
ATOM     13  C   UNL A   1      35.578  20.516  25.495  1.00  0.00     0.334 C 
ATOM     14  H   UNL A   1      35.121  21.705  26.892  1.00  0.00     0.349 HD
BRANCH   9  15
ATOM     15  C   UNL A   1      36.346  23.480  25.368  1.00  0.00     0.364 C 
ATOM     16  O   UNL A   1      36.928  23.658  26.429  1.00  0.00    -0.245 OA
BRANCH  15  17
ATOM     17  O   UNL A   1      36.852  23.794  24.137  1.00  0.00    -0.465 OA
ATOM     18  C   UNL A   1      36.545  22.853  23.113  1.00  0.00     0.282 C 
ENDBRANCH  15  17
ENDBRANCH   9  15
BRANCH  12  19
ATOM     19  C   UNL A   1      32.750  20.820  24.681  1.00  0.00     0.049 A 
ATOM     20  C   UNL A   1      32.465  21.561  23.524  1.00  0.00     0.013 A 
ATOM     21  C   UNL A   1      32.648  19.417  24.577  1.00  0.00     0.167 A 
ATOM     22  C   UNL A   1      32.126  20.933  22.317  1.00  0.00     0.004 A 
ATOM     23  C   UNL A   1      32.367  18.793  23.365  1.00  0.00     0.159 A 
ATOM     24  F   UNL A   1      32.885  18.650  25.652  1.00  0.00    -0.203 F 
ATOM     25  C   UNL A   1      32.122  19.546  22.227  1.00  0.00     0.042 A 
ATOM     26  F   UNL A   1      32.345  17.455  23.285  1.00  0.00    -0.204 F 
ENDBRANCH  12  19
ENDBRANCH   6   8
ENDBRANCH   5   6
ENDBRANCH   4   5
ENDBRANCH   3   4
ENDBRANCH   2   3
ENDBRANCH   1   2
BRANCH   1  27
ATOM     27  C   UNL A   1      32.593  29.859  27.085  1.00  0.00     0.261 C 
BRANCH  27  28
ATOM     28  O   UNL A   1      33.864  30.414  26.705  1.00  0.00    -0.460 OA
BRANCH  28  29
ATOM     29  C   UNL A   1      34.363  31.326  27.573  1.00  0.00     0.338 C 
ATOM     30  O   UNL A   1      33.784  32.299  28.032  1.00  0.00    -0.246 OA
BRANCH  29  31
ATOM     31  C   UNL A   1      35.690  30.885  28.042  1.00  0.00     0.060 A 
ATOM     32  C   UNL A   1      35.876  29.523  28.291  1.00  0.00     0.016 A 
ATOM     33  C   UNL A   1      36.730  31.786  28.268  1.00  0.00     0.016 A 
ATOM     34  C   UNL A   1      37.084  29.068  28.820  1.00  0.00     0.010 A 
ATOM     35  C   UNL A   1      37.957  31.320  28.754  1.00  0.00     0.010 A 
ATOM     36  C   UNL A   1      38.130  29.966  29.087  1.00  0.00    -0.014 A 
BRANCH  36  37
ATOM     37  C   UNL A   1      39.323  29.500  29.850  1.00  0.00     0.031 A 
ATOM     38  C   UNL A   1      39.497  29.923  31.290  1.00  0.00     0.074 A 
ATOM     39  C   UNL A   1      40.212  28.650  29.297  1.00  0.00     0.049 A 
ATOM     40  N   UNL A   1      40.402  29.548  32.160  1.00  0.00    -0.248 NA
ATOM     41  C   UNL A   1      38.541  30.911  31.820  1.00  0.00     0.031 C 
ATOM     42  C   UNL A   1      40.183  28.169  27.914  1.00  0.00     0.029 A 
ATOM     43  N   UNL A   1      41.303  28.017  29.843  1.00  0.00    -0.354 N 
ATOM     44  C   UNL A   1      40.127  30.256  33.325  1.00  0.00     0.074 A 
ATOM     45  C   UNL A   1      39.020  31.136  33.032  1.00  0.00     0.031 C 
ATOM     46  C   UNL A   1      41.179  27.285  27.735  1.00  0.00     0.029 A 
ATOM     47  C   UNL A   1      41.936  27.153  28.979  1.00  0.00     0.049 A 
ATOM     48  H   UNL A   1      41.604  28.167  30.769  1.00  0.00     0.167 HD
ATOM     49  C   UNL A   1      40.713  30.167  34.543  1.00  0.00     0.031 A 
ATOM     50  C   UNL A   1      42.995  26.338  29.166  1.00  0.00     0.031 A 
ATOM     51  C   UNL A   1      41.806  29.285  34.851  1.00  0.00     0.049 A 
ATOM     52  C   UNL A   1      43.641  26.264  30.525  1.00  0.00     0.074 A 
ATOM     53  C   UNL A   1      42.439  29.092  36.067  1.00  0.00     0.029 A 
ATOM     54  N   UNL A   1      42.429  28.447  33.939  1.00  0.00    -0.354 N 
ATOM     55  N   UNL A   1      43.323  26.898  31.630  1.00  0.00    -0.248 NA
ATOM     56  C   UNL A   1      44.778  25.344  30.668  1.00  0.00     0.031 C 
ATOM     57  C   UNL A   1      43.485  28.183  35.875  1.00  0.00     0.029 A 
ATOM     58  C   UNL A   1      43.456  27.755  34.558  1.00  0.00     0.049 A 
ATOM     59  H   UNL A   1      42.178  28.358  32.991  1.00  0.00     0.167 HD
ATOM     60  C   UNL A   1      44.200  26.428  32.604  1.00  0.00     0.074 A 
ATOM     61  C   UNL A   1      45.043  25.441  31.963  1.00  0.00     0.031 C 
ATOM     62  C   UNL A   1      44.298  26.781  33.911  1.00  0.00     0.031 A 
BRANCH  49  63
ATOM     63  C   UNL A   1      40.184  31.062  35.636  1.00  0.00    -0.014 A 
ATOM     64  C   UNL A   1      40.912  32.181  36.082  1.00  0.00     0.010 A 
ATOM     65  C   UNL A   1      38.927  30.795  36.207  1.00  0.00     0.010 A 
ATOM     66  C   UNL A   1      40.416  32.986  37.109  1.00  0.00     0.020 A 
ATOM     67  C   UNL A   1      38.410  31.619  37.211  1.00  0.00     0.020 A 
ATOM     68  C   UNL A   1      39.168  32.699  37.669  1.00  0.00     0.054 A 
BRANCH  68  69
ATOM     69  S   UNL A   1      38.538  33.776  38.985  1.00  0.00     0.124 S 
ATOM     70  O   UNL A   1      38.825  35.104  38.449  1.00  0.00    -0.237 OA
ATOM     71  O   UNL A   1      37.124  33.415  39.043  1.00  0.00    -0.237 OA
ATOM     72  O   UNL A   1      39.325  33.394  40.155  1.00  0.00    -0.744 OA
ENDBRANCH  68  69
ENDBRANCH  49  63
BRANCH  50  73
ATOM     73  C   UNL A   1      43.506  25.504  28.041  1.00  0.00    -0.014 A 
ATOM     74  C   UNL A   1      44.538  25.969  27.205  1.00  0.00     0.010 A 
ATOM     75  C   UNL A   1      42.947  24.238  27.789  1.00  0.00     0.010 A 
ATOM     76  C   UNL A   1      44.983  25.196  26.128  1.00  0.00     0.020 A 
ATOM     77  C   UNL A   1      43.411  23.448  26.733  1.00  0.00     0.020 A 
ATOM     78  C   UNL A   1      44.419  23.938  25.902  1.00  0.00     0.054 A 
BRANCH  78  79
ATOM     79  S   UNL A   1      45.048  22.928  24.531  1.00  0.00     0.124 S 
ATOM     80  O   UNL A   1      43.824  22.604  23.805  1.00  0.00    -0.237 OA
ATOM     81  O   UNL A   1      45.962  23.848  23.858  1.00  0.00    -0.237 OA
ATOM     82  O   UNL A   1      45.695  21.803  25.205  1.00  0.00    -0.744 OA
ENDBRANCH  78  79
ENDBRANCH  50  73
BRANCH  62  83
ATOM     83  C   UNL A   1      45.328  26.064  34.748  1.00  0.00    -0.014 A 
ATOM     84  C   UNL A   1      46.637  26.558  34.891  1.00  0.00     0.010 A 
ATOM     85  C   UNL A   1      44.970  24.880  35.419  1.00  0.00     0.010 A 
ATOM     86  C   UNL A   1      47.585  25.848  35.633  1.00  0.00     0.020 A 
ATOM     87  C   UNL A   1      45.904  24.186  36.193  1.00  0.00     0.020 A 
ATOM     88  C   UNL A   1      47.214  24.662  36.273  1.00  0.00     0.054 A 
BRANCH  88  89
ATOM     89  S   UNL A   1      48.463  23.754  37.224  1.00  0.00     0.124 S 
ATOM     90  O   UNL A   1      49.555  24.722  37.293  1.00  0.00    -0.237 OA
ATOM     91  O   UNL A   1      47.776  23.491  38.487  1.00  0.00    -0.237 OA
ATOM     92  O   UNL A   1      48.729  22.572  36.409  1.00  0.00    -0.744 OA
ENDBRANCH  88  89
ENDBRANCH  62  83
ENDBRANCH  36  37
ENDBRANCH  29  31
ENDBRANCH  28  29
ENDBRANCH  27  28
ENDBRANCH   1  27
TORSDOF 20
ENDMDL
MODEL 3
REMARK VINA RESULT:     -10.2      4.159      9.967
REMARK SMILES COC(=O)[C@@H]1C[C@@H](C(=O)OCCOCCOC(=O)c2ccc(-c3c4nc(c(-c5ccc(S(=O)(=O)[O-])cc5)c5ccc([nH]5)c(-c5ccc(S(=O)(=O)[O-])cc5)c5nc(c(-c6ccc(S(=O)(=O)[O-])cc6)c6ccc3[nH]6)C=C5)C=C4)cc2)[C@@H](c2cccc(F)c2F)[N@H+]1C
REMARK SMILES IDX 14 1 13 2 12 3 11 4 10 5 8 6 9 7 7 8 5 9 6 10 88 11 79 12
REMARK SMILES IDX 89 13 3 15 4 16 2 17 1 18 80 19 81 20 86 21 82 22 84 23
REMARK SMILES IDX 87 24 83 25 85 26 15 27 16 28 17 29 18 30 19 31 20 32 78 33
REMARK SMILES IDX 21 34 77 35 22 36 23 37 24 38 71 39 25 40 76 41 70 42 72 43
REMARK SMILES IDX 26 44 75 45 69 46 68 47 27 49 57 50 38 51 56 52 39 53 42 54
REMARK SMILES IDX 55 55 73 56 40 57 41 58 54 60 74 61 43 62 28 63 29 64 37 65
REMARK SMILES IDX 30 66 36 67 31 68 32 69 33 70 34 71 35 72 58 73 59 74 67 75
REMARK SMILES IDX 60 76 66 77 61 78 62 79 63 80 64 81 65 82 44 83 45 84 53 85
REMARK SMILES IDX 46 86 52 87 47 88 48 89 49 90 50 91 51 92
REMARK H PARENT 88 14 72 48 42 59
REMARK Flexibility Score: inf
ROOT
ATOM      1  C   UNL A   1      32.370  26.993  26.555  1.00  0.00     0.202 C 
ENDROOT
BRANCH   1   2
ATOM      2  O   UNL A   1      30.984  26.660  26.502  1.00  0.00    -0.374 OA
BRANCH   2   3
ATOM      3  C   UNL A   1      30.609  25.722  25.489  1.00  0.00     0.202 C 
BRANCH   3   4
ATOM      4  C   UNL A   1      30.449  24.289  26.001  1.00  0.00     0.261 C 
BRANCH   4   5
ATOM      5  O   UNL A   1      31.614  23.509  25.666  1.00  0.00    -0.463 OA
BRANCH   5   6
ATOM      6  C   UNL A   1      32.314  22.982  26.695  1.00  0.00     0.315 C 
ATOM      7  O   UNL A   1      31.887  22.856  27.836  1.00  0.00    -0.252 OA
BRANCH   6   8
ATOM      8  C   UNL A   1      33.702  22.545  26.294  1.00  0.00     0.168 C 
ATOM      9  C   UNL A   1      35.297  22.388  24.490  1.00  0.00     0.296 C 
ATOM     10  C   UNL A   1      34.325  23.362  25.164  1.00  0.00     0.099 C 
ATOM     11  N   UNL A   1      35.404  21.297  25.487  1.00  0.00    -0.319 N 
ATOM     12  C   UNL A   1      34.017  21.068  25.978  1.00  0.00     0.233 C 
ATOM     13  C   UNL A   1      36.149  20.127  25.054  1.00  0.00     0.334 C 
ATOM     14  H   UNL A   1      36.001  21.568  26.268  1.00  0.00     0.349 HD
BRANCH   9  15
ATOM     15  C   UNL A   1      36.646  23.014  24.154  1.00  0.00     0.364 C 
ATOM     16  O   UNL A   1      36.936  23.594  23.117  1.00  0.00    -0.245 OA
BRANCH  15  17
ATOM     17  O   UNL A   1      37.504  22.812  25.201  1.00  0.00    -0.465 OA
ATOM     18  C   UNL A   1      37.860  23.994  25.911  1.00  0.00     0.282 C 
ENDBRANCH  15  17
ENDBRANCH   9  15
BRANCH  12  19
ATOM     19  C   UNL A   1      33.192  20.219  25.010  1.00  0.00     0.049 A 
ATOM     20  C   UNL A   1      32.826  20.609  23.712  1.00  0.00     0.013 A 
ATOM     21  C   UNL A   1      32.876  18.898  25.388  1.00  0.00     0.167 A 
ATOM     22  C   UNL A   1      32.206  19.716  22.827  1.00  0.00     0.004 A 
ATOM     23  C   UNL A   1      32.312  17.996  24.490  1.00  0.00     0.159 A 
ATOM     24  F   UNL A   1      33.178  18.468  26.623  1.00  0.00    -0.203 F 
ATOM     25  C   UNL A   1      31.990  18.395  23.203  1.00  0.00     0.042 A 
ATOM     26  F   UNL A   1      32.087  16.728  24.861  1.00  0.00    -0.204 F 
ENDBRANCH  12  19
ENDBRANCH   6   8
ENDBRANCH   5   6
ENDBRANCH   4   5
ENDBRANCH   3   4
ENDBRANCH   2   3
ENDBRANCH   1   2
BRANCH   1  27
ATOM     27  C   UNL A   1      32.695  28.277  27.321  1.00  0.00     0.261 C 
BRANCH  27  28
ATOM     28  O   UNL A   1      34.047  28.699  27.070  1.00  0.00    -0.460 OA
BRANCH  28  29
ATOM     29  C   UNL A   1      34.404  29.845  27.695  1.00  0.00     0.338 C 
ATOM     30  O   UNL A   1      33.673  30.773  28.007  1.00  0.00    -0.246 OA
BRANCH  29  31
ATOM     31  C   UNL A   1      35.815  29.757  28.118  1.00  0.00     0.060 A 
ATOM     32  C   UNL A   1      36.801  30.038  27.169  1.00  0.00     0.016 A 
ATOM     33  C   UNL A   1      36.175  29.375  29.409  1.00  0.00     0.016 A 
ATOM     34  C   UNL A   1      38.148  29.882  27.495  1.00  0.00     0.010 A 
ATOM     35  C   UNL A   1      37.529  29.266  29.748  1.00  0.00     0.010 A 
ATOM     36  C   UNL A   1      38.528  29.465  28.780  1.00  0.00    -0.014 A 
BRANCH  36  37
ATOM     37  C   UNL A   1      39.949  29.095  29.043  1.00  0.00     0.031 A 
ATOM     38  C   UNL A   1      40.842  30.057  29.792  1.00  0.00     0.074 A 
ATOM     39  C   UNL A   1      40.429  27.886  28.685  1.00  0.00     0.049 A 
ATOM     40  N   UNL A   1      42.070  29.888  30.215  1.00  0.00    -0.248 NA
ATOM     41  C   UNL A   1      40.291  31.390  30.092  1.00  0.00     0.031 C 
ATOM     42  C   UNL A   1      39.690  26.863  27.943  1.00  0.00     0.029 A 
ATOM     43  N   UNL A   1      41.651  27.303  28.923  1.00  0.00    -0.354 N 
ATOM     44  C   UNL A   1      42.434  31.088  30.816  1.00  0.00     0.074 A 
ATOM     45  C   UNL A   1      41.328  32.000  30.641  1.00  0.00     0.031 C 
ATOM     46  C   UNL A   1      40.457  25.766  27.827  1.00  0.00     0.029 A 
ATOM     47  C   UNL A   1      41.750  26.011  28.460  1.00  0.00     0.049 A 
ATOM     48  H   UNL A   1      42.387  27.768  29.383  1.00  0.00     0.167 HD
ATOM     49  C   UNL A   1      43.569  31.405  31.485  1.00  0.00     0.031 A 
ATOM     50  C   UNL A   1      42.761  25.121  28.546  1.00  0.00     0.031 A 
ATOM     51  C   UNL A   1      44.670  30.501  31.679  1.00  0.00     0.049 A 
ATOM     52  C   UNL A   1      44.019  25.497  29.284  1.00  0.00     0.074 A 
ATOM     53  C   UNL A   1      45.845  30.716  32.380  1.00  0.00     0.029 A 
ATOM     54  N   UNL A   1      44.737  29.213  31.173  1.00  0.00    -0.354 N 
ATOM     55  N   UNL A   1      44.315  26.619  29.899  1.00  0.00    -0.248 NA
ATOM     56  C   UNL A   1      45.074  24.476  29.357  1.00  0.00     0.031 C 
ATOM     57  C   UNL A   1      46.647  29.578  32.244  1.00  0.00     0.029 A 
ATOM     58  C   UNL A   1      45.942  28.629  31.523  1.00  0.00     0.049 A 
ATOM     59  H   UNL A   1      44.031  28.778  30.642  1.00  0.00     0.167 HD
ATOM     60  C   UNL A   1      45.575  26.423  30.459  1.00  0.00     0.074 A 
ATOM     61  C   UNL A   1      45.972  25.070  30.129  1.00  0.00     0.031 C 
ATOM     62  C   UNL A   1      46.335  27.285  31.182  1.00  0.00     0.031 A 
BRANCH  49  63
ATOM     63  C   UNL A   1      43.675  32.798  32.051  1.00  0.00    -0.014 A 
ATOM     64  C   UNL A   1      44.101  33.880  31.257  1.00  0.00     0.010 A 
ATOM     65  C   UNL A   1      43.320  33.036  33.391  1.00  0.00     0.010 A 
ATOM     66  C   UNL A   1      44.214  35.160  31.803  1.00  0.00     0.020 A 
ATOM     67  C   UNL A   1      43.398  34.323  33.932  1.00  0.00     0.020 A 
ATOM     68  C   UNL A   1      43.863  35.373  33.139  1.00  0.00     0.054 A 
BRANCH  68  69
ATOM     69  S   UNL A   1      43.997  37.051  33.816  1.00  0.00     0.124 S 
ATOM     70  O   UNL A   1      42.613  37.337  34.184  1.00  0.00    -0.237 OA
ATOM     71  O   UNL A   1      44.919  36.871  34.933  1.00  0.00    -0.237 OA
ATOM     72  O   UNL A   1      44.519  37.835  32.699  1.00  0.00    -0.744 OA
ENDBRANCH  68  69
ENDBRANCH  49  63
BRANCH  50  73
ATOM     73  C   UNL A   1      42.620  23.768  27.934  1.00  0.00    -0.014 A 
ATOM     74  C   UNL A   1      42.848  23.569  26.559  1.00  0.00     0.010 A 
ATOM     75  C   UNL A   1      42.240  22.669  28.725  1.00  0.00     0.010 A 
ATOM     76  C   UNL A   1      42.675  22.305  25.986  1.00  0.00     0.020 A 
ATOM     77  C   UNL A   1      42.098  21.397  28.163  1.00  0.00     0.020 A 
ATOM     78  C   UNL A   1      42.305  21.226  26.794  1.00  0.00     0.054 A 
BRANCH  78  79
ATOM     79  S   UNL A   1      42.138  19.584  26.040  1.00  0.00     0.124 S 
ATOM     80  O   UNL A   1      42.595  18.708  27.114  1.00  0.00    -0.237 OA
ATOM     81  O   UNL A   1      40.711  19.523  25.733  1.00  0.00    -0.237 OA
ATOM     82  O   UNL A   1      43.015  19.654  24.872  1.00  0.00    -0.744 OA
ENDBRANCH  78  79
ENDBRANCH  50  73
BRANCH  62  83
ATOM     83  C   UNL A   1      47.656  26.777  31.702  1.00  0.00    -0.014 A 
ATOM     84  C   UNL A   1      47.759  26.124  32.945  1.00  0.00     0.010 A 
ATOM     85  C   UNL A   1      48.816  26.941  30.922  1.00  0.00     0.010 A 
ATOM     86  C   UNL A   1      49.004  25.706  33.424  1.00  0.00     0.020 A 
ATOM     87  C   UNL A   1      50.057  26.492  31.381  1.00  0.00     0.020 A 
ATOM     88  C   UNL A   1      50.146  25.900  32.642  1.00  0.00     0.054 A 
BRANCH  88  89
ATOM     89  S   UNL A   1      51.751  25.357  33.289  1.00  0.00     0.124 S 
ATOM     90  O   UNL A   1      52.322  24.661  32.138  1.00  0.00    -0.237 OA
ATOM     91  O   UNL A   1      52.396  26.618  33.645  1.00  0.00    -0.237 OA
ATOM     92  O   UNL A   1      51.398  24.503  34.421  1.00  0.00    -0.744 OA
ENDBRANCH  88  89
ENDBRANCH  62  83
ENDBRANCH  36  37
ENDBRANCH  29  31
ENDBRANCH  28  29
ENDBRANCH  27  28
ENDBRANCH   1  27
TORSDOF 20
ENDMDL
