MODEL 1
REMARK VINA RESULT:     -11.1      0.000      0.000
REMARK SMILES Cc1ccccc1/[NH+]=C1\S[C@@H](CC(=O)Nc2ccc(C(=O)OCCOCCOC(=O)c3ccc(-c4c5nc(c(-c6ccc(S(=O)(=O)[O-])cc6)c6ccc([nH]6)c(-c6ccc(S(=O)(=O)[O-])cc6)c6nc(c(-c7ccc(S(=O)(=O)[O-])cc7)c7ccc4[nH]7)C=C6)C=C5)cc3)cc2)C(=O)N1C
REMARK SMILES IDX 24 1 23 2 22 3 20 4 21 5 19 6 16 7 17 8 92 9 18 10 91 11
REMARK SMILES IDX 15 12 13 13 14 14 12 16 11 17 8 18 9 19 10 21 95 22 93 23
REMARK SMILES IDX 96 24 94 25 7 26 1 27 2 28 3 29 4 30 6 31 5 32 25 33 26 34
REMARK SMILES IDX 27 35 28 36 29 37 30 38 31 39 32 40 90 41 33 42 89 43 34 44
REMARK SMILES IDX 35 45 36 46 83 47 37 48 88 49 82 50 84 51 38 52 87 53 81 54
REMARK SMILES IDX 80 55 39 57 69 58 50 59 68 60 51 61 54 62 67 63 85 64 52 65
REMARK SMILES IDX 53 66 66 68 86 69 55 70 40 71 41 72 49 73 42 74 48 75 43 76
REMARK SMILES IDX 44 77 45 78 46 79 47 80 70 81 71 82 79 83 72 84 78 85 73 86
REMARK SMILES IDX 74 87 75 88 76 89 77 90 56 91 57 92 65 93 58 94 64 95 59 96
REMARK SMILES IDX 60 97 61 98 62 99 63 100
REMARK H PARENT 15 15 8 20 84 56 54 67
REMARK Flexibility Score: inf
ROOT
ATOM      1  C   UNL A   1      33.726  30.280  27.560  1.00  0.00     0.202 C 
ENDROOT
BRANCH   1   2
ATOM      2  C   UNL A   1      33.475  30.041  26.117  1.00  0.00     0.261 C 
BRANCH   2   3
ATOM      3  O   UNL A   1      32.340  29.157  25.890  1.00  0.00    -0.460 OA
BRANCH   3   4
ATOM      4  C   UNL A   1      31.348  29.316  24.973  1.00  0.00     0.338 C 
ATOM      5  O   UNL A   1      30.643  30.282  24.730  1.00  0.00    -0.246 OA
BRANCH   4   6
ATOM      6  C   UNL A   1      31.239  28.029  24.267  1.00  0.00     0.060 A 
ATOM      7  C   UNL A   1      31.283  25.636  22.883  1.00  0.00     0.041 A 
ATOM      8  C   UNL A   1      31.592  26.821  22.240  1.00  0.00     0.027 A 
ATOM      9  C   UNL A   1      30.723  25.658  24.156  1.00  0.00     0.027 A 
ATOM     10  C   UNL A   1      31.638  27.999  22.934  1.00  0.00     0.018 A 
ATOM     11  C   UNL A   1      30.705  26.874  24.861  1.00  0.00     0.018 A 
BRANCH   7  12
ATOM     12  N   UNL A   1      31.681  24.456  22.248  1.00  0.00    -0.326 N 
ATOM     13  C   UNL A   1      33.010  24.160  21.967  1.00  0.00     0.226 C 
ATOM     14  O   UNL A   1      33.313  23.337  21.106  1.00  0.00    -0.275 OA
ATOM     15  H   UNL A   1      30.989  23.807  21.985  1.00  0.00     0.169 HD
BRANCH  13  16
ATOM     16  C   UNL A   1      34.053  24.713  22.944  1.00  0.00     0.128 C 
BRANCH  16  17
ATOM     17  C   UNL A   1      34.608  23.815  24.032  1.00  0.00     0.183 C 
ATOM     18  N   UNL A   1      36.856  21.383  25.491  1.00  0.00    -0.234 N 
ATOM     19  C   UNL A   1      36.033  21.857  24.627  1.00  0.00     0.319 C 
ATOM     20  H   UNL A   1      36.505  20.628  26.016  1.00  0.00     0.313 HD
ATOM     21  S   UNL A   1      36.199  23.099  23.441  1.00  0.00    -0.022 SA
ATOM     22  N   UNL A   1      34.721  21.491  24.619  1.00  0.00    -0.193 N 
ATOM     23  C   UNL A   1      33.863  22.569  24.513  1.00  0.00     0.324 C 
ATOM     24  C   UNL A   1      34.265  20.137  24.878  1.00  0.00     0.301 C 
ATOM     25  O   UNL A   1      32.701  22.578  24.904  1.00  0.00    -0.245 OA
BRANCH  18  26
ATOM     26  C   UNL A   1      38.173  21.759  25.815  1.00  0.00     0.128 A 
ATOM     27  C   UNL A   1      37.875  24.247  26.516  1.00  0.00     0.049 C 
ATOM     28  C   UNL A   1      38.655  22.976  26.353  1.00  0.00    -0.004 A 
ATOM     29  C   UNL A   1      39.994  23.061  26.801  1.00  0.00     0.008 A 
ATOM     30  C   UNL A   1      40.840  21.959  26.792  1.00  0.00     0.001 A 
ATOM     31  C   UNL A   1      39.068  20.669  25.804  1.00  0.00     0.052 A 
ATOM     32  C   UNL A   1      40.375  20.756  26.293  1.00  0.00     0.004 A 
ENDBRANCH  18  26
ENDBRANCH  16  17
ENDBRANCH  13  16
ENDBRANCH   7  12
ENDBRANCH   4   6
ENDBRANCH   3   4
ENDBRANCH   2   3
ENDBRANCH   1   2
BRANCH   1  33
ATOM     33  O   UNL A   1      34.666  31.338  27.600  1.00  0.00    -0.374 OA
BRANCH  33  34
ATOM     34  C   UNL A   1      35.127  31.664  28.884  1.00  0.00     0.202 C 
BRANCH  34  35
ATOM     35  C   UNL A   1      36.651  31.594  28.952  1.00  0.00     0.261 C 
BRANCH  35  36
ATOM     36  O   UNL A   1      37.129  30.506  28.130  1.00  0.00    -0.460 OA
BRANCH  36  37
ATOM     37  C   UNL A   1      37.894  29.568  28.768  1.00  0.00     0.338 C 
ATOM     38  O   UNL A   1      37.472  28.819  29.629  1.00  0.00    -0.246 OA
BRANCH  37  39
ATOM     39  C   UNL A   1      39.299  29.603  28.263  1.00  0.00     0.060 A 
ATOM     40  C   UNL A   1      39.628  29.147  26.970  1.00  0.00     0.016 A 
ATOM     41  C   UNL A   1      40.314  29.896  29.169  1.00  0.00     0.016 A 
ATOM     42  C   UNL A   1      40.965  28.853  26.638  1.00  0.00     0.010 A 
ATOM     43  C   UNL A   1      41.604  29.519  28.868  1.00  0.00     0.010 A 
ATOM     44  C   UNL A   1      41.943  28.966  27.621  1.00  0.00    -0.014 A 
BRANCH  44  45
ATOM     45  C   UNL A   1      43.332  28.492  27.540  1.00  0.00     0.031 A 
ATOM     46  C   UNL A   1      43.571  27.050  27.738  1.00  0.00     0.074 A 
ATOM     47  C   UNL A   1      44.278  29.255  26.940  1.00  0.00     0.049 A 
ATOM     48  N   UNL A   1      44.738  26.514  27.779  1.00  0.00    -0.248 NA
ATOM     49  C   UNL A   1      42.501  26.073  27.958  1.00  0.00     0.031 C 
ATOM     50  C   UNL A   1      45.449  28.864  26.155  1.00  0.00     0.029 A 
ATOM     51  N   UNL A   1      44.326  30.640  26.853  1.00  0.00    -0.354 N 
ATOM     52  C   UNL A   1      44.553  25.172  27.556  1.00  0.00     0.074 A 
ATOM     53  C   UNL A   1      43.178  24.924  27.902  1.00  0.00     0.031 C 
ATOM     54  C   UNL A   1      46.224  29.944  25.920  1.00  0.00     0.029 A 
ATOM     55  C   UNL A   1      45.634  31.065  26.641  1.00  0.00     0.049 A 
ATOM     56  H   UNL A   1      43.547  31.235  26.931  1.00  0.00     0.167 HD
ATOM     57  C   UNL A   1      45.527  24.489  26.888  1.00  0.00     0.031 A 
ATOM     58  C   UNL A   1      46.214  31.917  27.523  1.00  0.00     0.031 A 
ATOM     59  C   UNL A   1      46.714  25.346  26.666  1.00  0.00     0.049 A 
ATOM     60  C   UNL A   1      47.290  31.102  28.170  1.00  0.00     0.074 A 
ATOM     61  C   UNL A   1      47.344  25.835  25.533  1.00  0.00     0.029 A 
ATOM     62  N   UNL A   1      47.234  26.091  27.735  1.00  0.00    -0.354 N 
ATOM     63  N   UNL A   1      47.173  29.810  28.372  1.00  0.00    -0.248 NA
ATOM     64  C   UNL A   1      48.652  31.598  28.322  1.00  0.00     0.031 C 
ATOM     65  C   UNL A   1      48.172  26.935  25.929  1.00  0.00     0.029 A 
ATOM     66  C   UNL A   1      48.060  27.115  27.303  1.00  0.00     0.049 A 
ATOM     67  H   UNL A   1      47.037  25.906  28.682  1.00  0.00     0.167 HD
ATOM     68  C   UNL A   1      48.429  29.282  28.430  1.00  0.00     0.074 A 
ATOM     69  C   UNL A   1      49.317  30.441  28.467  1.00  0.00     0.031 C 
ATOM     70  C   UNL A   1      48.761  27.969  28.264  1.00  0.00     0.031 A 
BRANCH  57  71
ATOM     71  C   UNL A   1      45.304  23.133  26.227  1.00  0.00    -0.014 A 
ATOM     72  C   UNL A   1      46.243  22.645  25.296  1.00  0.00     0.010 A 
ATOM     73  C   UNL A   1      44.180  22.301  26.435  1.00  0.00     0.010 A 
ATOM     74  C   UNL A   1      46.077  21.409  24.637  1.00  0.00     0.020 A 
ATOM     75  C   UNL A   1      44.008  21.059  25.804  1.00  0.00     0.020 A 
ATOM     76  C   UNL A   1      44.965  20.615  24.907  1.00  0.00     0.054 A 
BRANCH  76  77
ATOM     77  S   UNL A   1      44.794  19.000  24.105  1.00  0.00     0.124 S 
ATOM     78  O   UNL A   1      43.683  18.400  24.840  1.00  0.00    -0.237 OA
ATOM     79  O   UNL A   1      44.511  19.365  22.720  1.00  0.00    -0.237 OA
ATOM     80  O   UNL A   1      46.093  18.363  24.321  1.00  0.00    -0.744 OA
ENDBRANCH  76  77
ENDBRANCH  57  71
BRANCH  58  81
ATOM     81  C   UNL A   1      45.269  32.949  28.071  1.00  0.00    -0.014 A 
ATOM     82  C   UNL A   1      44.622  32.629  29.291  1.00  0.00     0.010 A 
ATOM     83  C   UNL A   1      45.366  34.313  27.735  1.00  0.00     0.010 A 
ATOM     84  C   UNL A   1      44.223  33.621  30.203  1.00  0.00     0.020 A 
ATOM     85  C   UNL A   1      44.988  35.316  28.657  1.00  0.00     0.020 A 
ATOM     86  C   UNL A   1      44.466  34.961  29.905  1.00  0.00     0.054 A 
BRANCH  86  87
ATOM     87  S   UNL A   1      44.365  36.176  31.268  1.00  0.00     0.124 S 
ATOM     88  O   UNL A   1      43.239  35.681  32.051  1.00  0.00    -0.237 OA
ATOM     89  O   UNL A   1      45.675  36.033  31.906  1.00  0.00    -0.237 OA
ATOM     90  O   UNL A   1      44.153  37.445  30.577  1.00  0.00    -0.744 OA
ENDBRANCH  86  87
ENDBRANCH  58  81
BRANCH  70  91
ATOM     91  C   UNL A   1      49.857  27.380  29.104  1.00  0.00    -0.014 A 
ATOM     92  C   UNL A   1      51.153  27.153  28.611  1.00  0.00     0.010 A 
ATOM     93  C   UNL A   1      49.653  27.220  30.491  1.00  0.00     0.010 A 
ATOM     94  C   UNL A   1      52.177  26.716  29.442  1.00  0.00     0.020 A 
ATOM     95  C   UNL A   1      50.688  26.851  31.345  1.00  0.00     0.020 A 
ATOM     96  C   UNL A   1      51.938  26.572  30.804  1.00  0.00     0.054 A 
BRANCH  96  97
ATOM     97  S   UNL A   1      53.303  26.054  31.856  1.00  0.00     0.124 S 
ATOM     98  O   UNL A   1      52.835  24.750  32.322  1.00  0.00    -0.237 OA
ATOM     99  O   UNL A   1      54.428  26.020  30.925  1.00  0.00    -0.237 OA
ATOM    100  O   UNL A   1      53.372  27.097  32.874  1.00  0.00    -0.744 OA
ENDBRANCH  96  97
ENDBRANCH  70  91
ENDBRANCH  44  45
ENDBRANCH  37  39
ENDBRANCH  36  37
ENDBRANCH  35  36
ENDBRANCH  34  35
ENDBRANCH  33  34
ENDBRANCH   1  33
TORSDOF 21
ENDMDL
MODEL 2
REMARK VINA RESULT:     -10.9      4.237      5.757
REMARK SMILES Cc1ccccc1/[NH+]=C1\S[C@@H](CC(=O)Nc2ccc(C(=O)OCCOCCOC(=O)c3ccc(-c4c5nc(c(-c6ccc(S(=O)(=O)[O-])cc6)c6ccc([nH]6)c(-c6ccc(S(=O)(=O)[O-])cc6)c6nc(c(-c7ccc(S(=O)(=O)[O-])cc7)c7ccc4[nH]7)C=C6)C=C5)cc3)cc2)C(=O)N1C
REMARK SMILES IDX 24 1 23 2 22 3 20 4 21 5 19 6 16 7 17 8 92 9 18 10 91 11
REMARK SMILES IDX 15 12 13 13 14 14 12 16 11 17 8 18 9 19 10 21 95 22 93 23
REMARK SMILES IDX 96 24 94 25 7 26 1 27 2 28 3 29 4 30 6 31 5 32 25 33 26 34
REMARK SMILES IDX 27 35 28 36 29 37 30 38 31 39 32 40 90 41 33 42 89 43 34 44
REMARK SMILES IDX 35 45 36 46 83 47 37 48 88 49 82 50 84 51 38 52 87 53 81 54
REMARK SMILES IDX 80 55 39 57 69 58 50 59 68 60 51 61 54 62 67 63 85 64 52 65
REMARK SMILES IDX 53 66 66 68 86 69 55 70 40 71 41 72 49 73 42 74 48 75 43 76
REMARK SMILES IDX 44 77 45 78 46 79 47 80 70 81 71 82 79 83 72 84 78 85 73 86
REMARK SMILES IDX 74 87 75 88 76 89 77 90 56 91 57 92 65 93 58 94 64 95 59 96
REMARK SMILES IDX 60 97 61 98 62 99 63 100
REMARK H PARENT 15 15 8 20 84 56 54 67
REMARK Flexibility Score: inf
ROOT
ATOM      1  C   UNL A   1      30.690  31.754  26.340  1.00  0.00     0.202 C 
ENDROOT
BRANCH   1   2
ATOM      2  C   UNL A   1      30.546  31.508  24.884  1.00  0.00     0.261 C 
BRANCH   2   3
ATOM      3  O   UNL A   1      29.252  31.941  24.373  1.00  0.00    -0.460 OA
BRANCH   3   4
ATOM      4  C   UNL A   1      28.290  31.162  23.811  1.00  0.00     0.338 C 
ATOM      5  O   UNL A   1      27.079  31.302  23.775  1.00  0.00    -0.246 OA
BRANCH   4   6
ATOM      6  C   UNL A   1      28.997  30.016  23.212  1.00  0.00     0.060 A 
ATOM      7  C   UNL A   1      30.540  27.992  22.136  1.00  0.00     0.041 A 
ATOM      8  C   UNL A   1      30.584  29.266  21.598  1.00  0.00     0.027 A 
ATOM      9  C   UNL A   1      29.557  27.658  23.061  1.00  0.00     0.027 A 
ATOM     10  C   UNL A   1      29.874  30.287  22.167  1.00  0.00     0.018 A 
ATOM     11  C   UNL A   1      28.775  28.689  23.611  1.00  0.00     0.018 A 
BRANCH   7  12
ATOM     12  N   UNL A   1      31.593  27.135  21.802  1.00  0.00    -0.326 N 
ATOM     13  C   UNL A   1      32.790  27.098  22.507  1.00  0.00     0.226 C 
ATOM     14  O   UNL A   1      33.813  26.638  22.005  1.00  0.00    -0.275 OA
ATOM     15  H   UNL A   1      31.482  26.532  21.032  1.00  0.00     0.169 HD
BRANCH  13  16
ATOM     16  C   UNL A   1      32.711  27.419  24.003  1.00  0.00     0.128 C 
BRANCH  16  17
ATOM     17  C   UNL A   1      33.033  26.339  25.017  1.00  0.00     0.183 C 
ATOM     18  N   UNL A   1      33.822  22.997  26.157  1.00  0.00    -0.234 N 
ATOM     19  C   UNL A   1      33.159  23.904  25.536  1.00  0.00     0.319 C 
ATOM     20  H   UNL A   1      33.355  22.607  26.931  1.00  0.00     0.313 HD
ATOM     21  S   UNL A   1      33.504  24.808  24.109  1.00  0.00    -0.022 SA
ATOM     22  N   UNL A   1      32.016  24.432  26.059  1.00  0.00    -0.193 N 
ATOM     23  C   UNL A   1      31.987  25.812  25.999  1.00  0.00     0.324 C 
ATOM     24  C   UNL A   1      31.021  23.646  26.766  1.00  0.00     0.301 C 
ATOM     25  O   UNL A   1      31.331  26.529  26.746  1.00  0.00    -0.245 OA
BRANCH  18  26
ATOM     26  C   UNL A   1      35.104  22.464  25.918  1.00  0.00     0.128 A 
ATOM     27  C   UNL A   1      34.548  20.141  24.888  1.00  0.00     0.049 C 
ATOM     28  C   UNL A   1      35.472  21.255  25.283  1.00  0.00    -0.004 A 
ATOM     29  C   UNL A   1      36.829  21.019  24.961  1.00  0.00     0.008 A 
ATOM     30  C   UNL A   1      37.812  21.973  25.189  1.00  0.00     0.001 A 
ATOM     31  C   UNL A   1      36.133  23.400  26.152  1.00  0.00     0.052 A 
ATOM     32  C   UNL A   1      37.463  23.171  25.786  1.00  0.00     0.004 A 
ENDBRANCH  18  26
ENDBRANCH  16  17
ENDBRANCH  13  16
ENDBRANCH   7  12
ENDBRANCH   4   6
ENDBRANCH   3   4
ENDBRANCH   2   3
ENDBRANCH   1   2
BRANCH   1  33
ATOM     33  O   UNL A   1      31.572  32.856  26.442  1.00  0.00    -0.374 OA
BRANCH  33  34
ATOM     34  C   UNL A   1      32.686  32.641  27.267  1.00  0.00     0.202 C 
BRANCH  34  35
ATOM     35  C   UNL A   1      32.862  31.154  27.572  1.00  0.00     0.261 C 
BRANCH  35  36
ATOM     36  O   UNL A   1      34.041  30.653  26.904  1.00  0.00    -0.460 OA
BRANCH  36  37
ATOM     37  C   UNL A   1      34.579  29.507  27.423  1.00  0.00     0.338 C 
ATOM     38  O   UNL A   1      34.004  28.434  27.438  1.00  0.00    -0.246 OA
BRANCH  37  39
ATOM     39  C   UNL A   1      35.947  29.764  27.963  1.00  0.00     0.060 A 
ATOM     40  C   UNL A   1      37.062  29.895  27.110  1.00  0.00     0.016 A 
ATOM     41  C   UNL A   1      36.140  29.661  29.337  1.00  0.00     0.016 A 
ATOM     42  C   UNL A   1      38.368  29.781  27.624  1.00  0.00     0.010 A 
ATOM     43  C   UNL A   1      37.414  29.458  29.818  1.00  0.00     0.010 A 
ATOM     44  C   UNL A   1      38.537  29.481  28.972  1.00  0.00    -0.014 A 
BRANCH  44  45
ATOM     45  C   UNL A   1      39.789  29.099  29.639  1.00  0.00     0.031 A 
ATOM     46  C   UNL A   1      40.346  27.769  29.330  1.00  0.00     0.074 A 
ATOM     47  C   UNL A   1      40.582  30.048  30.195  1.00  0.00     0.049 A 
ATOM     48  N   UNL A   1      41.384  27.273  29.902  1.00  0.00    -0.248 NA
ATOM     49  C   UNL A   1      39.747  26.843  28.364  1.00  0.00     0.031 C 
ATOM     50  C   UNL A   1      42.040  30.114  30.308  1.00  0.00     0.029 A 
ATOM     51  N   UNL A   1      40.199  31.266  30.741  1.00  0.00    -0.354 N 
ATOM     52  C   UNL A   1      41.825  26.259  29.089  1.00  0.00     0.074 A 
ATOM     53  C   UNL A   1      40.678  25.889  28.303  1.00  0.00     0.031 C 
ATOM     54  C   UNL A   1      42.390  31.140  31.112  1.00  0.00     0.029 A 
ATOM     55  C   UNL A   1      41.160  31.716  31.639  1.00  0.00     0.049 A 
ATOM     56  H   UNL A   1      39.366  31.742  30.522  1.00  0.00     0.167 HD
ATOM     57  C   UNL A   1      43.166  26.019  29.026  1.00  0.00     0.031 A 
ATOM     58  C   UNL A   1      40.812  31.958  32.928  1.00  0.00     0.031 A 
ATOM     59  C   UNL A   1      43.896  26.842  30.018  1.00  0.00     0.049 A 
ATOM     60  C   UNL A   1      41.534  30.905  33.710  1.00  0.00     0.074 A 
ATOM     61  C   UNL A   1      44.844  27.848  29.917  1.00  0.00     0.029 A 
ATOM     62  N   UNL A   1      43.433  26.895  31.342  1.00  0.00    -0.354 N 
ATOM     63  N   UNL A   1      41.769  29.706  33.230  1.00  0.00    -0.248 NA
ATOM     64  C   UNL A   1      42.306  31.221  34.905  1.00  0.00     0.031 C 
ATOM     65  C   UNL A   1      44.871  28.554  31.163  1.00  0.00     0.029 A 
ATOM     66  C   UNL A   1      43.952  27.978  32.031  1.00  0.00     0.049 A 
ATOM     67  H   UNL A   1      42.813  26.239  31.734  1.00  0.00     0.167 HD
ATOM     68  C   UNL A   1      42.861  29.206  33.876  1.00  0.00     0.074 A 
ATOM     69  C   UNL A   1      43.117  30.153  34.959  1.00  0.00     0.031 C 
ATOM     70  C   UNL A   1      43.650  28.177  33.450  1.00  0.00     0.031 A 
BRANCH  57  71
ATOM     71  C   UNL A   1      43.830  25.226  27.906  1.00  0.00    -0.014 A 
ATOM     72  C   UNL A   1      44.176  25.871  26.701  1.00  0.00     0.010 A 
ATOM     73  C   UNL A   1      44.108  23.840  27.944  1.00  0.00     0.010 A 
ATOM     74  C   UNL A   1      44.771  25.183  25.623  1.00  0.00     0.020 A 
ATOM     75  C   UNL A   1      44.718  23.143  26.888  1.00  0.00     0.020 A 
ATOM     76  C   UNL A   1      45.052  23.823  25.730  1.00  0.00     0.054 A 
BRANCH  76  77
ATOM     77  S   UNL A   1      45.875  22.963  24.365  1.00  0.00     0.124 S 
ATOM     78  O   UNL A   1      44.764  22.666  23.464  1.00  0.00    -0.237 OA
ATOM     79  O   UNL A   1      46.824  23.965  23.888  1.00  0.00    -0.237 OA
ATOM     80  O   UNL A   1      46.481  21.795  25.003  1.00  0.00    -0.744 OA
ENDBRANCH  76  77
ENDBRANCH  57  71
BRANCH  58  81
ATOM     81  C   UNL A   1      39.441  32.557  33.078  1.00  0.00    -0.014 A 
ATOM     82  C   UNL A   1      39.212  33.785  32.405  1.00  0.00     0.010 A 
ATOM     83  C   UNL A   1      38.312  31.783  33.402  1.00  0.00     0.010 A 
ATOM     84  C   UNL A   1      37.935  34.152  31.946  1.00  0.00     0.020 A 
ATOM     85  C   UNL A   1      37.029  32.135  32.925  1.00  0.00     0.020 A 
ATOM     86  C   UNL A   1      36.859  33.292  32.156  1.00  0.00     0.054 A 
BRANCH  86  87
ATOM     87  S   UNL A   1      35.340  33.561  31.175  1.00  0.00     0.124 S 
ATOM     88  O   UNL A   1      34.853  34.836  31.688  1.00  0.00    -0.237 OA
ATOM     89  O   UNL A   1      35.859  33.600  29.807  1.00  0.00    -0.237 OA
ATOM     90  O   UNL A   1      34.521  32.393  31.488  1.00  0.00    -0.744 OA
ENDBRANCH  86  87
ENDBRANCH  58  81
BRANCH  70  91
ATOM     91  C   UNL A   1      44.202  27.213  34.460  1.00  0.00    -0.014 A 
ATOM     92  C   UNL A   1      45.565  27.167  34.800  1.00  0.00     0.010 A 
ATOM     93  C   UNL A   1      43.311  26.450  35.244  1.00  0.00     0.010 A 
ATOM     94  C   UNL A   1      46.028  26.346  35.820  1.00  0.00     0.020 A 
ATOM     95  C   UNL A   1      43.755  25.678  36.313  1.00  0.00     0.020 A 
ATOM     96  C   UNL A   1      45.118  25.610  36.573  1.00  0.00     0.054 A 
BRANCH  96  97
ATOM     97  S   UNL A   1      45.751  24.597  37.918  1.00  0.00     0.124 S 
ATOM     98  O   UNL A   1      44.951  25.072  39.045  1.00  0.00    -0.237 OA
ATOM     99  O   UNL A   1      45.452  23.241  37.464  1.00  0.00    -0.237 OA
ATOM    100  O   UNL A   1      47.170  24.933  37.968  1.00  0.00    -0.744 OA
ENDBRANCH  96  97
ENDBRANCH  70  91
ENDBRANCH  44  45
ENDBRANCH  37  39
ENDBRANCH  36  37
ENDBRANCH  35  36
ENDBRANCH  34  35
ENDBRANCH  33  34
ENDBRANCH   1  33
TORSDOF 21
ENDMDL
MODEL 3
REMARK VINA RESULT:     -10.6      1.537      2.488
REMARK SMILES Cc1ccccc1/[NH+]=C1\S[C@@H](CC(=O)Nc2ccc(C(=O)OCCOCCOC(=O)c3ccc(-c4c5nc(c(-c6ccc(S(=O)(=O)[O-])cc6)c6ccc([nH]6)c(-c6ccc(S(=O)(=O)[O-])cc6)c6nc(c(-c7ccc(S(=O)(=O)[O-])cc7)c7ccc4[nH]7)C=C6)C=C5)cc3)cc2)C(=O)N1C
REMARK SMILES IDX 24 1 23 2 22 3 20 4 21 5 19 6 16 7 17 8 92 9 18 10 91 11
REMARK SMILES IDX 15 12 13 13 14 14 12 16 11 17 8 18 9 19 10 21 95 22 93 23
REMARK SMILES IDX 96 24 94 25 7 26 1 27 2 28 3 29 4 30 6 31 5 32 25 33 26 34
REMARK SMILES IDX 27 35 28 36 29 37 30 38 31 39 32 40 90 41 33 42 89 43 34 44
REMARK SMILES IDX 35 45 36 46 83 47 37 48 88 49 82 50 84 51 38 52 87 53 81 54
REMARK SMILES IDX 80 55 39 57 69 58 50 59 68 60 51 61 54 62 67 63 85 64 52 65
REMARK SMILES IDX 53 66 66 68 86 69 55 70 40 71 41 72 49 73 42 74 48 75 43 76
REMARK SMILES IDX 44 77 45 78 46 79 47 80 70 81 71 82 79 83 72 84 78 85 73 86
REMARK SMILES IDX 74 87 75 88 76 89 77 90 56 91 57 92 65 93 58 94 64 95 59 96
REMARK SMILES IDX 60 97 61 98 62 99 63 100
REMARK H PARENT 15 15 8 20 84 56 54 67
REMARK Flexibility Score: inf
ROOT
ATOM      1  C   UNL A   1      32.473  29.350  27.050  1.00  0.00     0.202 C 
ENDROOT
BRANCH   1   2
ATOM      2  C   UNL A   1      32.310  29.808  25.647  1.00  0.00     0.261 C 
BRANCH   2   3
ATOM      3  O   UNL A   1      30.996  30.389  25.403  1.00  0.00    -0.460 OA
BRANCH   3   4
ATOM      4  C   UNL A   1      30.264  30.306  24.261  1.00  0.00     0.338 C 
ATOM      5  O   UNL A   1      29.352  31.006  23.852  1.00  0.00    -0.246 OA
BRANCH   4   6
ATOM      6  C   UNL A   1      30.777  29.131  23.536  1.00  0.00     0.060 A 
ATOM      7  C   UNL A   1      31.961  26.961  22.298  1.00  0.00     0.041 A 
ATOM      8  C   UNL A   1      32.493  28.229  22.145  1.00  0.00     0.027 A 
ATOM      9  C   UNL A   1      30.706  26.795  22.874  1.00  0.00     0.027 A 
ATOM     10  C   UNL A   1      31.952  29.296  22.808  1.00  0.00     0.018 A 
ATOM     11  C   UNL A   1      30.106  27.898  23.506  1.00  0.00     0.018 A 
BRANCH   7  12
ATOM     12  N   UNL A   1      32.796  25.889  21.972  1.00  0.00    -0.326 N 
ATOM     13  C   UNL A   1      33.693  25.327  22.874  1.00  0.00     0.226 C 
ATOM     14  O   UNL A   1      34.655  24.665  22.490  1.00  0.00    -0.275 OA
ATOM     15  H   UNL A   1      32.749  25.515  21.063  1.00  0.00     0.169 HD
BRANCH  13  16
ATOM     16  C   UNL A   1      33.287  25.362  24.351  1.00  0.00     0.128 C 
BRANCH  16  17
ATOM     17  C   UNL A   1      33.066  24.060  25.096  1.00  0.00     0.183 C 
ATOM     18  N   UNL A   1      32.120  20.589  25.487  1.00  0.00    -0.234 N 
ATOM     19  C   UNL A   1      31.976  21.818  25.145  1.00  0.00     0.319 C 
ATOM     20  H   UNL A   1      31.553  20.306  26.240  1.00  0.00     0.313 HD
ATOM     21  S   UNL A   1      32.669  22.746  23.868  1.00  0.00    -0.022 SA
ATOM     22  N   UNL A   1      31.273  22.694  25.918  1.00  0.00    -0.193 N 
ATOM     23  C   UNL A   1      31.937  23.890  26.112  1.00  0.00     0.324 C 
ATOM     24  C   UNL A   1      30.048  22.344  26.614  1.00  0.00     0.301 C 
ATOM     25  O   UNL A   1      31.759  24.641  27.065  1.00  0.00    -0.245 OA
BRANCH  18  26
ATOM     26  C   UNL A   1      32.952  19.578  24.969  1.00  0.00     0.128 A 
ATOM     27  C   UNL A   1      35.313  20.652  25.176  1.00  0.00     0.049 C 
ATOM     28  C   UNL A   1      34.364  19.525  24.894  1.00  0.00    -0.004 A 
ATOM     29  C   UNL A   1      34.999  18.315  24.528  1.00  0.00     0.008 A 
ATOM     30  C   UNL A   1      34.279  17.150  24.301  1.00  0.00     0.001 A 
ATOM     31  C   UNL A   1      32.254  18.380  24.713  1.00  0.00     0.052 A 
ATOM     32  C   UNL A   1      32.900  17.181  24.396  1.00  0.00     0.004 A 
ENDBRANCH  18  26
ENDBRANCH  16  17
ENDBRANCH  13  16
ENDBRANCH   7  12
ENDBRANCH   4   6
ENDBRANCH   3   4
ENDBRANCH   2   3
ENDBRANCH   1   2
BRANCH   1  33
ATOM     33  O   UNL A   1      33.277  30.339  27.668  1.00  0.00    -0.374 OA
BRANCH  33  34
ATOM     34  C   UNL A   1      34.549  30.501  27.098  1.00  0.00     0.202 C 
BRANCH  34  35
ATOM     35  C   UNL A   1      35.547  29.514  27.700  1.00  0.00     0.261 C 
BRANCH  35  36
ATOM     36  O   UNL A   1      36.810  30.176  27.937  1.00  0.00    -0.460 OA
BRANCH  36  37
ATOM     37  C   UNL A   1      37.645  29.565  28.831  1.00  0.00     0.338 C 
ATOM     38  O   UNL A   1      37.274  29.078  29.883  1.00  0.00    -0.246 OA
BRANCH  37  39
ATOM     39  C   UNL A   1      39.054  29.589  28.337  1.00  0.00     0.060 A 
ATOM     40  C   UNL A   1      39.386  29.151  27.039  1.00  0.00     0.016 A 
ATOM     41  C   UNL A   1      40.066  29.852  29.255  1.00  0.00     0.016 A 
ATOM     42  C   UNL A   1      40.721  28.844  26.711  1.00  0.00     0.010 A 
ATOM     43  C   UNL A   1      41.353  29.463  28.958  1.00  0.00     0.010 A 
ATOM     44  C   UNL A   1      41.693  28.927  27.703  1.00  0.00    -0.014 A 
BRANCH  44  45
ATOM     45  C   UNL A   1      43.076  28.436  27.624  1.00  0.00     0.031 A 
ATOM     46  C   UNL A   1      43.304  27.001  27.879  1.00  0.00     0.074 A 
ATOM     47  C   UNL A   1      44.022  29.163  26.981  1.00  0.00     0.049 A 
ATOM     48  N   UNL A   1      44.465  26.454  27.926  1.00  0.00    -0.248 NA
ATOM     49  C   UNL A   1      42.227  26.045  28.153  1.00  0.00     0.031 C 
ATOM     50  C   UNL A   1      45.178  28.727  26.197  1.00  0.00     0.029 A 
ATOM     51  N   UNL A   1      44.083  30.542  26.836  1.00  0.00    -0.354 N 
ATOM     52  C   UNL A   1      44.264  25.106  27.761  1.00  0.00     0.074 A 
ATOM     53  C   UNL A   1      42.892  24.888  28.135  1.00  0.00     0.031 C 
ATOM     54  C   UNL A   1      45.961  29.788  25.908  1.00  0.00     0.029 A 
ATOM     55  C   UNL A   1      45.392  30.944  26.589  1.00  0.00     0.049 A 
ATOM     56  H   UNL A   1      43.311  31.149  26.899  1.00  0.00     0.167 HD
ATOM     57  C   UNL A   1      45.222  24.386  27.110  1.00  0.00     0.031 A 
ATOM     58  C   UNL A   1      45.992  31.826  27.427  1.00  0.00     0.031 A 
ATOM     59  C   UNL A   1      46.415  25.221  26.837  1.00  0.00     0.049 A 
ATOM     60  C   UNL A   1      47.068  31.027  28.093  1.00  0.00     0.074 A 
ATOM     61  C   UNL A   1      47.034  25.655  25.677  1.00  0.00     0.029 A 
ATOM     62  N   UNL A   1      46.957  26.003  27.868  1.00  0.00    -0.354 N 
ATOM     63  N   UNL A   1      46.941  29.746  28.350  1.00  0.00    -0.248 NA
ATOM     64  C   UNL A   1      48.437  31.514  28.207  1.00  0.00     0.031 C 
ATOM     65  C   UNL A   1      47.878  26.762  26.016  1.00  0.00     0.029 A 
ATOM     66  C   UNL A   1      47.786  27.000  27.383  1.00  0.00     0.049 A 
ATOM     67  H   UNL A   1      46.770  25.860  28.824  1.00  0.00     0.167 HD
ATOM     68  C   UNL A   1      48.192  29.207  28.414  1.00  0.00     0.074 A 
ATOM     69  C   UNL A   1      49.093  30.357  28.391  1.00  0.00     0.031 C 
ATOM     70  C   UNL A   1      48.509  27.885  28.298  1.00  0.00     0.031 A 
BRANCH  57  71
ATOM     71  C   UNL A   1      44.977  23.006  26.508  1.00  0.00    -0.014 A 
ATOM     72  C   UNL A   1      46.011  22.354  25.807  1.00  0.00     0.010 A 
ATOM     73  C   UNL A   1      43.749  22.306  26.553  1.00  0.00     0.010 A 
ATOM     74  C   UNL A   1      45.834  21.088  25.212  1.00  0.00     0.020 A 
ATOM     75  C   UNL A   1      43.561  21.036  25.983  1.00  0.00     0.020 A 
ATOM     76  C   UNL A   1      44.611  20.429  25.316  1.00  0.00     0.054 A 
BRANCH  76  77
ATOM     77  S   UNL A   1      44.413  18.776  24.603  1.00  0.00     0.124 S 
ATOM     78  O   UNL A   1      45.503  18.031  25.230  1.00  0.00    -0.237 OA
ATOM     79  O   UNL A   1      43.068  18.407  25.033  1.00  0.00    -0.237 OA
ATOM     80  O   UNL A   1      44.563  18.995  23.165  1.00  0.00    -0.744 OA
ENDBRANCH  76  77
ENDBRANCH  57  71
BRANCH  58  81
ATOM     81  C   UNL A   1      45.065  32.890  27.944  1.00  0.00    -0.014 A 
ATOM     82  C   UNL A   1      45.057  33.093  29.347  1.00  0.00     0.010 A 
ATOM     83  C   UNL A   1      44.617  33.954  27.139  1.00  0.00     0.010 A 
ATOM     84  C   UNL A   1      44.758  34.344  29.914  1.00  0.00     0.020 A 
ATOM     85  C   UNL A   1      44.336  35.221  27.700  1.00  0.00     0.020 A 
ATOM     86  C   UNL A   1      44.459  35.420  29.080  1.00  0.00     0.054 A 
BRANCH  86  87
ATOM     87  S   UNL A   1      44.526  37.103  29.790  1.00  0.00     0.124 S 
ATOM     88  O   UNL A   1      45.587  37.734  29.013  1.00  0.00    -0.237 OA
ATOM     89  O   UNL A   1      43.177  37.605  29.521  1.00  0.00    -0.237 OA
ATOM     90  O   UNL A   1      44.823  36.866  31.200  1.00  0.00    -0.744 OA
ENDBRANCH  86  87
ENDBRANCH  58  81
BRANCH  70  91
ATOM     91  C   UNL A   1      49.611  27.320  29.148  1.00  0.00    -0.014 A 
ATOM     92  C   UNL A   1      50.905  27.083  28.654  1.00  0.00     0.010 A 
ATOM     93  C   UNL A   1      49.413  27.194  30.539  1.00  0.00     0.010 A 
ATOM     94  C   UNL A   1      51.934  26.670  29.491  1.00  0.00     0.020 A 
ATOM     95  C   UNL A   1      50.453  26.848  31.397  1.00  0.00     0.020 A 
ATOM     96  C   UNL A   1      51.701  26.559  30.858  1.00  0.00     0.054 A 
BRANCH  96  97
ATOM     97  S   UNL A   1      53.072  26.070  31.916  1.00  0.00     0.124 S 
ATOM     98  O   UNL A   1      53.307  27.295  32.677  1.00  0.00    -0.237 OA
ATOM     99  O   UNL A   1      52.505  24.958  32.677  1.00  0.00    -0.237 OA
ATOM    100  O   UNL A   1      54.124  25.703  30.975  1.00  0.00    -0.744 OA
ENDBRANCH  96  97
ENDBRANCH  70  91
ENDBRANCH  44  45
ENDBRANCH  37  39
ENDBRANCH  36  37
ENDBRANCH  35  36
ENDBRANCH  34  35
ENDBRANCH  33  34
ENDBRANCH   1  33
TORSDOF 21
ENDMDL
