MODEL 1
REMARK VINA RESULT:     -11.7      0.000      0.000
REMARK SMILES Cc1c(Cl)cccc1NC(=O)NCc1cn([C@@H]2C[NH2+][C@H](C(=O)OCCOCCOC(=O)c3ccc(-c4c5nc(c(-c6ccc(S(=O)(=O)[O-])cc6)c6ccc([nH]6)c(-c6ccc(S(=O)(=O)[O-])cc6)c6nc(c(-c7ccc(S(=O)(=O)[O-])cc7)c7ccc4[nH]7)C=C6)C=C5)cc3)C2)nn1
REMARK SMILES IDX 25 1 24 2 23 3 21 4 22 5 20 6 17 7 18 8 92 9 19 10 16 13
REMARK SMILES IDX 14 14 15 15 94 16 93 17 13 18 12 19 9 20 10 21 11 23 8 25
REMARK SMILES IDX 1 26 2 27 3 28 4 29 5 30 7 31 6 32 26 33 27 34 28 35 29 36
REMARK SMILES IDX 30 37 31 38 32 39 33 40 91 41 34 42 90 43 35 44 36 45 37 46
REMARK SMILES IDX 84 47 38 48 89 49 83 50 85 51 39 52 88 53 82 54 81 55 40 57
REMARK SMILES IDX 70 58 51 59 69 60 52 61 55 62 68 63 86 64 53 65 54 66 67 68
REMARK SMILES IDX 87 69 56 70 41 71 42 72 50 73 43 74 49 75 44 76 45 77 46 78
REMARK SMILES IDX 47 79 48 80 71 81 72 82 80 83 73 84 79 85 74 86 75 87 76 88
REMARK SMILES IDX 77 89 78 90 57 91 58 92 66 93 59 94 65 95 60 96 61 97 62 98
REMARK SMILES IDX 63 99 64 100
REMARK H PARENT 19 11 19 12 9 22 12 24 85 56 55 67
REMARK Flexibility Score: inf
ROOT
ATOM      1  C   UNL A   1      39.844  20.857  26.124  1.00  0.00     0.202 C 
ENDROOT
BRANCH   1   2
ATOM      2  C   UNL A   1      38.906  22.063  26.085  1.00  0.00     0.261 C 
BRANCH   2   3
ATOM      3  O   UNL A   1      37.632  21.699  25.527  1.00  0.00    -0.459 OA
BRANCH   3   4
ATOM      4  C   UNL A   1      36.578  22.481  25.895  1.00  0.00     0.365 C 
ATOM      5  O   UNL A   1      36.639  23.691  26.079  1.00  0.00    -0.245 OA
BRANCH   4   6
ATOM      6  C   UNL A   1      35.267  21.672  25.918  1.00  0.00     0.295 C 
ATOM      7  C   UNL A   1      33.262  22.993  26.316  1.00  0.00     0.170 C 
ATOM      8  C   UNL A   1      33.945  22.582  27.620  1.00  0.00     0.289 C 
ATOM      9  C   UNL A   1      34.128  22.395  25.204  1.00  0.00     0.110 C 
ATOM     10  N   UNL A   1      34.783  21.422  27.294  1.00  0.00    -0.333 N 
ATOM     11  H   UNL A   1      34.235  20.563  27.332  1.00  0.00     0.347 HD
ATOM     12  H   UNL A   1      35.552  21.309  27.955  1.00  0.00     0.347 HD
BRANCH   7  13
ATOM     13  N   UNL A   1      33.083  24.423  26.210  1.00  0.00    -0.243 N 
ATOM     14  C   UNL A   1      33.228  26.526  25.726  1.00  0.00     0.102 A 
ATOM     15  C   UNL A   1      33.803  25.304  25.463  1.00  0.00     0.137 A 
ATOM     16  N   UNL A   1      32.168  26.342  26.576  1.00  0.00    -0.134 NA
ATOM     17  N   UNL A   1      32.090  25.047  26.868  1.00  0.00    -0.067 NA
BRANCH  14  18
ATOM     18  C   UNL A   1      33.558  27.827  25.105  1.00  0.00     0.178 C 
BRANCH  18  19
ATOM     19  N   UNL A   1      33.959  27.717  23.724  1.00  0.00    -0.332 N 
ATOM     20  N   UNL A   1      32.151  27.899  22.143  1.00  0.00    -0.308 N 
ATOM     21  C   UNL A   1      33.435  27.952  22.527  1.00  0.00     0.319 C 
ATOM     22  H   UNL A   1      32.040  28.219  21.218  1.00  0.00     0.171 HD
ATOM     23  O   UNL A   1      34.254  28.153  21.617  1.00  0.00    -0.248 OA
ATOM     24  H   UNL A   1      34.878  27.373  23.648  1.00  0.00     0.165 HD
BRANCH  20  25
ATOM     25  C   UNL A   1      30.923  27.512  22.703  1.00  0.00     0.047 A 
ATOM     26  C   UNL A   1      29.936  29.828  22.170  1.00  0.00     0.048 C 
ATOM     27  C   UNL A   1      29.822  28.407  22.669  1.00  0.00    -0.009 A 
ATOM     28  C   UNL A   1      28.578  27.968  23.178  1.00  0.00     0.046 A 
ATOM     29  Cl  UNL A   1      27.171  28.979  23.167  1.00  0.00    -0.084 Cl
ATOM     30  C   UNL A   1      28.433  26.699  23.740  1.00  0.00     0.021 A 
ATOM     31  C   UNL A   1      30.783  26.316  23.405  1.00  0.00     0.026 A 
ATOM     32  C   UNL A   1      29.545  25.887  23.887  1.00  0.00     0.004 A 
ENDBRANCH  20  25
ENDBRANCH  18  19
ENDBRANCH  14  18
ENDBRANCH   7  13
ENDBRANCH   4   6
ENDBRANCH   3   4
ENDBRANCH   2   3
ENDBRANCH   1   2
BRANCH   1  33
ATOM     33  O   UNL A   1      40.633  20.682  27.304  1.00  0.00    -0.374 OA
BRANCH  33  34
ATOM     34  C   UNL A   1      42.049  20.575  27.199  1.00  0.00     0.202 C 
BRANCH  34  35
ATOM     35  C   UNL A   1      42.632  19.472  26.322  1.00  0.00     0.261 C 
BRANCH  35  36
ATOM     36  O   UNL A   1      42.918  19.916  25.006  1.00  0.00    -0.460 OA
BRANCH  36  37
ATOM     37  C   UNL A   1      44.244  20.011  24.739  1.00  0.00     0.338 C 
ATOM     38  O   UNL A   1      45.022  19.093  24.560  1.00  0.00    -0.246 OA
BRANCH  37  39
ATOM     39  C   UNL A   1      44.643  21.422  24.824  1.00  0.00     0.060 A 
ATOM     40  C   UNL A   1      45.655  21.701  25.745  1.00  0.00     0.016 A 
ATOM     41  C   UNL A   1      43.835  22.427  24.272  1.00  0.00     0.016 A 
ATOM     42  C   UNL A   1      45.677  22.947  26.322  1.00  0.00     0.010 A 
ATOM     43  C   UNL A   1      43.851  23.672  24.858  1.00  0.00     0.010 A 
ATOM     44  C   UNL A   1      44.700  23.872  25.946  1.00  0.00    -0.014 A 
BRANCH  44  45
ATOM     45  C   UNL A   1      44.549  25.036  26.788  1.00  0.00     0.031 A 
ATOM     46  C   UNL A   1      45.610  26.044  26.647  1.00  0.00     0.074 A 
ATOM     47  C   UNL A   1      43.487  25.186  27.599  1.00  0.00     0.049 A 
ATOM     48  N   UNL A   1      46.479  26.404  27.529  1.00  0.00    -0.248 NA
ATOM     49  C   UNL A   1      45.808  26.627  25.313  1.00  0.00     0.031 C 
ATOM     50  C   UNL A   1      42.251  24.399  27.620  1.00  0.00     0.029 A 
ATOM     51  N   UNL A   1      43.246  26.178  28.496  1.00  0.00    -0.354 N 
ATOM     52  C   UNL A   1      47.238  27.392  26.919  1.00  0.00     0.074 A 
ATOM     53  C   UNL A   1      46.891  27.372  25.519  1.00  0.00     0.031 C 
ATOM     54  C   UNL A   1      41.309  25.090  28.300  1.00  0.00     0.029 A 
ATOM     55  C   UNL A   1      41.911  26.297  28.847  1.00  0.00     0.049 A 
ATOM     56  H   UNL A   1      43.953  26.757  28.862  1.00  0.00     0.167 HD
ATOM     57  C   UNL A   1      47.945  28.307  27.634  1.00  0.00     0.031 A 
ATOM     58  C   UNL A   1      41.334  27.371  29.438  1.00  0.00     0.031 A 
ATOM     59  C   UNL A   1      48.081  27.937  29.016  1.00  0.00     0.049 A 
ATOM     60  C   UNL A   1      42.414  28.167  30.078  1.00  0.00     0.074 A 
ATOM     61  C   UNL A   1      48.673  26.883  29.682  1.00  0.00     0.029 A 
ATOM     62  N   UNL A   1      47.234  28.538  29.919  1.00  0.00    -0.354 N 
ATOM     63  N   UNL A   1      43.098  27.755  31.109  1.00  0.00    -0.248 NA
ATOM     64  C   UNL A   1      43.036  29.245  29.320  1.00  0.00     0.031 C 
ATOM     65  C   UNL A   1      47.838  26.636  30.809  1.00  0.00     0.029 A 
ATOM     66  C   UNL A   1      46.798  27.567  30.786  1.00  0.00     0.049 A 
ATOM     67  H   UNL A   1      46.986  29.490  29.939  1.00  0.00     0.167 HD
ATOM     68  C   UNL A   1      44.392  28.209  30.891  1.00  0.00     0.074 A 
ATOM     69  C   UNL A   1      44.266  29.217  29.843  1.00  0.00     0.031 C 
ATOM     70  C   UNL A   1      45.474  27.527  31.376  1.00  0.00     0.031 A 
BRANCH  57  71
ATOM     71  C   UNL A   1      48.196  29.706  27.146  1.00  0.00    -0.014 A 
ATOM     72  C   UNL A   1      49.520  30.177  27.067  1.00  0.00     0.010 A 
ATOM     73  C   UNL A   1      47.162  30.656  27.018  1.00  0.00     0.010 A 
ATOM     74  C   UNL A   1      49.790  31.546  26.934  1.00  0.00     0.020 A 
ATOM     75  C   UNL A   1      47.419  32.013  26.835  1.00  0.00     0.020 A 
ATOM     76  C   UNL A   1      48.733  32.453  26.839  1.00  0.00     0.054 A 
BRANCH  76  77
ATOM     77  S   UNL A   1      49.083  34.227  26.820  1.00  0.00     0.124 S 
ATOM     78  O   UNL A   1      47.934  34.749  26.086  1.00  0.00    -0.237 OA
ATOM     79  O   UNL A   1      49.130  34.552  28.242  1.00  0.00    -0.237 OA
ATOM     80  O   UNL A   1      50.364  34.314  26.123  1.00  0.00    -0.744 OA
ENDBRANCH  76  77
ENDBRANCH  57  71
BRANCH  58  81
ATOM     81  C   UNL A   1      39.966  27.891  29.187  1.00  0.00    -0.014 A 
ATOM     82  C   UNL A   1      38.997  27.913  30.206  1.00  0.00     0.010 A 
ATOM     83  C   UNL A   1      39.680  28.595  27.998  1.00  0.00     0.010 A 
ATOM     84  C   UNL A   1      37.813  28.655  30.057  1.00  0.00     0.020 A 
ATOM     85  C   UNL A   1      38.497  29.320  27.835  1.00  0.00     0.020 A 
ATOM     86  C   UNL A   1      37.578  29.367  28.876  1.00  0.00     0.054 A 
BRANCH  86  87
ATOM     87  S   UNL A   1      36.133  30.459  28.754  1.00  0.00     0.124 S 
ATOM     88  O   UNL A   1      35.167  29.619  28.052  1.00  0.00    -0.237 OA
ATOM     89  O   UNL A   1      35.830  30.741  30.154  1.00  0.00    -0.237 OA
ATOM     90  O   UNL A   1      36.631  31.603  27.990  1.00  0.00    -0.744 OA
ENDBRANCH  86  87
ENDBRANCH  58  81
BRANCH  70  91
ATOM     91  C   UNL A   1      45.233  26.438  32.398  1.00  0.00    -0.014 A 
ATOM     92  C   UNL A   1      44.842  25.131  32.045  1.00  0.00     0.010 A 
ATOM     93  C   UNL A   1      45.578  26.694  33.737  1.00  0.00     0.010 A 
ATOM     94  C   UNL A   1      44.776  24.115  33.008  1.00  0.00     0.020 A 
ATOM     95  C   UNL A   1      45.534  25.681  34.698  1.00  0.00     0.020 A 
ATOM     96  C   UNL A   1      45.126  24.397  34.331  1.00  0.00     0.054 A 
BRANCH  96  97
ATOM     97  S   UNL A   1      45.112  23.058  35.556  1.00  0.00     0.124 S 
ATOM     98  O   UNL A   1      44.722  23.752  36.780  1.00  0.00    -0.237 OA
ATOM     99  O   UNL A   1      44.119  22.132  35.015  1.00  0.00    -0.237 OA
ATOM    100  O   UNL A   1      46.486  22.557  35.539  1.00  0.00    -0.744 OA
ENDBRANCH  96  97
ENDBRANCH  70  91
ENDBRANCH  44  45
ENDBRANCH  37  39
ENDBRANCH  36  37
ENDBRANCH  35  36
ENDBRANCH  34  35
ENDBRANCH  33  34
ENDBRANCH   1  33
TORSDOF 21
ENDMDL
MODEL 2
REMARK VINA RESULT:     -11.7      2.876      4.033
REMARK SMILES Cc1c(Cl)cccc1NC(=O)NCc1cn([C@@H]2C[NH2+][C@H](C(=O)OCCOCCOC(=O)c3ccc(-c4c5nc(c(-c6ccc(S(=O)(=O)[O-])cc6)c6ccc([nH]6)c(-c6ccc(S(=O)(=O)[O-])cc6)c6nc(c(-c7ccc(S(=O)(=O)[O-])cc7)c7ccc4[nH]7)C=C6)C=C5)cc3)C2)nn1
REMARK SMILES IDX 25 1 24 2 23 3 21 4 22 5 20 6 17 7 18 8 92 9 19 10 16 13
REMARK SMILES IDX 14 14 15 15 94 16 93 17 13 18 12 19 9 20 10 21 11 23 8 25
REMARK SMILES IDX 1 26 2 27 3 28 4 29 5 30 7 31 6 32 26 33 27 34 28 35 29 36
REMARK SMILES IDX 30 37 31 38 32 39 33 40 91 41 34 42 90 43 35 44 36 45 37 46
REMARK SMILES IDX 84 47 38 48 89 49 83 50 85 51 39 52 88 53 82 54 81 55 40 57
REMARK SMILES IDX 70 58 51 59 69 60 52 61 55 62 68 63 86 64 53 65 54 66 67 68
REMARK SMILES IDX 87 69 56 70 41 71 42 72 50 73 43 74 49 75 44 76 45 77 46 78
REMARK SMILES IDX 47 79 48 80 71 81 72 82 80 83 73 84 79 85 74 86 75 87 76 88
REMARK SMILES IDX 77 89 78 90 57 91 58 92 66 93 59 94 65 95 60 96 61 97 62 98
REMARK SMILES IDX 63 99 64 100
REMARK H PARENT 19 11 19 12 9 22 12 24 85 56 55 67
REMARK Flexibility Score: inf
ROOT
ATOM      1  C   UNL A   1      40.028  21.794  26.780  1.00  0.00     0.202 C 
ENDROOT
BRANCH   1   2
ATOM      2  C   UNL A   1      38.845  22.553  26.180  1.00  0.00     0.261 C 
BRANCH   2   3
ATOM      3  O   UNL A   1      37.776  21.650  25.849  1.00  0.00    -0.459 OA
BRANCH   3   4
ATOM      4  C   UNL A   1      36.539  22.211  25.737  1.00  0.00     0.365 C 
ATOM      5  O   UNL A   1      36.207  23.273  26.249  1.00  0.00    -0.245 OA
BRANCH   4   6
ATOM      6  C   UNL A   1      35.650  21.407  24.769  1.00  0.00     0.295 C 
ATOM      7  C   UNL A   1      33.270  21.888  24.935  1.00  0.00     0.170 C 
ATOM      8  C   UNL A   1      33.714  20.837  25.952  1.00  0.00     0.289 C 
ATOM      9  C   UNL A   1      34.538  22.259  24.161  1.00  0.00     0.110 C 
ATOM     10  N   UNL A   1      34.969  20.276  25.438  1.00  0.00    -0.333 N 
ATOM     11  H   UNL A   1      34.779  19.527  24.772  1.00  0.00     0.347 HD
ATOM     12  H   UNL A   1      35.539  19.872  26.181  1.00  0.00     0.347 HD
BRANCH   7  13
ATOM     13  N   UNL A   1      32.615  23.017  25.554  1.00  0.00    -0.243 N 
ATOM     14  C   UNL A   1      31.468  24.799  25.990  1.00  0.00     0.102 A 
ATOM     15  C   UNL A   1      31.825  23.955  24.963  1.00  0.00     0.137 A 
ATOM     16  N   UNL A   1      32.011  24.327  27.158  1.00  0.00    -0.134 NA
ATOM     17  N   UNL A   1      32.714  23.235  26.878  1.00  0.00    -0.067 NA
BRANCH  14  18
ATOM     18  C   UNL A   1      30.536  25.945  25.929  1.00  0.00     0.178 C 
BRANCH  18  19
ATOM     19  N   UNL A   1      30.293  26.415  24.587  1.00  0.00    -0.332 N 
ATOM     20  N   UNL A   1      31.682  28.261  23.908  1.00  0.00    -0.308 N 
ATOM     21  C   UNL A   1      30.885  27.203  23.698  1.00  0.00     0.319 C 
ATOM     22  H   UNL A   1      32.062  28.597  23.064  1.00  0.00     0.171 HD
ATOM     23  O   UNL A   1      30.585  26.990  22.514  1.00  0.00    -0.248 OA
ATOM     24  H   UNL A   1      29.451  26.048  24.231  1.00  0.00     0.165 HD
BRANCH  20  25
ATOM     25  C   UNL A   1      32.120  29.020  25.006  1.00  0.00     0.047 A 
ATOM     26  C   UNL A   1      34.049  27.362  25.395  1.00  0.00     0.048 C 
ATOM     27  C   UNL A   1      33.298  28.637  25.698  1.00  0.00    -0.009 A 
ATOM     28  C   UNL A   1      33.756  29.456  26.756  1.00  0.00     0.046 A 
ATOM     29  Cl  UNL A   1      35.191  29.083  27.652  1.00  0.00    -0.084 Cl
ATOM     30  C   UNL A   1      33.053  30.596  27.146  1.00  0.00     0.021 A 
ATOM     31  C   UNL A   1      31.364  30.073  25.517  1.00  0.00     0.026 A 
ATOM     32  C   UNL A   1      31.836  30.883  26.550  1.00  0.00     0.004 A 
ENDBRANCH  20  25
ENDBRANCH  18  19
ENDBRANCH  14  18
ENDBRANCH   7  13
ENDBRANCH   4   6
ENDBRANCH   3   4
ENDBRANCH   2   3
ENDBRANCH   1   2
BRANCH   1  33
ATOM     33  O   UNL A   1      40.826  21.015  25.885  1.00  0.00    -0.374 OA
BRANCH  33  34
ATOM     34  C   UNL A   1      42.160  20.669  26.245  1.00  0.00     0.202 C 
BRANCH  34  35
ATOM     35  C   UNL A   1      43.305  21.495  25.670  1.00  0.00     0.261 C 
BRANCH  35  36
ATOM     36  O   UNL A   1      42.857  22.505  24.779  1.00  0.00    -0.460 OA
BRANCH  36  37
ATOM     37  C   UNL A   1      43.398  23.724  25.020  1.00  0.00     0.338 C 
ATOM     38  O   UNL A   1      44.482  24.129  24.644  1.00  0.00    -0.246 OA
BRANCH  37  39
ATOM     39  C   UNL A   1      42.516  24.461  25.933  1.00  0.00     0.060 A 
ATOM     40  C   UNL A   1      41.862  25.561  25.374  1.00  0.00     0.016 A 
ATOM     41  C   UNL A   1      42.603  24.268  27.320  1.00  0.00     0.016 A 
ATOM     42  C   UNL A   1      41.536  26.607  26.201  1.00  0.00     0.010 A 
ATOM     43  C   UNL A   1      42.286  25.321  28.146  1.00  0.00     0.010 A 
ATOM     44  C   UNL A   1      41.859  26.510  27.556  1.00  0.00    -0.014 A 
BRANCH  44  45
ATOM     45  C   UNL A   1      41.804  27.731  28.327  1.00  0.00     0.031 A 
ATOM     46  C   UNL A   1      42.991  28.592  28.209  1.00  0.00     0.074 A 
ATOM     47  C   UNL A   1      40.721  28.058  29.053  1.00  0.00     0.049 A 
ATOM     48  N   UNL A   1      43.842  28.894  29.130  1.00  0.00    -0.248 NA
ATOM     49  C   UNL A   1      43.343  29.067  26.864  1.00  0.00     0.031 C 
ATOM     50  C   UNL A   1      39.398  27.430  29.029  1.00  0.00     0.029 A 
ATOM     51  N   UNL A   1      40.552  29.122  29.881  1.00  0.00    -0.354 N 
ATOM     52  C   UNL A   1      44.756  29.744  28.524  1.00  0.00     0.074 A 
ATOM     53  C   UNL A   1      44.497  29.685  27.107  1.00  0.00     0.031 C 
ATOM     54  C   UNL A   1      38.509  28.270  29.607  1.00  0.00     0.029 A 
ATOM     55  C   UNL A   1      39.223  29.424  30.133  1.00  0.00     0.049 A 
ATOM     56  H   UNL A   1      41.302  29.630  30.265  1.00  0.00     0.167 HD
ATOM     57  C   UNL A   1      45.526  30.606  29.240  1.00  0.00     0.031 A 
ATOM     58  C   UNL A   1      38.751  30.593  30.628  1.00  0.00     0.031 A 
ATOM     59  C   UNL A   1      45.529  30.304  30.645  1.00  0.00     0.049 A 
ATOM     60  C   UNL A   1      39.881  31.287  31.300  1.00  0.00     0.074 A 
ATOM     61  C   UNL A   1      45.940  29.225  31.402  1.00  0.00     0.029 A 
ATOM     62  N   UNL A   1      44.709  31.055  31.456  1.00  0.00    -0.354 N 
ATOM     63  N   UNL A   1      40.441  30.855  32.396  1.00  0.00    -0.248 NA
ATOM     64  C   UNL A   1      40.679  32.234  30.534  1.00  0.00     0.031 C 
ATOM     65  C   UNL A   1      45.012  29.149  32.479  1.00  0.00     0.029 A 
ATOM     66  C   UNL A   1      44.101  30.197  32.338  1.00  0.00     0.049 A 
ATOM     67  H   UNL A   1      44.582  32.030  31.411  1.00  0.00     0.167 HD
ATOM     68  C   UNL A   1      41.794  31.133  32.245  1.00  0.00     0.074 A 
ATOM     69  C   UNL A   1      41.861  32.087  31.142  1.00  0.00     0.031 C 
ATOM     70  C   UNL A   1      42.749  30.354  32.836  1.00  0.00     0.031 A 
BRANCH  57  71
ATOM     71  C   UNL A   1      45.982  31.933  28.700  1.00  0.00    -0.014 A 
ATOM     72  C   UNL A   1      45.129  32.654  27.845  1.00  0.00     0.010 A 
ATOM     73  C   UNL A   1      47.321  32.363  28.792  1.00  0.00     0.010 A 
ATOM     74  C   UNL A   1      45.616  33.714  27.069  1.00  0.00     0.020 A 
ATOM     75  C   UNL A   1      47.804  33.447  28.063  1.00  0.00     0.020 A 
ATOM     76  C   UNL A   1      46.957  34.088  27.172  1.00  0.00     0.054 A 
BRANCH  76  77
ATOM     77  S   UNL A   1      47.616  35.354  26.062  1.00  0.00     0.124 S 
ATOM     78  O   UNL A   1      48.631  35.985  26.900  1.00  0.00    -0.237 OA
ATOM     79  O   UNL A   1      48.118  34.559  24.945  1.00  0.00    -0.237 OA
ATOM     80  O   UNL A   1      46.451  36.181  25.759  1.00  0.00    -0.744 OA
ENDBRANCH  76  77
ENDBRANCH  57  71
BRANCH  58  81
ATOM     81  C   UNL A   1      37.477  31.261  30.258  1.00  0.00    -0.014 A 
ATOM     82  C   UNL A   1      36.546  31.647  31.237  1.00  0.00     0.010 A 
ATOM     83  C   UNL A   1      37.282  31.740  28.945  1.00  0.00     0.010 A 
ATOM     84  C   UNL A   1      35.491  32.521  30.923  1.00  0.00     0.020 A 
ATOM     85  C   UNL A   1      36.226  32.594  28.620  1.00  0.00     0.020 A 
ATOM     86  C   UNL A   1      35.347  33.001  29.617  1.00  0.00     0.054 A 
BRANCH  86  87
ATOM     87  S   UNL A   1      34.091  34.261  29.253  1.00  0.00     0.124 S 
ATOM     88  O   UNL A   1      34.897  35.363  28.737  1.00  0.00    -0.237 OA
ATOM     89  O   UNL A   1      33.240  33.586  28.277  1.00  0.00    -0.237 OA
ATOM     90  O   UNL A   1      33.464  34.505  30.551  1.00  0.00    -0.744 OA
ENDBRANCH  86  87
ENDBRANCH  58  81
BRANCH  70  91
ATOM     91  C   UNL A   1      42.309  29.364  33.893  1.00  0.00    -0.014 A 
ATOM     92  C   UNL A   1      41.768  28.101  33.579  1.00  0.00     0.010 A 
ATOM     93  C   UNL A   1      42.611  29.647  35.237  1.00  0.00     0.010 A 
ATOM     94  C   UNL A   1      41.515  27.158  34.585  1.00  0.00     0.020 A 
ATOM     95  C   UNL A   1      42.380  28.704  36.241  1.00  0.00     0.020 A 
ATOM     96  C   UNL A   1      41.826  27.466  35.912  1.00  0.00     0.054 A 
BRANCH  96  97
ATOM     97  S   UNL A   1      41.567  26.210  37.196  1.00  0.00     0.124 S 
ATOM     98  O   UNL A   1      42.734  26.390  38.055  1.00  0.00    -0.237 OA
ATOM     99  O   UNL A   1      40.288  26.603  37.783  1.00  0.00    -0.237 OA
ATOM    100  O   UNL A   1      41.534  24.952  36.451  1.00  0.00    -0.744 OA
ENDBRANCH  96  97
ENDBRANCH  70  91
ENDBRANCH  44  45
ENDBRANCH  37  39
ENDBRANCH  36  37
ENDBRANCH  35  36
ENDBRANCH  34  35
ENDBRANCH  33  34
ENDBRANCH   1  33
TORSDOF 21
ENDMDL
MODEL 3
REMARK VINA RESULT:     -11.2      3.351      4.453
REMARK SMILES Cc1c(Cl)cccc1NC(=O)NCc1cn([C@@H]2C[NH2+][C@H](C(=O)OCCOCCOC(=O)c3ccc(-c4c5nc(c(-c6ccc(S(=O)(=O)[O-])cc6)c6ccc([nH]6)c(-c6ccc(S(=O)(=O)[O-])cc6)c6nc(c(-c7ccc(S(=O)(=O)[O-])cc7)c7ccc4[nH]7)C=C6)C=C5)cc3)C2)nn1
REMARK SMILES IDX 25 1 24 2 23 3 21 4 22 5 20 6 17 7 18 8 92 9 19 10 16 13
REMARK SMILES IDX 14 14 15 15 94 16 93 17 13 18 12 19 9 20 10 21 11 23 8 25
REMARK SMILES IDX 1 26 2 27 3 28 4 29 5 30 7 31 6 32 26 33 27 34 28 35 29 36
REMARK SMILES IDX 30 37 31 38 32 39 33 40 91 41 34 42 90 43 35 44 36 45 37 46
REMARK SMILES IDX 84 47 38 48 89 49 83 50 85 51 39 52 88 53 82 54 81 55 40 57
REMARK SMILES IDX 70 58 51 59 69 60 52 61 55 62 68 63 86 64 53 65 54 66 67 68
REMARK SMILES IDX 87 69 56 70 41 71 42 72 50 73 43 74 49 75 44 76 45 77 46 78
REMARK SMILES IDX 47 79 48 80 71 81 72 82 80 83 73 84 79 85 74 86 75 87 76 88
REMARK SMILES IDX 77 89 78 90 57 91 58 92 66 93 59 94 65 95 60 96 61 97 62 98
REMARK SMILES IDX 63 99 64 100
REMARK H PARENT 19 11 19 12 9 22 12 24 85 56 55 67
REMARK Flexibility Score: inf
ROOT
ATOM      1  C   UNL A   1      39.144  20.835  25.961  1.00  0.00     0.202 C 
ENDROOT
BRANCH   1   2
ATOM      2  C   UNL A   1      37.922  20.969  25.052  1.00  0.00     0.261 C 
BRANCH   2   3
ATOM      3  O   UNL A   1      37.676  22.347  24.729  1.00  0.00    -0.459 OA
BRANCH   3   4
ATOM      4  C   UNL A   1      36.637  22.581  23.878  1.00  0.00     0.365 C 
ATOM      5  O   UNL A   1      36.759  22.938  22.712  1.00  0.00    -0.245 OA
BRANCH   4   6
ATOM      6  C   UNL A   1      35.291  22.208  24.528  1.00  0.00     0.295 C 
ATOM      7  C   UNL A   1      33.565  23.915  24.347  1.00  0.00     0.170 C 
ATOM      8  C   UNL A   1      34.479  24.150  25.550  1.00  0.00     0.289 C 
ATOM      9  C   UNL A   1      34.098  22.644  23.680  1.00  0.00     0.110 C 
ATOM     10  N   UNL A   1      35.104  22.856  25.846  1.00  0.00    -0.333 N 
ATOM     11  H   UNL A   1      34.496  22.292  26.440  1.00  0.00     0.347 HD
ATOM     12  H   UNL A   1      35.986  22.964  26.348  1.00  0.00     0.347 HD
BRANCH   7  13
ATOM     13  N   UNL A   1      33.509  25.056  23.462  1.00  0.00    -0.243 N 
ATOM     14  C   UNL A   1      33.355  27.029  22.588  1.00  0.00     0.102 A 
ATOM     15  C   UNL A   1      33.342  26.366  23.794  1.00  0.00     0.137 A 
ATOM     16  N   UNL A   1      33.570  26.117  21.585  1.00  0.00    -0.134 NA
ATOM     17  N   UNL A   1      33.661  24.910  22.134  1.00  0.00    -0.067 NA
BRANCH  14  18
ATOM     18  C   UNL A   1      33.306  28.489  22.365  1.00  0.00     0.178 C 
BRANCH  18  19
ATOM     19  N   UNL A   1      32.068  28.938  21.775  1.00  0.00    -0.332 N 
ATOM     20  N   UNL A   1      30.197  28.974  23.290  1.00  0.00    -0.308 N 
ATOM     21  C   UNL A   1      30.870  29.332  22.187  1.00  0.00     0.319 C 
ATOM     22  H   UNL A   1      29.371  29.500  23.393  1.00  0.00     0.171 HD
ATOM     23  O   UNL A   1      30.246  30.055  21.396  1.00  0.00    -0.248 OA
ATOM     24  H   UNL A   1      32.131  28.957  20.793  1.00  0.00     0.165 HD
BRANCH  20  25
ATOM     25  C   UNL A   1      30.352  28.052  24.339  1.00  0.00     0.047 A 
ATOM     26  C   UNL A   1      31.912  29.691  25.564  1.00  0.00     0.048 C 
ATOM     27  C   UNL A   1      31.125  28.405  25.475  1.00  0.00    -0.009 A 
ATOM     28  C   UNL A   1      31.210  27.486  26.546  1.00  0.00     0.046 A 
ATOM     29  Cl  UNL A   1      32.115  27.829  27.983  1.00  0.00    -0.084 Cl
ATOM     30  C   UNL A   1      30.584  26.241  26.484  1.00  0.00     0.021 A 
ATOM     31  C   UNL A   1      29.869  26.748  24.244  1.00  0.00     0.026 A 
ATOM     32  C   UNL A   1      29.945  25.857  25.316  1.00  0.00     0.004 A 
ENDBRANCH  20  25
ENDBRANCH  18  19
ENDBRANCH  14  18
ENDBRANCH   7  13
ENDBRANCH   4   6
ENDBRANCH   3   4
ENDBRANCH   2   3
ENDBRANCH   1   2
BRANCH   1  33
ATOM     33  O   UNL A   1      39.538  21.994  26.700  1.00  0.00    -0.374 OA
BRANCH  33  34
ATOM     34  C   UNL A   1      40.816  22.032  27.328  1.00  0.00     0.202 C 
BRANCH  34  35
ATOM     35  C   UNL A   1      42.005  22.552  26.527  1.00  0.00     0.261 C 
BRANCH  35  36
ATOM     36  O   UNL A   1      42.012  23.967  26.417  1.00  0.00    -0.460 OA
BRANCH  36  37
ATOM     37  C   UNL A   1      42.844  24.434  25.455  1.00  0.00     0.338 C 
ATOM     38  O   UNL A   1      43.428  23.779  24.611  1.00  0.00    -0.246 OA
BRANCH  37  39
ATOM     39  C   UNL A   1      43.046  25.873  25.661  1.00  0.00     0.060 A 
ATOM     40  C   UNL A   1      43.992  26.211  26.631  1.00  0.00     0.016 A 
ATOM     41  C   UNL A   1      42.119  26.803  25.164  1.00  0.00     0.016 A 
ATOM     42  C   UNL A   1      43.832  27.398  27.303  1.00  0.00     0.010 A 
ATOM     43  C   UNL A   1      41.953  27.986  25.845  1.00  0.00     0.010 A 
ATOM     44  C   UNL A   1      42.745  28.210  26.970  1.00  0.00    -0.014 A 
BRANCH  44  45
ATOM     45  C   UNL A   1      42.420  29.272  27.895  1.00  0.00     0.031 A 
ATOM     46  C   UNL A   1      43.460  30.301  28.047  1.00  0.00     0.074 A 
ATOM     47  C   UNL A   1      41.233  29.319  28.524  1.00  0.00     0.049 A 
ATOM     48  N   UNL A   1      44.157  30.570  29.097  1.00  0.00    -0.248 NA
ATOM     49  C   UNL A   1      43.861  31.031  26.836  1.00  0.00     0.031 C 
ATOM     50  C   UNL A   1      40.036  28.521  28.250  1.00  0.00     0.029 A 
ATOM     51  N   UNL A   1      40.815  30.202  29.470  1.00  0.00    -0.354 N 
ATOM     52  C   UNL A   1      44.978  31.629  28.735  1.00  0.00     0.074 A 
ATOM     53  C   UNL A   1      44.872  31.761  27.303  1.00  0.00     0.031 C 
ATOM     54  C   UNL A   1      38.972  29.121  28.830  1.00  0.00     0.029 A 
ATOM     55  C   UNL A   1      39.437  30.266  29.599  1.00  0.00     0.049 A 
ATOM     56  H   UNL A   1      41.433  30.744  30.011  1.00  0.00     0.167 HD
ATOM     57  C   UNL A   1      45.527  32.466  29.655  1.00  0.00     0.031 A 
ATOM     58  C   UNL A   1      38.738  31.261  30.195  1.00  0.00     0.031 A 
ATOM     59  C   UNL A   1      45.440  31.946  30.992  1.00  0.00     0.049 A 
ATOM     60  C   UNL A   1      39.671  31.993  31.092  1.00  0.00     0.074 A 
ATOM     61  C   UNL A   1      45.943  30.831  31.631  1.00  0.00     0.029 A 
ATOM     62  N   UNL A   1      44.435  32.433  31.797  1.00  0.00    -0.354 N 
ATOM     63  N   UNL A   1      40.184  31.477  32.174  1.00  0.00    -0.248 NA
ATOM     64  C   UNL A   1      40.379  33.155  30.572  1.00  0.00     0.031 C 
ATOM     65  C   UNL A   1      44.938  30.451  32.566  1.00  0.00     0.029 A 
ATOM     66  C   UNL A   1      43.889  31.367  32.467  1.00  0.00     0.049 A 
ATOM     67  H   UNL A   1      44.159  33.374  31.877  1.00  0.00     0.167 HD
ATOM     68  C   UNL A   1      41.482  31.966  32.230  1.00  0.00     0.074 A 
ATOM     69  C   UNL A   1      41.504  33.083  31.291  1.00  0.00     0.031 C 
ATOM     70  C   UNL A   1      42.487  31.247  32.815  1.00  0.00     0.031 A 
BRANCH  57  71
ATOM     71  C   UNL A   1      45.815  33.913  29.370  1.00  0.00    -0.014 A 
ATOM     72  C   UNL A   1      44.748  34.829  29.328  1.00  0.00     0.010 A 
ATOM     73  C   UNL A   1      47.063  34.350  28.879  1.00  0.00     0.010 A 
ATOM     74  C   UNL A   1      44.911  36.099  28.759  1.00  0.00     0.020 A 
ATOM     75  C   UNL A   1      47.249  35.628  28.357  1.00  0.00     0.020 A 
ATOM     76  C   UNL A   1      46.158  36.479  28.260  1.00  0.00     0.054 A 
BRANCH  76  77
ATOM     77  S   UNL A   1      46.327  38.056  27.393  1.00  0.00     0.124 S 
ATOM     78  O   UNL A   1      46.667  38.961  28.486  1.00  0.00    -0.237 OA
ATOM     79  O   UNL A   1      47.399  37.776  26.442  1.00  0.00    -0.237 OA
ATOM     80  O   UNL A   1      45.009  38.259  26.797  1.00  0.00    -0.744 OA
ENDBRANCH  76  77
ENDBRANCH  57  71
BRANCH  58  81
ATOM     81  C   UNL A   1      37.416  31.790  29.773  1.00  0.00    -0.014 A 
ATOM     82  C   UNL A   1      36.337  31.854  30.671  1.00  0.00     0.010 A 
ATOM     83  C   UNL A   1      37.282  32.463  28.540  1.00  0.00     0.010 A 
ATOM     84  C   UNL A   1      35.189  32.606  30.365  1.00  0.00     0.020 A 
ATOM     85  C   UNL A   1      36.137  33.198  28.220  1.00  0.00     0.020 A 
ATOM     86  C   UNL A   1      35.104  33.286  29.145  1.00  0.00     0.054 A 
BRANCH  86  87
ATOM     87  S   UNL A   1      33.700  34.393  28.826  1.00  0.00     0.124 S 
ATOM     88  O   UNL A   1      32.853  33.578  27.961  1.00  0.00    -0.237 OA
ATOM     89  O   UNL A   1      33.183  34.643  30.168  1.00  0.00    -0.237 OA
ATOM     90  O   UNL A   1      34.317  35.550  28.178  1.00  0.00    -0.744 OA
ENDBRANCH  86  87
ENDBRANCH  58  81
BRANCH  70  91
ATOM     91  C   UNL A   1      42.110  30.048  33.657  1.00  0.00    -0.014 A 
ATOM     92  C   UNL A   1      41.810  28.788  33.103  1.00  0.00     0.010 A 
ATOM     93  C   UNL A   1      42.232  30.152  35.054  1.00  0.00     0.010 A 
ATOM     94  C   UNL A   1      41.613  27.669  33.925  1.00  0.00     0.020 A 
ATOM     95  C   UNL A   1      42.057  29.036  35.878  1.00  0.00     0.020 A 
ATOM     96  C   UNL A   1      41.741  27.801  35.310  1.00  0.00     0.054 A 
BRANCH  96  97
ATOM     97  S   UNL A   1      41.562  26.332  36.360  1.00  0.00     0.124 S 
ATOM     98  O   UNL A   1      40.822  25.415  35.498  1.00  0.00    -0.237 OA
ATOM     99  O   UNL A   1      42.947  25.957  36.634  1.00  0.00    -0.237 OA
ATOM    100  O   UNL A   1      40.822  26.823  37.522  1.00  0.00    -0.744 OA
ENDBRANCH  96  97
ENDBRANCH  70  91
ENDBRANCH  44  45
ENDBRANCH  37  39
ENDBRANCH  36  37
ENDBRANCH  35  36
ENDBRANCH  34  35
ENDBRANCH  33  34
ENDBRANCH   1  33
TORSDOF 21
ENDMDL
