MODEL 1
REMARK VINA RESULT:     -10.1      0.000      0.000
REMARK SMILES CC1(C)CCC[C@H]1NS(=O)(=O)c1cccc(C(=O)OCCOCCOC(=O)c2ccc(-c3c4nc(c(-c5ccc(S(=O)(=O)[O-])cc5)c5ccc([nH]5)c(-c5ccc(S(=O)(=O)[O-])cc5)c5nc(c(-c6ccc(S(=O)(=O)[O-])cc6)c6ccc3[nH]6)C=C5)C=C4)cc2)c1
REMARK SMILES IDX 22 1 21 2 20 3 19 4 17 5 18 6 16 7 12 8 13 9 88 10 14 11
REMARK SMILES IDX 15 12 9 13 10 14 11 15 8 16 7 18 1 19 2 20 3 21 4 22 5 23
REMARK SMILES IDX 6 24 23 25 24 26 25 27 26 28 27 29 28 30 29 31 87 32 30 33
REMARK SMILES IDX 86 34 31 35 32 36 33 37 80 38 34 39 85 40 79 41 81 42 35 43
REMARK SMILES IDX 84 44 78 45 77 46 36 48 66 49 47 50 65 51 48 52 51 53 64 54
REMARK SMILES IDX 82 55 49 56 50 57 63 59 83 60 52 61 37 62 38 63 46 64 39 65
REMARK SMILES IDX 45 66 40 67 41 68 42 69 43 70 44 71 67 72 68 73 76 74 69 75
REMARK SMILES IDX 75 76 70 77 71 78 72 79 73 80 74 81 53 82 54 83 62 84 55 85
REMARK SMILES IDX 61 86 56 87 57 88 58 89 59 90 60 91
REMARK H PARENT 8 17 81 47 51 58
REMARK Flexibility Score: inf
ROOT
ATOM      1  O   UNL A   1      44.031  21.947  25.310  1.00  0.00    -0.374 OA
ENDROOT
BRANCH   1   2
ATOM      2  C   UNL A   1      43.205  21.548  26.410  1.00  0.00     0.202 C 
BRANCH   2   3
ATOM      3  C   UNL A   1      42.380  20.286  26.131  1.00  0.00     0.261 C 
BRANCH   3   4
ATOM      4  O   UNL A   1      41.111  20.381  26.805  1.00  0.00    -0.460 OA
BRANCH   4   5
ATOM      5  C   UNL A   1      40.010  20.212  26.037  1.00  0.00     0.338 C 
ATOM      6  O   UNL A   1      39.589  19.171  25.561  1.00  0.00    -0.246 OA
BRANCH   5   7
ATOM      7  C   UNL A   1      39.233  21.474  26.047  1.00  0.00     0.061 A 
ATOM      8  C   UNL A   1      37.556  22.965  25.157  1.00  0.00     0.083 A 
ATOM      9  C   UNL A   1      37.988  23.985  26.008  1.00  0.00     0.022 A 
ATOM     10  C   UNL A   1      38.181  21.710  25.159  1.00  0.00     0.037 A 
ATOM     11  C   UNL A   1      39.023  23.733  26.910  1.00  0.00     0.002 A 
ATOM     12  C   UNL A   1      39.636  22.479  26.937  1.00  0.00     0.016 A 
BRANCH   8  13
ATOM     13  S   UNL A   1      36.150  23.183  24.101  1.00  0.00     0.240 S 
ATOM     14  O   UNL A   1      36.631  23.212  22.741  1.00  0.00    -0.207 OA
ATOM     15  O   UNL A   1      35.376  24.271  24.656  1.00  0.00    -0.207 OA
BRANCH  13  16
ATOM     16  N   UNL A   1      35.197  21.810  24.291  1.00  0.00    -0.208 NA
ATOM     17  H   UNL A   1      34.915  21.535  23.351  1.00  0.00     0.141 HD
BRANCH  16  18
ATOM     18  C   UNL A   1      33.971  21.773  25.105  1.00  0.00     0.075 C 
ATOM     19  C   UNL A   1      32.864  22.431  22.818  1.00  0.00     0.013 C 
ATOM     20  C   UNL A   1      32.706  21.757  24.191  1.00  0.00    -0.019 C 
ATOM     21  C   UNL A   1      31.528  22.448  24.912  1.00  0.00     0.013 C 
ATOM     22  C   UNL A   1      32.432  20.254  24.023  1.00  0.00     0.008 C 
ATOM     23  C   UNL A   1      32.718  19.665  25.393  1.00  0.00     0.002 C 
ATOM     24  C   UNL A   1      33.861  20.503  25.961  1.00  0.00     0.020 C 
ENDBRANCH  16  18
ENDBRANCH  13  16
ENDBRANCH   8  13
ENDBRANCH   5   7
ENDBRANCH   4   5
ENDBRANCH   3   4
ENDBRANCH   2   3
ENDBRANCH   1   2
BRANCH   1  25
ATOM     25  C   UNL A   1      43.818  23.275  24.827  1.00  0.00     0.202 C 
BRANCH  25  26
ATOM     26  C   UNL A   1      43.866  24.356  25.912  1.00  0.00     0.261 C 
BRANCH  26  27
ATOM     27  O   UNL A   1      43.495  25.634  25.370  1.00  0.00    -0.460 OA
BRANCH  27  28
ATOM     28  C   UNL A   1      42.248  26.052  25.692  1.00  0.00     0.338 C 
ATOM     29  O   UNL A   1      41.214  25.801  25.097  1.00  0.00    -0.246 OA
BRANCH  28  30
ATOM     30  C   UNL A   1      42.272  26.744  26.997  1.00  0.00     0.060 A 
ATOM     31  C   UNL A   1      41.416  26.259  27.994  1.00  0.00     0.016 A 
ATOM     32  C   UNL A   1      43.072  27.866  27.238  1.00  0.00     0.016 A 
ATOM     33  C   UNL A   1      41.316  26.923  29.215  1.00  0.00     0.010 A 
ATOM     34  C   UNL A   1      42.967  28.535  28.463  1.00  0.00     0.010 A 
ATOM     35  C   UNL A   1      42.062  28.087  29.441  1.00  0.00    -0.014 A 
BRANCH  35  36
ATOM     36  C   UNL A   1      41.783  28.902  30.647  1.00  0.00     0.031 A 
ATOM     37  C   UNL A   1      40.595  29.827  30.645  1.00  0.00     0.074 A 
ATOM     38  C   UNL A   1      42.553  28.796  31.744  1.00  0.00     0.049 A 
ATOM     39  N   UNL A   1      40.150  30.603  31.598  1.00  0.00    -0.248 NA
ATOM     40  C   UNL A   1      39.804  29.878  29.404  1.00  0.00     0.031 C 
ATOM     41  C   UNL A   1      43.714  27.918  31.881  1.00  0.00     0.029 A 
ATOM     42  N   UNL A   1      42.469  29.435  32.956  1.00  0.00    -0.354 N 
ATOM     43  C   UNL A   1      39.032  31.240  31.073  1.00  0.00     0.074 A 
ATOM     44  C   UNL A   1      38.882  30.778  29.710  1.00  0.00     0.031 C 
ATOM     45  C   UNL A   1      44.240  28.081  33.107  1.00  0.00     0.029 A 
ATOM     46  C   UNL A   1      43.466  29.085  33.833  1.00  0.00     0.049 A 
ATOM     47  H   UNL A   1      41.760  30.083  33.174  1.00  0.00     0.167 HD
ATOM     48  C   UNL A   1      38.201  32.127  31.672  1.00  0.00     0.031 A 
ATOM     49  C   UNL A   1      43.733  29.534  35.076  1.00  0.00     0.031 A 
ATOM     50  C   UNL A   1      38.359  32.600  33.021  1.00  0.00     0.049 A 
ATOM     51  C   UNL A   1      42.827  30.558  35.704  1.00  0.00     0.074 A 
ATOM     52  C   UNL A   1      37.554  33.480  33.725  1.00  0.00     0.029 A 
ATOM     53  N   UNL A   1      39.398  32.244  33.867  1.00  0.00    -0.354 N 
ATOM     54  N   UNL A   1      41.747  31.118  35.210  1.00  0.00    -0.248 NA
ATOM     55  C   UNL A   1      43.169  31.004  37.062  1.00  0.00     0.031 C 
ATOM     56  C   UNL A   1      38.135  33.692  34.980  1.00  0.00     0.029 A 
ATOM     57  C   UNL A   1      39.273  32.907  35.076  1.00  0.00     0.049 A 
ATOM     58  H   UNL A   1      40.119  31.612  33.641  1.00  0.00     0.167 HD
ATOM     59  C   UNL A   1      41.271  31.966  36.205  1.00  0.00     0.074 A 
ATOM     60  C   UNL A   1      42.172  31.838  37.332  1.00  0.00     0.031 C 
ATOM     61  C   UNL A   1      40.182  32.775  36.186  1.00  0.00     0.031 A 
BRANCH  48  62
ATOM     62  C   UNL A   1      37.065  32.667  30.848  1.00  0.00    -0.014 A 
ATOM     63  C   UNL A   1      37.248  33.762  29.984  1.00  0.00     0.010 A 
ATOM     64  C   UNL A   1      35.796  32.064  30.931  1.00  0.00     0.010 A 
ATOM     65  C   UNL A   1      36.172  34.274  29.253  1.00  0.00     0.020 A 
ATOM     66  C   UNL A   1      34.723  32.558  30.185  1.00  0.00     0.020 A 
ATOM     67  C   UNL A   1      34.913  33.674  29.366  1.00  0.00     0.054 A 
BRANCH  67  68
ATOM     68  S   UNL A   1      33.531  34.355  28.411  1.00  0.00     0.124 S 
ATOM     69  O   UNL A   1      32.656  34.858  29.468  1.00  0.00    -0.237 OA
ATOM     70  O   UNL A   1      34.177  35.379  27.593  1.00  0.00    -0.237 OA
ATOM     71  O   UNL A   1      33.018  33.204  27.673  1.00  0.00    -0.744 OA
ENDBRANCH  67  68
ENDBRANCH  48  62
BRANCH  49  72
ATOM     72  C   UNL A   1      44.922  29.017  35.803  1.00  0.00    -0.014 A 
ATOM     73  C   UNL A   1      46.213  29.471  35.484  1.00  0.00     0.010 A 
ATOM     74  C   UNL A   1      44.760  28.081  36.842  1.00  0.00     0.010 A 
ATOM     75  C   UNL A   1      47.323  28.995  36.189  1.00  0.00     0.020 A 
ATOM     76  C   UNL A   1      45.865  27.620  37.562  1.00  0.00     0.020 A 
ATOM     77  C   UNL A   1      47.142  28.076  37.226  1.00  0.00     0.054 A 
BRANCH  77  78
ATOM     78  S   UNL A   1      48.587  27.528  38.177  1.00  0.00     0.124 S 
ATOM     79  O   UNL A   1      48.058  27.482  39.536  1.00  0.00    -0.237 OA
ATOM     80  O   UNL A   1      48.892  26.233  37.572  1.00  0.00    -0.237 OA
ATOM     81  O   UNL A   1      49.578  28.572  37.923  1.00  0.00    -0.744 OA
ENDBRANCH  77  78
ENDBRANCH  49  72
BRANCH  61  82
ATOM     82  C   UNL A   1      39.890  33.572  37.429  1.00  0.00    -0.014 A 
ATOM     83  C   UNL A   1      40.520  34.805  37.667  1.00  0.00     0.010 A 
ATOM     84  C   UNL A   1      38.927  33.105  38.343  1.00  0.00     0.010 A 
ATOM     85  C   UNL A   1      40.214  35.545  38.814  1.00  0.00     0.020 A 
ATOM     86  C   UNL A   1      38.602  33.852  39.478  1.00  0.00     0.020 A 
ATOM     87  C   UNL A   1      39.258  35.062  39.713  1.00  0.00     0.054 A 
BRANCH  87  88
ATOM     88  S   UNL A   1      38.842  36.059  41.171  1.00  0.00     0.124 S 
ATOM     89  O   UNL A   1      40.043  35.915  41.989  1.00  0.00    -0.237 OA
ATOM     90  O   UNL A   1      38.626  37.388  40.603  1.00  0.00    -0.237 OA
ATOM     91  O   UNL A   1      37.644  35.413  41.700  1.00  0.00    -0.744 OA
ENDBRANCH  87  88
ENDBRANCH  61  82
ENDBRANCH  35  36
ENDBRANCH  28  30
ENDBRANCH  27  28
ENDBRANCH  26  27
ENDBRANCH  25  26
ENDBRANCH   1  25
TORSDOF 20
ENDMDL
MODEL 2
REMARK VINA RESULT:     -10.1      4.090     10.160
REMARK SMILES CC1(C)CCC[C@H]1NS(=O)(=O)c1cccc(C(=O)OCCOCCOC(=O)c2ccc(-c3c4nc(c(-c5ccc(S(=O)(=O)[O-])cc5)c5ccc([nH]5)c(-c5ccc(S(=O)(=O)[O-])cc5)c5nc(c(-c6ccc(S(=O)(=O)[O-])cc6)c6ccc3[nH]6)C=C5)C=C4)cc2)c1
REMARK SMILES IDX 22 1 21 2 20 3 19 4 17 5 18 6 16 7 12 8 13 9 88 10 14 11
REMARK SMILES IDX 15 12 9 13 10 14 11 15 8 16 7 18 1 19 2 20 3 21 4 22 5 23
REMARK SMILES IDX 6 24 23 25 24 26 25 27 26 28 27 29 28 30 29 31 87 32 30 33
REMARK SMILES IDX 86 34 31 35 32 36 33 37 80 38 34 39 85 40 79 41 81 42 35 43
REMARK SMILES IDX 84 44 78 45 77 46 36 48 66 49 47 50 65 51 48 52 51 53 64 54
REMARK SMILES IDX 82 55 49 56 50 57 63 59 83 60 52 61 37 62 38 63 46 64 39 65
REMARK SMILES IDX 45 66 40 67 41 68 42 69 43 70 44 71 67 72 68 73 76 74 69 75
REMARK SMILES IDX 75 76 70 77 71 78 72 79 73 80 74 81 53 82 54 83 62 84 55 85
REMARK SMILES IDX 61 86 56 87 57 88 58 89 59 90 60 91
REMARK H PARENT 8 17 81 47 51 58
REMARK Flexibility Score: inf
ROOT
ATOM      1  O   UNL A   1      31.902  29.817  24.944  1.00  0.00    -0.374 OA
ENDROOT
BRANCH   1   2
ATOM      2  C   UNL A   1      30.706  29.677  24.168  1.00  0.00     0.202 C 
BRANCH   2   3
ATOM      3  C   UNL A   1      30.657  28.385  23.345  1.00  0.00     0.261 C 
BRANCH   3   4
ATOM      4  O   UNL A   1      30.786  27.250  24.223  1.00  0.00    -0.460 OA
BRANCH   4   5
ATOM      5  C   UNL A   1      31.888  26.484  24.053  1.00  0.00     0.338 C 
ATOM      6  O   UNL A   1      32.982  26.835  23.645  1.00  0.00    -0.246 OA
BRANCH   5   7
ATOM      7  C   UNL A   1      31.638  25.159  24.671  1.00  0.00     0.061 A 
ATOM      8  C   UNL A   1      31.695  22.746  24.664  1.00  0.00     0.083 A 
ATOM      9  C   UNL A   1      30.911  22.709  25.820  1.00  0.00     0.022 A 
ATOM     10  C   UNL A   1      32.053  23.967  24.074  1.00  0.00     0.037 A 
ATOM     11  C   UNL A   1      30.522  23.905  26.424  1.00  0.00     0.002 A 
ATOM     12  C   UNL A   1      30.894  25.126  25.858  1.00  0.00     0.016 A 
BRANCH   8  13
ATOM     13  S   UNL A   1      32.340  21.263  23.942  1.00  0.00     0.240 S 
ATOM     14  O   UNL A   1      31.806  21.164  22.606  1.00  0.00    -0.207 OA
ATOM     15  O   UNL A   1      32.152  20.209  24.915  1.00  0.00    -0.207 OA
BRANCH  13  16
ATOM     16  N   UNL A   1      34.004  21.476  23.828  1.00  0.00    -0.208 NA
ATOM     17  H   UNL A   1      34.333  20.761  23.180  1.00  0.00     0.141 HD
BRANCH  16  18
ATOM     18  C   UNL A   1      34.916  21.421  24.983  1.00  0.00     0.075 C 
ATOM     19  C   UNL A   1      36.453  22.819  23.380  1.00  0.00     0.013 C 
ATOM     20  C   UNL A   1      36.067  22.464  24.824  1.00  0.00    -0.019 C 
ATOM     21  C   UNL A   1      37.340  21.952  25.531  1.00  0.00     0.013 C 
ATOM     22  C   UNL A   1      35.503  23.697  25.548  1.00  0.00     0.008 C 
ATOM     23  C   UNL A   1      34.793  23.128  26.763  1.00  0.00     0.002 C 
ATOM     24  C   UNL A   1      34.226  21.786  26.305  1.00  0.00     0.020 C 
ENDBRANCH  16  18
ENDBRANCH  13  16
ENDBRANCH   8  13
ENDBRANCH   5   7
ENDBRANCH   4   5
ENDBRANCH   3   4
ENDBRANCH   2   3
ENDBRANCH   1   2
BRANCH   1  25
ATOM     25  C   UNL A   1      31.732  29.737  26.361  1.00  0.00     0.202 C 
BRANCH  25  26
ATOM     26  C   UNL A   1      33.025  29.465  27.136  1.00  0.00     0.261 C 
BRANCH  26  27
ATOM     27  O   UNL A   1      33.997  30.492  26.876  1.00  0.00    -0.460 OA
BRANCH  27  28
ATOM     28  C   UNL A   1      34.613  30.988  27.975  1.00  0.00     0.338 C 
ATOM     29  O   UNL A   1      34.146  31.768  28.787  1.00  0.00    -0.246 OA
BRANCH  28  30
ATOM     30  C   UNL A   1      35.915  30.317  28.167  1.00  0.00     0.060 A 
ATOM     31  C   UNL A   1      36.164  29.752  29.425  1.00  0.00     0.016 A 
ATOM     32  C   UNL A   1      36.893  30.274  27.167  1.00  0.00     0.016 A 
ATOM     33  C   UNL A   1      37.408  29.191  29.705  1.00  0.00     0.010 A 
ATOM     34  C   UNL A   1      38.144  29.714  27.452  1.00  0.00     0.010 A 
ATOM     35  C   UNL A   1      38.417  29.203  28.733  1.00  0.00    -0.014 A 
BRANCH  35  36
ATOM     36  C   UNL A   1      39.794  28.807  29.115  1.00  0.00     0.031 A 
ATOM     37  C   UNL A   1      40.646  29.780  29.885  1.00  0.00     0.074 A 
ATOM     38  C   UNL A   1      40.268  27.586  28.813  1.00  0.00     0.049 A 
ATOM     39  N   UNL A   1      41.861  29.629  30.345  1.00  0.00    -0.248 NA
ATOM     40  C   UNL A   1      40.047  31.092  30.177  1.00  0.00     0.031 C 
ATOM     41  C   UNL A   1      39.532  26.547  28.094  1.00  0.00     0.029 A 
ATOM     42  N   UNL A   1      41.488  27.015  29.077  1.00  0.00    -0.354 N 
ATOM     43  C   UNL A   1      42.175  30.828  30.976  1.00  0.00     0.074 A 
ATOM     44  C   UNL A   1      41.033  31.702  30.817  1.00  0.00     0.031 C 
ATOM     45  C   UNL A   1      40.320  25.465  27.967  1.00  0.00     0.029 A 
ATOM     46  C   UNL A   1      41.619  25.742  28.577  1.00  0.00     0.049 A 
ATOM     47  H   UNL A   1      42.200  27.475  29.576  1.00  0.00     0.167 HD
ATOM     48  C   UNL A   1      43.310  31.169  31.632  1.00  0.00     0.031 A 
ATOM     49  C   UNL A   1      42.672  24.901  28.597  1.00  0.00     0.031 A 
ATOM     50  C   UNL A   1      44.452  30.307  31.776  1.00  0.00     0.049 A 
ATOM     51  C   UNL A   1      43.942  25.320  29.287  1.00  0.00     0.074 A 
ATOM     52  C   UNL A   1      45.639  30.554  32.444  1.00  0.00     0.029 A 
ATOM     53  N   UNL A   1      44.557  29.036  31.231  1.00  0.00    -0.354 N 
ATOM     54  N   UNL A   1      44.207  26.440  29.917  1.00  0.00    -0.248 NA
ATOM     55  C   UNL A   1      45.052  24.356  29.278  1.00  0.00     0.031 C 
ATOM     56  C   UNL A   1      46.480  29.451  32.263  1.00  0.00     0.029 A 
ATOM     57  C   UNL A   1      45.798  28.497  31.523  1.00  0.00     0.049 A 
ATOM     58  H   UNL A   1      43.852  28.585  30.713  1.00  0.00     0.167 HD
ATOM     59  C   UNL A   1      45.507  26.307  30.396  1.00  0.00     0.074 A 
ATOM     60  C   UNL A   1      45.970  24.994  29.993  1.00  0.00     0.031 C 
ATOM     61  C   UNL A   1      46.247  27.192  31.109  1.00  0.00     0.031 A 
BRANCH  48  62
ATOM     62  C   UNL A   1      43.376  32.555  32.212  1.00  0.00    -0.014 A 
ATOM     63  C   UNL A   1      42.926  32.821  33.518  1.00  0.00     0.010 A 
ATOM     64  C   UNL A   1      43.906  33.607  31.442  1.00  0.00     0.010 A 
ATOM     65  C   UNL A   1      42.962  34.122  34.027  1.00  0.00     0.020 A 
ATOM     66  C   UNL A   1      43.964  34.905  31.955  1.00  0.00     0.020 A 
ATOM     67  C   UNL A   1      43.472  35.158  33.238  1.00  0.00     0.054 A 
BRANCH  67  68
ATOM     68  S   UNL A   1      43.507  36.839  33.917  1.00  0.00     0.124 S 
ATOM     69  O   UNL A   1      43.583  37.651  32.704  1.00  0.00    -0.237 OA
ATOM     70  O   UNL A   1      42.243  36.920  34.645  1.00  0.00    -0.237 OA
ATOM     71  O   UNL A   1      44.704  36.852  34.751  1.00  0.00    -0.744 OA
ENDBRANCH  67  68
ENDBRANCH  48  62
BRANCH  49  72
ATOM     72  C   UNL A   1      42.565  23.576  27.931  1.00  0.00    -0.014 A 
ATOM     73  C   UNL A   1      43.081  23.378  26.639  1.00  0.00     0.010 A 
ATOM     74  C   UNL A   1      41.964  22.495  28.603  1.00  0.00     0.010 A 
ATOM     75  C   UNL A   1      42.996  22.122  26.029  1.00  0.00     0.020 A 
ATOM     76  C   UNL A   1      41.896  21.234  28.006  1.00  0.00     0.020 A 
ATOM     77  C   UNL A   1      42.408  21.057  26.718  1.00  0.00     0.054 A 
BRANCH  77  78
ATOM     78  S   UNL A   1      42.373  19.419  25.939  1.00  0.00     0.124 S 
ATOM     79  O   UNL A   1      42.917  18.569  26.993  1.00  0.00    -0.237 OA
ATOM     80  O   UNL A   1      40.953  19.236  25.648  1.00  0.00    -0.237 OA
ATOM     81  O   UNL A   1      43.225  19.583  24.762  1.00  0.00    -0.744 OA
ENDBRANCH  77  78
ENDBRANCH  49  72
BRANCH  61  82
ATOM     82  C   UNL A   1      47.631  26.765  31.520  1.00  0.00    -0.014 A 
ATOM     83  C   UNL A   1      48.759  27.136  30.768  1.00  0.00     0.010 A 
ATOM     84  C   UNL A   1      47.808  26.030  32.707  1.00  0.00     0.010 A 
ATOM     85  C   UNL A   1      50.039  26.754  31.182  1.00  0.00     0.020 A 
ATOM     86  C   UNL A   1      49.087  25.667  33.135  1.00  0.00     0.020 A 
ATOM     87  C   UNL A   1      50.195  26.020  32.362  1.00  0.00     0.054 A 
BRANCH  87  88
ATOM     88  S   UNL A   1      51.868  25.574  32.904  1.00  0.00     0.124 S 
ATOM     89  O   UNL A   1      52.350  26.832  33.467  1.00  0.00    -0.237 OA
ATOM     90  O   UNL A   1      51.621  24.506  33.871  1.00  0.00    -0.237 OA
ATOM     91  O   UNL A   1      52.528  25.148  31.672  1.00  0.00    -0.744 OA
ENDBRANCH  87  88
ENDBRANCH  61  82
ENDBRANCH  35  36
ENDBRANCH  28  30
ENDBRANCH  27  28
ENDBRANCH  26  27
ENDBRANCH  25  26
ENDBRANCH   1  25
TORSDOF 20
ENDMDL
MODEL 3
REMARK VINA RESULT:     -10.1      2.700      8.760
REMARK SMILES CC1(C)CCC[C@H]1NS(=O)(=O)c1cccc(C(=O)OCCOCCOC(=O)c2ccc(-c3c4nc(c(-c5ccc(S(=O)(=O)[O-])cc5)c5ccc([nH]5)c(-c5ccc(S(=O)(=O)[O-])cc5)c5nc(c(-c6ccc(S(=O)(=O)[O-])cc6)c6ccc3[nH]6)C=C5)C=C4)cc2)c1
REMARK SMILES IDX 22 1 21 2 20 3 19 4 17 5 18 6 16 7 12 8 13 9 88 10 14 11
REMARK SMILES IDX 15 12 9 13 10 14 11 15 8 16 7 18 1 19 2 20 3 21 4 22 5 23
REMARK SMILES IDX 6 24 23 25 24 26 25 27 26 28 27 29 28 30 29 31 87 32 30 33
REMARK SMILES IDX 86 34 31 35 32 36 33 37 80 38 34 39 85 40 79 41 81 42 35 43
REMARK SMILES IDX 84 44 78 45 77 46 36 48 66 49 47 50 65 51 48 52 51 53 64 54
REMARK SMILES IDX 82 55 49 56 50 57 63 59 83 60 52 61 37 62 38 63 46 64 39 65
REMARK SMILES IDX 45 66 40 67 41 68 42 69 43 70 44 71 67 72 68 73 76 74 69 75
REMARK SMILES IDX 75 76 70 77 71 78 72 79 73 80 74 81 53 82 54 83 62 84 55 85
REMARK SMILES IDX 61 86 56 87 57 88 58 89 59 90 60 91
REMARK H PARENT 8 17 81 47 51 58
REMARK Flexibility Score: inf
ROOT
ATOM      1  O   UNL A   1      39.019  22.291  26.490  1.00  0.00    -0.374 OA
ENDROOT
BRANCH   1   2
ATOM      2  C   UNL A   1      38.667  21.186  25.650  1.00  0.00     0.202 C 
BRANCH   2   3
ATOM      3  C   UNL A   1      37.442  21.452  24.768  1.00  0.00     0.261 C 
BRANCH   3   4
ATOM      4  O   UNL A   1      36.375  21.988  25.574  1.00  0.00    -0.460 OA
BRANCH   4   5
ATOM      5  C   UNL A   1      35.712  23.051  25.063  1.00  0.00     0.338 C 
ATOM      6  O   UNL A   1      36.018  23.719  24.090  1.00  0.00    -0.246 OA
BRANCH   5   7
ATOM      7  C   UNL A   1      34.396  23.151  25.737  1.00  0.00     0.061 A 
ATOM      8  C   UNL A   1      32.252  24.198  26.107  1.00  0.00     0.083 A 
ATOM      9  C   UNL A   1      32.038  23.397  27.232  1.00  0.00     0.022 A 
ATOM     10  C   UNL A   1      33.434  24.092  25.361  1.00  0.00     0.037 A 
ATOM     11  C   UNL A   1      32.992  22.442  27.586  1.00  0.00     0.002 A 
ATOM     12  C   UNL A   1      34.162  22.312  26.835  1.00  0.00     0.016 A 
BRANCH   8  13
ATOM     13  S   UNL A   1      31.010  25.319  25.527  1.00  0.00     0.240 S 
ATOM     14  O   UNL A   1      30.243  25.746  26.672  1.00  0.00    -0.207 OA
ATOM     15  O   UNL A   1      30.382  24.691  24.384  1.00  0.00    -0.207 OA
BRANCH  13  16
ATOM     16  N   UNL A   1      31.826  26.655  24.913  1.00  0.00    -0.208 NA
ATOM     17  H   UNL A   1      31.568  27.438  25.512  1.00  0.00     0.141 HD
BRANCH  16  18
ATOM     18  C   UNL A   1      31.676  27.140  23.531  1.00  0.00     0.075 C 
ATOM     19  C   UNL A   1      31.209  29.411  24.761  1.00  0.00     0.013 C 
ATOM     20  C   UNL A   1      31.704  28.701  23.491  1.00  0.00    -0.019 C 
ATOM     21  C   UNL A   1      30.848  29.212  22.312  1.00  0.00     0.013 C 
ATOM     22  C   UNL A   1      33.192  29.003  23.252  1.00  0.00     0.008 C 
ATOM     23  C   UNL A   1      33.636  27.941  22.261  1.00  0.00     0.002 C 
ATOM     24  C   UNL A   1      32.826  26.697  22.615  1.00  0.00     0.020 C 
ENDBRANCH  16  18
ENDBRANCH  13  16
ENDBRANCH   8  13
ENDBRANCH   5   7
ENDBRANCH   4   5
ENDBRANCH   3   4
ENDBRANCH   2   3
ENDBRANCH   1   2
BRANCH   1  25
ATOM     25  C   UNL A   1      40.369  22.306  26.958  1.00  0.00     0.202 C 
BRANCH  25  26
ATOM     26  C   UNL A   1      41.016  23.695  26.973  1.00  0.00     0.261 C 
BRANCH  26  27
ATOM     27  O   UNL A   1      40.032  24.714  26.732  1.00  0.00    -0.460 OA
BRANCH  27  28
ATOM     28  C   UNL A   1      40.533  25.954  26.520  1.00  0.00     0.338 C 
ATOM     29  O   UNL A   1      41.033  26.377  25.492  1.00  0.00    -0.246 OA
BRANCH  28  30
ATOM     30  C   UNL A   1      40.243  26.819  27.683  1.00  0.00     0.060 A 
ATOM     31  C   UNL A   1      40.848  28.082  27.706  1.00  0.00     0.016 A 
ATOM     32  C   UNL A   1      39.440  26.400  28.749  1.00  0.00     0.016 A 
ATOM     33  C   UNL A   1      40.695  28.910  28.817  1.00  0.00     0.010 A 
ATOM     34  C   UNL A   1      39.293  27.231  29.866  1.00  0.00     0.010 A 
ATOM     35  C   UNL A   1      39.950  28.472  29.919  1.00  0.00    -0.014 A 
BRANCH  35  36
ATOM     36  C   UNL A   1      39.981  29.262  31.173  1.00  0.00     0.031 A 
ATOM     37  C   UNL A   1      41.085  29.013  32.165  1.00  0.00     0.074 A 
ATOM     38  C   UNL A   1      39.061  30.214  31.410  1.00  0.00     0.049 A 
ATOM     39  N   UNL A   1      41.320  29.609  33.306  1.00  0.00    -0.248 NA
ATOM     40  C   UNL A   1      42.051  27.957  31.824  1.00  0.00     0.031 C 
ATOM     41  C   UNL A   1      37.959  30.567  30.516  1.00  0.00     0.029 A 
ATOM     42  N   UNL A   1      38.912  31.059  32.481  1.00  0.00    -0.354 N 
ATOM     43  C   UNL A   1      42.457  28.997  33.822  1.00  0.00     0.074 A 
ATOM     44  C   UNL A   1      42.847  27.968  32.882  1.00  0.00     0.031 C 
ATOM     45  C   UNL A   1      37.241  31.553  31.082  1.00  0.00     0.029 A 
ATOM     46  C   UNL A   1      37.820  31.886  32.381  1.00  0.00     0.049 A 
ATOM     47  H   UNL A   1      39.529  31.070  33.248  1.00  0.00     0.167 HD
ATOM     48  C   UNL A   1      43.119  29.269  34.971  1.00  0.00     0.031 A 
ATOM     49  C   UNL A   1      37.333  32.798  33.246  1.00  0.00     0.031 A 
ATOM     50  C   UNL A   1      42.722  30.279  35.914  1.00  0.00     0.049 A 
ATOM     51  C   UNL A   1      38.055  33.048  34.543  1.00  0.00     0.074 A 
ATOM     52  C   UNL A   1      43.342  30.646  37.097  1.00  0.00     0.029 A 
ATOM     53  N   UNL A   1      41.593  31.076  35.791  1.00  0.00    -0.354 N 
ATOM     54  N   UNL A   1      39.154  32.492  34.996  1.00  0.00    -0.248 NA
ATOM     55  C   UNL A   1      37.477  34.058  35.441  1.00  0.00     0.031 C 
ATOM     56  C   UNL A   1      42.562  31.631  37.711  1.00  0.00     0.029 A 
ATOM     57  C   UNL A   1      41.483  31.913  36.888  1.00  0.00     0.049 A 
ATOM     58  H   UNL A   1      40.964  31.049  35.035  1.00  0.00     0.167 HD
ATOM     59  C   UNL A   1      39.409  33.099  36.221  1.00  0.00     0.074 A 
ATOM     60  C   UNL A   1      38.357  34.072  36.434  1.00  0.00     0.031 C 
ATOM     61  C   UNL A   1      40.426  32.872  37.090  1.00  0.00     0.031 A 
BRANCH  48  62
ATOM     62  C   UNL A   1      44.326  28.427  35.284  1.00  0.00    -0.014 A 
ATOM     63  C   UNL A   1      44.209  27.225  36.004  1.00  0.00     0.010 A 
ATOM     64  C   UNL A   1      45.596  28.840  34.840  1.00  0.00     0.010 A 
ATOM     65  C   UNL A   1      45.346  26.474  36.316  1.00  0.00     0.020 A 
ATOM     66  C   UNL A   1      46.732  28.081  35.131  1.00  0.00     0.020 A 
ATOM     67  C   UNL A   1      46.602  26.913  35.885  1.00  0.00     0.054 A 
BRANCH  67  68
ATOM     68  S   UNL A   1      48.065  25.926  36.303  1.00  0.00     0.124 S 
ATOM     69  O   UNL A   1      48.549  26.601  37.505  1.00  0.00    -0.237 OA
ATOM     70  O   UNL A   1      47.505  24.593  36.517  1.00  0.00    -0.237 OA
ATOM     71  O   UNL A   1      48.920  26.057  35.127  1.00  0.00    -0.744 OA
ENDBRANCH  67  68
ENDBRANCH  48  62
BRANCH  49  72
ATOM     72  C   UNL A   1      36.087  33.536  32.911  1.00  0.00    -0.014 A 
ATOM     73  C   UNL A   1      34.844  33.115  33.414  1.00  0.00     0.010 A 
ATOM     74  C   UNL A   1      36.146  34.686  32.100  1.00  0.00     0.010 A 
ATOM     75  C   UNL A   1      33.681  33.829  33.110  1.00  0.00     0.020 A 
ATOM     76  C   UNL A   1      34.988  35.414  31.813  1.00  0.00     0.020 A 
ATOM     77  C   UNL A   1      33.761  34.976  32.315  1.00  0.00     0.054 A 
BRANCH  77  78
ATOM     78  S   UNL A   1      32.250  35.930  31.995  1.00  0.00     0.124 S 
ATOM     79  O   UNL A   1      32.504  37.160  32.736  1.00  0.00    -0.237 OA
ATOM     80  O   UNL A   1      32.258  36.055  30.539  1.00  0.00    -0.237 OA
ATOM     81  O   UNL A   1      31.190  35.080  32.532  1.00  0.00    -0.744 OA
ENDBRANCH  77  78
ENDBRANCH  49  72
BRANCH  61  82
ATOM     82  C   UNL A   1      40.465  33.704  38.343  1.00  0.00    -0.014 A 
ATOM     83  C   UNL A   1      39.709  33.352  39.474  1.00  0.00     0.010 A 
ATOM     84  C   UNL A   1      41.317  34.823  38.408  1.00  0.00     0.010 A 
ATOM     85  C   UNL A   1      39.781  34.121  40.639  1.00  0.00     0.020 A 
ATOM     86  C   UNL A   1      41.409  35.581  39.578  1.00  0.00     0.020 A 
ATOM     87  C   UNL A   1      40.629  35.232  40.683  1.00  0.00     0.054 A 
BRANCH  87  88
ATOM     88  S   UNL A   1      40.742  36.190  42.220  1.00  0.00     0.124 S 
ATOM     89  O   UNL A   1      41.550  35.316  43.064  1.00  0.00    -0.237 OA
ATOM     90  O   UNL A   1      41.395  37.424  41.785  1.00  0.00    -0.237 OA
ATOM     91  O   UNL A   1      39.349  36.343  42.634  1.00  0.00    -0.744 OA
ENDBRANCH  87  88
ENDBRANCH  61  82
ENDBRANCH  35  36
ENDBRANCH  28  30
ENDBRANCH  27  28
ENDBRANCH  26  27
ENDBRANCH  25  26
ENDBRANCH   1  25
TORSDOF 20
ENDMDL
