MODEL 1
REMARK VINA RESULT:     -11.2      0.000      0.000
REMARK SMILES Cc1ccccc1CCNS(=O)(=O)c1ccc(C(=O)OCCOCCOC(=O)c2ccc(-c3c4nc(c(-c5ccc(S(=O)(=O)[O-])cc5)c5ccc([nH]5)c(-c5ccc(S(=O)(=O)[O-])cc5)c5nc(c(-c6ccc(S(=O)(=O)[O-])cc6)c6ccc3[nH]6)C=C5)C=C4)cc2)o1
REMARK SMILES IDX 22 1 21 2 20 3 18 4 19 5 17 6 14 7 15 8 89 9 16 10 11 11
REMARK SMILES IDX 12 12 13 13 10 14 9 16 8 17 7 18 1 19 2 20 3 21 4 22 6 23
REMARK SMILES IDX 5 24 23 25 24 26 25 27 26 28 27 29 28 30 29 31 30 32 88 33
REMARK SMILES IDX 31 34 87 35 32 36 33 37 34 38 81 39 35 40 86 41 80 42 82 43
REMARK SMILES IDX 36 44 85 45 79 46 78 47 37 49 67 50 48 51 66 52 49 53 52 54
REMARK SMILES IDX 65 55 83 56 50 57 51 58 64 60 84 61 53 62 38 63 39 64 47 65
REMARK SMILES IDX 40 66 46 67 41 68 42 69 43 70 44 71 45 72 68 73 69 74 77 75
REMARK SMILES IDX 70 76 76 77 71 78 72 79 73 80 74 81 75 82 54 83 55 84 63 85
REMARK SMILES IDX 56 86 62 87 57 88 58 89 59 90 60 91 61 92
REMARK H PARENT 10 15 82 48 52 59
REMARK Flexibility Score: inf
ROOT
ATOM      1  C   UNL A   1      34.510  20.415  24.837  1.00  0.00     0.202 C 
ENDROOT
BRANCH   1   2
ATOM      2  C   UNL A   1      33.201  20.764  25.504  1.00  0.00     0.261 C 
BRANCH   2   3
ATOM      3  O   UNL A   1      32.291  21.387  24.594  1.00  0.00    -0.457 OA
BRANCH   3   4
ATOM      4  C   UNL A   1      31.707  22.554  25.007  1.00  0.00     0.374 C 
ATOM      5  O   UNL A   1      30.735  22.675  25.714  1.00  0.00    -0.242 OA
BRANCH   4   6
ATOM      6  C   UNL A   1      32.577  23.624  24.576  1.00  0.00     0.213 A 
ATOM      7  C   UNL A   1      33.163  25.230  23.166  1.00  0.00     0.234 A 
ATOM      8  C   UNL A   1      33.869  25.430  24.345  1.00  0.00     0.065 A 
ATOM      9  O   UNL A   1      32.420  24.083  23.305  1.00  0.00    -0.436 OA
ATOM     10  C   UNL A   1      33.503  24.401  25.238  1.00  0.00     0.060 A 
BRANCH   7  11
ATOM     11  S   UNL A   1      33.019  26.213  21.692  1.00  0.00     0.273 S 
ATOM     12  O   UNL A   1      33.269  25.338  20.572  1.00  0.00    -0.204 OA
ATOM     13  O   UNL A   1      33.826  27.393  21.929  1.00  0.00    -0.204 OA
BRANCH  11  14
ATOM     14  N   UNL A   1      31.421  26.754  21.580  1.00  0.00    -0.208 NA
ATOM     15  H   UNL A   1      31.236  26.950  20.595  1.00  0.00     0.141 HD
BRANCH  14  16
ATOM     16  C   UNL A   1      31.038  27.970  22.353  1.00  0.00     0.104 C 
BRANCH  16  17
ATOM     17  C   UNL A   1      30.338  27.563  23.670  1.00  0.00     0.052 C 
BRANCH  17  18
ATOM     18  C   UNL A   1      31.158  27.912  24.902  1.00  0.00    -0.044 A 
ATOM     19  C   UNL A   1      30.308  25.954  26.349  1.00  0.00     0.044 C 
ATOM     20  C   UNL A   1      31.049  27.247  26.138  1.00  0.00    -0.048 A 
ATOM     21  C   UNL A   1      31.702  27.793  27.260  1.00  0.00     0.004 A 
ATOM     22  C   UNL A   1      32.456  28.962  27.167  1.00  0.00     0.000 A 
ATOM     23  C   UNL A   1      32.001  29.040  24.811  1.00  0.00     0.004 A 
ATOM     24  C   UNL A   1      32.622  29.578  25.935  1.00  0.00     0.000 A 
ENDBRANCH  17  18
ENDBRANCH  16  17
ENDBRANCH  14  16
ENDBRANCH  11  14
ENDBRANCH   7  11
ENDBRANCH   4   6
ENDBRANCH   3   4
ENDBRANCH   2   3
ENDBRANCH   1   2
BRANCH   1  25
ATOM     25  O   UNL A   1      35.523  21.063  25.606  1.00  0.00    -0.374 OA
BRANCH  25  26
ATOM     26  C   UNL A   1      36.491  21.794  24.882  1.00  0.00     0.202 C 
BRANCH  26  27
ATOM     27  C   UNL A   1      37.343  22.737  25.741  1.00  0.00     0.261 C 
BRANCH  27  28
ATOM     28  O   UNL A   1      38.745  22.492  25.520  1.00  0.00    -0.460 OA
BRANCH  28  29
ATOM     29  C   UNL A   1      39.539  22.667  26.615  1.00  0.00     0.338 C 
ATOM     30  O   UNL A   1      40.034  21.757  27.256  1.00  0.00    -0.246 OA
BRANCH  29  31
ATOM     31  C   UNL A   1      39.682  24.119  26.906  1.00  0.00     0.060 A 
ATOM     32  C   UNL A   1      40.379  24.972  26.030  1.00  0.00     0.016 A 
ATOM     33  C   UNL A   1      39.265  24.591  28.149  1.00  0.00     0.016 A 
ATOM     34  C   UNL A   1      40.735  26.271  26.438  1.00  0.00     0.010 A 
ATOM     35  C   UNL A   1      39.687  25.832  28.574  1.00  0.00     0.010 A 
ATOM     36  C   UNL A   1      40.421  26.683  27.733  1.00  0.00    -0.014 A 
BRANCH  36  37
ATOM     37  C   UNL A   1      40.857  27.912  28.401  1.00  0.00     0.031 A 
ATOM     38  C   UNL A   1      39.887  29.022  28.588  1.00  0.00     0.074 A 
ATOM     39  C   UNL A   1      41.989  27.928  29.142  1.00  0.00     0.049 A 
ATOM     40  N   UNL A   1      40.198  30.174  29.076  1.00  0.00    -0.248 NA
ATOM     41  C   UNL A   1      38.476  28.936  28.216  1.00  0.00     0.031 C 
ATOM     42  C   UNL A   1      42.235  28.717  30.351  1.00  0.00     0.029 A 
ATOM     43  N   UNL A   1      43.167  27.232  29.013  1.00  0.00    -0.354 N 
ATOM     44  C   UNL A   1      39.029  30.809  29.424  1.00  0.00     0.074 A 
ATOM     45  C   UNL A   1      37.987  30.046  28.777  1.00  0.00     0.031 C 
ATOM     46  C   UNL A   1      43.525  28.602  30.705  1.00  0.00     0.029 A 
ATOM     47  C   UNL A   1      44.213  27.878  29.654  1.00  0.00     0.049 A 
ATOM     48  H   UNL A   1      43.257  26.382  28.525  1.00  0.00     0.167 HD
ATOM     49  C   UNL A   1      39.073  31.831  30.327  1.00  0.00     0.031 A 
ATOM     50  C   UNL A   1      45.324  28.282  28.970  1.00  0.00     0.031 A 
ATOM     51  C   UNL A   1      40.448  32.118  30.773  1.00  0.00     0.049 A 
ATOM     52  C   UNL A   1      45.363  29.800  28.863  1.00  0.00     0.074 A 
ATOM     53  C   UNL A   1      41.153  31.950  31.955  1.00  0.00     0.029 A 
ATOM     54  N   UNL A   1      41.411  32.408  29.815  1.00  0.00    -0.354 N 
ATOM     55  N   UNL A   1      44.596  30.591  29.565  1.00  0.00    -0.248 NA
ATOM     56  C   UNL A   1      46.183  30.549  27.912  1.00  0.00     0.031 C 
ATOM     57  C   UNL A   1      42.543  32.157  31.685  1.00  0.00     0.029 A 
ATOM     58  C   UNL A   1      42.685  32.483  30.348  1.00  0.00     0.049 A 
ATOM     59  H   UNL A   1      41.208  32.544  28.860  1.00  0.00     0.167 HD
ATOM     60  C   UNL A   1      44.656  31.861  29.074  1.00  0.00     0.074 A 
ATOM     61  C   UNL A   1      45.716  31.801  28.079  1.00  0.00     0.031 C 
ATOM     62  C   UNL A   1      43.788  32.843  29.462  1.00  0.00     0.031 A 
BRANCH  49  63
ATOM     63  C   UNL A   1      37.839  32.458  30.952  1.00  0.00    -0.014 A 
ATOM     64  C   UNL A   1      36.751  31.648  31.336  1.00  0.00     0.010 A 
ATOM     65  C   UNL A   1      37.685  33.838  31.196  1.00  0.00     0.010 A 
ATOM     66  C   UNL A   1      35.564  32.188  31.866  1.00  0.00     0.020 A 
ATOM     67  C   UNL A   1      36.495  34.398  31.687  1.00  0.00     0.020 A 
ATOM     68  C   UNL A   1      35.437  33.566  32.021  1.00  0.00     0.054 A 
BRANCH  68  69
ATOM     69  S   UNL A   1      33.898  34.256  32.685  1.00  0.00     0.124 S 
ATOM     70  O   UNL A   1      33.260  34.811  31.494  1.00  0.00    -0.237 OA
ATOM     71  O   UNL A   1      33.250  33.081  33.259  1.00  0.00    -0.237 OA
ATOM     72  O   UNL A   1      34.353  35.248  33.657  1.00  0.00    -0.744 OA
ENDBRANCH  68  69
ENDBRANCH  49  63
BRANCH  50  73
ATOM     73  C   UNL A   1      45.773  27.261  27.966  1.00  0.00    -0.014 A 
ATOM     74  C   UNL A   1      46.331  26.073  28.496  1.00  0.00     0.010 A 
ATOM     75  C   UNL A   1      45.215  27.210  26.674  1.00  0.00     0.010 A 
ATOM     76  C   UNL A   1      46.179  24.842  27.841  1.00  0.00     0.020 A 
ATOM     77  C   UNL A   1      45.051  25.974  26.019  1.00  0.00     0.020 A 
ATOM     78  C   UNL A   1      45.488  24.791  26.631  1.00  0.00     0.054 A 
BRANCH  78  79
ATOM     79  S   UNL A   1      44.857  23.174  26.040  1.00  0.00     0.124 S 
ATOM     80  O   UNL A   1      43.786  22.889  26.987  1.00  0.00    -0.237 OA
ATOM     81  O   UNL A   1      44.430  23.464  24.670  1.00  0.00    -0.237 OA
ATOM     82  O   UNL A   1      46.040  22.323  26.126  1.00  0.00    -0.744 OA
ENDBRANCH  78  79
ENDBRANCH  50  73
BRANCH  62  83
ATOM     83  C   UNL A   1      43.881  34.255  28.952  1.00  0.00    -0.014 A 
ATOM     84  C   UNL A   1      43.797  34.558  27.585  1.00  0.00     0.010 A 
ATOM     85  C   UNL A   1      44.166  35.321  29.834  1.00  0.00     0.010 A 
ATOM     86  C   UNL A   1      43.873  35.880  27.133  1.00  0.00     0.020 A 
ATOM     87  C   UNL A   1      44.271  36.640  29.393  1.00  0.00     0.020 A 
ATOM     88  C   UNL A   1      44.086  36.915  28.046  1.00  0.00     0.054 A 
BRANCH  88  89
ATOM     89  S   UNL A   1      44.142  38.620  27.452  1.00  0.00     0.124 S 
ATOM     90  O   UNL A   1      43.976  39.393  28.681  1.00  0.00    -0.237 OA
ATOM     91  O   UNL A   1      45.471  38.680  26.848  1.00  0.00    -0.237 OA
ATOM     92  O   UNL A   1      43.026  38.700  26.515  1.00  0.00    -0.744 OA
ENDBRANCH  88  89
ENDBRANCH  62  83
ENDBRANCH  36  37
ENDBRANCH  29  31
ENDBRANCH  28  29
ENDBRANCH  27  28
ENDBRANCH  26  27
ENDBRANCH  25  26
ENDBRANCH   1  25
TORSDOF 22
ENDMDL
MODEL 2
REMARK VINA RESULT:     -10.8      1.618      2.476
REMARK SMILES Cc1ccccc1CCNS(=O)(=O)c1ccc(C(=O)OCCOCCOC(=O)c2ccc(-c3c4nc(c(-c5ccc(S(=O)(=O)[O-])cc5)c5ccc([nH]5)c(-c5ccc(S(=O)(=O)[O-])cc5)c5nc(c(-c6ccc(S(=O)(=O)[O-])cc6)c6ccc3[nH]6)C=C5)C=C4)cc2)o1
REMARK SMILES IDX 22 1 21 2 20 3 18 4 19 5 17 6 14 7 15 8 89 9 16 10 11 11
REMARK SMILES IDX 12 12 13 13 10 14 9 16 8 17 7 18 1 19 2 20 3 21 4 22 6 23
REMARK SMILES IDX 5 24 23 25 24 26 25 27 26 28 27 29 28 30 29 31 30 32 88 33
REMARK SMILES IDX 31 34 87 35 32 36 33 37 34 38 81 39 35 40 86 41 80 42 82 43
REMARK SMILES IDX 36 44 85 45 79 46 78 47 37 49 67 50 48 51 66 52 49 53 52 54
REMARK SMILES IDX 65 55 83 56 50 57 51 58 64 60 84 61 53 62 38 63 39 64 47 65
REMARK SMILES IDX 40 66 46 67 41 68 42 69 43 70 44 71 45 72 68 73 69 74 77 75
REMARK SMILES IDX 70 76 76 77 71 78 72 79 73 80 74 81 75 82 54 83 55 84 63 85
REMARK SMILES IDX 56 86 62 87 57 88 58 89 59 90 60 91 61 92
REMARK H PARENT 10 15 82 48 52 59
REMARK Flexibility Score: inf
ROOT
ATOM      1  C   UNL A   1      35.106  21.202  24.610  1.00  0.00     0.202 C 
ENDROOT
BRANCH   1   2
ATOM      2  C   UNL A   1      33.953  20.539  25.325  1.00  0.00     0.261 C 
BRANCH   2   3
ATOM      3  O   UNL A   1      33.046  21.499  25.873  1.00  0.00    -0.457 OA
BRANCH   3   4
ATOM      4  C   UNL A   1      33.527  22.304  26.870  1.00  0.00     0.374 C 
ATOM      5  O   UNL A   1      34.054  21.957  27.900  1.00  0.00    -0.242 OA
BRANCH   4   6
ATOM      6  C   UNL A   1      33.440  23.661  26.381  1.00  0.00     0.213 A 
ATOM      7  C   UNL A   1      32.405  25.609  26.172  1.00  0.00     0.234 A 
ATOM      8  C   UNL A   1      33.731  25.798  25.805  1.00  0.00     0.065 A 
ATOM      9  O   UNL A   1      32.231  24.279  26.465  1.00  0.00    -0.436 OA
ATOM     10  C   UNL A   1      34.387  24.554  25.928  1.00  0.00     0.060 A 
BRANCH   7  11
ATOM     11  S   UNL A   1      31.066  26.755  26.397  1.00  0.00     0.273 S 
ATOM     12  O   UNL A   1      31.419  27.609  27.505  1.00  0.00    -0.204 OA
ATOM     13  O   UNL A   1      29.861  25.950  26.410  1.00  0.00    -0.204 OA
BRANCH  11  14
ATOM     14  N   UNL A   1      30.967  27.720  25.011  1.00  0.00    -0.208 NA
ATOM     15  H   UNL A   1      30.822  28.682  25.322  1.00  0.00     0.141 HD
BRANCH  14  16
ATOM     16  C   UNL A   1      29.899  27.411  24.018  1.00  0.00     0.104 C 
BRANCH  16  17
ATOM     17  C   UNL A   1      30.534  26.958  22.682  1.00  0.00     0.052 C 
BRANCH  17  18
ATOM     18  C   UNL A   1      31.319  25.663  22.815  1.00  0.00    -0.044 A 
ATOM     19  C   UNL A   1      33.573  26.638  22.029  1.00  0.00     0.044 C 
ATOM     20  C   UNL A   1      32.658  25.506  22.410  1.00  0.00    -0.048 A 
ATOM     21  C   UNL A   1      33.210  24.210  22.386  1.00  0.00     0.004 A 
ATOM     22  C   UNL A   1      32.465  23.094  22.765  1.00  0.00     0.000 A 
ATOM     23  C   UNL A   1      30.615  24.533  23.282  1.00  0.00     0.004 A 
ATOM     24  C   UNL A   1      31.169  23.257  23.232  1.00  0.00     0.000 A 
ENDBRANCH  17  18
ENDBRANCH  16  17
ENDBRANCH  14  16
ENDBRANCH  11  14
ENDBRANCH   7  11
ENDBRANCH   4   6
ENDBRANCH   3   4
ENDBRANCH   2   3
ENDBRANCH   1   2
BRANCH   1  25
ATOM     25  O   UNL A   1      36.276  20.497  25.023  1.00  0.00    -0.374 OA
BRANCH  25  26
ATOM     26  C   UNL A   1      37.514  21.040  24.612  1.00  0.00     0.202 C 
BRANCH  26  27
ATOM     27  C   UNL A   1      38.544  21.185  25.739  1.00  0.00     0.261 C 
BRANCH  27  28
ATOM     28  O   UNL A   1      38.761  22.575  26.048  1.00  0.00    -0.460 OA
BRANCH  28  29
ATOM     29  C   UNL A   1      39.911  22.840  26.733  1.00  0.00     0.338 C 
ATOM     30  O   UNL A   1      40.739  21.998  27.034  1.00  0.00    -0.246 OA
BRANCH  29  31
ATOM     31  C   UNL A   1      39.976  24.289  27.064  1.00  0.00     0.060 A 
ATOM     32  C   UNL A   1      40.674  25.192  26.241  1.00  0.00     0.016 A 
ATOM     33  C   UNL A   1      39.485  24.710  28.298  1.00  0.00     0.016 A 
ATOM     34  C   UNL A   1      40.953  26.495  26.696  1.00  0.00     0.010 A 
ATOM     35  C   UNL A   1      39.832  25.956  28.771  1.00  0.00     0.010 A 
ATOM     36  C   UNL A   1      40.565  26.860  27.985  1.00  0.00    -0.014 A 
BRANCH  36  37
ATOM     37  C   UNL A   1      40.916  28.088  28.701  1.00  0.00     0.031 A 
ATOM     38  C   UNL A   1      39.914  29.180  28.808  1.00  0.00     0.074 A 
ATOM     39  C   UNL A   1      41.975  28.116  29.542  1.00  0.00     0.049 A 
ATOM     40  N   UNL A   1      40.159  30.332  29.334  1.00  0.00    -0.248 NA
ATOM     41  C   UNL A   1      38.545  29.074  28.309  1.00  0.00     0.031 C 
ATOM     42  C   UNL A   1      42.096  28.896  30.776  1.00  0.00     0.029 A 
ATOM     43  N   UNL A   1      43.172  27.441  29.515  1.00  0.00    -0.354 N 
ATOM     44  C   UNL A   1      38.952  30.944  29.579  1.00  0.00     0.074 A 
ATOM     45  C   UNL A   1      37.987  30.171  28.832  1.00  0.00     0.031 C 
ATOM     46  C   UNL A   1      43.350  28.799  31.245  1.00  0.00     0.029 A 
ATOM     47  C   UNL A   1      44.144  28.097  30.256  1.00  0.00     0.049 A 
ATOM     48  H   UNL A   1      43.322  26.597  29.030  1.00  0.00     0.167 HD
ATOM     49  C   UNL A   1      38.895  31.957  30.491  1.00  0.00     0.031 A 
ATOM     50  C   UNL A   1      45.305  28.527  29.680  1.00  0.00     0.031 A 
ATOM     51  C   UNL A   1      40.219  32.261  31.063  1.00  0.00     0.049 A 
ATOM     52  C   UNL A   1      45.327  30.046  29.590  1.00  0.00     0.074 A 
ATOM     53  C   UNL A   1      40.816  32.093  32.303  1.00  0.00     0.029 A 
ATOM     54  N   UNL A   1      41.260  32.578  30.200  1.00  0.00    -0.354 N 
ATOM     55  N   UNL A   1      44.486  30.817  30.227  1.00  0.00    -0.248 NA
ATOM     56  C   UNL A   1      46.218  30.819  28.725  1.00  0.00     0.031 C 
ATOM     57  C   UNL A   1      42.221  32.326  32.164  1.00  0.00     0.029 A 
ATOM     58  C   UNL A   1      42.478  32.669  30.848  1.00  0.00     0.049 A 
ATOM     59  H   UNL A   1      41.143  32.720  29.232  1.00  0.00     0.167 HD
ATOM     60  C   UNL A   1      44.568  32.093  29.754  1.00  0.00     0.074 A 
ATOM     61  C   UNL A   1      45.715  32.061  28.860  1.00  0.00     0.031 C 
ATOM     62  C   UNL A   1      43.652  33.056  30.070  1.00  0.00     0.031 A 
BRANCH  49  63
ATOM     63  C   UNL A   1      37.599  32.557  31.006  1.00  0.00    -0.014 A 
ATOM     64  C   UNL A   1      36.643  33.060  30.100  1.00  0.00     0.010 A 
ATOM     65  C   UNL A   1      37.253  32.652  32.369  1.00  0.00     0.010 A 
ATOM     66  C   UNL A   1      35.454  33.677  30.530  1.00  0.00     0.020 A 
ATOM     67  C   UNL A   1      36.090  33.297  32.818  1.00  0.00     0.020 A 
ATOM     68  C   UNL A   1      35.193  33.808  31.892  1.00  0.00     0.054 A 
BRANCH  68  69
ATOM     69  S   UNL A   1      33.669  34.621  32.439  1.00  0.00     0.124 S 
ATOM     70  O   UNL A   1      32.988  33.558  33.174  1.00  0.00    -0.237 OA
ATOM     71  O   UNL A   1      34.176  35.724  33.250  1.00  0.00    -0.237 OA
ATOM     72  O   UNL A   1      33.019  35.018  31.191  1.00  0.00    -0.744 OA
ENDBRANCH  68  69
ENDBRANCH  49  63
BRANCH  50  73
ATOM     73  C   UNL A   1      45.862  27.525  28.712  1.00  0.00    -0.014 A 
ATOM     74  C   UNL A   1      46.277  26.290  29.267  1.00  0.00     0.010 A 
ATOM     75  C   UNL A   1      45.513  27.552  27.348  1.00  0.00     0.010 A 
ATOM     76  C   UNL A   1      46.176  25.094  28.540  1.00  0.00     0.020 A 
ATOM     77  C   UNL A   1      45.401  26.351  26.619  1.00  0.00     0.020 A 
ATOM     78  C   UNL A   1      45.683  25.126  27.236  1.00  0.00     0.054 A 
BRANCH  78  79
ATOM     79  S   UNL A   1      45.083  23.566  26.480  1.00  0.00     0.124 S 
ATOM     80  O   UNL A   1      46.324  22.879  26.149  1.00  0.00    -0.237 OA
ATOM     81  O   UNL A   1      44.290  22.962  27.551  1.00  0.00    -0.237 OA
ATOM     82  O   UNL A   1      44.289  24.047  25.352  1.00  0.00    -0.744 OA
ENDBRANCH  78  79
ENDBRANCH  50  73
BRANCH  62  83
ATOM     83  C   UNL A   1      43.766  34.475  29.583  1.00  0.00    -0.014 A 
ATOM     84  C   UNL A   1      44.313  35.492  30.380  1.00  0.00     0.010 A 
ATOM     85  C   UNL A   1      43.221  34.852  28.336  1.00  0.00     0.010 A 
ATOM     86  C   UNL A   1      44.421  36.803  29.901  1.00  0.00     0.020 A 
ATOM     87  C   UNL A   1      43.298  36.161  27.859  1.00  0.00     0.020 A 
ATOM     88  C   UNL A   1      43.932  37.122  28.633  1.00  0.00     0.054 A 
BRANCH  88  89
ATOM     89  S   UNL A   1      44.115  38.809  28.014  1.00  0.00     0.124 S 
ATOM     90  O   UNL A   1      43.708  38.683  26.616  1.00  0.00    -0.237 OA
ATOM     91  O   UNL A   1      43.188  39.542  28.874  1.00  0.00    -0.237 OA
ATOM     92  O   UNL A   1      45.528  39.107  28.223  1.00  0.00    -0.744 OA
ENDBRANCH  88  89
ENDBRANCH  62  83
ENDBRANCH  36  37
ENDBRANCH  29  31
ENDBRANCH  28  29
ENDBRANCH  27  28
ENDBRANCH  26  27
ENDBRANCH  25  26
ENDBRANCH   1  25
TORSDOF 22
ENDMDL
MODEL 3
REMARK VINA RESULT:     -10.5      3.349      9.508
REMARK SMILES Cc1ccccc1CCNS(=O)(=O)c1ccc(C(=O)OCCOCCOC(=O)c2ccc(-c3c4nc(c(-c5ccc(S(=O)(=O)[O-])cc5)c5ccc([nH]5)c(-c5ccc(S(=O)(=O)[O-])cc5)c5nc(c(-c6ccc(S(=O)(=O)[O-])cc6)c6ccc3[nH]6)C=C5)C=C4)cc2)o1
REMARK SMILES IDX 22 1 21 2 20 3 18 4 19 5 17 6 14 7 15 8 89 9 16 10 11 11
REMARK SMILES IDX 12 12 13 13 10 14 9 16 8 17 7 18 1 19 2 20 3 21 4 22 6 23
REMARK SMILES IDX 5 24 23 25 24 26 25 27 26 28 27 29 28 30 29 31 30 32 88 33
REMARK SMILES IDX 31 34 87 35 32 36 33 37 34 38 81 39 35 40 86 41 80 42 82 43
REMARK SMILES IDX 36 44 85 45 79 46 78 47 37 49 67 50 48 51 66 52 49 53 52 54
REMARK SMILES IDX 65 55 83 56 50 57 51 58 64 60 84 61 53 62 38 63 39 64 47 65
REMARK SMILES IDX 40 66 46 67 41 68 42 69 43 70 44 71 45 72 68 73 69 74 77 75
REMARK SMILES IDX 70 76 76 77 71 78 72 79 73 80 74 81 75 82 54 83 55 84 63 85
REMARK SMILES IDX 56 86 62 87 57 88 58 89 59 90 60 91 61 92
REMARK H PARENT 10 15 82 48 52 59
REMARK Flexibility Score: inf
ROOT
ATOM      1  C   UNL A   1      35.362  24.618  25.869  1.00  0.00     0.202 C 
ENDROOT
BRANCH   1   2
ATOM      2  C   UNL A   1      35.613  23.463  24.930  1.00  0.00     0.261 C 
BRANCH   2   3
ATOM      3  O   UNL A   1      35.626  22.210  25.620  1.00  0.00    -0.457 OA
BRANCH   3   4
ATOM      4  C   UNL A   1      35.004  21.160  25.002  1.00  0.00     0.374 C 
ATOM      5  O   UNL A   1      35.440  20.044  24.839  1.00  0.00    -0.242 OA
BRANCH   4   6
ATOM      6  C   UNL A   1      33.651  21.586  24.729  1.00  0.00     0.213 A 
ATOM      7  C   UNL A   1      31.751  22.575  25.299  1.00  0.00     0.234 A 
ATOM      8  C   UNL A   1      31.744  22.420  23.919  1.00  0.00     0.065 A 
ATOM      9  O   UNL A   1      32.902  22.004  25.785  1.00  0.00    -0.436 OA
ATOM     10  C   UNL A   1      32.949  21.780  23.559  1.00  0.00     0.060 A 
BRANCH   7  11
ATOM     11  S   UNL A   1      30.641  23.421  26.400  1.00  0.00     0.273 S 
ATOM     12  O   UNL A   1      31.451  24.205  27.300  1.00  0.00    -0.204 OA
ATOM     13  O   UNL A   1      29.726  22.407  26.887  1.00  0.00    -0.204 OA
BRANCH  11  14
ATOM     14  N   UNL A   1      29.707  24.489  25.480  1.00  0.00    -0.208 NA
ATOM     15  H   UNL A   1      29.853  24.249  24.498  1.00  0.00     0.141 HD
BRANCH  14  16
ATOM     16  C   UNL A   1      29.969  25.949  25.622  1.00  0.00     0.104 C 
BRANCH  16  17
ATOM     17  C   UNL A   1      29.759  26.661  24.265  1.00  0.00     0.052 C 
BRANCH  17  18
ATOM     18  C   UNL A   1      31.068  27.062  23.605  1.00  0.00    -0.044 A 
ATOM     19  C   UNL A   1      31.000  29.526  24.359  1.00  0.00     0.044 C 
ATOM     20  C   UNL A   1      31.557  28.381  23.558  1.00  0.00    -0.048 A 
ATOM     21  C   UNL A   1      32.669  28.662  22.740  1.00  0.00     0.004 A 
ATOM     22  C   UNL A   1      33.293  27.665  21.991  1.00  0.00     0.000 A 
ATOM     23  C   UNL A   1      31.771  26.053  22.913  1.00  0.00     0.004 A 
ATOM     24  C   UNL A   1      32.855  26.353  22.092  1.00  0.00     0.000 A 
ENDBRANCH  17  18
ENDBRANCH  16  17
ENDBRANCH  14  16
ENDBRANCH  11  14
ENDBRANCH   7  11
ENDBRANCH   4   6
ENDBRANCH   3   4
ENDBRANCH   2   3
ENDBRANCH   1   2
BRANCH   1  25
ATOM     25  O   UNL A   1      34.530  25.529  25.151  1.00  0.00    -0.374 OA
BRANCH  25  26
ATOM     26  C   UNL A   1      33.604  26.272  25.917  1.00  0.00     0.202 C 
BRANCH  26  27
ATOM     27  C   UNL A   1      33.920  27.770  26.009  1.00  0.00     0.261 C 
BRANCH  27  28
ATOM     28  O   UNL A   1      33.780  28.233  27.366  1.00  0.00    -0.460 OA
BRANCH  28  29
ATOM     29  C   UNL A   1      33.999  29.567  27.544  1.00  0.00     0.338 C 
ATOM     30  O   UNL A   1      33.169  30.434  27.333  1.00  0.00    -0.246 OA
BRANCH  29  31
ATOM     31  C   UNL A   1      35.396  29.789  28.008  1.00  0.00     0.060 A 
ATOM     32  C   UNL A   1      36.424  30.101  27.099  1.00  0.00     0.016 A 
ATOM     33  C   UNL A   1      35.705  29.508  29.336  1.00  0.00     0.016 A 
ATOM     34  C   UNL A   1      37.770  30.045  27.504  1.00  0.00     0.010 A 
ATOM     35  C   UNL A   1      37.026  29.374  29.706  1.00  0.00     0.010 A 
ATOM     36  C   UNL A   1      38.069  29.638  28.805  1.00  0.00    -0.014 A 
BRANCH  36  37
ATOM     37  C   UNL A   1      39.393  29.344  29.358  1.00  0.00     0.031 A 
ATOM     38  C   UNL A   1      40.070  28.075  28.989  1.00  0.00     0.074 A 
ATOM     39  C   UNL A   1      40.144  30.328  29.905  1.00  0.00     0.049 A 
ATOM     40  N   UNL A   1      41.190  27.683  29.496  1.00  0.00    -0.248 NA
ATOM     41  C   UNL A   1      39.529  27.118  28.026  1.00  0.00     0.031 C 
ATOM     42  C   UNL A   1      41.605  30.436  29.874  1.00  0.00     0.029 A 
ATOM     43  N   UNL A   1      39.789  31.468  30.586  1.00  0.00    -0.354 N 
ATOM     44  C   UNL A   1      41.682  26.679  28.697  1.00  0.00     0.074 A 
ATOM     45  C   UNL A   1      40.568  26.295  27.859  1.00  0.00     0.031 C 
ATOM     46  C   UNL A   1      41.994  31.448  30.667  1.00  0.00     0.029 A 
ATOM     47  C   UNL A   1      40.828  31.932  31.379  1.00  0.00     0.049 A 
ATOM     48  H   UNL A   1      38.907  31.901  30.519  1.00  0.00     0.167 HD
ATOM     49  C   UNL A   1      43.012  26.381  28.748  1.00  0.00     0.031 A 
ATOM     50  C   UNL A   1      40.686  32.058  32.731  1.00  0.00     0.031 A 
ATOM     51  C   UNL A   1      43.727  27.210  29.735  1.00  0.00     0.049 A 
ATOM     52  C   UNL A   1      41.517  31.010  33.457  1.00  0.00     0.074 A 
ATOM     53  C   UNL A   1      44.656  28.237  29.667  1.00  0.00     0.029 A 
ATOM     54  N   UNL A   1      43.280  27.212  31.050  1.00  0.00    -0.354 N 
ATOM     55  N   UNL A   1      42.438  30.291  32.872  1.00  0.00    -0.248 NA
ATOM     56  C   UNL A   1      41.331  30.617  34.853  1.00  0.00     0.031 C 
ATOM     57  C   UNL A   1      44.762  28.837  30.962  1.00  0.00     0.029 A 
ATOM     58  C   UNL A   1      43.923  28.158  31.828  1.00  0.00     0.049 A 
ATOM     59  H   UNL A   1      42.581  26.607  31.391  1.00  0.00     0.167 HD
ATOM     60  C   UNL A   1      42.820  29.266  33.686  1.00  0.00     0.074 A 
ATOM     61  C   UNL A   1      42.148  29.550  34.945  1.00  0.00     0.031 C 
ATOM     62  C   UNL A   1      43.595  28.228  33.249  1.00  0.00     0.031 A 
BRANCH  49  63
ATOM     63  C   UNL A   1      43.708  25.456  27.766  1.00  0.00    -0.014 A 
ATOM     64  C   UNL A   1      43.714  25.759  26.389  1.00  0.00     0.010 A 
ATOM     65  C   UNL A   1      44.383  24.272  28.130  1.00  0.00     0.010 A 
ATOM     66  C   UNL A   1      44.295  24.905  25.435  1.00  0.00     0.020 A 
ATOM     67  C   UNL A   1      44.935  23.389  27.189  1.00  0.00     0.020 A 
ATOM     68  C   UNL A   1      44.888  23.712  25.841  1.00  0.00     0.054 A 
BRANCH  68  69
ATOM     69  S   UNL A   1      45.617  22.606  24.604  1.00  0.00     0.124 S 
ATOM     70  O   UNL A   1      44.448  22.147  23.860  1.00  0.00    -0.237 OA
ATOM     71  O   UNL A   1      46.517  23.498  23.879  1.00  0.00    -0.237 OA
ATOM     72  O   UNL A   1      46.279  21.577  25.404  1.00  0.00    -0.744 OA
ENDBRANCH  68  69
ENDBRANCH  49  63
BRANCH  50  73
ATOM     73  C   UNL A   1      39.345  32.616  33.110  1.00  0.00    -0.014 A 
ATOM     74  C   UNL A   1      39.076  33.936  32.673  1.00  0.00     0.010 A 
ATOM     75  C   UNL A   1      38.251  31.772  33.377  1.00  0.00     0.010 A 
ATOM     76  C   UNL A   1      37.775  34.342  32.342  1.00  0.00     0.020 A 
ATOM     77  C   UNL A   1      36.944  32.173  33.036  1.00  0.00     0.020 A 
ATOM     78  C   UNL A   1      36.721  33.437  32.472  1.00  0.00     0.054 A 
BRANCH  78  79
ATOM     79  S   UNL A   1      35.150  33.775  31.589  1.00  0.00     0.124 S 
ATOM     80  O   UNL A   1      34.439  32.509  31.714  1.00  0.00    -0.237 OA
ATOM     81  O   UNL A   1      34.583  34.897  32.339  1.00  0.00    -0.237 OA
ATOM     82  O   UNL A   1      35.611  34.129  30.249  1.00  0.00    -0.744 OA
ENDBRANCH  78  79
ENDBRANCH  50  73
BRANCH  62  83
ATOM     83  C   UNL A   1      44.052  27.120  34.157  1.00  0.00    -0.014 A 
ATOM     84  C   UNL A   1      43.163  26.159  34.663  1.00  0.00     0.010 A 
ATOM     85  C   UNL A   1      45.386  27.073  34.620  1.00  0.00     0.010 A 
ATOM     86  C   UNL A   1      43.613  25.129  35.497  1.00  0.00     0.020 A 
ATOM     87  C   UNL A   1      45.841  26.067  35.472  1.00  0.00     0.020 A 
ATOM     88  C   UNL A   1      44.956  25.078  35.876  1.00  0.00     0.054 A 
BRANCH  88  89
ATOM     89  S   UNL A   1      45.528  23.720  36.920  1.00  0.00     0.124 S 
ATOM     90  O   UNL A   1      45.017  22.542  36.221  1.00  0.00    -0.237 OA
ATOM     91  O   UNL A   1      46.977  23.898  36.871  1.00  0.00    -0.237 OA
ATOM     92  O   UNL A   1      44.909  23.989  38.214  1.00  0.00    -0.744 OA
ENDBRANCH  88  89
ENDBRANCH  62  83
ENDBRANCH  36  37
ENDBRANCH  29  31
ENDBRANCH  28  29
ENDBRANCH  27  28
ENDBRANCH  26  27
ENDBRANCH  25  26
ENDBRANCH   1  25
TORSDOF 22
ENDMDL
