MODEL 1
REMARK VINA RESULT:     -11.8      0.000      0.000
REMARK SMILES Cc1cc(C)c2c(CCCC(=O)OCCOCCOC(=O)c3ccc(-c4c5nc(c(-c6ccc(S(=O)(=O)[O-])cc6)c6ccc([nH]6)c(-c6ccc(S(=O)(=O)[O-])cc6)c6nc(c(-c7ccc(S(=O)(=O)[O-])cc7)c7ccc4[nH]7)C=C6)C=C5)cc3)c(-c3ccccn3)[nH]c2c1
REMARK SMILES IDX 15 1 14 2 13 3 11 4 12 5 10 6 9 7 8 8 7 9 1 10 2 11 3 12
REMARK SMILES IDX 91 13 4 14 90 15 5 16 6 17 89 18 82 19 83 21 84 22 88 23
REMARK SMILES IDX 85 24 87 25 86 26 16 27 17 28 18 29 19 30 20 31 21 32 22 33
REMARK SMILES IDX 23 34 81 35 24 36 80 37 25 38 26 39 27 40 74 41 28 42 79 43
REMARK SMILES IDX 73 44 75 45 29 46 78 47 72 48 71 49 30 51 60 52 41 53 59 54
REMARK SMILES IDX 42 55 45 56 58 57 76 58 43 59 44 60 57 62 77 63 46 64 31 65
REMARK SMILES IDX 32 66 40 67 33 68 39 69 34 70 35 71 36 72 37 73 38 74 61 75
REMARK SMILES IDX 62 76 70 77 63 78 69 79 64 80 65 81 66 82 67 83 68 84 47 85
REMARK SMILES IDX 48 86 56 87 49 88 55 89 50 90 51 91 52 92 53 93 54 94
REMARK H PARENT 89 20 75 50 45 61
REMARK Flexibility Score: inf
ROOT
ATOM      1  C   UNL A   1      40.948  20.106  27.614  1.00  0.00     0.202 C 
ENDROOT
BRANCH   1   2
ATOM      2  C   UNL A   1      40.558  21.524  27.222  1.00  0.00     0.261 C 
BRANCH   2   3
ATOM      3  O   UNL A   1      40.151  21.595  25.849  1.00  0.00    -0.463 OA
BRANCH   3   4
ATOM      4  C   UNL A   1      38.997  20.975  25.505  1.00  0.00     0.305 C 
ATOM      5  O   UNL A   1      38.875  19.762  25.371  1.00  0.00    -0.252 OA
BRANCH   4   6
ATOM      6  C   UNL A   1      37.819  21.925  25.405  1.00  0.00     0.123 C 
BRANCH   6   7
ATOM      7  C   UNL A   1      36.424  21.427  25.767  1.00  0.00     0.017 C 
BRANCH   7   8
ATOM      8  C   UNL A   1      35.356  21.309  24.677  1.00  0.00     0.039 C 
BRANCH   8   9
ATOM      9  C   UNL A   1      33.913  21.353  25.090  1.00  0.00    -0.013 A 
ATOM     10  C   UNL A   1      29.980  25.417  26.110  1.00  0.00     0.044 C 
ATOM     11  C   UNL A   1      31.087  24.430  25.891  1.00  0.00    -0.049 A 
ATOM     12  C   UNL A   1      32.399  24.860  25.695  1.00  0.00     0.007 A 
ATOM     13  C   UNL A   1      30.795  23.067  25.845  1.00  0.00     0.030 A 
ATOM     14  C   UNL A   1      33.464  23.962  25.451  1.00  0.00    -0.041 A 
ATOM     15  C   UNL A   1      31.842  22.175  25.595  1.00  0.00     0.047 A 
ATOM     16  C   UNL A   1      34.834  24.564  25.258  1.00  0.00     0.045 C 
ATOM     17  C   UNL A   1      33.164  22.567  25.383  1.00  0.00     0.006 A 
ATOM     18  N   UNL A   1      31.794  20.812  25.502  1.00  0.00    -0.353 N 
ATOM     19  C   UNL A   1      33.003  20.292  25.130  1.00  0.00     0.068 A 
ATOM     20  H   UNL A   1      30.990  20.272  25.680  1.00  0.00     0.167 HD
BRANCH  19  21
ATOM     21  C   UNL A   1      33.092  18.864  24.864  1.00  0.00     0.087 A 
ATOM     22  C   UNL A   1      33.774  18.352  23.770  1.00  0.00     0.030 A 
ATOM     23  N   UNL A   1      32.419  18.089  25.743  1.00  0.00    -0.255 NA
ATOM     24  C   UNL A   1      33.844  16.966  23.621  1.00  0.00     0.004 A 
ATOM     25  C   UNL A   1      32.534  16.749  25.596  1.00  0.00     0.112 A 
ATOM     26  C   UNL A   1      33.239  16.146  24.569  1.00  0.00     0.020 A 
ENDBRANCH  19  21
ENDBRANCH   8   9
ENDBRANCH   7   8
ENDBRANCH   6   7
ENDBRANCH   4   6
ENDBRANCH   3   4
ENDBRANCH   2   3
ENDBRANCH   1   2
BRANCH   1  27
ATOM     27  O   UNL A   1      42.281  19.688  27.326  1.00  0.00    -0.374 OA
BRANCH  27  28
ATOM     28  C   UNL A   1      42.533  18.762  26.274  1.00  0.00     0.202 C 
BRANCH  28  29
ATOM     29  C   UNL A   1      43.695  19.026  25.331  1.00  0.00     0.261 C 
BRANCH  29  30
ATOM     30  O   UNL A   1      43.775  20.395  24.968  1.00  0.00    -0.460 OA
BRANCH  30  31
ATOM     31  C   UNL A   1      45.049  20.832  24.819  1.00  0.00     0.338 C 
ATOM     32  O   UNL A   1      46.062  20.166  24.849  1.00  0.00    -0.246 OA
BRANCH  31  33
ATOM     33  C   UNL A   1      45.031  22.297  24.765  1.00  0.00     0.060 A 
ATOM     34  C   UNL A   1      46.037  22.914  25.504  1.00  0.00     0.016 A 
ATOM     35  C   UNL A   1      43.861  22.964  24.376  1.00  0.00     0.016 A 
ATOM     36  C   UNL A   1      45.720  24.088  26.136  1.00  0.00     0.010 A 
ATOM     37  C   UNL A   1      43.547  24.140  25.006  1.00  0.00     0.010 A 
ATOM     38  C   UNL A   1      44.433  24.614  25.967  1.00  0.00    -0.014 A 
BRANCH  38  39
ATOM     39  C   UNL A   1      44.076  25.762  26.762  1.00  0.00     0.031 A 
ATOM     40  C   UNL A   1      45.060  26.847  26.598  1.00  0.00     0.074 A 
ATOM     41  C   UNL A   1      42.959  25.825  27.509  1.00  0.00     0.049 A 
ATOM     42  N   UNL A   1      45.979  27.192  27.435  1.00  0.00    -0.248 NA
ATOM     43  C   UNL A   1      45.201  27.436  25.255  1.00  0.00     0.031 C 
ATOM     44  C   UNL A   1      41.817  24.909  27.548  1.00  0.00     0.029 A 
ATOM     45  N   UNL A   1      42.578  26.813  28.354  1.00  0.00    -0.354 N 
ATOM     46  C   UNL A   1      46.670  28.215  26.805  1.00  0.00     0.074 A 
ATOM     47  C   UNL A   1      46.308  28.159  25.412  1.00  0.00     0.031 C 
ATOM     48  C   UNL A   1      40.780  25.515  28.179  1.00  0.00     0.029 A 
ATOM     49  C   UNL A   1      41.237  26.788  28.716  1.00  0.00     0.049 A 
ATOM     50  H   UNL A   1      43.204  27.497  28.688  1.00  0.00     0.167 HD
ATOM     51  C   UNL A   1      47.250  29.215  27.520  1.00  0.00     0.031 A 
ATOM     52  C   UNL A   1      40.569  27.785  29.354  1.00  0.00     0.031 A 
ATOM     53  C   UNL A   1      47.383  28.872  28.911  1.00  0.00     0.049 A 
ATOM     54  C   UNL A   1      41.598  28.631  30.013  1.00  0.00     0.074 A 
ATOM     55  C   UNL A   1      48.075  27.905  29.610  1.00  0.00     0.029 A 
ATOM     56  N   UNL A   1      46.390  29.320  29.751  1.00  0.00    -0.354 N 
ATOM     57  N   UNL A   1      42.344  28.215  30.996  1.00  0.00    -0.248 NA
ATOM     58  C   UNL A   1      42.114  29.778  29.280  1.00  0.00     0.031 C 
ATOM     59  C   UNL A   1      47.205  27.512  30.668  1.00  0.00     0.029 A 
ATOM     60  C   UNL A   1      46.053  28.300  30.606  1.00  0.00     0.049 A 
ATOM     61  H   UNL A   1      45.991  30.220  29.742  1.00  0.00     0.167 HD
ATOM     62  C   UNL A   1      43.599  28.747  30.740  1.00  0.00     0.074 A 
ATOM     63  C   UNL A   1      43.373  29.777  29.727  1.00  0.00     0.031 C 
ATOM     64  C   UNL A   1      44.730  28.112  31.168  1.00  0.00     0.031 A 
BRANCH  51  65
ATOM     65  C   UNL A   1      47.279  30.633  27.018  1.00  0.00    -0.014 A 
ATOM     66  C   UNL A   1      48.481  31.358  27.075  1.00  0.00     0.010 A 
ATOM     67  C   UNL A   1      46.102  31.358  26.727  1.00  0.00     0.010 A 
ATOM     68  C   UNL A   1      48.495  32.743  26.868  1.00  0.00     0.020 A 
ATOM     69  C   UNL A   1      46.111  32.727  26.474  1.00  0.00     0.020 A 
ATOM     70  C   UNL A   1      47.309  33.417  26.570  1.00  0.00     0.054 A 
BRANCH  70  71
ATOM     71  S   UNL A   1      47.330  35.212  26.361  1.00  0.00     0.124 S 
ATOM     72  O   UNL A   1      48.336  35.382  25.317  1.00  0.00    -0.237 OA
ATOM     73  O   UNL A   1      45.952  35.490  25.969  1.00  0.00    -0.237 OA
ATOM     74  O   UNL A   1      47.708  35.706  27.684  1.00  0.00    -0.744 OA
ENDBRANCH  70  71
ENDBRANCH  51  65
BRANCH  52  75
ATOM     75  C   UNL A   1      39.189  28.290  29.126  1.00  0.00    -0.014 A 
ATOM     76  C   UNL A   1      38.343  28.555  30.224  1.00  0.00     0.010 A 
ATOM     77  C   UNL A   1      38.827  28.830  27.878  1.00  0.00     0.010 A 
ATOM     78  C   UNL A   1      37.235  29.412  30.098  1.00  0.00     0.020 A 
ATOM     79  C   UNL A   1      37.718  29.680  27.743  1.00  0.00     0.020 A 
ATOM     80  C   UNL A   1      36.948  29.995  28.862  1.00  0.00     0.054 A 
BRANCH  80  81
ATOM     81  S   UNL A   1      35.656  31.272  28.760  1.00  0.00     0.124 S 
ATOM     82  O   UNL A   1      36.341  32.354  28.057  1.00  0.00    -0.237 OA
ATOM     83  O   UNL A   1      34.604  30.596  28.007  1.00  0.00    -0.237 OA
ATOM     84  O   UNL A   1      35.334  31.548  30.160  1.00  0.00    -0.744 OA
ENDBRANCH  80  81
ENDBRANCH  52  75
BRANCH  64  85
ATOM     85  C   UNL A   1      44.574  26.991  32.175  1.00  0.00    -0.014 A 
ATOM     86  C   UNL A   1      44.507  25.622  31.840  1.00  0.00     0.010 A 
ATOM     87  C   UNL A   1      44.618  27.343  33.534  1.00  0.00     0.010 A 
ATOM     88  C   UNL A   1      44.455  24.639  32.843  1.00  0.00     0.020 A 
ATOM     89  C   UNL A   1      44.585  26.370  34.536  1.00  0.00     0.020 A 
ATOM     90  C   UNL A   1      44.492  25.023  34.188  1.00  0.00     0.054 A 
BRANCH  90  91
ATOM     91  S   UNL A   1      44.444  23.755  35.488  1.00  0.00     0.124 S 
ATOM     92  O   UNL A   1      44.296  24.551  36.704  1.00  0.00    -0.237 OA
ATOM     93  O   UNL A   1      43.281  22.953  35.116  1.00  0.00    -0.237 OA
ATOM     94  O   UNL A   1      45.728  23.069  35.353  1.00  0.00    -0.744 OA
ENDBRANCH  90  91
ENDBRANCH  64  85
ENDBRANCH  38  39
ENDBRANCH  31  33
ENDBRANCH  30  31
ENDBRANCH  29  30
ENDBRANCH  28  29
ENDBRANCH  27  28
ENDBRANCH   1  27
TORSDOF 21
ENDMDL
MODEL 2
REMARK VINA RESULT:     -11.7      1.735      2.754
REMARK SMILES Cc1cc(C)c2c(CCCC(=O)OCCOCCOC(=O)c3ccc(-c4c5nc(c(-c6ccc(S(=O)(=O)[O-])cc6)c6ccc([nH]6)c(-c6ccc(S(=O)(=O)[O-])cc6)c6nc(c(-c7ccc(S(=O)(=O)[O-])cc7)c7ccc4[nH]7)C=C6)C=C5)cc3)c(-c3ccccn3)[nH]c2c1
REMARK SMILES IDX 15 1 14 2 13 3 11 4 12 5 10 6 9 7 8 8 7 9 1 10 2 11 3 12
REMARK SMILES IDX 91 13 4 14 90 15 5 16 6 17 89 18 82 19 83 21 84 22 88 23
REMARK SMILES IDX 85 24 87 25 86 26 16 27 17 28 18 29 19 30 20 31 21 32 22 33
REMARK SMILES IDX 23 34 81 35 24 36 80 37 25 38 26 39 27 40 74 41 28 42 79 43
REMARK SMILES IDX 73 44 75 45 29 46 78 47 72 48 71 49 30 51 60 52 41 53 59 54
REMARK SMILES IDX 42 55 45 56 58 57 76 58 43 59 44 60 57 62 77 63 46 64 31 65
REMARK SMILES IDX 32 66 40 67 33 68 39 69 34 70 35 71 36 72 37 73 38 74 61 75
REMARK SMILES IDX 62 76 70 77 63 78 69 79 64 80 65 81 66 82 67 83 68 84 47 85
REMARK SMILES IDX 48 86 56 87 49 88 55 89 50 90 51 91 52 92 53 93 54 94
REMARK H PARENT 89 20 75 50 45 61
REMARK Flexibility Score: inf
ROOT
ATOM      1  C   UNL A   1      39.014  21.852  26.117  1.00  0.00     0.202 C 
ENDROOT
BRANCH   1   2
ATOM      2  C   UNL A   1      37.658  21.612  25.468  1.00  0.00     0.261 C 
BRANCH   2   3
ATOM      3  O   UNL A   1      36.673  22.530  25.959  1.00  0.00    -0.463 OA
BRANCH   3   4
ATOM      4  C   UNL A   1      36.240  23.496  25.114  1.00  0.00     0.305 C 
ATOM      5  O   UNL A   1      36.687  23.681  23.986  1.00  0.00    -0.252 OA
BRANCH   4   6
ATOM      6  C   UNL A   1      35.056  24.273  25.656  1.00  0.00     0.123 C 
BRANCH   6   7
ATOM      7  C   UNL A   1      34.403  25.343  24.786  1.00  0.00     0.017 C 
BRANCH   7   8
ATOM      8  C   UNL A   1      33.285  26.211  25.368  1.00  0.00     0.039 C 
BRANCH   8   9
ATOM      9  C   UNL A   1      31.912  26.096  24.769  1.00  0.00    -0.013 A 
ATOM     10  C   UNL A   1      27.979  29.687  22.610  1.00  0.00     0.044 C 
ATOM     11  C   UNL A   1      29.032  28.834  23.252  1.00  0.00    -0.049 A 
ATOM     12  C   UNL A   1      30.134  29.413  23.882  1.00  0.00     0.007 A 
ATOM     13  C   UNL A   1      28.928  27.445  23.187  1.00  0.00     0.030 A 
ATOM     14  C   UNL A   1      31.165  28.643  24.468  1.00  0.00    -0.041 A 
ATOM     15  C   UNL A   1      29.949  26.679  23.757  1.00  0.00     0.047 A 
ATOM     16  C   UNL A   1      32.298  29.401  25.116  1.00  0.00     0.045 C 
ATOM     17  C   UNL A   1      31.071  27.221  24.384  1.00  0.00     0.006 A 
ATOM     18  N   UNL A   1      30.062  25.317  23.809  1.00  0.00    -0.353 N 
ATOM     19  C   UNL A   1      31.261  24.934  24.346  1.00  0.00     0.068 A 
ATOM     20  H   UNL A   1      29.368  24.691  23.499  1.00  0.00     0.167 HD
BRANCH  19  21
ATOM     21  C   UNL A   1      31.593  23.517  24.359  1.00  0.00     0.087 A 
ATOM     22  C   UNL A   1      31.532  22.750  25.514  1.00  0.00     0.030 A 
ATOM     23  N   UNL A   1      32.008  23.028  23.170  1.00  0.00    -0.255 NA
ATOM     24  C   UNL A   1      31.826  21.389  25.422  1.00  0.00     0.004 A 
ATOM     25  C   UNL A   1      32.250  21.699  23.102  1.00  0.00     0.112 A 
ATOM     26  C   UNL A   1      32.161  20.844  24.187  1.00  0.00     0.020 A 
ENDBRANCH  19  21
ENDBRANCH   8   9
ENDBRANCH   7   8
ENDBRANCH   6   7
ENDBRANCH   4   6
ENDBRANCH   3   4
ENDBRANCH   2   3
ENDBRANCH   1   2
BRANCH   1  27
ATOM     27  O   UNL A   1      40.062  20.934  25.811  1.00  0.00    -0.374 OA
BRANCH  27  28
ATOM     28  C   UNL A   1      40.817  20.330  26.856  1.00  0.00     0.202 C 
BRANCH  28  29
ATOM     29  C   UNL A   1      42.298  20.075  26.634  1.00  0.00     0.261 C 
BRANCH  29  30
ATOM     30  O   UNL A   1      42.735  20.575  25.381  1.00  0.00    -0.460 OA
BRANCH  30  31
ATOM     31  C   UNL A   1      44.080  20.728  25.308  1.00  0.00     0.338 C 
ATOM     32  O   UNL A   1      44.920  19.854  25.341  1.00  0.00    -0.246 OA
BRANCH  31  33
ATOM     33  C   UNL A   1      44.384  22.162  25.335  1.00  0.00     0.060 A 
ATOM     34  C   UNL A   1      45.194  22.560  26.396  1.00  0.00     0.016 A 
ATOM     35  C   UNL A   1      43.573  23.058  24.625  1.00  0.00     0.016 A 
ATOM     36  C   UNL A   1      44.936  23.784  26.956  1.00  0.00     0.010 A 
ATOM     37  C   UNL A   1      43.319  24.283  25.185  1.00  0.00     0.010 A 
ATOM     38  C   UNL A   1      43.915  24.570  26.407  1.00  0.00    -0.014 A 
BRANCH  38  39
ATOM     39  C   UNL A   1      43.562  25.779  27.107  1.00  0.00     0.031 A 
ATOM     40  C   UNL A   1      44.571  26.831  26.893  1.00  0.00     0.074 A 
ATOM     41  C   UNL A   1      42.427  25.917  27.817  1.00  0.00     0.049 A 
ATOM     42  N   UNL A   1      45.475  27.220  27.727  1.00  0.00    -0.248 NA
ATOM     43  C   UNL A   1      44.759  27.318  25.515  1.00  0.00     0.031 C 
ATOM     44  C   UNL A   1      41.266  25.028  27.891  1.00  0.00     0.029 A 
ATOM     45  N   UNL A   1      42.044  26.971  28.578  1.00  0.00    -0.354 N 
ATOM     46  C   UNL A   1      46.203  28.181  27.045  1.00  0.00     0.074 A 
ATOM     47  C   UNL A   1      45.877  28.030  25.650  1.00  0.00     0.031 C 
ATOM     48  C   UNL A   1      40.226  25.698  28.448  1.00  0.00     0.029 A 
ATOM     49  C   UNL A   1      40.694  26.997  28.904  1.00  0.00     0.049 A 
ATOM     50  H   UNL A   1      42.675  27.666  28.878  1.00  0.00     0.167 HD
ATOM     51  C   UNL A   1      46.785  29.219  27.701  1.00  0.00     0.031 A 
ATOM     52  C   UNL A   1      40.030  28.050  29.450  1.00  0.00     0.031 A 
ATOM     53  C   UNL A   1      46.875  28.975  29.116  1.00  0.00     0.049 A 
ATOM     54  C   UNL A   1      41.059  28.923  30.074  1.00  0.00     0.074 A 
ATOM     55  C   UNL A   1      47.528  28.049  29.903  1.00  0.00     0.029 A 
ATOM     56  N   UNL A   1      45.870  29.502  29.894  1.00  0.00    -0.354 N 
ATOM     57  N   UNL A   1      41.770  28.566  31.104  1.00  0.00    -0.248 NA
ATOM     58  C   UNL A   1      41.617  30.003  29.274  1.00  0.00     0.031 C 
ATOM     59  C   UNL A   1      46.622  27.750  30.961  1.00  0.00     0.029 A 
ATOM     60  C   UNL A   1      45.489  28.553  30.811  1.00  0.00     0.049 A 
ATOM     61  H   UNL A   1      45.489  30.406  29.809  1.00  0.00     0.167 HD
ATOM     62  C   UNL A   1      43.042  29.054  30.845  1.00  0.00     0.074 A 
ATOM     63  C   UNL A   1      42.864  30.012  29.755  1.00  0.00     0.031 C 
ATOM     64  C   UNL A   1      44.148  28.431  31.349  1.00  0.00     0.031 A 
BRANCH  51  65
ATOM     65  C   UNL A   1      46.856  30.596  27.100  1.00  0.00    -0.014 A 
ATOM     66  C   UNL A   1      48.084  31.279  27.087  1.00  0.00     0.010 A 
ATOM     67  C   UNL A   1      45.701  31.341  26.774  1.00  0.00     0.010 A 
ATOM     68  C   UNL A   1      48.144  32.645  26.782  1.00  0.00     0.020 A 
ATOM     69  C   UNL A   1      45.754  32.688  26.425  1.00  0.00     0.020 A 
ATOM     70  C   UNL A   1      46.977  33.339  26.454  1.00  0.00     0.054 A 
BRANCH  70  71
ATOM     71  S   UNL A   1      47.058  35.112  26.118  1.00  0.00     0.124 S 
ATOM     72  O   UNL A   1      48.293  35.216  25.346  1.00  0.00    -0.237 OA
ATOM     73  O   UNL A   1      45.822  35.340  25.375  1.00  0.00    -0.237 OA
ATOM     74  O   UNL A   1      47.098  35.712  27.450  1.00  0.00    -0.744 OA
ENDBRANCH  70  71
ENDBRANCH  51  65
BRANCH  52  75
ATOM     75  C   UNL A   1      38.667  28.563  29.149  1.00  0.00    -0.014 A 
ATOM     76  C   UNL A   1      37.771  28.849  30.200  1.00  0.00     0.010 A 
ATOM     77  C   UNL A   1      38.371  29.089  27.877  1.00  0.00     0.010 A 
ATOM     78  C   UNL A   1      36.678  29.713  30.009  1.00  0.00     0.020 A 
ATOM     79  C   UNL A   1      37.278  29.946  27.677  1.00  0.00     0.020 A 
ATOM     80  C   UNL A   1      36.456  30.282  28.753  1.00  0.00     0.054 A 
BRANCH  80  81
ATOM     81  S   UNL A   1      35.182  31.567  28.572  1.00  0.00     0.124 S 
ATOM     82  O   UNL A   1      35.815  32.507  27.651  1.00  0.00    -0.237 OA
ATOM     83  O   UNL A   1      34.053  30.817  28.031  1.00  0.00    -0.237 OA
ATOM     84  O   UNL A   1      34.997  32.063  29.935  1.00  0.00    -0.744 OA
ENDBRANCH  80  81
ENDBRANCH  52  75
BRANCH  64  85
ATOM     85  C   UNL A   1      43.943  27.389  32.429  1.00  0.00    -0.014 A 
ATOM     86  C   UNL A   1      43.342  27.645  33.680  1.00  0.00     0.010 A 
ATOM     87  C   UNL A   1      44.270  26.062  32.106  1.00  0.00     0.010 A 
ATOM     88  C   UNL A   1      43.105  26.600  34.590  1.00  0.00     0.020 A 
ATOM     89  C   UNL A   1      44.022  25.016  32.998  1.00  0.00     0.020 A 
ATOM     90  C   UNL A   1      43.451  25.289  34.241  1.00  0.00     0.054 A 
BRANCH  90  91
ATOM     91  S   UNL A   1      43.130  23.933  35.406  1.00  0.00     0.124 S 
ATOM     92  O   UNL A   1      43.829  24.376  36.609  1.00  0.00    -0.237 OA
ATOM     93  O   UNL A   1      41.672  23.919  35.494  1.00  0.00    -0.237 OA
ATOM     94  O   UNL A   1      43.714  22.765  34.749  1.00  0.00    -0.744 OA
ENDBRANCH  90  91
ENDBRANCH  64  85
ENDBRANCH  38  39
ENDBRANCH  31  33
ENDBRANCH  30  31
ENDBRANCH  29  30
ENDBRANCH  28  29
ENDBRANCH  27  28
ENDBRANCH   1  27
TORSDOF 21
ENDMDL
MODEL 3
REMARK VINA RESULT:     -11.1      3.271      5.573
REMARK SMILES Cc1cc(C)c2c(CCCC(=O)OCCOCCOC(=O)c3ccc(-c4c5nc(c(-c6ccc(S(=O)(=O)[O-])cc6)c6ccc([nH]6)c(-c6ccc(S(=O)(=O)[O-])cc6)c6nc(c(-c7ccc(S(=O)(=O)[O-])cc7)c7ccc4[nH]7)C=C6)C=C5)cc3)c(-c3ccccn3)[nH]c2c1
REMARK SMILES IDX 15 1 14 2 13 3 11 4 12 5 10 6 9 7 8 8 7 9 1 10 2 11 3 12
REMARK SMILES IDX 91 13 4 14 90 15 5 16 6 17 89 18 82 19 83 21 84 22 88 23
REMARK SMILES IDX 85 24 87 25 86 26 16 27 17 28 18 29 19 30 20 31 21 32 22 33
REMARK SMILES IDX 23 34 81 35 24 36 80 37 25 38 26 39 27 40 74 41 28 42 79 43
REMARK SMILES IDX 73 44 75 45 29 46 78 47 72 48 71 49 30 51 60 52 41 53 59 54
REMARK SMILES IDX 42 55 45 56 58 57 76 58 43 59 44 60 57 62 77 63 46 64 31 65
REMARK SMILES IDX 32 66 40 67 33 68 39 69 34 70 35 71 36 72 37 73 38 74 61 75
REMARK SMILES IDX 62 76 70 77 63 78 69 79 64 80 65 81 66 82 67 83 68 84 47 85
REMARK SMILES IDX 48 86 56 87 49 88 55 89 50 90 51 91 52 92 53 93 54 94
REMARK H PARENT 89 20 75 50 45 61
REMARK Flexibility Score: inf
ROOT
ATOM      1  C   UNL A   1      36.897  22.295  25.206  1.00  0.00     0.202 C 
ENDROOT
BRANCH   1   2
ATOM      2  C   UNL A   1      35.731  22.325  24.228  1.00  0.00     0.261 C 
BRANCH   2   3
ATOM      3  O   UNL A   1      34.845  23.418  24.503  1.00  0.00    -0.463 OA
BRANCH   3   4
ATOM      4  C   UNL A   1      33.662  23.132  25.096  1.00  0.00     0.305 C 
ATOM      5  O   UNL A   1      33.042  22.085  24.937  1.00  0.00    -0.252 OA
BRANCH   4   6
ATOM      6  C   UNL A   1      33.216  24.197  26.079  1.00  0.00     0.123 C 
BRANCH   6   7
ATOM      7  C   UNL A   1      33.240  25.663  25.655  1.00  0.00     0.017 C 
BRANCH   7   8
ATOM      8  C   UNL A   1      32.297  26.661  26.332  1.00  0.00     0.039 C 
BRANCH   8   9
ATOM      9  C   UNL A   1      31.972  27.934  25.605  1.00  0.00    -0.013 A 
ATOM     10  C   UNL A   1      27.874  29.769  22.018  1.00  0.00     0.044 C 
ATOM     11  C   UNL A   1      28.936  29.185  22.901  1.00  0.00    -0.049 A 
ATOM     12  C   UNL A   1      28.943  27.823  23.203  1.00  0.00     0.007 A 
ATOM     13  C   UNL A   1      29.906  30.019  23.456  1.00  0.00     0.030 A 
ATOM     14  C   UNL A   1      29.906  27.240  24.060  1.00  0.00    -0.041 A 
ATOM     15  C   UNL A   1      30.854  29.450  24.311  1.00  0.00     0.047 A 
ATOM     16  C   UNL A   1      29.796  25.755  24.300  1.00  0.00     0.045 C 
ATOM     17  C   UNL A   1      30.888  28.096  24.646  1.00  0.00     0.006 A 
ATOM     18  N   UNL A   1      31.885  30.065  24.967  1.00  0.00    -0.353 N 
ATOM     19  C   UNL A   1      32.532  29.200  25.807  1.00  0.00     0.068 A 
ATOM     20  H   UNL A   1      32.131  31.011  24.850  1.00  0.00     0.167 HD
BRANCH  19  21
ATOM     21  C   UNL A   1      33.576  29.725  26.673  1.00  0.00     0.087 A 
ATOM     22  C   UNL A   1      34.733  29.014  26.958  1.00  0.00     0.030 A 
ATOM     23  N   UNL A   1      33.302  30.935  27.209  1.00  0.00    -0.255 NA
ATOM     24  C   UNL A   1      35.700  29.617  27.765  1.00  0.00     0.004 A 
ATOM     25  C   UNL A   1      34.272  31.511  27.956  1.00  0.00     0.112 A 
ATOM     26  C   UNL A   1      35.481  30.903  28.248  1.00  0.00     0.020 A 
ENDBRANCH  19  21
ENDBRANCH   8   9
ENDBRANCH   7   8
ENDBRANCH   6   7
ENDBRANCH   4   6
ENDBRANCH   3   4
ENDBRANCH   2   3
ENDBRANCH   1   2
BRANCH   1  27
ATOM     27  O   UNL A   1      38.033  21.509  24.850  1.00  0.00    -0.374 OA
BRANCH  27  28
ATOM     28  C   UNL A   1      38.935  21.053  25.853  1.00  0.00     0.202 C 
BRANCH  28  29
ATOM     29  C   UNL A   1      39.616  22.078  26.745  1.00  0.00     0.261 C 
BRANCH  29  30
ATOM     30  O   UNL A   1      40.439  22.959  25.998  1.00  0.00    -0.460 OA
BRANCH  30  31
ATOM     31  C   UNL A   1      41.631  23.206  26.592  1.00  0.00     0.338 C 
ATOM     32  O   UNL A   1      42.334  22.414  27.184  1.00  0.00    -0.246 OA
BRANCH  31  33
ATOM     33  C   UNL A   1      41.883  24.649  26.541  1.00  0.00     0.060 A 
ATOM     34  C   UNL A   1      43.008  25.064  27.250  1.00  0.00     0.016 A 
ATOM     35  C   UNL A   1      40.845  25.524  26.189  1.00  0.00     0.016 A 
ATOM     36  C   UNL A   1      42.933  26.272  27.893  1.00  0.00     0.010 A 
ATOM     37  C   UNL A   1      40.774  26.733  26.831  1.00  0.00     0.010 A 
ATOM     38  C   UNL A   1      41.761  27.027  27.765  1.00  0.00    -0.014 A 
BRANCH  38  39
ATOM     39  C   UNL A   1      41.647  28.216  28.573  1.00  0.00     0.031 A 
ATOM     40  C   UNL A   1      42.802  29.108  28.369  1.00  0.00     0.074 A 
ATOM     41  C   UNL A   1      40.589  28.473  29.364  1.00  0.00     0.049 A 
ATOM     42  N   UNL A   1      43.800  29.278  29.168  1.00  0.00    -0.248 NA
ATOM     43  C   UNL A   1      42.993  29.671  27.021  1.00  0.00     0.031 C 
ATOM     44  C   UNL A   1      39.304  27.776  29.448  1.00  0.00     0.029 A 
ATOM     45  N   UNL A   1      40.424  29.508  30.223  1.00  0.00    -0.354 N 
ATOM     46  C   UNL A   1      44.638  30.165  28.512  1.00  0.00     0.074 A 
ATOM     47  C   UNL A   1      44.218  30.183  27.133  1.00  0.00     0.031 C 
ATOM     48  C   UNL A   1      38.418  28.554  30.119  1.00  0.00     0.029 A 
ATOM     49  C   UNL A   1      39.116  29.721  30.637  1.00  0.00     0.049 A 
ATOM     50  H   UNL A   1      41.176  30.066  30.530  1.00  0.00     0.167 HD
ATOM     51  C   UNL A   1      45.415  31.040  29.202  1.00  0.00     0.031 A 
ATOM     52  C   UNL A   1      38.663  30.817  31.300  1.00  0.00     0.031 A 
ATOM     53  C   UNL A   1      45.539  30.669  30.587  1.00  0.00     0.049 A 
ATOM     54  C   UNL A   1      39.852  31.462  31.917  1.00  0.00     0.074 A 
ATOM     55  C   UNL A   1      46.073  29.590  31.259  1.00  0.00     0.029 A 
ATOM     56  N   UNL A   1      44.676  31.282  31.465  1.00  0.00    -0.354 N 
ATOM     57  N   UNL A   1      40.549  30.912  32.870  1.00  0.00    -0.248 NA
ATOM     58  C   UNL A   1      40.536  32.502  31.164  1.00  0.00     0.031 C 
ATOM     59  C   UNL A   1      45.188  29.352  32.350  1.00  0.00     0.029 A 
ATOM     60  C   UNL A   1      44.195  30.334  32.333  1.00  0.00     0.049 A 
ATOM     61  H   UNL A   1      44.444  32.239  31.471  1.00  0.00     0.167 HD
ATOM     62  C   UNL A   1      41.868  31.212  32.564  1.00  0.00     0.074 A 
ATOM     63  C   UNL A   1      41.791  32.272  31.561  1.00  0.00     0.031 C 
ATOM     64  C   UNL A   1      42.883  30.382  32.948  1.00  0.00     0.031 A 
BRANCH  51  65
ATOM     65  C   UNL A   1      45.678  32.433  28.699  1.00  0.00    -0.014 A 
ATOM     66  C   UNL A   1      46.450  32.610  27.539  1.00  0.00     0.010 A 
ATOM     67  C   UNL A   1      45.401  33.583  29.471  1.00  0.00     0.010 A 
ATOM     68  C   UNL A   1      46.936  33.876  27.185  1.00  0.00     0.020 A 
ATOM     69  C   UNL A   1      45.840  34.852  29.105  1.00  0.00     0.020 A 
ATOM     70  C   UNL A   1      46.627  34.988  27.973  1.00  0.00     0.054 A 
BRANCH  70  71
ATOM     71  S   UNL A   1      47.305  36.605  27.539  1.00  0.00     0.124 S 
ATOM     72  O   UNL A   1      46.523  36.953  26.357  1.00  0.00    -0.237 OA
ATOM     73  O   UNL A   1      47.025  37.387  28.740  1.00  0.00    -0.237 OA
ATOM     74  O   UNL A   1      48.720  36.330  27.297  1.00  0.00    -0.744 OA
ENDBRANCH  70  71
ENDBRANCH  51  65
BRANCH  52  75
ATOM     75  C   UNL A   1      37.387  31.563  31.127  1.00  0.00    -0.014 A 
ATOM     76  C   UNL A   1      36.249  31.201  31.877  1.00  0.00     0.010 A 
ATOM     77  C   UNL A   1      37.381  32.822  30.497  1.00  0.00     0.010 A 
ATOM     78  C   UNL A   1      35.190  32.104  32.074  1.00  0.00     0.020 A 
ATOM     79  C   UNL A   1      36.323  33.726  30.683  1.00  0.00     0.020 A 
ATOM     80  C   UNL A   1      35.249  33.375  31.500  1.00  0.00     0.054 A 
BRANCH  80  81
ATOM     81  S   UNL A   1      33.988  34.610  31.943  1.00  0.00     0.124 S 
ATOM     82  O   UNL A   1      34.794  35.693  32.499  1.00  0.00    -0.237 OA
ATOM     83  O   UNL A   1      33.356  34.889  30.658  1.00  0.00    -0.237 OA
ATOM     84  O   UNL A   1      33.143  33.908  32.908  1.00  0.00    -0.744 OA
ENDBRANCH  80  81
ENDBRANCH  52  75
BRANCH  64  85
ATOM     85  C   UNL A   1      42.568  29.301  33.961  1.00  0.00    -0.014 A 
ATOM     86  C   UNL A   1      41.998  28.050  33.641  1.00  0.00     0.010 A 
ATOM     87  C   UNL A   1      42.983  29.525  35.284  1.00  0.00     0.010 A 
ATOM     88  C   UNL A   1      41.823  27.067  34.629  1.00  0.00     0.020 A 
ATOM     89  C   UNL A   1      42.829  28.545  36.267  1.00  0.00     0.020 A 
ATOM     90  C   UNL A   1      42.240  27.324  35.941  1.00  0.00     0.054 A 
BRANCH  90  91
ATOM     91  S   UNL A   1      42.034  26.049  37.218  1.00  0.00     0.124 S 
ATOM     92  O   UNL A   1      42.942  26.502  38.268  1.00  0.00    -0.237 OA
ATOM     93  O   UNL A   1      40.611  26.135  37.535  1.00  0.00    -0.237 OA
ATOM     94  O   UNL A   1      42.437  24.815  36.545  1.00  0.00    -0.744 OA
ENDBRANCH  90  91
ENDBRANCH  64  85
ENDBRANCH  38  39
ENDBRANCH  31  33
ENDBRANCH  30  31
ENDBRANCH  29  30
ENDBRANCH  28  29
ENDBRANCH  27  28
ENDBRANCH   1  27
TORSDOF 21
ENDMDL
