MODEL 1
REMARK VINA RESULT:     -10.0      0.000      0.000
REMARK SMILES CCC[N@@H+]1CC2(CC[NH+](CCc3ccccc3)CC2)C[C@H]1C(=O)OCCOCCOC(=O)c1ccc(-c2c3nc(c(-c4ccc(S(=O)(=O)[O-])cc4)c4ccc([nH]4)c(-c4ccc(S(=O)(=O)[O-])cc4)c4nc(c(-c5ccc(S(=O)(=O)[O-])cc5)c5ccc2[nH]5)C=C4)C=C3)cc1
REMARK SMILES IDX 27 1 26 2 25 3 24 4 22 5 23 6 21 7 4 8 5 9 6 11 20 12 7 13
REMARK SMILES IDX 19 14 8 15 18 16 9 17 3 19 2 20 1 21 10 22 11 23 12 24 13 25
REMARK SMILES IDX 17 26 14 27 16 28 15 29 28 30 29 31 30 32 31 33 32 34 33 35
REMARK SMILES IDX 34 36 92 37 35 38 91 39 36 40 37 41 38 42 85 43 39 44 90 45
REMARK SMILES IDX 84 46 86 47 40 48 89 49 83 50 82 51 41 53 71 54 52 55 70 56
REMARK SMILES IDX 53 57 56 58 69 59 87 60 54 61 55 62 68 64 88 65 57 66 42 67
REMARK SMILES IDX 43 68 51 69 44 70 50 71 45 72 46 73 47 74 48 75 49 76 72 77
REMARK SMILES IDX 73 78 81 79 74 80 80 81 75 82 76 83 77 84 78 85 79 86 58 87
REMARK SMILES IDX 59 88 67 89 60 90 66 91 61 92 62 93 63 94 64 95 65 96
REMARK H PARENT 4 10 9 18 86 52 56 63
REMARK Flexibility Score: inf
ROOT
ATOM      1  O   UNL A   1      39.518  22.563  26.318  1.00  0.00    -0.374 OA
ENDROOT
BRANCH   1   2
ATOM      2  C   UNL A   1      38.806  21.505  25.682  1.00  0.00     0.202 C 
BRANCH   2   3
ATOM      3  C   UNL A   1      37.278  21.520  25.756  1.00  0.00     0.261 C 
BRANCH   3   4
ATOM      4  O   UNL A   1      36.683  21.297  24.472  1.00  0.00    -0.459 OA
BRANCH   4   5
ATOM      5  C   UNL A   1      35.652  22.125  24.172  1.00  0.00     0.365 C 
ATOM      6  O   UNL A   1      35.771  23.313  23.879  1.00  0.00    -0.245 OA
BRANCH   5   7
ATOM      7  C   UNL A   1      34.278  21.476  24.267  1.00  0.00     0.295 C 
ATOM      8  N   UNL A   1      33.916  20.770  25.540  1.00  0.00    -0.323 N 
ATOM      9  C   UNL A   1      33.381  21.830  26.418  1.00  0.00     0.270 C 
ATOM     10  H   UNL A   1      34.685  20.311  26.029  1.00  0.00     0.348 HD
ATOM     11  C   UNL A   1      32.704  22.877  25.511  1.00  0.00     0.036 C 
ATOM     12  C   UNL A   1      33.245  22.564  24.093  1.00  0.00     0.091 C 
ATOM     13  C   UNL A   1      33.040  24.345  25.878  1.00  0.00     0.075 C 
ATOM     14  C   UNL A   1      31.196  22.635  25.498  1.00  0.00     0.075 C 
ATOM     15  C   UNL A   1      32.081  25.013  26.863  1.00  0.00     0.263 C 
ATOM     16  C   UNL A   1      30.392  23.338  26.568  1.00  0.00     0.263 C 
ATOM     17  N   UNL A   1      30.668  24.761  26.597  1.00  0.00    -0.335 N 
ATOM     18  H   UNL A   1      30.172  25.131  27.408  1.00  0.00     0.348 HD
BRANCH   8  19
ATOM     19  C   UNL A   1      32.970  19.675  25.200  1.00  0.00     0.262 C 
BRANCH  19  20
ATOM     20  C   UNL A   1      33.326  18.652  24.100  1.00  0.00     0.058 C 
ATOM     21  C   UNL A   1      34.607  17.861  24.364  1.00  0.00     0.010 C 
ENDBRANCH  19  20
ENDBRANCH   8  19
BRANCH  17  22
ATOM     22  C   UNL A   1      29.980  25.615  25.612  1.00  0.00     0.267 C 
BRANCH  22  23
ATOM     23  C   UNL A   1      30.541  26.954  25.034  1.00  0.00     0.097 C 
BRANCH  23  24
ATOM     24  C   UNL A   1      31.464  26.936  23.824  1.00  0.00    -0.042 A 
ATOM     25  C   UNL A   1      32.764  27.467  23.953  1.00  0.00     0.004 A 
ATOM     26  C   UNL A   1      31.136  26.268  22.634  1.00  0.00     0.004 A 
ATOM     27  C   UNL A   1      33.747  27.192  22.996  1.00  0.00     0.000 A 
ATOM     28  C   UNL A   1      32.125  25.988  21.684  1.00  0.00     0.000 A 
ATOM     29  C   UNL A   1      33.435  26.422  21.878  1.00  0.00     0.000 A 
ENDBRANCH  23  24
ENDBRANCH  22  23
ENDBRANCH  17  22
ENDBRANCH   5   7
ENDBRANCH   4   5
ENDBRANCH   3   4
ENDBRANCH   2   3
ENDBRANCH   1   2
BRANCH   1  30
ATOM     30  C   UNL A   1      40.917  22.409  26.556  1.00  0.00     0.202 C 
BRANCH  30  31
ATOM     31  C   UNL A   1      41.915  23.053  25.587  1.00  0.00     0.261 C 
BRANCH  31  32
ATOM     32  O   UNL A   1      42.696  24.110  26.163  1.00  0.00    -0.460 OA
BRANCH  32  33
ATOM     33  C   UNL A   1      42.155  25.341  26.031  1.00  0.00     0.338 C 
ATOM     34  O   UNL A   1      41.561  25.789  25.054  1.00  0.00    -0.246 OA
BRANCH  33  35
ATOM     35  C   UNL A   1      42.210  26.070  27.308  1.00  0.00     0.060 A 
ATOM     36  C   UNL A   1      41.355  25.647  28.334  1.00  0.00     0.016 A 
ATOM     37  C   UNL A   1      42.986  27.222  27.454  1.00  0.00     0.016 A 
ATOM     38  C   UNL A   1      41.228  26.409  29.491  1.00  0.00     0.010 A 
ATOM     39  C   UNL A   1      42.847  27.992  28.614  1.00  0.00     0.010 A 
ATOM     40  C   UNL A   1      41.937  27.610  29.617  1.00  0.00    -0.014 A 
BRANCH  40  41
ATOM     41  C   UNL A   1      41.597  28.537  30.721  1.00  0.00     0.031 A 
ATOM     42  C   UNL A   1      42.423  28.504  31.980  1.00  0.00     0.074 A 
ATOM     43  C   UNL A   1      40.601  29.431  30.586  1.00  0.00     0.049 A 
ATOM     44  N   UNL A   1      42.300  29.218  33.069  1.00  0.00    -0.248 NA
ATOM     45  C   UNL A   1      43.539  27.543  32.013  1.00  0.00     0.031 C 
ATOM     46  C   UNL A   1      39.769  29.594  29.394  1.00  0.00     0.029 A 
ATOM     47  N   UNL A   1      40.126  30.374  31.461  1.00  0.00    -0.354 N 
ATOM     48  C   UNL A   1      43.314  28.790  33.918  1.00  0.00     0.074 A 
ATOM     49  C   UNL A   1      44.028  27.736  33.230  1.00  0.00     0.031 C 
ATOM     50  C   UNL A   1      38.878  30.577  29.616  1.00  0.00     0.029 A 
ATOM     51  C   UNL A   1      39.059  31.089  30.974  1.00  0.00     0.049 A 
ATOM     52  H   UNL A   1      40.513  30.524  32.354  1.00  0.00     0.167 HD
ATOM     53  C   UNL A   1      43.629  29.240  35.156  1.00  0.00     0.031 A 
ATOM     54  C   UNL A   1      38.301  32.035  31.563  1.00  0.00     0.031 A 
ATOM     55  C   UNL A   1      42.911  30.281  35.842  1.00  0.00     0.049 A 
ATOM     56  C   UNL A   1      38.622  32.462  32.972  1.00  0.00     0.074 A 
ATOM     57  C   UNL A   1      43.152  30.810  37.098  1.00  0.00     0.029 A 
ATOM     58  N   UNL A   1      41.809  30.951  35.332  1.00  0.00    -0.354 N 
ATOM     59  N   UNL A   1      39.593  32.057  33.756  1.00  0.00    -0.248 NA
ATOM     60  C   UNL A   1      37.750  33.483  33.571  1.00  0.00     0.031 C 
ATOM     61  C   UNL A   1      42.165  31.763  37.368  1.00  0.00     0.029 A 
ATOM     62  C   UNL A   1      41.345  31.871  36.257  1.00  0.00     0.049 A 
ATOM     63  H   UNL A   1      41.415  30.794  34.443  1.00  0.00     0.167 HD
ATOM     64  C   UNL A   1      39.465  32.794  34.930  1.00  0.00     0.074 A 
ATOM     65  C   UNL A   1      38.332  33.678  34.746  1.00  0.00     0.031 C 
ATOM     66  C   UNL A   1      40.218  32.746  36.057  1.00  0.00     0.031 A 
BRANCH  53  67
ATOM     67  C   UNL A   1      44.785  28.585  35.864  1.00  0.00    -0.014 A 
ATOM     68  C   UNL A   1      46.106  29.018  35.657  1.00  0.00     0.010 A 
ATOM     69  C   UNL A   1      44.540  27.553  36.789  1.00  0.00     0.010 A 
ATOM     70  C   UNL A   1      47.165  28.412  36.339  1.00  0.00     0.020 A 
ATOM     71  C   UNL A   1      45.593  26.961  37.492  1.00  0.00     0.020 A 
ATOM     72  C   UNL A   1      46.902  27.386  37.252  1.00  0.00     0.054 A 
BRANCH  72  73
ATOM     73  S   UNL A   1      48.291  26.639  38.148  1.00  0.00     0.124 S 
ATOM     74  O   UNL A   1      48.108  27.182  39.493  1.00  0.00    -0.237 OA
ATOM     75  O   UNL A   1      48.030  25.209  38.008  1.00  0.00    -0.237 OA
ATOM     76  O   UNL A   1      49.467  27.128  37.436  1.00  0.00    -0.744 OA
ENDBRANCH  72  73
ENDBRANCH  53  67
BRANCH  54  77
ATOM     77  C   UNL A   1      37.147  32.628  30.834  1.00  0.00    -0.014 A 
ATOM     78  C   UNL A   1      37.328  33.717  29.963  1.00  0.00     0.010 A 
ATOM     79  C   UNL A   1      35.852  32.111  31.022  1.00  0.00     0.010 A 
ATOM     80  C   UNL A   1      36.233  34.292  29.313  1.00  0.00     0.020 A 
ATOM     81  C   UNL A   1      34.759  32.666  30.352  1.00  0.00     0.020 A 
ATOM     82  C   UNL A   1      34.954  33.763  29.512  1.00  0.00     0.054 A 
BRANCH  82  83
ATOM     83  S   UNL A   1      33.551  34.501  28.630  1.00  0.00     0.124 S 
ATOM     84  O   UNL A   1      33.095  33.390  27.801  1.00  0.00    -0.237 OA
ATOM     85  O   UNL A   1      32.659  34.885  29.722  1.00  0.00    -0.237 OA
ATOM     86  O   UNL A   1      34.152  35.619  27.906  1.00  0.00    -0.744 OA
ENDBRANCH  82  83
ENDBRANCH  54  77
BRANCH  66  87
ATOM     87  C   UNL A   1      39.870  33.703  37.165  1.00  0.00    -0.014 A 
ATOM     88  C   UNL A   1      39.105  33.295  38.271  1.00  0.00     0.010 A 
ATOM     89  C   UNL A   1      40.366  35.020  37.123  1.00  0.00     0.010 A 
ATOM     90  C   UNL A   1      38.813  34.196  39.299  1.00  0.00     0.020 A 
ATOM     91  C   UNL A   1      40.099  35.916  38.162  1.00  0.00     0.020 A 
ATOM     92  C   UNL A   1      39.311  35.501  39.237  1.00  0.00     0.054 A 
BRANCH  92  93
ATOM     93  S   UNL A   1      38.952  36.640  40.602  1.00  0.00     0.124 S 
ATOM     94  O   UNL A   1      38.504  37.834  39.892  1.00  0.00    -0.237 OA
ATOM     95  O   UNL A   1      37.919  35.929  41.351  1.00  0.00    -0.237 OA
ATOM     96  O   UNL A   1      40.234  36.770  41.292  1.00  0.00    -0.744 OA
ENDBRANCH  92  93
ENDBRANCH  66  87
ENDBRANCH  40  41
ENDBRANCH  33  35
ENDBRANCH  32  33
ENDBRANCH  31  32
ENDBRANCH  30  31
ENDBRANCH   1  30
TORSDOF 22
ENDMDL
MODEL 2
REMARK VINA RESULT:     -10.0      5.985     11.770
REMARK SMILES CCC[N@@H+]1CC2(CC[NH+](CCc3ccccc3)CC2)C[C@H]1C(=O)OCCOCCOC(=O)c1ccc(-c2c3nc(c(-c4ccc(S(=O)(=O)[O-])cc4)c4ccc([nH]4)c(-c4ccc(S(=O)(=O)[O-])cc4)c4nc(c(-c5ccc(S(=O)(=O)[O-])cc5)c5ccc2[nH]5)C=C4)C=C3)cc1
REMARK SMILES IDX 27 1 26 2 25 3 24 4 22 5 23 6 21 7 4 8 5 9 6 11 20 12 7 13
REMARK SMILES IDX 19 14 8 15 18 16 9 17 3 19 2 20 1 21 10 22 11 23 12 24 13 25
REMARK SMILES IDX 17 26 14 27 16 28 15 29 28 30 29 31 30 32 31 33 32 34 33 35
REMARK SMILES IDX 34 36 92 37 35 38 91 39 36 40 37 41 38 42 85 43 39 44 90 45
REMARK SMILES IDX 84 46 86 47 40 48 89 49 83 50 82 51 41 53 71 54 52 55 70 56
REMARK SMILES IDX 53 57 56 58 69 59 87 60 54 61 55 62 68 64 88 65 57 66 42 67
REMARK SMILES IDX 43 68 51 69 44 70 50 71 45 72 46 73 47 74 48 75 49 76 72 77
REMARK SMILES IDX 73 78 81 79 74 80 80 81 75 82 76 83 77 84 78 85 79 86 58 87
REMARK SMILES IDX 59 88 67 89 60 90 66 91 61 92 62 93 63 94 64 95 65 96
REMARK H PARENT 4 10 9 18 86 52 56 63
REMARK Flexibility Score: inf
ROOT
ATOM      1  O   UNL A   1      35.036  31.303  27.487  1.00  0.00    -0.374 OA
ENDROOT
BRANCH   1   2
ATOM      2  C   UNL A   1      33.778  30.654  27.315  1.00  0.00     0.202 C 
BRANCH   2   3
ATOM      3  C   UNL A   1      33.670  29.566  26.246  1.00  0.00     0.261 C 
BRANCH   3   4
ATOM      4  O   UNL A   1      32.306  29.226  25.972  1.00  0.00    -0.459 OA
BRANCH   4   5
ATOM      5  C   UNL A   1      32.005  27.913  26.128  1.00  0.00     0.365 C 
ATOM      6  O   UNL A   1      32.250  27.254  27.137  1.00  0.00    -0.245 OA
BRANCH   5   7
ATOM      7  C   UNL A   1      31.357  27.269  24.910  1.00  0.00     0.295 C 
ATOM      8  N   UNL A   1      31.950  27.552  23.562  1.00  0.00    -0.323 N 
ATOM      9  C   UNL A   1      33.027  26.553  23.409  1.00  0.00     0.270 C 
ATOM     10  H   UNL A   1      32.357  28.479  23.439  1.00  0.00     0.348 HD
ATOM     11  C   UNL A   1      32.591  25.288  24.175  1.00  0.00     0.036 C 
ATOM     12  C   UNL A   1      31.436  25.771  25.088  1.00  0.00     0.091 C 
ATOM     13  C   UNL A   1      33.708  24.658  25.047  1.00  0.00     0.075 C 
ATOM     14  C   UNL A   1      32.012  24.275  23.190  1.00  0.00     0.075 C 
ATOM     15  C   UNL A   1      34.555  23.589  24.358  1.00  0.00     0.263 C 
ATOM     16  C   UNL A   1      32.993  23.311  22.561  1.00  0.00     0.263 C 
ATOM     17  N   UNL A   1      33.793  22.632  23.563  1.00  0.00    -0.335 N 
ATOM     18  H   UNL A   1      34.491  22.092  23.051  1.00  0.00     0.348 HD
BRANCH   8  19
ATOM     19  C   UNL A   1      30.856  27.478  22.559  1.00  0.00     0.262 C 
BRANCH  19  20
ATOM     20  C   UNL A   1      29.454  28.030  22.894  1.00  0.00     0.058 C 
ATOM     21  C   UNL A   1      29.157  29.406  22.300  1.00  0.00     0.010 C 
ENDBRANCH  19  20
ENDBRANCH   8  19
BRANCH  17  22
ATOM     22  C   UNL A   1      33.194  21.473  24.249  1.00  0.00     0.267 C 
BRANCH  22  23
ATOM     23  C   UNL A   1      32.365  20.346  23.553  1.00  0.00     0.097 C 
BRANCH  23  24
ATOM     24  C   UNL A   1      32.585  18.890  23.938  1.00  0.00    -0.042 A 
ATOM     25  C   UNL A   1      33.070  17.994  22.962  1.00  0.00     0.004 A 
ATOM     26  C   UNL A   1      32.479  18.434  25.261  1.00  0.00     0.004 A 
ATOM     27  C   UNL A   1      33.588  16.748  23.329  1.00  0.00     0.000 A 
ATOM     28  C   UNL A   1      33.007  17.190  25.626  1.00  0.00     0.000 A 
ATOM     29  C   UNL A   1      33.588  16.361  24.667  1.00  0.00     0.000 A 
ENDBRANCH  23  24
ENDBRANCH  22  23
ENDBRANCH  17  22
ENDBRANCH   5   7
ENDBRANCH   4   5
ENDBRANCH   3   4
ENDBRANCH   2   3
ENDBRANCH   1   2
BRANCH   1  30
ATOM     30  C   UNL A   1      35.219  32.171  28.604  1.00  0.00     0.202 C 
BRANCH  30  31
ATOM     31  C   UNL A   1      35.617  31.573  29.958  1.00  0.00     0.261 C 
BRANCH  31  32
ATOM     32  O   UNL A   1      36.093  30.221  29.887  1.00  0.00    -0.460 OA
BRANCH  32  33
ATOM     33  C   UNL A   1      36.937  29.871  30.882  1.00  0.00     0.338 C 
ATOM     34  O   UNL A   1      36.639  29.387  31.971  1.00  0.00    -0.246 OA
BRANCH  33  35
ATOM     35  C   UNL A   1      38.335  29.983  30.439  1.00  0.00     0.060 A 
ATOM     36  C   UNL A   1      38.579  30.004  29.060  1.00  0.00     0.016 A 
ATOM     37  C   UNL A   1      39.393  29.938  31.350  1.00  0.00     0.016 A 
ATOM     38  C   UNL A   1      39.883  29.920  28.583  1.00  0.00     0.010 A 
ATOM     39  C   UNL A   1      40.702  29.842  30.868  1.00  0.00     0.010 A 
ATOM     40  C   UNL A   1      40.948  29.790  29.484  1.00  0.00    -0.014 A 
BRANCH  40  41
ATOM     41  C   UNL A   1      42.291  29.437  28.968  1.00  0.00     0.031 A 
ATOM     42  C   UNL A   1      42.540  28.033  28.485  1.00  0.00     0.074 A 
ATOM     43  C   UNL A   1      43.260  30.367  28.881  1.00  0.00     0.049 A 
ATOM     44  N   UNL A   1      43.636  27.506  28.003  1.00  0.00    -0.248 NA
ATOM     45  C   UNL A   1      41.402  27.101  28.550  1.00  0.00     0.031 C 
ATOM     46  C   UNL A   1      43.120  31.771  29.266  1.00  0.00     0.029 A 
ATOM     47  N   UNL A   1      44.553  30.266  28.436  1.00  0.00    -0.354 N 
ATOM     48  C   UNL A   1      43.323  26.183  27.713  1.00  0.00     0.074 A 
ATOM     49  C   UNL A   1      41.944  25.979  28.098  1.00  0.00     0.031 C 
ATOM     50  C   UNL A   1      44.287  32.402  29.045  1.00  0.00     0.029 A 
ATOM     51  C   UNL A   1      45.262  31.440  28.534  1.00  0.00     0.049 A 
ATOM     52  H   UNL A   1      44.938  29.433  28.081  1.00  0.00     0.167 HD
ATOM     53  C   UNL A   1      44.111  25.226  27.167  1.00  0.00     0.031 A 
ATOM     54  C   UNL A   1      46.555  31.702  28.261  1.00  0.00     0.031 A 
ATOM     55  C   UNL A   1      45.486  25.430  26.794  1.00  0.00     0.049 A 
ATOM     56  C   UNL A   1      47.433  30.599  27.729  1.00  0.00     0.074 A 
ATOM     57  C   UNL A   1      46.368  24.525  26.232  1.00  0.00     0.029 A 
ATOM     58  N   UNL A   1      46.180  26.620  26.949  1.00  0.00    -0.354 N 
ATOM     59  N   UNL A   1      47.118  29.357  27.448  1.00  0.00    -0.248 NA
ATOM     60  C   UNL A   1      48.839  30.938  27.468  1.00  0.00     0.031 C 
ATOM     61  C   UNL A   1      47.610  25.153  26.094  1.00  0.00     0.029 A 
ATOM     62  C   UNL A   1      47.485  26.467  26.515  1.00  0.00     0.049 A 
ATOM     63  H   UNL A   1      45.799  27.452  27.314  1.00  0.00     0.167 HD
ATOM     64  C   UNL A   1      48.280  28.775  26.950  1.00  0.00     0.074 A 
ATOM     65  C   UNL A   1      49.299  29.804  26.956  1.00  0.00     0.031 C 
ATOM     66  C   UNL A   1      48.486  27.504  26.525  1.00  0.00     0.031 A 
BRANCH  53  67
ATOM     67  C   UNL A   1      43.513  23.859  26.967  1.00  0.00    -0.014 A 
ATOM     68  C   UNL A   1      43.551  22.892  27.987  1.00  0.00     0.010 A 
ATOM     69  C   UNL A   1      42.859  23.555  25.759  1.00  0.00     0.010 A 
ATOM     70  C   UNL A   1      42.972  21.634  27.792  1.00  0.00     0.020 A 
ATOM     71  C   UNL A   1      42.256  22.308  25.569  1.00  0.00     0.020 A 
ATOM     72  C   UNL A   1      42.329  21.350  26.583  1.00  0.00     0.054 A 
BRANCH  72  73
ATOM     73  S   UNL A   1      41.557  19.723  26.368  1.00  0.00     0.124 S 
ATOM     74  O   UNL A   1      42.302  19.184  25.233  1.00  0.00    -0.237 OA
ATOM     75  O   UNL A   1      41.815  19.074  27.652  1.00  0.00    -0.237 OA
ATOM     76  O   UNL A   1      40.157  20.035  26.101  1.00  0.00    -0.744 OA
ENDBRANCH  72  73
ENDBRANCH  53  67
BRANCH  54  77
ATOM     77  C   UNL A   1      47.109  33.061  28.507  1.00  0.00    -0.014 A 
ATOM     78  C   UNL A   1      47.659  33.400  29.755  1.00  0.00     0.010 A 
ATOM     79  C   UNL A   1      47.074  34.032  27.489  1.00  0.00     0.010 A 
ATOM     80  C   UNL A   1      48.142  34.691  29.989  1.00  0.00     0.020 A 
ATOM     81  C   UNL A   1      47.582  35.315  27.711  1.00  0.00     0.020 A 
ATOM     82  C   UNL A   1      48.100  35.641  28.965  1.00  0.00     0.054 A 
BRANCH  82  83
ATOM     83  S   UNL A   1      48.764  37.300  29.277  1.00  0.00     0.124 S 
ATOM     84  O   UNL A   1      47.574  38.134  29.142  1.00  0.00    -0.237 OA
ATOM     85  O   UNL A   1      49.300  37.176  30.630  1.00  0.00    -0.237 OA
ATOM     86  O   UNL A   1      49.769  37.467  28.230  1.00  0.00    -0.744 OA
ENDBRANCH  82  83
ENDBRANCH  54  77
BRANCH  66  87
ATOM     87  C   UNL A   1      49.851  27.163  25.989  1.00  0.00    -0.014 A 
ATOM     88  C   UNL A   1      50.845  26.615  26.818  1.00  0.00     0.010 A 
ATOM     89  C   UNL A   1      50.123  27.345  24.620  1.00  0.00     0.010 A 
ATOM     90  C   UNL A   1      52.099  26.286  26.294  1.00  0.00     0.020 A 
ATOM     91  C   UNL A   1      51.365  26.992  24.087  1.00  0.00     0.020 A 
ATOM     92  C   UNL A   1      52.351  26.478  24.932  1.00  0.00     0.054 A 
BRANCH  92  93
ATOM     93  S   UNL A   1      53.972  26.007  24.267  1.00  0.00     0.124 S 
ATOM     94  O   UNL A   1      54.823  27.093  24.743  1.00  0.00    -0.237 OA
ATOM     95  O   UNL A   1      54.207  24.705  24.888  1.00  0.00    -0.237 OA
ATOM     96  O   UNL A   1      53.757  25.971  22.822  1.00  0.00    -0.744 OA
ENDBRANCH  92  93
ENDBRANCH  66  87
ENDBRANCH  40  41
ENDBRANCH  33  35
ENDBRANCH  32  33
ENDBRANCH  31  32
ENDBRANCH  30  31
ENDBRANCH   1  30
TORSDOF 22
ENDMDL
MODEL 3
REMARK VINA RESULT:      -9.8      2.259      9.161
REMARK SMILES CCC[N@@H+]1CC2(CC[NH+](CCc3ccccc3)CC2)C[C@H]1C(=O)OCCOCCOC(=O)c1ccc(-c2c3nc(c(-c4ccc(S(=O)(=O)[O-])cc4)c4ccc([nH]4)c(-c4ccc(S(=O)(=O)[O-])cc4)c4nc(c(-c5ccc(S(=O)(=O)[O-])cc5)c5ccc2[nH]5)C=C4)C=C3)cc1
REMARK SMILES IDX 27 1 26 2 25 3 24 4 22 5 23 6 21 7 4 8 5 9 6 11 20 12 7 13
REMARK SMILES IDX 19 14 8 15 18 16 9 17 3 19 2 20 1 21 10 22 11 23 12 24 13 25
REMARK SMILES IDX 17 26 14 27 16 28 15 29 28 30 29 31 30 32 31 33 32 34 33 35
REMARK SMILES IDX 34 36 92 37 35 38 91 39 36 40 37 41 38 42 85 43 39 44 90 45
REMARK SMILES IDX 84 46 86 47 40 48 89 49 83 50 82 51 41 53 71 54 52 55 70 56
REMARK SMILES IDX 53 57 56 58 69 59 87 60 54 61 55 62 68 64 88 65 57 66 42 67
REMARK SMILES IDX 43 68 51 69 44 70 50 71 45 72 46 73 47 74 48 75 49 76 72 77
REMARK SMILES IDX 73 78 81 79 74 80 80 81 75 82 76 83 77 84 78 85 79 86 58 87
REMARK SMILES IDX 59 88 67 89 60 90 66 91 61 92 62 93 63 94 64 95 65 96
REMARK H PARENT 4 10 9 18 86 52 56 63
REMARK Flexibility Score: inf
ROOT
ATOM      1  O   UNL A   1      35.725  30.175  27.628  1.00  0.00    -0.374 OA
ENDROOT
BRANCH   1   2
ATOM      2  C   UNL A   1      34.606  29.293  27.623  1.00  0.00     0.202 C 
BRANCH   2   3
ATOM      3  C   UNL A   1      34.010  28.896  26.272  1.00  0.00     0.261 C 
BRANCH   3   4
ATOM      4  O   UNL A   1      32.596  28.683  26.358  1.00  0.00    -0.459 OA
BRANCH   4   5
ATOM      5  C   UNL A   1      31.839  29.646  25.778  1.00  0.00     0.365 C 
ATOM      6  O   UNL A   1      31.889  30.842  26.063  1.00  0.00    -0.245 OA
BRANCH   5   7
ATOM      7  C   UNL A   1      30.853  29.130  24.739  1.00  0.00     0.295 C 
ATOM      8  N   UNL A   1      30.920  29.705  23.355  1.00  0.00    -0.323 N 
ATOM      9  C   UNL A   1      31.942  28.894  22.662  1.00  0.00     0.270 C 
ATOM     10  H   UNL A   1      31.195  30.685  23.292  1.00  0.00     0.348 HD
ATOM     11  C   UNL A   1      31.885  27.476  23.262  1.00  0.00     0.036 C 
ATOM     12  C   UNL A   1      31.090  27.648  24.580  1.00  0.00     0.091 C 
ATOM     13  C   UNL A   1      33.275  26.864  23.574  1.00  0.00     0.075 C 
ATOM     14  C   UNL A   1      31.070  26.570  22.341  1.00  0.00     0.075 C 
ATOM     15  C   UNL A   1      33.900  26.043  22.447  1.00  0.00     0.263 C 
ATOM     16  C   UNL A   1      31.834  25.859  21.247  1.00  0.00     0.263 C 
ATOM     17  N   UNL A   1      32.976  25.136  21.774  1.00  0.00    -0.335 N 
ATOM     18  H   UNL A   1      33.487  24.783  20.965  1.00  0.00     0.348 HD
BRANCH   8  19
ATOM     19  C   UNL A   1      29.552  29.653  22.775  1.00  0.00     0.262 C 
BRANCH  19  20
ATOM     20  C   UNL A   1      28.584  30.841  22.957  1.00  0.00     0.058 C 
ATOM     21  C   UNL A   1      28.542  31.809  21.775  1.00  0.00     0.010 C 
ENDBRANCH  19  20
ENDBRANCH   8  19
BRANCH  17  22
ATOM     22  C   UNL A   1      32.733  23.812  22.375  1.00  0.00     0.267 C 
BRANCH  22  23
ATOM     23  C   UNL A   1      33.200  23.371  23.800  1.00  0.00     0.097 C 
BRANCH  23  24
ATOM     24  C   UNL A   1      34.473  22.554  23.966  1.00  0.00    -0.042 A 
ATOM     25  C   UNL A   1      35.637  22.962  23.280  1.00  0.00     0.004 A 
ATOM     26  C   UNL A   1      34.583  21.508  24.895  1.00  0.00     0.004 A 
ATOM     27  C   UNL A   1      36.891  22.455  23.637  1.00  0.00     0.000 A 
ATOM     28  C   UNL A   1      35.841  21.010  25.255  1.00  0.00     0.000 A 
ATOM     29  C   UNL A   1      36.996  21.504  24.650  1.00  0.00     0.000 A 
ENDBRANCH  23  24
ENDBRANCH  22  23
ENDBRANCH  17  22
ENDBRANCH   5   7
ENDBRANCH   4   5
ENDBRANCH   3   4
ENDBRANCH   2   3
ENDBRANCH   1   2
BRANCH   1  30
ATOM     30  C   UNL A   1      35.495  31.584  27.657  1.00  0.00     0.202 C 
BRANCH  30  31
ATOM     31  C   UNL A   1      34.105  32.107  28.038  1.00  0.00     0.261 C 
BRANCH  31  32
ATOM     32  O   UNL A   1      33.954  33.528  27.903  1.00  0.00    -0.460 OA
BRANCH  32  33
ATOM     33  C   UNL A   1      33.657  34.171  29.054  1.00  0.00     0.338 C 
ATOM     34  O   UNL A   1      32.620  34.774  29.319  1.00  0.00    -0.246 OA
BRANCH  33  35
ATOM     35  C   UNL A   1      34.690  33.919  30.070  1.00  0.00     0.060 A 
ATOM     36  C   UNL A   1      35.994  34.348  29.790  1.00  0.00     0.016 A 
ATOM     37  C   UNL A   1      34.417  33.164  31.213  1.00  0.00     0.016 A 
ATOM     38  C   UNL A   1      37.043  33.975  30.624  1.00  0.00     0.010 A 
ATOM     39  C   UNL A   1      35.475  32.781  32.043  1.00  0.00     0.010 A 
ATOM     40  C   UNL A   1      36.796  33.149  31.728  1.00  0.00    -0.014 A 
BRANCH  40  41
ATOM     41  C   UNL A   1      37.941  32.545  32.448  1.00  0.00     0.031 A 
ATOM     42  C   UNL A   1      38.669  31.387  31.818  1.00  0.00     0.074 A 
ATOM     43  C   UNL A   1      38.360  33.053  33.621  1.00  0.00     0.049 A 
ATOM     44  N   UNL A   1      39.688  30.705  32.271  1.00  0.00    -0.248 NA
ATOM     45  C   UNL A   1      38.186  30.943  30.499  1.00  0.00     0.031 C 
ATOM     46  C   UNL A   1      37.770  34.205  34.302  1.00  0.00     0.029 A 
ATOM     47  N   UNL A   1      39.386  32.663  34.444  1.00  0.00    -0.354 N 
ATOM     48  C   UNL A   1      39.966  29.750  31.301  1.00  0.00     0.074 A 
ATOM     49  C   UNL A   1      38.991  29.921  30.245  1.00  0.00     0.031 C 
ATOM     50  C   UNL A   1      38.442  34.427  35.446  1.00  0.00     0.029 A 
ATOM     51  C   UNL A   1      39.487  33.414  35.591  1.00  0.00     0.049 A 
ATOM     52  H   UNL A   1      39.992  31.917  34.234  1.00  0.00     0.167 HD
ATOM     53  C   UNL A   1      40.949  28.818  31.285  1.00  0.00     0.031 A 
ATOM     54  C   UNL A   1      40.315  33.286  36.646  1.00  0.00     0.031 A 
ATOM     55  C   UNL A   1      41.911  28.643  32.341  1.00  0.00     0.049 A 
ATOM     56  C   UNL A   1      41.349  32.191  36.641  1.00  0.00     0.074 A 
ATOM     57  C   UNL A   1      42.947  27.730  32.419  1.00  0.00     0.029 A 
ATOM     58  N   UNL A   1      41.953  29.395  33.506  1.00  0.00    -0.354 N 
ATOM     59  N   UNL A   1      41.607  31.304  35.709  1.00  0.00    -0.248 NA
ATOM     60  C   UNL A   1      42.212  32.087  37.827  1.00  0.00     0.031 C 
ATOM     61  C   UNL A   1      43.584  27.895  33.653  1.00  0.00     0.029 A 
ATOM     62  C   UNL A   1      42.982  28.952  34.318  1.00  0.00     0.049 A 
ATOM     63  H   UNL A   1      41.340  30.136  33.722  1.00  0.00     0.167 HD
ATOM     64  C   UNL A   1      42.680  30.556  36.185  1.00  0.00     0.074 A 
ATOM     65  C   UNL A   1      43.030  31.103  37.480  1.00  0.00     0.031 C 
ATOM     66  C   UNL A   1      43.319  29.511  35.603  1.00  0.00     0.031 A 
BRANCH  53  67
ATOM     67  C   UNL A   1      41.016  27.893  30.100  1.00  0.00    -0.014 A 
ATOM     68  C   UNL A   1      39.928  27.071  29.755  1.00  0.00     0.010 A 
ATOM     69  C   UNL A   1      42.166  27.882  29.288  1.00  0.00     0.010 A 
ATOM     70  C   UNL A   1      40.000  26.233  28.639  1.00  0.00     0.020 A 
ATOM     71  C   UNL A   1      42.233  27.065  28.157  1.00  0.00     0.020 A 
ATOM     72  C   UNL A   1      41.153  26.235  27.847  1.00  0.00     0.054 A 
BRANCH  72  73
ATOM     73  S   UNL A   1      41.207  25.163  26.384  1.00  0.00     0.124 S 
ATOM     74  O   UNL A   1      41.176  26.137  25.296  1.00  0.00    -0.237 OA
ATOM     75  O   UNL A   1      42.473  24.453  26.555  1.00  0.00    -0.237 OA
ATOM     76  O   UNL A   1      40.010  24.337  26.514  1.00  0.00    -0.744 OA
ENDBRANCH  72  73
ENDBRANCH  53  67
BRANCH  54  77
ATOM     77  C   UNL A   1      40.187  34.205  37.811  1.00  0.00    -0.014 A 
ATOM     78  C   UNL A   1      39.345  33.887  38.891  1.00  0.00     0.010 A 
ATOM     79  C   UNL A   1      40.903  35.415  37.836  1.00  0.00     0.010 A 
ATOM     80  C   UNL A   1      39.202  34.773  39.962  1.00  0.00     0.020 A 
ATOM     81  C   UNL A   1      40.784  36.291  38.918  1.00  0.00     0.020 A 
ATOM     82  C   UNL A   1      39.923  35.971  39.968  1.00  0.00     0.054 A 
BRANCH  82  83
ATOM     83  S   UNL A   1      39.752  37.091  41.385  1.00  0.00     0.124 S 
ATOM     84  O   UNL A   1      38.961  38.179  40.817  1.00  0.00    -0.237 OA
ATOM     85  O   UNL A   1      39.066  36.255  42.367  1.00  0.00    -0.237 OA
ATOM     86  O   UNL A   1      41.132  37.430  41.721  1.00  0.00    -0.744 OA
ENDBRANCH  82  83
ENDBRANCH  54  77
BRANCH  66  87
ATOM     87  C   UNL A   1      44.490  28.916  36.339  1.00  0.00    -0.014 A 
ATOM     88  C   UNL A   1      45.778  29.466  36.228  1.00  0.00     0.010 A 
ATOM     89  C   UNL A   1      44.283  27.820  37.199  1.00  0.00     0.010 A 
ATOM     90  C   UNL A   1      46.847  28.910  36.938  1.00  0.00     0.020 A 
ATOM     91  C   UNL A   1      45.343  27.279  37.931  1.00  0.00     0.020 A 
ATOM     92  C   UNL A   1      46.622  27.819  37.784  1.00  0.00     0.054 A 
BRANCH  92  93
ATOM     93  S   UNL A   1      48.016  27.140  38.725  1.00  0.00     0.124 S 
ATOM     94  O   UNL A   1      47.660  25.728  38.819  1.00  0.00    -0.237 OA
ATOM     95  O   UNL A   1      49.161  27.445  37.870  1.00  0.00    -0.237 OA
ATOM     96  O   UNL A   1      47.976  27.878  39.986  1.00  0.00    -0.744 OA
ENDBRANCH  92  93
ENDBRANCH  66  87
ENDBRANCH  40  41
ENDBRANCH  33  35
ENDBRANCH  32  33
ENDBRANCH  31  32
ENDBRANCH  30  31
ENDBRANCH   1  30
TORSDOF 22
ENDMDL
