MODEL 1
REMARK VINA RESULT:     -10.2      0.000      0.000
REMARK SMILES O=C(OCCOCCOC(=O)c1cccc(OS(=O)(=O)c2cccc([N+](=O)[O-])c2)c1)c1ccc(-c2c3nc(c(-c4ccc(S(=O)(=O)[O-])cc4)c4ccc([nH]4)c(-c4ccc(S(=O)(=O)[O-])cc4)c4nc(c(-c5ccc(S(=O)(=O)[O-])cc5)c5ccc2[nH]5)C=C4)C=C3)cc1
REMARK SMILES IDX 7 1 6 2 5 3 4 4 3 5 2 6 1 7 31 8 32 9 90 10 33 11 89 12
REMARK SMILES IDX 34 13 35 14 36 15 83 16 37 17 88 18 82 19 84 20 38 21 87 22
REMARK SMILES IDX 81 23 80 24 39 26 69 27 50 28 68 29 51 30 54 31 67 32 85 33
REMARK SMILES IDX 52 34 53 35 66 37 86 38 55 39 40 40 41 41 49 42 42 43 48 44
REMARK SMILES IDX 43 45 44 46 45 47 46 48 47 49 70 50 71 51 79 52 72 53 78 54
REMARK SMILES IDX 73 55 74 56 75 57 76 58 77 59 56 60 57 61 65 62 58 63 64 64
REMARK SMILES IDX 59 65 60 66 61 67 62 68 63 69 8 70 9 71 10 72 11 73 12 74
REMARK SMILES IDX 13 75 30 76 14 77 16 78 15 79 17 80 18 81 19 82 20 83 21 84
REMARK SMILES IDX 22 85 29 86 23 87 25 88 24 89 26 90 27 91 28 92
REMARK H PARENT 84 25 54 36
REMARK Flexibility Score: inf
ROOT
ATOM      1  C   UNL A   1      42.945  21.459  26.429  1.00  0.00     0.202 C 
ENDROOT
BRANCH   1   2
ATOM      2  O   UNL A   1      42.988  21.835  25.052  1.00  0.00    -0.374 OA
BRANCH   2   3
ATOM      3  C   UNL A   1      43.477  23.127  24.721  1.00  0.00     0.202 C 
BRANCH   3   4
ATOM      4  C   UNL A   1      42.761  24.257  25.455  1.00  0.00     0.261 C 
BRANCH   4   5
ATOM      5  O   UNL A   1      43.718  25.208  25.946  1.00  0.00    -0.460 OA
BRANCH   5   6
ATOM      6  C   UNL A   1      43.576  26.552  26.025  1.00  0.00     0.338 C 
ATOM      7  O   UNL A   1      43.925  27.238  25.066  1.00  0.00    -0.246 OA
BRANCH   6   8
ATOM      8  C   UNL A   1      43.023  27.255  27.222  1.00  0.00     0.060 A 
ATOM      9  C   UNL A   1      42.321  26.628  28.254  1.00  0.00     0.016 A 
ATOM     10  C   UNL A   1      43.342  28.612  27.376  1.00  0.00     0.016 A 
ATOM     11  C   UNL A   1      41.948  27.298  29.401  1.00  0.00     0.010 A 
ATOM     12  C   UNL A   1      42.994  29.297  28.544  1.00  0.00     0.010 A 
ATOM     13  C   UNL A   1      42.314  28.624  29.564  1.00  0.00    -0.014 A 
BRANCH  13  14
ATOM     14  C   UNL A   1      41.914  29.268  30.818  1.00  0.00     0.031 A 
ATOM     15  C   UNL A   1      40.638  30.039  30.838  1.00  0.00     0.074 A 
ATOM     16  C   UNL A   1      42.634  29.024  31.930  1.00  0.00     0.049 A 
ATOM     17  N   UNL A   1      40.126  30.744  31.804  1.00  0.00    -0.248 NA
ATOM     18  C   UNL A   1      39.820  30.001  29.611  1.00  0.00     0.031 C 
ATOM     19  C   UNL A   1      43.805  28.141  32.001  1.00  0.00     0.029 A 
ATOM     20  N   UNL A   1      42.478  29.468  33.212  1.00  0.00    -0.354 N 
ATOM     21  C   UNL A   1      38.953  31.276  31.290  1.00  0.00     0.074 A 
ATOM     22  C   UNL A   1      38.811  30.796  29.936  1.00  0.00     0.031 C 
ATOM     23  C   UNL A   1      44.259  28.111  33.265  1.00  0.00     0.029 A 
ATOM     24  C   UNL A   1      43.466  29.034  34.065  1.00  0.00     0.049 A 
ATOM     25  H   UNL A   1      41.732  30.043  33.499  1.00  0.00     0.167 HD
ATOM     26  C   UNL A   1      38.096  32.117  31.907  1.00  0.00     0.031 A 
ATOM     27  C   UNL A   1      43.730  29.402  35.333  1.00  0.00     0.031 A 
ATOM     28  C   UNL A   1      38.287  32.566  33.258  1.00  0.00     0.049 A 
ATOM     29  C   UNL A   1      42.819  30.431  35.951  1.00  0.00     0.074 A 
ATOM     30  C   UNL A   1      37.511  33.445  33.989  1.00  0.00     0.029 A 
ATOM     31  N   UNL A   1      39.339  32.173  34.074  1.00  0.00    -0.354 N 
ATOM     32  N   UNL A   1      41.725  30.963  35.453  1.00  0.00    -0.248 NA
ATOM     33  C   UNL A   1      43.182  30.927  37.281  1.00  0.00     0.031 C 
ATOM     34  C   UNL A   1      38.138  33.639  35.223  1.00  0.00     0.029 A 
ATOM     35  C   UNL A   1      39.262  32.828  35.288  1.00  0.00     0.049 A 
ATOM     36  H   UNL A   1      40.036  31.524  33.825  1.00  0.00     0.167 HD
ATOM     37  C   UNL A   1      41.266  31.852  36.414  1.00  0.00     0.074 A 
ATOM     38  C   UNL A   1      42.181  31.758  37.536  1.00  0.00     0.031 C 
ATOM     39  C   UNL A   1      40.198  32.688  36.375  1.00  0.00     0.031 A 
BRANCH  26  40
ATOM     40  C   UNL A   1      36.961  32.676  31.101  1.00  0.00    -0.014 A 
ATOM     41  C   UNL A   1      35.639  32.232  31.268  1.00  0.00     0.010 A 
ATOM     42  C   UNL A   1      37.231  33.702  30.177  1.00  0.00     0.010 A 
ATOM     43  C   UNL A   1      34.605  32.805  30.521  1.00  0.00     0.020 A 
ATOM     44  C   UNL A   1      36.198  34.294  29.446  1.00  0.00     0.020 A 
ATOM     45  C   UNL A   1      34.891  33.838  29.621  1.00  0.00     0.054 A 
BRANCH  45  46
ATOM     46  S   UNL A   1      33.520  34.614  28.722  1.00  0.00     0.124 S 
ATOM     47  O   UNL A   1      32.584  34.920  29.801  1.00  0.00    -0.237 OA
ATOM     48  O   UNL A   1      34.162  35.769  28.100  1.00  0.00    -0.237 OA
ATOM     49  O   UNL A   1      33.080  33.574  27.795  1.00  0.00    -0.744 OA
ENDBRANCH  45  46
ENDBRANCH  26  40
BRANCH  27  50
ATOM     50  C   UNL A   1      44.949  28.912  36.039  1.00  0.00    -0.014 A 
ATOM     51  C   UNL A   1      46.156  29.630  35.998  1.00  0.00     0.010 A 
ATOM     52  C   UNL A   1      44.919  27.679  36.721  1.00  0.00     0.010 A 
ATOM     53  C   UNL A   1      47.316  29.103  36.580  1.00  0.00     0.020 A 
ATOM     54  C   UNL A   1      46.064  27.167  37.336  1.00  0.00     0.020 A 
ATOM     55  C   UNL A   1      47.264  27.870  37.236  1.00  0.00     0.054 A 
BRANCH  55  56
ATOM     56  S   UNL A   1      48.784  27.192  37.960  1.00  0.00     0.124 S 
ATOM     57  O   UNL A   1      49.088  28.173  38.998  1.00  0.00    -0.237 OA
ATOM     58  O   UNL A   1      48.349  25.882  38.437  1.00  0.00    -0.237 OA
ATOM     59  O   UNL A   1      49.716  27.162  36.836  1.00  0.00    -0.744 OA
ENDBRANCH  55  56
ENDBRANCH  27  50
BRANCH  39  60
ATOM     60  C   UNL A   1      39.960  33.541  37.586  1.00  0.00    -0.014 A 
ATOM     61  C   UNL A   1      40.541  34.816  37.694  1.00  0.00     0.010 A 
ATOM     62  C   UNL A   1      39.072  33.097  38.581  1.00  0.00     0.010 A 
ATOM     63  C   UNL A   1      40.249  35.628  38.789  1.00  0.00     0.020 A 
ATOM     64  C   UNL A   1      38.751  33.920  39.659  1.00  0.00     0.020 A 
ATOM     65  C   UNL A   1      39.348  35.179  39.759  1.00  0.00     0.054 A 
BRANCH  65  66
ATOM     66  S   UNL A   1      38.925  36.286  41.128  1.00  0.00     0.124 S 
ATOM     67  O   UNL A   1      37.829  35.567  41.772  1.00  0.00    -0.237 OA
ATOM     68  O   UNL A   1      40.171  36.344  41.889  1.00  0.00    -0.237 OA
ATOM     69  O   UNL A   1      38.549  37.532  40.464  1.00  0.00    -0.744 OA
ENDBRANCH  65  66
ENDBRANCH  39  60
ENDBRANCH  13  14
ENDBRANCH   6   8
ENDBRANCH   5   6
ENDBRANCH   4   5
ENDBRANCH   3   4
ENDBRANCH   2   3
ENDBRANCH   1   2
BRANCH   1  70
ATOM     70  C   UNL A   1      42.233  20.104  26.516  1.00  0.00     0.261 C 
BRANCH  70  71
ATOM     71  O   UNL A   1      40.892  20.338  26.967  1.00  0.00    -0.460 OA
BRANCH  71  72
ATOM     72  C   UNL A   1      39.909  20.153  26.042  1.00  0.00     0.338 C 
ATOM     73  O   UNL A   1      39.602  19.118  25.490  1.00  0.00    -0.246 OA
BRANCH  72  74
ATOM     74  C   UNL A   1      39.172  21.438  25.897  1.00  0.00     0.063 A 
ATOM     75  C   UNL A   1      39.448  22.537  26.709  1.00  0.00     0.016 A 
ATOM     76  C   UNL A   1      38.164  21.539  24.945  1.00  0.00     0.064 A 
ATOM     77  C   UNL A   1      38.650  23.682  26.607  1.00  0.00     0.005 A 
ATOM     78  C   UNL A   1      37.246  22.577  24.976  1.00  0.00     0.143 A 
ATOM     79  C   UNL A   1      37.518  23.686  25.775  1.00  0.00     0.048 A 
BRANCH  78  80
ATOM     80  O   UNL A   1      36.033  22.489  24.322  1.00  0.00    -0.379 OA
BRANCH  80  81
ATOM     81  S   UNL A   1      34.727  21.892  25.133  1.00  0.00     0.339 S 
ATOM     82  O   UNL A   1      34.548  20.505  24.751  1.00  0.00    -0.181 OA
ATOM     83  O   UNL A   1      34.808  22.280  26.530  1.00  0.00    -0.181 OA
BRANCH  81  84
ATOM     84  C   UNL A   1      33.306  22.751  24.531  1.00  0.00     0.112 A 
ATOM     85  C   UNL A   1      32.059  22.551  25.116  1.00  0.00     0.024 A 
ATOM     86  C   UNL A   1      33.493  23.682  23.497  1.00  0.00     0.109 A 
ATOM     87  C   UNL A   1      30.976  23.303  24.662  1.00  0.00     0.009 A 
ATOM     88  C   UNL A   1      32.404  24.426  23.053  1.00  0.00     0.270 A 
ATOM     89  C   UNL A   1      31.143  24.241  23.634  1.00  0.00     0.086 A 
BRANCH  88  90
ATOM     90  N   UNL A   1      32.589  25.418  21.985  1.00  0.00     0.062 N 
ATOM     91  O   UNL A   1      31.608  26.100  21.661  1.00  0.00    -0.258 OA
ATOM     92  O   UNL A   1      33.712  25.511  21.472  1.00  0.00    -0.258 OA
ENDBRANCH  88  90
ENDBRANCH  81  84
ENDBRANCH  80  81
ENDBRANCH  78  80
ENDBRANCH  72  74
ENDBRANCH  71  72
ENDBRANCH  70  71
ENDBRANCH   1  70
TORSDOF 21
ENDMDL
MODEL 2
REMARK VINA RESULT:     -10.1      5.735     12.050
REMARK SMILES O=C(OCCOCCOC(=O)c1cccc(OS(=O)(=O)c2cccc([N+](=O)[O-])c2)c1)c1ccc(-c2c3nc(c(-c4ccc(S(=O)(=O)[O-])cc4)c4ccc([nH]4)c(-c4ccc(S(=O)(=O)[O-])cc4)c4nc(c(-c5ccc(S(=O)(=O)[O-])cc5)c5ccc2[nH]5)C=C4)C=C3)cc1
REMARK SMILES IDX 7 1 6 2 5 3 4 4 3 5 2 6 1 7 31 8 32 9 90 10 33 11 89 12
REMARK SMILES IDX 34 13 35 14 36 15 83 16 37 17 88 18 82 19 84 20 38 21 87 22
REMARK SMILES IDX 81 23 80 24 39 26 69 27 50 28 68 29 51 30 54 31 67 32 85 33
REMARK SMILES IDX 52 34 53 35 66 37 86 38 55 39 40 40 41 41 49 42 42 43 48 44
REMARK SMILES IDX 43 45 44 46 45 47 46 48 47 49 70 50 71 51 79 52 72 53 78 54
REMARK SMILES IDX 73 55 74 56 75 57 76 58 77 59 56 60 57 61 65 62 58 63 64 64
REMARK SMILES IDX 59 65 60 66 61 67 62 68 63 69 8 70 9 71 10 72 11 73 12 74
REMARK SMILES IDX 13 75 30 76 14 77 16 78 15 79 17 80 18 81 19 82 20 83 21 84
REMARK SMILES IDX 22 85 29 86 23 87 25 88 24 89 26 90 27 91 28 92
REMARK H PARENT 84 25 54 36
REMARK Flexibility Score: inf
ROOT
ATOM      1  C   UNL A   1      34.453  33.183  29.260  1.00  0.00     0.202 C 
ENDROOT
BRANCH   1   2
ATOM      2  O   UNL A   1      34.894  33.193  30.617  1.00  0.00    -0.374 OA
BRANCH   2   3
ATOM      3  C   UNL A   1      36.142  33.802  30.917  1.00  0.00     0.202 C 
BRANCH   3   4
ATOM      4  C   UNL A   1      37.152  32.844  31.544  1.00  0.00     0.261 C 
BRANCH   4   5
ATOM      5  O   UNL A   1      36.561  31.546  31.710  1.00  0.00    -0.460 OA
BRANCH   5   6
ATOM      6  C   UNL A   1      37.033  30.363  31.251  1.00  0.00     0.338 C 
ATOM      7  O   UNL A   1      36.300  29.378  31.303  1.00  0.00    -0.246 OA
BRANCH   6   8
ATOM      8  C   UNL A   1      38.406  30.185  30.688  1.00  0.00     0.060 A 
ATOM      9  C   UNL A   1      39.538  29.878  31.445  1.00  0.00     0.016 A 
ATOM     10  C   UNL A   1      38.535  30.203  29.292  1.00  0.00     0.016 A 
ATOM     11  C   UNL A   1      40.756  29.591  30.863  1.00  0.00     0.010 A 
ATOM     12  C   UNL A   1      39.756  29.890  28.687  1.00  0.00     0.010 A 
ATOM     13  C   UNL A   1      40.859  29.562  29.482  1.00  0.00    -0.014 A 
BRANCH  13  14
ATOM     14  C   UNL A   1      42.172  29.221  28.927  1.00  0.00     0.031 A 
ATOM     15  C   UNL A   1      42.366  27.851  28.372  1.00  0.00     0.074 A 
ATOM     16  C   UNL A   1      43.098  30.191  28.811  1.00  0.00     0.049 A 
ATOM     17  N   UNL A   1      43.451  27.309  27.898  1.00  0.00    -0.248 NA
ATOM     18  C   UNL A   1      41.179  26.977  28.329  1.00  0.00     0.031 C 
ATOM     19  C   UNL A   1      42.902  31.596  29.191  1.00  0.00     0.029 A 
ATOM     20  N   UNL A   1      44.373  30.158  28.320  1.00  0.00    -0.354 N 
ATOM     21  C   UNL A   1      43.094  26.015  27.549  1.00  0.00     0.074 A 
ATOM     22  C   UNL A   1      41.688  25.856  27.838  1.00  0.00     0.031 C 
ATOM     23  C   UNL A   1      44.020  32.287  28.917  1.00  0.00     0.029 A 
ATOM     24  C   UNL A   1      45.031  31.361  28.426  1.00  0.00     0.049 A 
ATOM     25  H   UNL A   1      44.781  29.352  27.930  1.00  0.00     0.167 HD
ATOM     26  C   UNL A   1      43.897  25.050  27.056  1.00  0.00     0.031 A 
ATOM     27  C   UNL A   1      46.327  31.653  28.210  1.00  0.00     0.031 A 
ATOM     28  C   UNL A   1      45.292  25.261  26.788  1.00  0.00     0.049 A 
ATOM     29  C   UNL A   1      47.220  30.522  27.771  1.00  0.00     0.074 A 
ATOM     30  C   UNL A   1      46.225  24.356  26.319  1.00  0.00     0.029 A 
ATOM     31  N   UNL A   1      45.953  26.468  26.979  1.00  0.00    -0.354 N 
ATOM     32  N   UNL A   1      46.890  29.285  27.471  1.00  0.00    -0.248 NA
ATOM     33  C   UNL A   1      48.654  30.809  27.662  1.00  0.00     0.031 C 
ATOM     34  C   UNL A   1      47.466  24.999  26.297  1.00  0.00     0.029 A 
ATOM     35  C   UNL A   1      47.294  26.321  26.683  1.00  0.00     0.049 A 
ATOM     36  H   UNL A   1      45.528  27.303  27.279  1.00  0.00     0.167 HD
ATOM     37  C   UNL A   1      48.076  28.649  27.131  1.00  0.00     0.074 A 
ATOM     38  C   UNL A   1      49.123  29.648  27.228  1.00  0.00     0.031 C 
ATOM     39  C   UNL A   1      48.292  27.355  26.788  1.00  0.00     0.031 A 
BRANCH  26  40
ATOM     40  C   UNL A   1      43.317  23.676  26.883  1.00  0.00    -0.014 A 
ATOM     41  C   UNL A   1      42.928  23.185  25.626  1.00  0.00     0.010 A 
ATOM     42  C   UNL A   1      43.195  22.849  28.014  1.00  0.00     0.010 A 
ATOM     43  C   UNL A   1      42.425  21.885  25.505  1.00  0.00     0.020 A 
ATOM     44  C   UNL A   1      42.715  21.543  27.894  1.00  0.00     0.020 A 
ATOM     45  C   UNL A   1      42.330  21.071  26.639  1.00  0.00     0.054 A 
BRANCH  45  46
ATOM     46  S   UNL A   1      41.745  19.366  26.438  1.00  0.00     0.124 S 
ATOM     47  O   UNL A   1      42.007  18.798  27.758  1.00  0.00    -0.237 OA
ATOM     48  O   UNL A   1      40.336  19.551  26.103  1.00  0.00    -0.237 OA
ATOM     49  O   UNL A   1      42.576  18.838  25.358  1.00  0.00    -0.744 OA
ENDBRANCH  45  46
ENDBRANCH  26  40
BRANCH  27  50
ATOM     50  C   UNL A   1      46.875  33.004  28.525  1.00  0.00    -0.014 A 
ATOM     51  C   UNL A   1      47.081  33.962  27.518  1.00  0.00     0.010 A 
ATOM     52  C   UNL A   1      47.249  33.321  29.846  1.00  0.00     0.010 A 
ATOM     53  C   UNL A   1      47.692  35.186  27.817  1.00  0.00     0.020 A 
ATOM     54  C   UNL A   1      47.825  34.556  30.157  1.00  0.00     0.020 A 
ATOM     55  C   UNL A   1      48.068  35.471  29.133  1.00  0.00     0.054 A 
BRANCH  55  56
ATOM     56  S   UNL A   1      48.883  37.052  29.495  1.00  0.00     0.124 S 
ATOM     57  O   UNL A   1      50.071  36.619  30.225  1.00  0.00    -0.237 OA
ATOM     58  O   UNL A   1      49.124  37.596  28.161  1.00  0.00    -0.237 OA
ATOM     59  O   UNL A   1      47.891  37.775  30.287  1.00  0.00    -0.744 OA
ENDBRANCH  55  56
ENDBRANCH  27  50
BRANCH  39  60
ATOM     60  C   UNL A   1      49.707  26.964  26.475  1.00  0.00    -0.014 A 
ATOM     61  C   UNL A   1      50.538  26.417  27.467  1.00  0.00     0.010 A 
ATOM     62  C   UNL A   1      50.174  27.060  25.152  1.00  0.00     0.010 A 
ATOM     63  C   UNL A   1      51.824  25.986  27.142  1.00  0.00     0.020 A 
ATOM     64  C   UNL A   1      51.446  26.599  24.818  1.00  0.00     0.020 A 
ATOM     65  C   UNL A   1      52.266  26.072  25.818  1.00  0.00     0.054 A 
BRANCH  65  66
ATOM     66  S   UNL A   1      53.910  25.431  25.410  1.00  0.00     0.124 S 
ATOM     67  O   UNL A   1      53.590  24.318  24.521  1.00  0.00    -0.237 OA
ATOM     68  O   UNL A   1      54.551  26.580  24.774  1.00  0.00    -0.237 OA
ATOM     69  O   UNL A   1      54.468  25.053  26.706  1.00  0.00    -0.744 OA
ENDBRANCH  65  66
ENDBRANCH  39  60
ENDBRANCH  13  14
ENDBRANCH   6   8
ENDBRANCH   5   6
ENDBRANCH   4   5
ENDBRANCH   3   4
ENDBRANCH   2   3
ENDBRANCH   1   2
BRANCH   1  70
ATOM     70  C   UNL A   1      35.172  32.031  28.547  1.00  0.00     0.261 C 
BRANCH  70  71
ATOM     71  O   UNL A   1      34.203  31.322  27.765  1.00  0.00    -0.460 OA
BRANCH  71  72
ATOM     72  C   UNL A   1      34.504  30.026  27.472  1.00  0.00     0.338 C 
ATOM     73  O   UNL A   1      35.348  29.329  27.993  1.00  0.00    -0.246 OA
BRANCH  72  74
ATOM     74  C   UNL A   1      33.522  29.549  26.459  1.00  0.00     0.063 A 
ATOM     75  C   UNL A   1      32.365  30.266  26.165  1.00  0.00     0.016 A 
ATOM     76  C   UNL A   1      33.753  28.343  25.806  1.00  0.00     0.064 A 
ATOM     77  C   UNL A   1      31.422  29.717  25.288  1.00  0.00     0.005 A 
ATOM     78  C   UNL A   1      32.745  27.700  25.104  1.00  0.00     0.143 A 
ATOM     79  C   UNL A   1      31.588  28.413  24.794  1.00  0.00     0.048 A 
BRANCH  78  80
ATOM     80  O   UNL A   1      32.820  26.355  24.801  1.00  0.00    -0.379 OA
BRANCH  80  81
ATOM     81  S   UNL A   1      31.969  25.280  25.718  1.00  0.00     0.339 S 
ATOM     82  O   UNL A   1      31.544  25.952  26.931  1.00  0.00    -0.181 OA
ATOM     83  O   UNL A   1      31.017  24.576  24.878  1.00  0.00    -0.181 OA
BRANCH  81  84
ATOM     84  C   UNL A   1      33.103  24.025  26.228  1.00  0.00     0.112 A 
ATOM     85  C   UNL A   1      32.756  23.127  27.234  1.00  0.00     0.024 A 
ATOM     86  C   UNL A   1      34.323  23.927  25.542  1.00  0.00     0.109 A 
ATOM     87  C   UNL A   1      33.648  22.104  27.557  1.00  0.00     0.009 A 
ATOM     88  C   UNL A   1      35.204  22.901  25.874  1.00  0.00     0.270 A 
ATOM     89  C   UNL A   1      34.869  21.986  26.880  1.00  0.00     0.086 A 
BRANCH  88  90
ATOM     90  N   UNL A   1      36.477  22.775  25.151  1.00  0.00     0.062 N 
ATOM     91  O   UNL A   1      37.411  22.206  25.732  1.00  0.00    -0.258 OA
ATOM     92  O   UNL A   1      36.541  23.246  24.007  1.00  0.00    -0.258 OA
ENDBRANCH  88  90
ENDBRANCH  81  84
ENDBRANCH  80  81
ENDBRANCH  78  80
ENDBRANCH  72  74
ENDBRANCH  71  72
ENDBRANCH  70  71
ENDBRANCH   1  70
TORSDOF 21
ENDMDL
MODEL 3
REMARK VINA RESULT:     -10.0      2.074      3.289
REMARK SMILES O=C(OCCOCCOC(=O)c1cccc(OS(=O)(=O)c2cccc([N+](=O)[O-])c2)c1)c1ccc(-c2c3nc(c(-c4ccc(S(=O)(=O)[O-])cc4)c4ccc([nH]4)c(-c4ccc(S(=O)(=O)[O-])cc4)c4nc(c(-c5ccc(S(=O)(=O)[O-])cc5)c5ccc2[nH]5)C=C4)C=C3)cc1
REMARK SMILES IDX 7 1 6 2 5 3 4 4 3 5 2 6 1 7 31 8 32 9 90 10 33 11 89 12
REMARK SMILES IDX 34 13 35 14 36 15 83 16 37 17 88 18 82 19 84 20 38 21 87 22
REMARK SMILES IDX 81 23 80 24 39 26 69 27 50 28 68 29 51 30 54 31 67 32 85 33
REMARK SMILES IDX 52 34 53 35 66 37 86 38 55 39 40 40 41 41 49 42 42 43 48 44
REMARK SMILES IDX 43 45 44 46 45 47 46 48 47 49 70 50 71 51 79 52 72 53 78 54
REMARK SMILES IDX 73 55 74 56 75 57 76 58 77 59 56 60 57 61 65 62 58 63 64 64
REMARK SMILES IDX 59 65 60 66 61 67 62 68 63 69 8 70 9 71 10 72 11 73 12 74
REMARK SMILES IDX 13 75 30 76 14 77 16 78 15 79 17 80 18 81 19 82 20 83 21 84
REMARK SMILES IDX 22 85 29 86 23 87 25 88 24 89 26 90 27 91 28 92
REMARK H PARENT 84 25 54 36
REMARK Flexibility Score: inf
ROOT
ATOM      1  C   UNL A   1      37.679  21.447  25.363  1.00  0.00     0.202 C 
ENDROOT
BRANCH   1   2
ATOM      2  O   UNL A   1      38.939  22.109  25.462  1.00  0.00    -0.374 OA
BRANCH   2   3
ATOM      3  C   UNL A   1      39.817  21.737  26.515  1.00  0.00     0.202 C 
BRANCH   3   4
ATOM      4  C   UNL A   1      40.688  22.885  27.017  1.00  0.00     0.261 C 
BRANCH   4   5
ATOM      5  O   UNL A   1      40.271  24.119  26.413  1.00  0.00    -0.460 OA
BRANCH   5   6
ATOM      6  C   UNL A   1      40.878  25.326  26.503  1.00  0.00     0.338 C 
ATOM      7  O   UNL A   1      41.673  25.652  25.624  1.00  0.00    -0.246 OA
BRANCH   6   8
ATOM      8  C   UNL A   1      40.639  26.288  27.622  1.00  0.00     0.060 A 
ATOM      9  C   UNL A   1      39.709  26.097  28.645  1.00  0.00     0.016 A 
ATOM     10  C   UNL A   1      41.499  27.392  27.714  1.00  0.00     0.016 A 
ATOM     11  C   UNL A   1      39.622  26.949  29.727  1.00  0.00     0.010 A 
ATOM     12  C   UNL A   1      41.440  28.250  28.817  1.00  0.00     0.010 A 
ATOM     13  C   UNL A   1      40.510  28.007  29.833  1.00  0.00    -0.014 A 
BRANCH  13  14
ATOM     14  C   UNL A   1      40.384  28.856  31.021  1.00  0.00     0.031 A 
ATOM     15  C   UNL A   1      39.301  29.880  31.043  1.00  0.00     0.074 A 
ATOM     16  C   UNL A   1      41.154  28.588  32.092  1.00  0.00     0.049 A 
ATOM     17  N   UNL A   1      39.048  30.780  31.948  1.00  0.00    -0.248 NA
ATOM     18  C   UNL A   1      38.366  29.883  29.902  1.00  0.00     0.031 C 
ATOM     19  C   UNL A   1      42.123  27.488  32.183  1.00  0.00     0.029 A 
ATOM     20  N   UNL A   1      41.229  29.194  33.315  1.00  0.00    -0.354 N 
ATOM     21  C   UNL A   1      37.959  31.491  31.466  1.00  0.00     0.074 A 
ATOM     22  C   UNL A   1      37.579  30.906  30.202  1.00  0.00     0.031 C 
ATOM     23  C   UNL A   1      42.693  27.501  33.398  1.00  0.00     0.029 A 
ATOM     24  C   UNL A   1      42.194  28.655  34.134  1.00  0.00     0.049 A 
ATOM     25  H   UNL A   1      40.650  29.943  33.584  1.00  0.00     0.167 HD
ATOM     26  C   UNL A   1      37.361  32.558  32.036  1.00  0.00     0.031 A 
ATOM     27  C   UNL A   1      42.660  29.095  35.317  1.00  0.00     0.031 A 
ATOM     28  C   UNL A   1      37.781  33.102  33.297  1.00  0.00     0.049 A 
ATOM     29  C   UNL A   1      42.048  30.356  35.868  1.00  0.00     0.074 A 
ATOM     30  C   UNL A   1      37.282  34.201  33.968  1.00  0.00     0.029 A 
ATOM     31  N   UNL A   1      38.813  32.585  34.069  1.00  0.00    -0.354 N 
ATOM     32  N   UNL A   1      41.038  31.052  35.396  1.00  0.00    -0.248 NA
ATOM     33  C   UNL A   1      42.643  30.907  37.089  1.00  0.00     0.031 C 
ATOM     34  C   UNL A   1      38.063  34.391  35.112  1.00  0.00     0.029 A 
ATOM     35  C   UNL A   1      39.000  33.371  35.190  1.00  0.00     0.049 A 
ATOM     36  H   UNL A   1      39.333  31.779  33.851  1.00  0.00     0.167 HD
ATOM     37  C   UNL A   1      40.873  32.119  36.267  1.00  0.00     0.074 A 
ATOM     38  C   UNL A   1      41.864  31.956  37.314  1.00  0.00     0.031 C 
ATOM     39  C   UNL A   1      39.998  33.154  36.207  1.00  0.00     0.031 A 
BRANCH  26  40
ATOM     40  C   UNL A   1      36.283  33.255  31.258  1.00  0.00    -0.014 A 
ATOM     41  C   UNL A   1      34.955  33.311  31.713  1.00  0.00     0.010 A 
ATOM     42  C   UNL A   1      36.628  33.901  30.058  1.00  0.00     0.010 A 
ATOM     43  C   UNL A   1      33.988  34.001  30.974  1.00  0.00     0.020 A 
ATOM     44  C   UNL A   1      35.671  34.611  29.329  1.00  0.00     0.020 A 
ATOM     45  C   UNL A   1      34.356  34.654  29.792  1.00  0.00     0.054 A 
BRANCH  45  46
ATOM     46  S   UNL A   1      33.097  35.605  28.897  1.00  0.00     0.124 S 
ATOM     47  O   UNL A   1      32.360  34.553  28.201  1.00  0.00    -0.237 OA
ATOM     48  O   UNL A   1      32.373  36.270  29.977  1.00  0.00    -0.237 OA
ATOM     49  O   UNL A   1      33.878  36.490  28.036  1.00  0.00    -0.744 OA
ENDBRANCH  45  46
ENDBRANCH  26  40
BRANCH  27  50
ATOM     50  C   UNL A   1      43.823  28.436  35.980  1.00  0.00    -0.014 A 
ATOM     51  C   UNL A   1      43.642  27.431  36.944  1.00  0.00     0.010 A 
ATOM     52  C   UNL A   1      45.134  28.859  35.684  1.00  0.00     0.010 A 
ATOM     53  C   UNL A   1      44.740  26.897  37.630  1.00  0.00     0.020 A 
ATOM     54  C   UNL A   1      46.237  28.304  36.338  1.00  0.00     0.020 A 
ATOM     55  C   UNL A   1      46.030  27.345  37.329  1.00  0.00     0.054 A 
BRANCH  55  56
ATOM     56  S   UNL A   1      47.437  26.661  38.247  1.00  0.00     0.124 S 
ATOM     57  O   UNL A   1      47.877  25.582  37.368  1.00  0.00    -0.237 OA
ATOM     58  O   UNL A   1      48.339  27.807  38.343  1.00  0.00    -0.237 OA
ATOM     59  O   UNL A   1      46.846  26.235  39.514  1.00  0.00    -0.744 OA
ENDBRANCH  55  56
ENDBRANCH  27  50
BRANCH  39  60
ATOM     60  C   UNL A   1      40.069  34.167  37.312  1.00  0.00    -0.014 A 
ATOM     61  C   UNL A   1      40.831  35.339  37.167  1.00  0.00     0.010 A 
ATOM     62  C   UNL A   1      39.289  33.984  38.468  1.00  0.00     0.010 A 
ATOM     63  C   UNL A   1      40.824  36.306  38.171  1.00  0.00     0.020 A 
ATOM     64  C   UNL A   1      39.253  34.964  39.458  1.00  0.00     0.020 A 
ATOM     65  C   UNL A   1      40.028  36.117  39.305  1.00  0.00     0.054 A 
BRANCH  65  66
ATOM     66  S   UNL A   1      39.976  37.426  40.556  1.00  0.00     0.124 S 
ATOM     67  O   UNL A   1      39.324  38.513  39.830  1.00  0.00    -0.237 OA
ATOM     68  O   UNL A   1      39.183  36.817  41.622  1.00  0.00    -0.237 OA
ATOM     69  O   UNL A   1      41.381  37.650  40.884  1.00  0.00    -0.744 OA
ENDBRANCH  65  66
ENDBRANCH  39  60
ENDBRANCH  13  14
ENDBRANCH   6   8
ENDBRANCH   5   6
ENDBRANCH   4   5
ENDBRANCH   3   4
ENDBRANCH   2   3
ENDBRANCH   1   2
BRANCH   1  70
ATOM     70  C   UNL A   1      36.616  22.385  25.948  1.00  0.00     0.261 C 
BRANCH  70  71
ATOM     71  O   UNL A   1      36.278  23.351  24.944  1.00  0.00    -0.460 OA
BRANCH  71  72
ATOM     72  C   UNL A   1      35.498  22.902  23.920  1.00  0.00     0.338 C 
ATOM     73  O   UNL A   1      35.746  22.937  22.734  1.00  0.00    -0.246 OA
BRANCH  72  74
ATOM     74  C   UNL A   1      34.307  22.235  24.515  1.00  0.00     0.063 A 
ATOM     75  C   UNL A   1      34.232  20.851  24.649  1.00  0.00     0.016 A 
ATOM     76  C   UNL A   1      33.229  23.012  24.925  1.00  0.00     0.064 A 
ATOM     77  C   UNL A   1      33.045  20.269  25.110  1.00  0.00     0.005 A 
ATOM     78  C   UNL A   1      31.990  22.445  25.183  1.00  0.00     0.143 A 
ATOM     79  C   UNL A   1      31.907  21.062  25.331  1.00  0.00     0.048 A 
BRANCH  78  80
ATOM     80  O   UNL A   1      30.836  23.203  25.193  1.00  0.00    -0.379 OA
BRANCH  80  81
ATOM     81  S   UNL A   1      30.631  24.334  26.376  1.00  0.00     0.339 S 
ATOM     82  O   UNL A   1      29.259  24.264  26.840  1.00  0.00    -0.181 OA
ATOM     83  O   UNL A   1      31.743  24.264  27.307  1.00  0.00    -0.181 OA
BRANCH  81  84
ATOM     84  C   UNL A   1      30.808  25.917  25.613  1.00  0.00     0.112 A 
ATOM     85  C   UNL A   1      30.096  26.228  24.458  1.00  0.00     0.024 A 
ATOM     86  C   UNL A   1      31.631  26.861  26.247  1.00  0.00     0.109 A 
ATOM     87  C   UNL A   1      30.204  27.514  23.928  1.00  0.00     0.009 A 
ATOM     88  C   UNL A   1      31.730  28.141  25.708  1.00  0.00     0.270 A 
ATOM     89  C   UNL A   1      31.017  28.473  24.549  1.00  0.00     0.086 A 
BRANCH  88  90
ATOM     90  N   UNL A   1      32.573  29.145  26.372  1.00  0.00     0.062 N 
ATOM     91  O   UNL A   1      33.011  30.072  25.679  1.00  0.00    -0.258 OA
ATOM     92  O   UNL A   1      32.795  29.004  27.582  1.00  0.00    -0.258 OA
ENDBRANCH  88  90
ENDBRANCH  81  84
ENDBRANCH  80  81
ENDBRANCH  78  80
ENDBRANCH  72  74
ENDBRANCH  71  72
ENDBRANCH  70  71
ENDBRANCH   1  70
TORSDOF 21
ENDMDL
