MODEL 1
REMARK VINA RESULT:     -10.3      0.000      0.000
REMARK SMILES C[C@H](c1ccncc1)[N@H+]1[C@@H]2CC[C@H]1C[C@H](CC(=O)OCCOCCOC(=O)c1ccc(-c3c4nc(c(-c5ccc(S(=O)(=O)[O-])cc5)c5ccc([nH]5)c(-c5ccc(S(=O)(=O)[O-])cc5)c5nc(c(-c6ccc(S(=O)(=O)[O-])cc6)c6ccc3[nH]6)C=C5)C=C4)cc1)C2
REMARK SMILES IDX 22 1 21 2 20 3 19 4 17 5 18 6 16 7 15 8 9 9 10 10 13 11
REMARK SMILES IDX 11 13 88 14 12 15 14 16 2 17 1 18 3 19 4 20 8 21 5 22 7 23
REMARK SMILES IDX 6 24 23 25 24 26 25 27 26 28 27 29 28 30 29 31 87 32 30 33
REMARK SMILES IDX 86 34 31 35 32 36 33 37 80 38 34 39 85 40 79 41 81 42 35 43
REMARK SMILES IDX 84 44 78 45 77 46 36 48 66 49 47 50 65 51 48 52 51 53 64 54
REMARK SMILES IDX 82 55 49 56 50 57 63 59 83 60 52 61 37 62 38 63 46 64 39 65
REMARK SMILES IDX 45 66 40 67 41 68 42 69 43 70 44 71 67 72 68 73 76 74 69 75
REMARK SMILES IDX 75 76 70 77 71 78 72 79 73 80 74 81 53 82 54 83 62 84 55 85
REMARK SMILES IDX 61 86 56 87 57 88 58 89 59 90 60 91
REMARK H PARENT 9 12 81 47 51 58
REMARK Flexibility Score: inf
ROOT
ATOM      1  O   UNL A   1      33.959  29.254  25.351  1.00  0.00    -0.374 OA
ENDROOT
BRANCH   1   2
ATOM      2  C   UNL A   1      33.871  28.298  24.291  1.00  0.00     0.202 C 
BRANCH   2   3
ATOM      3  C   UNL A   1      33.199  28.780  23.005  1.00  0.00     0.261 C 
BRANCH   3   4
ATOM      4  O   UNL A   1      32.228  27.809  22.581  1.00  0.00    -0.463 OA
BRANCH   4   5
ATOM      5  C   UNL A   1      32.725  26.663  22.066  1.00  0.00     0.306 C 
ATOM      6  O   UNL A   1      33.799  26.562  21.486  1.00  0.00    -0.252 OA
BRANCH   5   7
ATOM      7  C   UNL A   1      31.839  25.463  22.308  1.00  0.00     0.126 C 
BRANCH   7   8
ATOM      8  C   UNL A   1      31.431  25.015  23.732  1.00  0.00     0.012 C 
ATOM      9  N   UNL A   1      32.385  22.701  25.315  1.00  0.00    -0.324 N 
ATOM     10  C   UNL A   1      32.833  24.025  25.719  1.00  0.00     0.185 C 
ATOM     11  C   UNL A   1      30.953  22.862  25.077  1.00  0.00     0.185 C 
ATOM     12  H   UNL A   1      32.647  22.076  26.076  1.00  0.00     0.349 HD
ATOM     13  C   UNL A   1      31.810  24.308  26.826  1.00  0.00     0.071 C 
ATOM     14  C   UNL A   1      32.702  25.096  24.623  1.00  0.00     0.069 C 
ATOM     15  C   UNL A   1      30.525  23.646  26.327  1.00  0.00     0.071 C 
ATOM     16  C   UNL A   1      30.712  23.650  23.784  1.00  0.00     0.069 C 
BRANCH   9  17
ATOM     17  C   UNL A   1      33.115  21.812  24.405  1.00  0.00     0.212 C 
ATOM     18  C   UNL A   1      32.670  20.365  24.663  1.00  0.00     0.081 C 
BRANCH  17  19
ATOM     19  C   UNL A   1      34.631  21.911  24.344  1.00  0.00     0.012 A 
ATOM     20  C   UNL A   1      35.294  22.719  23.412  1.00  0.00     0.030 A 
ATOM     21  C   UNL A   1      35.422  21.193  25.252  1.00  0.00     0.030 A 
ATOM     22  C   UNL A   1      36.681  22.709  23.374  1.00  0.00     0.111 A 
ATOM     23  C   UNL A   1      36.804  21.258  25.145  1.00  0.00     0.111 A 
ATOM     24  N   UNL A   1      37.453  21.990  24.214  1.00  0.00    -0.265 NA
ENDBRANCH  17  19
ENDBRANCH   9  17
ENDBRANCH   7   8
ENDBRANCH   5   7
ENDBRANCH   4   5
ENDBRANCH   3   4
ENDBRANCH   2   3
ENDBRANCH   1   2
BRANCH   1  25
ATOM     25  C   UNL A   1      32.750  29.865  25.797  1.00  0.00     0.202 C 
BRANCH  25  26
ATOM     26  C   UNL A   1      32.845  30.800  27.010  1.00  0.00     0.261 C 
BRANCH  26  27
ATOM     27  O   UNL A   1      33.649  30.253  28.070  1.00  0.00    -0.460 OA
BRANCH  27  28
ATOM     28  C   UNL A   1      34.708  31.026  28.411  1.00  0.00     0.338 C 
ATOM     29  O   UNL A   1      34.671  32.180  28.822  1.00  0.00    -0.246 OA
BRANCH  28  30
ATOM     30  C   UNL A   1      35.956  30.242  28.403  1.00  0.00     0.060 A 
ATOM     31  C   UNL A   1      36.339  29.656  29.617  1.00  0.00     0.016 A 
ATOM     32  C   UNL A   1      36.787  30.159  27.283  1.00  0.00     0.016 A 
ATOM     33  C   UNL A   1      37.588  29.057  29.741  1.00  0.00     0.010 A 
ATOM     34  C   UNL A   1      38.048  29.561  27.412  1.00  0.00     0.010 A 
ATOM     35  C   UNL A   1      38.473  29.056  28.655  1.00  0.00    -0.014 A 
BRANCH  35  36
ATOM     36  C   UNL A   1      39.893  28.705  28.899  1.00  0.00     0.031 A 
ATOM     37  C   UNL A   1      40.784  29.715  29.577  1.00  0.00     0.074 A 
ATOM     38  C   UNL A   1      40.365  27.480  28.608  1.00  0.00     0.049 A 
ATOM     39  N   UNL A   1      42.039  29.608  29.931  1.00  0.00    -0.248 NA
ATOM     40  C   UNL A   1      40.177  31.016  29.904  1.00  0.00     0.031 C 
ATOM     41  C   UNL A   1      39.590  26.396  28.005  1.00  0.00     0.029 A 
ATOM     42  N   UNL A   1      41.613  26.938  28.795  1.00  0.00    -0.354 N 
ATOM     43  C   UNL A   1      42.372  30.825  30.516  1.00  0.00     0.074 A 
ATOM     44  C   UNL A   1      41.199  31.667  30.440  1.00  0.00     0.031 C 
ATOM     45  C   UNL A   1      40.381  25.316  27.874  1.00  0.00     0.029 A 
ATOM     46  C   UNL A   1      41.722  25.640  28.358  1.00  0.00     0.049 A 
ATOM     47  H   UNL A   1      42.358  27.433  29.204  1.00  0.00     0.167 HD
ATOM     48  C   UNL A   1      43.546  31.206  31.074  1.00  0.00     0.031 A 
ATOM     49  C   UNL A   1      42.785  24.810  28.339  1.00  0.00     0.031 A 
ATOM     50  C   UNL A   1      44.715  30.371  31.146  1.00  0.00     0.049 A 
ATOM     51  C   UNL A   1      44.100  25.281  28.902  1.00  0.00     0.074 A 
ATOM     52  C   UNL A   1      45.949  30.665  31.700  1.00  0.00     0.029 A 
ATOM     53  N   UNL A   1      44.798  29.081  30.645  1.00  0.00    -0.354 N 
ATOM     54  N   UNL A   1      44.393  26.430  29.464  1.00  0.00    -0.248 NA
ATOM     55  C   UNL A   1      45.226  24.337  28.838  1.00  0.00     0.031 C 
ATOM     56  C   UNL A   1      46.795  29.572  31.486  1.00  0.00     0.029 A 
ATOM     57  C   UNL A   1      46.069  28.575  30.853  1.00  0.00     0.049 A 
ATOM     58  H   UNL A   1      44.061  28.598  30.206  1.00  0.00     0.167 HD
ATOM     59  C   UNL A   1      45.728  26.335  29.847  1.00  0.00     0.074 A 
ATOM     60  C   UNL A   1      46.181  25.015  29.461  1.00  0.00     0.031 C 
ATOM     61  C   UNL A   1      46.507  27.258  30.465  1.00  0.00     0.031 A 
BRANCH  48  62
ATOM     62  C   UNL A   1      43.632  32.606  31.622  1.00  0.00    -0.014 A 
ATOM     63  C   UNL A   1      43.235  32.902  32.938  1.00  0.00     0.010 A 
ATOM     64  C   UNL A   1      44.149  33.636  30.814  1.00  0.00     0.010 A 
ATOM     65  C   UNL A   1      43.319  34.211  33.423  1.00  0.00     0.020 A 
ATOM     66  C   UNL A   1      44.258  34.939  31.305  1.00  0.00     0.020 A 
ATOM     67  C   UNL A   1      43.826  35.222  32.601  1.00  0.00     0.054 A 
BRANCH  67  68
ATOM     68  S   UNL A   1      43.938  36.908  33.261  1.00  0.00     0.124 S 
ATOM     69  O   UNL A   1      43.731  37.716  32.062  1.00  0.00    -0.237 OA
ATOM     70  O   UNL A   1      42.852  36.944  34.238  1.00  0.00    -0.237 OA
ATOM     71  O   UNL A   1      45.283  36.969  33.829  1.00  0.00    -0.744 OA
ENDBRANCH  67  68
ENDBRANCH  48  62
BRANCH  49  72
ATOM     72  C   UNL A   1      42.652  23.451  27.749  1.00  0.00    -0.014 A 
ATOM     73  C   UNL A   1      43.163  23.164  26.473  1.00  0.00     0.010 A 
ATOM     74  C   UNL A   1      42.007  22.429  28.473  1.00  0.00     0.010 A 
ATOM     75  C   UNL A   1      43.023  21.885  25.924  1.00  0.00     0.020 A 
ATOM     76  C   UNL A   1      41.889  21.144  27.940  1.00  0.00     0.020 A 
ATOM     77  C   UNL A   1      42.389  20.882  26.663  1.00  0.00     0.054 A 
BRANCH  77  78
ATOM     78  S   UNL A   1      42.267  19.214  25.958  1.00  0.00     0.124 S 
ATOM     79  O   UNL A   1      40.827  19.063  25.783  1.00  0.00    -0.237 OA
ATOM     80  O   UNL A   1      43.047  19.334  24.728  1.00  0.00    -0.237 OA
ATOM     81  O   UNL A   1      42.867  18.366  26.985  1.00  0.00    -0.744 OA
ENDBRANCH  77  78
ENDBRANCH  49  72
BRANCH  61  82
ATOM     82  C   UNL A   1      47.921  26.864  30.802  1.00  0.00    -0.014 A 
ATOM     83  C   UNL A   1      48.992  27.186  29.951  1.00  0.00     0.010 A 
ATOM     84  C   UNL A   1      48.186  26.214  32.022  1.00  0.00     0.010 A 
ATOM     85  C   UNL A   1      50.301  26.837  30.300  1.00  0.00     0.020 A 
ATOM     86  C   UNL A   1      49.495  25.888  32.387  1.00  0.00     0.020 A 
ATOM     87  C   UNL A   1      50.542  26.189  31.516  1.00  0.00     0.054 A 
BRANCH  87  88
ATOM     88  S   UNL A   1      52.253  25.786  31.967  1.00  0.00     0.124 S 
ATOM     89  O   UNL A   1      52.962  26.027  30.713  1.00  0.00    -0.237 OA
ATOM     90  O   UNL A   1      52.535  26.736  33.041  1.00  0.00    -0.237 OA
ATOM     91  O   UNL A   1      52.182  24.388  32.383  1.00  0.00    -0.744 OA
ENDBRANCH  87  88
ENDBRANCH  61  82
ENDBRANCH  35  36
ENDBRANCH  28  30
ENDBRANCH  27  28
ENDBRANCH  26  27
ENDBRANCH  25  26
ENDBRANCH   1  25
TORSDOF 20
ENDMDL
MODEL 2
REMARK VINA RESULT:     -10.2      4.302     10.244
REMARK SMILES C[C@H](c1ccncc1)[N@H+]1[C@@H]2CC[C@H]1C[C@H](CC(=O)OCCOCCOC(=O)c1ccc(-c3c4nc(c(-c5ccc(S(=O)(=O)[O-])cc5)c5ccc([nH]5)c(-c5ccc(S(=O)(=O)[O-])cc5)c5nc(c(-c6ccc(S(=O)(=O)[O-])cc6)c6ccc3[nH]6)C=C5)C=C4)cc1)C2
REMARK SMILES IDX 22 1 21 2 20 3 19 4 17 5 18 6 16 7 15 8 9 9 10 10 13 11
REMARK SMILES IDX 11 13 88 14 12 15 14 16 2 17 1 18 3 19 4 20 8 21 5 22 7 23
REMARK SMILES IDX 6 24 23 25 24 26 25 27 26 28 27 29 28 30 29 31 87 32 30 33
REMARK SMILES IDX 86 34 31 35 32 36 33 37 80 38 34 39 85 40 79 41 81 42 35 43
REMARK SMILES IDX 84 44 78 45 77 46 36 48 66 49 47 50 65 51 48 52 51 53 64 54
REMARK SMILES IDX 82 55 49 56 50 57 63 59 83 60 52 61 37 62 38 63 46 64 39 65
REMARK SMILES IDX 45 66 40 67 41 68 42 69 43 70 44 71 67 72 68 73 76 74 69 75
REMARK SMILES IDX 75 76 70 77 71 78 72 79 73 80 74 81 53 82 54 83 62 84 55 85
REMARK SMILES IDX 61 86 56 87 57 88 58 89 59 90 60 91
REMARK H PARENT 9 12 81 47 51 58
REMARK Flexibility Score: inf
ROOT
ATOM      1  O   UNL A   1      41.275  21.288  25.904  1.00  0.00    -0.374 OA
ENDROOT
BRANCH   1   2
ATOM      2  C   UNL A   1      40.219  21.555  26.830  1.00  0.00     0.202 C 
BRANCH   2   3
ATOM      3  C   UNL A   1      39.097  22.466  26.329  1.00  0.00     0.261 C 
BRANCH   3   4
ATOM      4  O   UNL A   1      38.179  21.699  25.534  1.00  0.00    -0.463 OA
BRANCH   4   5
ATOM      5  C   UNL A   1      37.285  22.412  24.813  1.00  0.00     0.306 C 
ATOM      6  O   UNL A   1      36.858  22.090  23.710  1.00  0.00    -0.252 OA
BRANCH   5   7
ATOM      7  C   UNL A   1      36.804  23.659  25.517  1.00  0.00     0.126 C 
BRANCH   7   8
ATOM      8  C   UNL A   1      35.349  23.810  26.021  1.00  0.00     0.012 C 
ATOM      9  N   UNL A   1      32.935  22.265  25.275  1.00  0.00    -0.324 N 
ATOM     10  C   UNL A   1      33.505  22.031  26.593  1.00  0.00     0.185 C 
ATOM     11  C   UNL A   1      32.921  23.720  25.141  1.00  0.00     0.185 C 
ATOM     12  H   UNL A   1      32.026  21.805  25.282  1.00  0.00     0.349 HD
ATOM     13  C   UNL A   1      32.606  22.956  27.422  1.00  0.00     0.071 C 
ATOM     14  C   UNL A   1      34.968  22.484  26.737  1.00  0.00     0.069 C 
ATOM     15  C   UNL A   1      32.334  24.142  26.497  1.00  0.00     0.071 C 
ATOM     16  C   UNL A   1      34.344  24.249  24.934  1.00  0.00     0.069 C 
BRANCH   9  17
ATOM     17  C   UNL A   1      33.260  21.489  24.073  1.00  0.00     0.212 C 
ATOM     18  C   UNL A   1      32.260  21.853  22.965  1.00  0.00     0.081 C 
BRANCH  17  19
ATOM     19  C   UNL A   1      33.412  19.981  24.194  1.00  0.00     0.012 A 
ATOM     20  C   UNL A   1      32.344  19.100  23.984  1.00  0.00     0.030 A 
ATOM     21  C   UNL A   1      34.657  19.420  24.509  1.00  0.00     0.030 A 
ATOM     22  C   UNL A   1      32.542  17.740  24.175  1.00  0.00     0.111 A 
ATOM     23  C   UNL A   1      34.761  18.045  24.665  1.00  0.00     0.111 A 
ATOM     24  N   UNL A   1      33.724  17.192  24.520  1.00  0.00    -0.265 NA
ENDBRANCH  17  19
ENDBRANCH   9  17
ENDBRANCH   7   8
ENDBRANCH   5   7
ENDBRANCH   4   5
ENDBRANCH   3   4
ENDBRANCH   2   3
ENDBRANCH   1   2
BRANCH   1  25
ATOM     25  C   UNL A   1      42.585  21.736  26.245  1.00  0.00     0.202 C 
BRANCH  25  26
ATOM     26  C   UNL A   1      43.085  23.017  25.563  1.00  0.00     0.261 C 
BRANCH  26  27
ATOM     27  O   UNL A   1      42.367  24.188  25.989  1.00  0.00    -0.460 OA
BRANCH  27  28
ATOM     28  C   UNL A   1      43.166  25.211  26.378  1.00  0.00     0.338 C 
ATOM     29  O   UNL A   1      44.292  25.459  25.965  1.00  0.00    -0.246 OA
BRANCH  28  30
ATOM     30  C   UNL A   1      42.440  26.140  27.262  1.00  0.00     0.060 A 
ATOM     31  C   UNL A   1      42.945  27.444  27.355  1.00  0.00     0.016 A 
ATOM     32  C   UNL A   1      41.363  25.739  28.056  1.00  0.00     0.016 A 
ATOM     33  C   UNL A   1      42.431  28.326  28.301  1.00  0.00     0.010 A 
ATOM     34  C   UNL A   1      40.851  26.627  29.012  1.00  0.00     0.010 A 
ATOM     35  C   UNL A   1      41.420  27.904  29.173  1.00  0.00    -0.014 A 
BRANCH  35  36
ATOM     36  C   UNL A   1      41.116  28.738  30.362  1.00  0.00     0.031 A 
ATOM     37  C   UNL A   1      41.999  28.618  31.578  1.00  0.00     0.074 A 
ATOM     38  C   UNL A   1      40.130  29.653  30.334  1.00  0.00     0.049 A 
ATOM     39  N   UNL A   1      41.951  29.279  32.705  1.00  0.00    -0.248 NA
ATOM     40  C   UNL A   1      43.085  27.626  31.509  1.00  0.00     0.031 C 
ATOM     41  C   UNL A   1      39.243  29.906  29.198  1.00  0.00     0.029 A 
ATOM     42  N   UNL A   1      39.718  30.548  31.289  1.00  0.00    -0.354 N 
ATOM     43  C   UNL A   1      42.992  28.780  33.481  1.00  0.00     0.074 A 
ATOM     44  C   UNL A   1      43.634  27.740  32.709  1.00  0.00     0.031 C 
ATOM     45  C   UNL A   1      38.393  30.896  29.523  1.00  0.00     0.029 A 
ATOM     46  C   UNL A   1      38.656  31.326  30.896  1.00  0.00     0.049 A 
ATOM     47  H   UNL A   1      40.144  30.626  32.173  1.00  0.00     0.167 HD
ATOM     48  C   UNL A   1      43.385  29.159  34.721  1.00  0.00     0.031 A 
ATOM     49  C   UNL A   1      37.967  32.270  31.569  1.00  0.00     0.031 A 
ATOM     50  C   UNL A   1      42.743  30.190  35.492  1.00  0.00     0.049 A 
ATOM     51  C   UNL A   1      38.378  32.625  32.973  1.00  0.00     0.074 A 
ATOM     52  C   UNL A   1      43.073  30.650  36.755  1.00  0.00     0.029 A 
ATOM     53  N   UNL A   1      41.638  30.917  35.076  1.00  0.00    -0.354 N 
ATOM     54  N   UNL A   1      39.373  32.153  33.686  1.00  0.00    -0.248 NA
ATOM     55  C   UNL A   1      37.577  33.649  33.661  1.00  0.00     0.031 C 
ATOM     56  C   UNL A   1      42.134  31.620  37.124  1.00  0.00     0.029 A 
ATOM     57  C   UNL A   1      41.257  31.805  36.067  1.00  0.00     0.049 A 
ATOM     58  H   UNL A   1      41.191  30.816  34.205  1.00  0.00     0.167 HD
ATOM     59  C   UNL A   1      39.337  32.844  34.893  1.00  0.00     0.074 A 
ATOM     60  C   UNL A   1      38.228  33.772  34.811  1.00  0.00     0.031 C 
ATOM     61  C   UNL A   1      40.151  32.723  35.972  1.00  0.00     0.031 A 
BRANCH  48  62
ATOM     62  C   UNL A   1      44.546  28.424  35.336  1.00  0.00    -0.014 A 
ATOM     63  C   UNL A   1      44.359  27.228  36.052  1.00  0.00     0.010 A 
ATOM     64  C   UNL A   1      45.851  28.924  35.165  1.00  0.00     0.010 A 
ATOM     65  C   UNL A   1      45.453  26.566  36.618  1.00  0.00     0.020 A 
ATOM     66  C   UNL A   1      46.948  28.251  35.708  1.00  0.00     0.020 A 
ATOM     67  C   UNL A   1      46.740  27.085  36.446  1.00  0.00     0.054 A 
BRANCH  67  68
ATOM     68  S   UNL A   1      48.143  26.197  37.178  1.00  0.00     0.124 S 
ATOM     69  O   UNL A   1      47.660  25.935  38.531  1.00  0.00    -0.237 OA
ATOM     70  O   UNL A   1      48.264  25.023  36.317  1.00  0.00    -0.237 OA
ATOM     71  O   UNL A   1      49.245  27.152  37.084  1.00  0.00    -0.744 OA
ENDBRANCH  67  68
ENDBRANCH  48  62
BRANCH  49  72
ATOM     72  C   UNL A   1      36.802  32.935  30.925  1.00  0.00    -0.014 A 
ATOM     73  C   UNL A   1      35.489  32.649  31.335  1.00  0.00     0.010 A 
ATOM     74  C   UNL A   1      37.006  33.868  29.891  1.00  0.00     0.010 A 
ATOM     75  C   UNL A   1      34.401  33.272  30.716  1.00  0.00     0.020 A 
ATOM     76  C   UNL A   1      35.924  34.513  29.288  1.00  0.00     0.020 A 
ATOM     77  C   UNL A   1      34.627  34.203  29.698  1.00  0.00     0.054 A 
BRANCH  77  78
ATOM     78  S   UNL A   1      33.205  35.044  28.945  1.00  0.00     0.124 S 
ATOM     79  O   UNL A   1      32.747  34.056  27.974  1.00  0.00    -0.237 OA
ATOM     80  O   UNL A   1      32.325  35.263  30.091  1.00  0.00    -0.237 OA
ATOM     81  O   UNL A   1      33.788  36.258  28.378  1.00  0.00    -0.744 OA
ENDBRANCH  77  78
ENDBRANCH  49  72
BRANCH  61  82
ATOM     82  C   UNL A   1      39.903  33.642  37.140  1.00  0.00    -0.014 A 
ATOM     83  C   UNL A   1      40.480  34.922  37.198  1.00  0.00     0.010 A 
ATOM     84  C   UNL A   1      39.028  33.236  38.165  1.00  0.00     0.010 A 
ATOM     85  C   UNL A   1      40.210  35.769  38.278  1.00  0.00     0.020 A 
ATOM     86  C   UNL A   1      38.735  34.090  39.231  1.00  0.00     0.020 A 
ATOM     87  C   UNL A   1      39.340  35.346  39.288  1.00  0.00     0.054 A 
BRANCH  87  88
ATOM     88  S   UNL A   1      38.971  36.480  40.656  1.00  0.00     0.124 S 
ATOM     89  O   UNL A   1      38.495  37.665  39.947  1.00  0.00    -0.237 OA
ATOM     90  O   UNL A   1      37.956  35.751  41.413  1.00  0.00    -0.237 OA
ATOM     91  O   UNL A   1      40.255  36.634  41.334  1.00  0.00    -0.744 OA
ENDBRANCH  87  88
ENDBRANCH  61  82
ENDBRANCH  35  36
ENDBRANCH  28  30
ENDBRANCH  27  28
ENDBRANCH  26  27
ENDBRANCH  25  26
ENDBRANCH   1  25
TORSDOF 20
ENDMDL
MODEL 3
REMARK VINA RESULT:     -10.1      4.824     10.631
REMARK SMILES C[C@H](c1ccncc1)[N@H+]1[C@@H]2CC[C@H]1C[C@H](CC(=O)OCCOCCOC(=O)c1ccc(-c3c4nc(c(-c5ccc(S(=O)(=O)[O-])cc5)c5ccc([nH]5)c(-c5ccc(S(=O)(=O)[O-])cc5)c5nc(c(-c6ccc(S(=O)(=O)[O-])cc6)c6ccc3[nH]6)C=C5)C=C4)cc1)C2
REMARK SMILES IDX 22 1 21 2 20 3 19 4 17 5 18 6 16 7 15 8 9 9 10 10 13 11
REMARK SMILES IDX 11 13 88 14 12 15 14 16 2 17 1 18 3 19 4 20 8 21 5 22 7 23
REMARK SMILES IDX 6 24 23 25 24 26 25 27 26 28 27 29 28 30 29 31 87 32 30 33
REMARK SMILES IDX 86 34 31 35 32 36 33 37 80 38 34 39 85 40 79 41 81 42 35 43
REMARK SMILES IDX 84 44 78 45 77 46 36 48 66 49 47 50 65 51 48 52 51 53 64 54
REMARK SMILES IDX 82 55 49 56 50 57 63 59 83 60 52 61 37 62 38 63 46 64 39 65
REMARK SMILES IDX 45 66 40 67 41 68 42 69 43 70 44 71 67 72 68 73 76 74 69 75
REMARK SMILES IDX 75 76 70 77 71 78 72 79 73 80 74 81 53 82 54 83 62 84 55 85
REMARK SMILES IDX 61 86 56 87 57 88 58 89 59 90 60 91
REMARK H PARENT 9 12 81 47 51 58
REMARK Flexibility Score: inf
ROOT
ATOM      1  O   UNL A   1      37.557  22.548  25.243  1.00  0.00    -0.374 OA
ENDROOT
BRANCH   1   2
ATOM      2  C   UNL A   1      36.805  23.045  24.132  1.00  0.00     0.202 C 
BRANCH   2   3
ATOM      3  C   UNL A   1      35.324  23.323  24.392  1.00  0.00     0.261 C 
BRANCH   3   4
ATOM      4  O   UNL A   1      34.565  23.008  23.213  1.00  0.00    -0.463 OA
BRANCH   4   5
ATOM      5  C   UNL A   1      33.514  23.816  22.954  1.00  0.00     0.306 C 
ATOM      6  O   UNL A   1      32.503  23.481  22.346  1.00  0.00    -0.252 OA
BRANCH   5   7
ATOM      7  C   UNL A   1      33.668  25.205  23.531  1.00  0.00     0.126 C 
BRANCH   7   8
ATOM      8  C   UNL A   1      32.564  26.280  23.395  1.00  0.00     0.012 C 
ATOM      9  N   UNL A   1      31.891  28.517  25.216  1.00  0.00    -0.324 N 
ATOM     10  C   UNL A   1      32.547  28.845  23.958  1.00  0.00     0.185 C 
ATOM     11  C   UNL A   1      30.851  27.563  24.842  1.00  0.00     0.185 C 
ATOM     12  H   UNL A   1      31.571  29.405  25.599  1.00  0.00     0.349 HD
ATOM     13  C   UNL A   1      31.314  29.209  23.122  1.00  0.00     0.071 C 
ATOM     14  C   UNL A   1      33.273  27.660  23.299  1.00  0.00     0.069 C 
ATOM     15  C   UNL A   1      30.227  28.258  23.622  1.00  0.00     0.071 C 
ATOM     16  C   UNL A   1      31.473  26.208  24.485  1.00  0.00     0.069 C 
BRANCH   9  17
ATOM     17  C   UNL A   1      32.588  28.280  26.485  1.00  0.00     0.212 C 
ATOM     18  C   UNL A   1      31.544  28.013  27.579  1.00  0.00     0.081 C 
BRANCH  17  19
ATOM     19  C   UNL A   1      33.620  29.293  26.954  1.00  0.00     0.012 A 
ATOM     20  C   UNL A   1      34.977  28.975  27.089  1.00  0.00     0.030 A 
ATOM     21  C   UNL A   1      33.233  30.606  27.255  1.00  0.00     0.030 A 
ATOM     22  C   UNL A   1      35.850  29.932  27.585  1.00  0.00     0.111 A 
ATOM     23  C   UNL A   1      34.183  31.500  27.731  1.00  0.00     0.111 A 
ATOM     24  N   UNL A   1      35.483  31.186  27.918  1.00  0.00    -0.265 NA
ENDBRANCH  17  19
ENDBRANCH   9  17
ENDBRANCH   7   8
ENDBRANCH   5   7
ENDBRANCH   4   5
ENDBRANCH   3   4
ENDBRANCH   2   3
ENDBRANCH   1   2
BRANCH   1  25
ATOM     25  C   UNL A   1      38.120  23.500  26.142  1.00  0.00     0.202 C 
BRANCH  25  26
ATOM     26  C   UNL A   1      39.640  23.454  26.346  1.00  0.00     0.261 C 
BRANCH  26  27
ATOM     27  O   UNL A   1      40.081  24.295  27.427  1.00  0.00    -0.460 OA
BRANCH  27  28
ATOM     28  C   UNL A   1      40.370  25.564  27.053  1.00  0.00     0.338 C 
ATOM     29  O   UNL A   1      40.761  25.933  25.952  1.00  0.00    -0.246 OA
BRANCH  28  30
ATOM     30  C   UNL A   1      39.980  26.524  28.102  1.00  0.00     0.060 A 
ATOM     31  C   UNL A   1      40.623  27.769  28.086  1.00  0.00     0.016 A 
ATOM     32  C   UNL A   1      39.095  26.197  29.131  1.00  0.00     0.016 A 
ATOM     33  C   UNL A   1      40.449  28.659  29.141  1.00  0.00     0.010 A 
ATOM     34  C   UNL A   1      38.925  27.092  30.196  1.00  0.00     0.010 A 
ATOM     35  C   UNL A   1      39.644  28.302  30.230  1.00  0.00    -0.014 A 
BRANCH  35  36
ATOM     36  C   UNL A   1      39.725  29.115  31.468  1.00  0.00     0.031 A 
ATOM     37  C   UNL A   1      40.872  28.877  32.418  1.00  0.00     0.074 A 
ATOM     38  C   UNL A   1      38.851  30.110  31.704  1.00  0.00     0.049 A 
ATOM     39  N   UNL A   1      41.169  29.498  33.530  1.00  0.00    -0.248 NA
ATOM     40  C   UNL A   1      41.811  27.800  32.062  1.00  0.00     0.031 C 
ATOM     41  C   UNL A   1      37.733  30.478  30.836  1.00  0.00     0.029 A 
ATOM     42  N   UNL A   1      38.776  31.001  32.746  1.00  0.00    -0.354 N 
ATOM     43  C   UNL A   1      42.322  28.885  34.009  1.00  0.00     0.074 A 
ATOM     44  C   UNL A   1      42.652  27.824  33.084  1.00  0.00     0.031 C 
ATOM     45  C   UNL A   1      37.086  31.523  31.380  1.00  0.00     0.029 A 
ATOM     46  C   UNL A   1      37.724  31.879  32.646  1.00  0.00     0.049 A 
ATOM     47  H   UNL A   1      39.416  31.011  33.493  1.00  0.00     0.167 HD
ATOM     48  C   UNL A   1      43.047  29.184  35.114  1.00  0.00     0.031 A 
ATOM     49  C   UNL A   1      37.315  32.852  33.485  1.00  0.00     0.031 A 
ATOM     50  C   UNL A   1      42.716  30.236  36.036  1.00  0.00     0.049 A 
ATOM     51  C   UNL A   1      38.097  33.120  34.744  1.00  0.00     0.074 A 
ATOM     52  C   UNL A   1      43.394  30.621  37.180  1.00  0.00     0.029 A 
ATOM     53  N   UNL A   1      41.613  31.068  35.925  1.00  0.00    -0.354 N 
ATOM     54  N   UNL A   1      39.193  32.541  35.173  1.00  0.00    -0.248 NA
ATOM     55  C   UNL A   1      37.592  34.182  35.627  1.00  0.00     0.031 C 
ATOM     56  C   UNL A   1      42.671  31.652  37.789  1.00  0.00     0.029 A 
ATOM     57  C   UNL A   1      41.576  31.948  36.993  1.00  0.00     0.049 A 
ATOM     58  H   UNL A   1      40.954  31.038  35.194  1.00  0.00     0.167 HD
ATOM     59  C   UNL A   1      39.525  33.188  36.360  1.00  0.00     0.074 A 
ATOM     60  C   UNL A   1      38.519  34.207  36.576  1.00  0.00     0.031 C 
ATOM     61  C   UNL A   1      40.570  32.959  37.194  1.00  0.00     0.031 A 
BRANCH  48  62
ATOM     62  C   UNL A   1      44.255  28.332  35.402  1.00  0.00    -0.014 A 
ATOM     63  C   UNL A   1      44.152  27.149  36.156  1.00  0.00     0.010 A 
ATOM     64  C   UNL A   1      45.507  28.707  34.882  1.00  0.00     0.010 A 
ATOM     65  C   UNL A   1      45.289  26.377  36.416  1.00  0.00     0.020 A 
ATOM     66  C   UNL A   1      46.640  27.924  35.118  1.00  0.00     0.020 A 
ATOM     67  C   UNL A   1      46.527  26.772  35.899  1.00  0.00     0.054 A 
BRANCH  67  68
ATOM     68  S   UNL A   1      47.982  25.743  36.238  1.00  0.00     0.124 S 
ATOM     69  O   UNL A   1      48.677  25.774  34.954  1.00  0.00    -0.237 OA
ATOM     70  O   UNL A   1      48.639  26.465  37.325  1.00  0.00    -0.237 OA
ATOM     71  O   UNL A   1      47.413  24.449  36.607  1.00  0.00    -0.744 OA
ENDBRANCH  67  68
ENDBRANCH  48  62
BRANCH  49  72
ATOM     72  C   UNL A   1      36.090  33.636  33.168  1.00  0.00    -0.014 A 
ATOM     73  C   UNL A   1      36.176  34.880  32.521  1.00  0.00     0.010 A 
ATOM     74  C   UNL A   1      34.822  33.133  33.516  1.00  0.00     0.010 A 
ATOM     75  C   UNL A   1      35.019  35.613  32.238  1.00  0.00     0.020 A 
ATOM     76  C   UNL A   1      33.663  33.848  33.211  1.00  0.00     0.020 A 
ATOM     77  C   UNL A   1      33.769  35.090  32.583  1.00  0.00     0.054 A 
BRANCH  77  78
ATOM     78  S   UNL A   1      32.276  36.030  32.155  1.00  0.00     0.124 S 
ATOM     79  O   UNL A   1      32.473  36.281  30.732  1.00  0.00    -0.237 OA
ATOM     80  O   UNL A   1      31.207  35.093  32.493  1.00  0.00    -0.237 OA
ATOM     81  O   UNL A   1      32.356  37.207  33.018  1.00  0.00    -0.744 OA
ENDBRANCH  77  78
ENDBRANCH  49  72
BRANCH  61  82
ATOM     82  C   UNL A   1      40.708  33.852  38.400  1.00  0.00    -0.014 A 
ATOM     83  C   UNL A   1      41.417  35.064  38.335  1.00  0.00     0.010 A 
ATOM     84  C   UNL A   1      40.065  33.497  39.601  1.00  0.00     0.010 A 
ATOM     85  C   UNL A   1      41.505  35.892  39.458  1.00  0.00     0.020 A 
ATOM     86  C   UNL A   1      40.128  34.335  40.717  1.00  0.00     0.020 A 
ATOM     87  C   UNL A   1      40.861  35.520  40.643  1.00  0.00     0.054 A 
BRANCH  87  88
ATOM     88  S   UNL A   1      40.954  36.632  42.074  1.00  0.00     0.124 S 
ATOM     89  O   UNL A   1      41.580  37.818  41.497  1.00  0.00    -0.237 OA
ATOM     90  O   UNL A   1      39.551  36.784  42.455  1.00  0.00    -0.237 OA
ATOM     91  O   UNL A   1      41.776  35.896  43.032  1.00  0.00    -0.744 OA
ENDBRANCH  87  88
ENDBRANCH  61  82
ENDBRANCH  35  36
ENDBRANCH  28  30
ENDBRANCH  27  28
ENDBRANCH  26  27
ENDBRANCH  25  26
ENDBRANCH   1  25
TORSDOF 20
ENDMDL
