MODEL 1
REMARK VINA RESULT:      -9.3      0.000      0.000
REMARK SMILES CC(C)[C@H]1CC[C@@H](C)/C(=C/c2ccc(NC(=O)CCC(=O)OCCOCCOC(=O)c3ccc(-c4c5nc(c(-c6ccc(S(=O)(=O)[O-])cc6)c6ccc([nH]6)c(-c6ccc(S(=O)(=O)[O-])cc6)c6nc(c(-c7ccc(S(=O)(=O)[O-])cc7)c7ccc4[nH]7)C=C6)C=C5)cc3)cc2)C1=O
REMARK SMILES IDX 24 1 23 2 22 3 20 4 21 5 19 6 18 7 16 8 15 9 17 11 14 12
REMARK SMILES IDX 11 13 12 14 92 15 13 16 91 17 10 18 4 19 5 20 93 21 6 22
REMARK SMILES IDX 9 23 94 24 7 25 8 26 2 27 1 28 3 29 25 30 26 31 27 32 28 33
REMARK SMILES IDX 29 34 30 35 31 36 32 37 90 38 33 39 89 40 34 41 35 42 36 43
REMARK SMILES IDX 83 44 37 45 88 46 82 47 84 48 38 49 87 50 81 51 80 52 39 54
REMARK SMILES IDX 69 55 50 56 68 57 51 58 54 59 67 60 85 61 52 62 53 63 66 65
REMARK SMILES IDX 86 66 55 67 40 68 41 69 49 70 42 71 48 72 43 73 44 74 45 75
REMARK SMILES IDX 46 76 47 77 70 78 71 79 79 80 72 81 78 82 73 83 74 84 75 85
REMARK SMILES IDX 76 86 77 87 56 88 57 89 65 90 58 91 64 92 59 93 60 94 61 95
REMARK SMILES IDX 62 96 63 97
REMARK H PARENT 15 10 84 53 54 64
REMARK Flexibility Score: inf
ROOT
ATOM      1  C   UNL A   1      38.693  29.395  30.148  1.00  0.00     0.202 C 
ENDROOT
BRANCH   1   2
ATOM      2  C   UNL A   1      38.447  28.333  29.051  1.00  0.00     0.261 C 
BRANCH   2   3
ATOM      3  O   UNL A   1      39.351  27.224  29.122  1.00  0.00    -0.463 OA
BRANCH   3   4
ATOM      4  C   UNL A   1      39.743  26.657  27.967  1.00  0.00     0.306 C 
ATOM      5  O   UNL A   1      40.325  27.242  27.065  1.00  0.00    -0.252 OA
BRANCH   4   6
ATOM      6  C   UNL A   1      39.379  25.192  27.936  1.00  0.00     0.132 C 
BRANCH   6   7
ATOM      7  C   UNL A   1      40.018  24.383  26.797  1.00  0.00     0.112 C 
BRANCH   7   8
ATOM      8  C   UNL A   1      39.560  22.926  26.732  1.00  0.00     0.224 C 
ATOM      9  N   UNL A   1      38.424  22.419  26.155  1.00  0.00    -0.326 N 
ATOM     10  H   UNL A   1      38.418  21.434  26.169  1.00  0.00     0.169 HD
ATOM     11  O   UNL A   1      40.328  22.090  27.235  1.00  0.00    -0.275 OA
BRANCH   9  12
ATOM     12  C   UNL A   1      37.259  22.938  25.543  1.00  0.00     0.041 A 
ATOM     13  C   UNL A   1      34.846  23.904  24.287  1.00  0.00    -0.025 A 
ATOM     14  C   UNL A   1      35.775  23.157  23.611  1.00  0.00     0.010 A 
ATOM     15  C   UNL A   1      35.176  24.258  25.598  1.00  0.00     0.010 A 
ATOM     16  C   UNL A   1      36.896  22.632  24.263  1.00  0.00     0.027 A 
ATOM     17  C   UNL A   1      36.397  23.820  26.201  1.00  0.00     0.027 A 
BRANCH  13  18
ATOM     18  C   UNL A   1      33.534  24.019  23.625  1.00  0.00     0.015 C 
ATOM     19  C   UNL A   1      32.203  26.677  25.177  1.00  0.00     0.063 C 
ATOM     20  C   UNL A   1      30.743  26.559  24.646  1.00  0.00     0.013 C 
ATOM     21  C   UNL A   1      33.141  26.451  23.991  1.00  0.00     0.162 C 
ATOM     22  C   UNL A   1      30.482  25.380  23.678  1.00  0.00     0.009 C 
ATOM     23  C   UNL A   1      32.863  25.149  23.316  1.00  0.00    -0.001 C 
ATOM     24  O   UNL A   1      33.906  27.256  23.483  1.00  0.00    -0.294 OA
ATOM     25  C   UNL A   1      31.546  25.226  22.583  1.00  0.00     0.020 C 
ATOM     26  C   UNL A   1      31.455  26.366  21.549  1.00  0.00     0.013 C 
BRANCH  19  27
ATOM     27  C   UNL A   1      32.477  27.873  26.145  1.00  0.00    -0.007 C 
ATOM     28  C   UNL A   1      31.562  28.024  27.361  1.00  0.00     0.008 C 
ATOM     29  C   UNL A   1      33.924  27.971  26.641  1.00  0.00     0.008 C 
ENDBRANCH  19  27
ENDBRANCH  13  18
ENDBRANCH   9  12
ENDBRANCH   7   8
ENDBRANCH   6   7
ENDBRANCH   4   6
ENDBRANCH   3   4
ENDBRANCH   2   3
ENDBRANCH   1   2
BRANCH   1  30
ATOM     30  O   UNL A   1      37.735  30.465  30.204  1.00  0.00    -0.374 OA
BRANCH  30  31
ATOM     31  C   UNL A   1      37.085  30.870  28.987  1.00  0.00     0.202 C 
BRANCH  31  32
ATOM     32  C   UNL A   1      35.691  31.600  29.225  1.00  0.00     0.261 C 
BRANCH  32  33
ATOM     33  O   UNL A   1      35.774  33.005  29.693  1.00  0.00    -0.460 OA
BRANCH  33  34
ATOM     34  C   UNL A   1      35.248  33.306  30.932  1.00  0.00     0.338 C 
ATOM     35  O   UNL A   1      34.071  33.513  31.132  1.00  0.00    -0.246 OA
BRANCH  34  36
ATOM     36  C   UNL A   1      36.247  33.252  32.088  1.00  0.00     0.060 A 
ATOM     37  C   UNL A   1      37.568  33.677  31.861  1.00  0.00     0.016 A 
ATOM     38  C   UNL A   1      35.987  32.679  33.336  1.00  0.00     0.016 A 
ATOM     39  C   UNL A   1      38.600  33.543  32.826  1.00  0.00     0.010 A 
ATOM     40  C   UNL A   1      37.033  32.515  34.303  1.00  0.00     0.010 A 
ATOM     41  C   UNL A   1      38.363  32.927  34.059  1.00  0.00    -0.014 A 
BRANCH  41  42
ATOM     42  C   UNL A   1      39.529  32.540  34.952  1.00  0.00     0.031 A 
ATOM     43  C   UNL A   1      39.929  33.479  36.080  1.00  0.00     0.074 A 
ATOM     44  C   UNL A   1      40.218  31.378  34.871  1.00  0.00     0.049 A 
ATOM     45  N   UNL A   1      40.872  33.351  36.986  1.00  0.00    -0.248 NA
ATOM     46  C   UNL A   1      39.149  34.718  36.200  1.00  0.00     0.031 C 
ATOM     47  C   UNL A   1      39.962  30.292  33.929  1.00  0.00     0.029 A 
ATOM     48  N   UNL A   1      41.291  30.911  35.619  1.00  0.00    -0.354 N 
ATOM     49  C   UNL A   1      40.795  34.487  37.788  1.00  0.00     0.074 A 
ATOM     50  C   UNL A   1      39.723  35.299  37.244  1.00  0.00     0.031 C 
ATOM     51  C   UNL A   1      40.850  29.299  34.147  1.00  0.00     0.029 A 
ATOM     52  C   UNL A   1      41.765  29.675  35.230  1.00  0.00     0.049 A 
ATOM     53  H   UNL A   1      41.681  31.422  36.365  1.00  0.00     0.167 HD
ATOM     54  C   UNL A   1      41.530  34.844  38.873  1.00  0.00     0.031 A 
ATOM     55  C   UNL A   1      42.809  28.930  35.671  1.00  0.00     0.031 A 
ATOM     56  C   UNL A   1      42.632  34.104  39.432  1.00  0.00     0.049 A 
ATOM     57  C   UNL A   1      43.695  29.402  36.808  1.00  0.00     0.074 A 
ATOM     58  C   UNL A   1      43.428  34.440  40.518  1.00  0.00     0.029 A 
ATOM     59  N   UNL A   1      43.112  32.897  38.955  1.00  0.00    -0.354 N 
ATOM     60  N   UNL A   1      43.589  30.474  37.554  1.00  0.00    -0.248 NA
ATOM     61  C   UNL A   1      44.843  28.545  37.170  1.00  0.00     0.031 C 
ATOM     62  C   UNL A   1      44.421  33.466  40.664  1.00  0.00     0.029 A 
ATOM     63  C   UNL A   1      44.204  32.488  39.709  1.00  0.00     0.049 A 
ATOM     64  H   UNL A   1      42.734  32.402  38.194  1.00  0.00     0.167 HD
ATOM     65  C   UNL A   1      44.624  30.395  38.491  1.00  0.00     0.074 A 
ATOM     66  C   UNL A   1      45.342  29.171  38.227  1.00  0.00     0.031 C 
ATOM     67  C   UNL A   1      44.935  31.266  39.484  1.00  0.00     0.031 A 
BRANCH  54  68
ATOM     68  C   UNL A   1      41.182  36.160  39.520  1.00  0.00    -0.014 A 
ATOM     69  C   UNL A   1      40.209  36.235  40.532  1.00  0.00     0.010 A 
ATOM     70  C   UNL A   1      41.855  37.330  39.123  1.00  0.00     0.010 A 
ATOM     71  C   UNL A   1      39.876  37.468  41.099  1.00  0.00     0.020 A 
ATOM     72  C   UNL A   1      41.544  38.560  39.707  1.00  0.00     0.020 A 
ATOM     73  C   UNL A   1      40.540  38.624  40.675  1.00  0.00     0.054 A 
BRANCH  73  74
ATOM     74  S   UNL A   1      40.081  40.213  41.417  1.00  0.00     0.124 S 
ATOM     75  O   UNL A   1      41.386  40.770  41.765  1.00  0.00    -0.237 OA
ATOM     76  O   UNL A   1      39.380  40.887  40.327  1.00  0.00    -0.237 OA
ATOM     77  O   UNL A   1      39.242  39.836  42.552  1.00  0.00    -0.744 OA
ENDBRANCH  73  74
ENDBRANCH  54  68
BRANCH  55  78
ATOM     78  C   UNL A   1      43.136  27.620  35.021  1.00  0.00    -0.014 A 
ATOM     79  C   UNL A   1      42.563  26.419  35.486  1.00  0.00     0.010 A 
ATOM     80  C   UNL A   1      44.095  27.558  33.993  1.00  0.00     0.010 A 
ATOM     81  C   UNL A   1      42.959  25.186  34.950  1.00  0.00     0.020 A 
ATOM     82  C   UNL A   1      44.469  26.330  33.436  1.00  0.00     0.020 A 
ATOM     83  C   UNL A   1      43.907  25.150  33.927  1.00  0.00     0.054 A 
BRANCH  83  84
ATOM     84  S   UNL A   1      44.371  23.545  33.212  1.00  0.00     0.124 S 
ATOM     85  O   UNL A   1      45.735  23.374  33.702  1.00  0.00    -0.237 OA
ATOM     86  O   UNL A   1      43.374  22.646  33.787  1.00  0.00    -0.237 OA
ATOM     87  O   UNL A   1      44.244  23.764  31.773  1.00  0.00    -0.744 OA
ENDBRANCH  83  84
ENDBRANCH  55  78
BRANCH  67  88
ATOM     88  C   UNL A   1      46.066  30.917  40.427  1.00  0.00    -0.014 A 
ATOM     89  C   UNL A   1      47.389  31.339  40.196  1.00  0.00     0.010 A 
ATOM     90  C   UNL A   1      45.790  30.183  41.597  1.00  0.00     0.010 A 
ATOM     91  C   UNL A   1      48.414  31.000  41.091  1.00  0.00     0.020 A 
ATOM     92  C   UNL A   1      46.805  29.865  42.507  1.00  0.00     0.020 A 
ATOM     93  C   UNL A   1      48.117  30.259  42.238  1.00  0.00     0.054 A 
BRANCH  93  94
ATOM     94  S   UNL A   1      49.456  29.846  43.395  1.00  0.00     0.124 S 
ATOM     95  O   UNL A   1      50.578  29.609  42.491  1.00  0.00    -0.237 OA
ATOM     96  O   UNL A   1      49.556  31.049  44.218  1.00  0.00    -0.237 OA
ATOM     97  O   UNL A   1      48.959  28.663  44.093  1.00  0.00    -0.744 OA
ENDBRANCH  93  94
ENDBRANCH  67  88
ENDBRANCH  41  42
ENDBRANCH  34  36
ENDBRANCH  33  34
ENDBRANCH  32  33
ENDBRANCH  31  32
ENDBRANCH  30  31
ENDBRANCH   1  30
TORSDOF 22
ENDMDL
MODEL 2
REMARK VINA RESULT:      -8.7      5.084     11.160
REMARK SMILES CC(C)[C@H]1CC[C@@H](C)/C(=C/c2ccc(NC(=O)CCC(=O)OCCOCCOC(=O)c3ccc(-c4c5nc(c(-c6ccc(S(=O)(=O)[O-])cc6)c6ccc([nH]6)c(-c6ccc(S(=O)(=O)[O-])cc6)c6nc(c(-c7ccc(S(=O)(=O)[O-])cc7)c7ccc4[nH]7)C=C6)C=C5)cc3)cc2)C1=O
REMARK SMILES IDX 24 1 23 2 22 3 20 4 21 5 19 6 18 7 16 8 15 9 17 11 14 12
REMARK SMILES IDX 11 13 12 14 92 15 13 16 91 17 10 18 4 19 5 20 93 21 6 22
REMARK SMILES IDX 9 23 94 24 7 25 8 26 2 27 1 28 3 29 25 30 26 31 27 32 28 33
REMARK SMILES IDX 29 34 30 35 31 36 32 37 90 38 33 39 89 40 34 41 35 42 36 43
REMARK SMILES IDX 83 44 37 45 88 46 82 47 84 48 38 49 87 50 81 51 80 52 39 54
REMARK SMILES IDX 69 55 50 56 68 57 51 58 54 59 67 60 85 61 52 62 53 63 66 65
REMARK SMILES IDX 86 66 55 67 40 68 41 69 49 70 42 71 48 72 43 73 44 74 45 75
REMARK SMILES IDX 46 76 47 77 70 78 71 79 79 80 72 81 78 82 73 83 74 84 75 85
REMARK SMILES IDX 76 86 77 87 56 88 57 89 65 90 58 91 64 92 59 93 60 94 61 95
REMARK SMILES IDX 62 96 63 97
REMARK H PARENT 15 10 84 53 54 64
REMARK Flexibility Score: inf
ROOT
ATOM      1  C   UNL A   1      44.690  22.866  27.449  1.00  0.00     0.202 C 
ENDROOT
BRANCH   1   2
ATOM      2  C   UNL A   1      43.367  22.907  26.649  1.00  0.00     0.261 C 
BRANCH   2   3
ATOM      3  O   UNL A   1      42.201  22.878  27.479  1.00  0.00    -0.463 OA
BRANCH   3   4
ATOM      4  C   UNL A   1      41.004  23.043  26.888  1.00  0.00     0.306 C 
ATOM      5  O   UNL A   1      40.529  22.289  26.051  1.00  0.00    -0.252 OA
BRANCH   4   6
ATOM      6  C   UNL A   1      40.313  24.283  27.406  1.00  0.00     0.132 C 
BRANCH   6   7
ATOM      7  C   UNL A   1      40.593  25.568  26.613  1.00  0.00     0.112 C 
BRANCH   7   8
ATOM      8  C   UNL A   1      41.623  26.491  27.263  1.00  0.00     0.224 C 
ATOM      9  N   UNL A   1      41.399  27.620  28.011  1.00  0.00    -0.326 N 
ATOM     10  H   UNL A   1      42.235  27.974  28.393  1.00  0.00     0.169 HD
ATOM     11  O   UNL A   1      42.812  26.163  27.128  1.00  0.00    -0.275 OA
BRANCH   9  12
ATOM     12  C   UNL A   1      40.283  28.407  28.378  1.00  0.00     0.041 A 
ATOM     13  C   UNL A   1      37.946  29.943  29.092  1.00  0.00    -0.025 A 
ATOM     14  C   UNL A   1      38.304  29.717  27.789  1.00  0.00     0.010 A 
ATOM     15  C   UNL A   1      38.830  29.470  30.065  1.00  0.00     0.010 A 
ATOM     16  C   UNL A   1      39.394  28.902  27.468  1.00  0.00     0.027 A 
ATOM     17  C   UNL A   1      40.015  28.753  29.706  1.00  0.00     0.027 A 
BRANCH  13  18
ATOM     18  C   UNL A   1      36.568  30.431  29.288  1.00  0.00     0.015 C 
ATOM     19  C   UNL A   1      37.083  33.381  30.797  1.00  0.00     0.063 C 
ATOM     20  C   UNL A   1      35.618  33.692  31.224  1.00  0.00     0.013 C 
ATOM     21  C   UNL A   1      37.042  32.875  29.354  1.00  0.00     0.162 C 
ATOM     22  C   UNL A   1      34.568  32.630  30.815  1.00  0.00     0.009 C 
ATOM     23  C   UNL A   1      36.127  31.705  29.213  1.00  0.00    -0.001 C 
ATOM     24  O   UNL A   1      37.510  33.414  28.363  1.00  0.00    -0.294 OA
ATOM     25  C   UNL A   1      34.695  32.157  29.361  1.00  0.00     0.020 C 
ATOM     26  C   UNL A   1      34.267  33.261  28.374  1.00  0.00     0.013 C 
BRANCH  19  27
ATOM     27  C   UNL A   1      38.147  34.455  31.195  1.00  0.00    -0.007 C 
ATOM     28  C   UNL A   1      38.490  34.596  32.679  1.00  0.00     0.008 C 
ATOM     29  C   UNL A   1      39.467  34.359  30.422  1.00  0.00     0.008 C 
ENDBRANCH  19  27
ENDBRANCH  13  18
ENDBRANCH   9  12
ENDBRANCH   7   8
ENDBRANCH   6   7
ENDBRANCH   4   6
ENDBRANCH   3   4
ENDBRANCH   2   3
ENDBRANCH   1   2
BRANCH   1  30
ATOM     30  O   UNL A   1      45.894  22.926  26.666  1.00  0.00    -0.374 OA
BRANCH  30  31
ATOM     31  C   UNL A   1      46.488  24.211  26.415  1.00  0.00     0.202 C 
BRANCH  31  32
ATOM     32  C   UNL A   1      46.947  24.414  24.905  1.00  0.00     0.261 C 
BRANCH  32  33
ATOM     33  O   UNL A   1      48.140  25.271  24.707  1.00  0.00    -0.460 OA
BRANCH  33  34
ATOM     34  C   UNL A   1      47.960  26.504  24.116  1.00  0.00     0.338 C 
ATOM     35  O   UNL A   1      48.248  26.750  22.966  1.00  0.00    -0.246 OA
BRANCH  34  36
ATOM     36  C   UNL A   1      47.252  27.541  24.990  1.00  0.00     0.060 A 
ATOM     37  C   UNL A   1      48.001  28.236  25.957  1.00  0.00     0.016 A 
ATOM     38  C   UNL A   1      45.872  27.761  25.000  1.00  0.00     0.016 A 
ATOM     39  C   UNL A   1      47.415  29.117  26.902  1.00  0.00     0.010 A 
ATOM     40  C   UNL A   1      45.272  28.628  25.972  1.00  0.00     0.010 A 
ATOM     41  C   UNL A   1      46.030  29.307  26.953  1.00  0.00    -0.014 A 
BRANCH  41  42
ATOM     42  C   UNL A   1      45.404  30.021  28.138  1.00  0.00     0.031 A 
ATOM     43  C   UNL A   1      45.214  29.253  29.438  1.00  0.00     0.074 A 
ATOM     44  C   UNL A   1      45.051  31.328  28.161  1.00  0.00     0.049 A 
ATOM     45  N   UNL A   1      44.728  29.656  30.590  1.00  0.00    -0.248 NA
ATOM     46  C   UNL A   1      45.644  27.848  29.430  1.00  0.00     0.031 C 
ATOM     47  C   UNL A   1      45.216  32.280  27.068  1.00  0.00     0.029 A 
ATOM     48  N   UNL A   1      44.477  32.089  29.171  1.00  0.00    -0.354 N 
ATOM     49  C   UNL A   1      44.799  28.560  31.446  1.00  0.00     0.074 A 
ATOM     50  C   UNL A   1      45.358  27.470  30.668  1.00  0.00     0.031 C 
ATOM     51  C   UNL A   1      44.749  33.485  27.457  1.00  0.00     0.029 A 
ATOM     52  C   UNL A   1      44.224  33.401  28.824  1.00  0.00     0.049 A 
ATOM     53  H   UNL A   1      44.267  31.722  30.060  1.00  0.00     0.167 HD
ATOM     54  C   UNL A   1      44.441  28.443  32.751  1.00  0.00     0.031 A 
ATOM     55  C   UNL A   1      43.635  34.416  29.504  1.00  0.00     0.031 A 
ATOM     56  C   UNL A   1      43.841  29.472  33.561  1.00  0.00     0.049 A 
ATOM     57  C   UNL A   1      43.131  34.232  30.923  1.00  0.00     0.074 A 
ATOM     58  C   UNL A   1      43.435  29.392  34.886  1.00  0.00     0.029 A 
ATOM     59  N   UNL A   1      43.544  30.755  33.138  1.00  0.00    -0.354 N 
ATOM     60  N   UNL A   1      43.224  33.188  31.709  1.00  0.00    -0.248 NA
ATOM     61  C   UNL A   1      42.449  35.382  31.551  1.00  0.00     0.031 C 
ATOM     62  C   UNL A   1      42.843  30.608  35.246  1.00  0.00     0.029 A 
ATOM     63  C   UNL A   1      42.941  31.468  34.166  1.00  0.00     0.049 A 
ATOM     64  H   UNL A   1      43.734  31.111  32.241  1.00  0.00     0.167 HD
ATOM     65  C   UNL A   1      42.654  33.570  32.927  1.00  0.00     0.074 A 
ATOM     66  C   UNL A   1      42.225  34.941  32.781  1.00  0.00     0.031 C 
ATOM     67  C   UNL A   1      42.513  32.840  34.062  1.00  0.00     0.031 A 
BRANCH  54  68
ATOM     68  C   UNL A   1      44.653  27.096  33.391  1.00  0.00    -0.014 A 
ATOM     69  C   UNL A   1      43.654  26.107  33.349  1.00  0.00     0.010 A 
ATOM     70  C   UNL A   1      45.877  26.812  34.024  1.00  0.00     0.010 A 
ATOM     71  C   UNL A   1      43.856  24.875  33.976  1.00  0.00     0.020 A 
ATOM     72  C   UNL A   1      46.093  25.571  34.628  1.00  0.00     0.020 A 
ATOM     73  C   UNL A   1      45.071  24.619  34.620  1.00  0.00     0.054 A 
BRANCH  73  74
ATOM     74  S   UNL A   1      45.303  23.017  35.437  1.00  0.00     0.124 S 
ATOM     75  O   UNL A   1      45.256  23.391  36.848  1.00  0.00    -0.237 OA
ATOM     76  O   UNL A   1      44.164  22.241  34.953  1.00  0.00    -0.237 OA
ATOM     77  O   UNL A   1      46.607  22.568  34.955  1.00  0.00    -0.744 OA
ENDBRANCH  73  74
ENDBRANCH  54  68
BRANCH  55  78
ATOM     78  C   UNL A   1      43.439  35.752  28.854  1.00  0.00    -0.014 A 
ATOM     79  C   UNL A   1      44.312  36.824  29.129  1.00  0.00     0.010 A 
ATOM     80  C   UNL A   1      42.322  35.984  28.032  1.00  0.00     0.010 A 
ATOM     81  C   UNL A   1      44.059  38.101  28.609  1.00  0.00     0.020 A 
ATOM     82  C   UNL A   1      42.083  37.251  27.488  1.00  0.00     0.020 A 
ATOM     83  C   UNL A   1      42.947  38.305  27.790  1.00  0.00     0.054 A 
BRANCH  83  84
ATOM     84  S   UNL A   1      42.662  39.956  27.087  1.00  0.00     0.124 S 
ATOM     85  O   UNL A   1      42.885  40.823  28.240  1.00  0.00    -0.237 OA
ATOM     86  O   UNL A   1      43.674  40.028  26.036  1.00  0.00    -0.237 OA
ATOM     87  O   UNL A   1      41.283  39.890  26.609  1.00  0.00    -0.744 OA
ENDBRANCH  83  84
ENDBRANCH  55  78
BRANCH  67  88
ATOM     88  C   UNL A   1      41.927  33.509  35.286  1.00  0.00    -0.014 A 
ATOM     89  C   UNL A   1      42.688  34.362  36.108  1.00  0.00     0.010 A 
ATOM     90  C   UNL A   1      40.567  33.314  35.598  1.00  0.00     0.010 A 
ATOM     91  C   UNL A   1      42.114  34.969  37.234  1.00  0.00     0.020 A 
ATOM     92  C   UNL A   1      39.982  33.939  36.706  1.00  0.00     0.020 A 
ATOM     93  C   UNL A   1      40.766  34.749  37.530  1.00  0.00     0.054 A 
BRANCH  93  94
ATOM     94  S   UNL A   1      40.036  35.559  38.984  1.00  0.00     0.124 S 
ATOM     95  O   UNL A   1      38.727  34.920  39.064  1.00  0.00    -0.237 OA
ATOM     96  O   UNL A   1      40.971  35.212  40.051  1.00  0.00    -0.237 OA
ATOM     97  O   UNL A   1      40.017  36.974  38.619  1.00  0.00    -0.744 OA
ENDBRANCH  93  94
ENDBRANCH  67  88
ENDBRANCH  41  42
ENDBRANCH  34  36
ENDBRANCH  33  34
ENDBRANCH  32  33
ENDBRANCH  31  32
ENDBRANCH  30  31
ENDBRANCH   1  30
TORSDOF 22
ENDMDL
MODEL 3
REMARK VINA RESULT:      -8.7      3.347      7.696
REMARK SMILES CC(C)[C@H]1CC[C@@H](C)/C(=C/c2ccc(NC(=O)CCC(=O)OCCOCCOC(=O)c3ccc(-c4c5nc(c(-c6ccc(S(=O)(=O)[O-])cc6)c6ccc([nH]6)c(-c6ccc(S(=O)(=O)[O-])cc6)c6nc(c(-c7ccc(S(=O)(=O)[O-])cc7)c7ccc4[nH]7)C=C6)C=C5)cc3)cc2)C1=O
REMARK SMILES IDX 24 1 23 2 22 3 20 4 21 5 19 6 18 7 16 8 15 9 17 11 14 12
REMARK SMILES IDX 11 13 12 14 92 15 13 16 91 17 10 18 4 19 5 20 93 21 6 22
REMARK SMILES IDX 9 23 94 24 7 25 8 26 2 27 1 28 3 29 25 30 26 31 27 32 28 33
REMARK SMILES IDX 29 34 30 35 31 36 32 37 90 38 33 39 89 40 34 41 35 42 36 43
REMARK SMILES IDX 83 44 37 45 88 46 82 47 84 48 38 49 87 50 81 51 80 52 39 54
REMARK SMILES IDX 69 55 50 56 68 57 51 58 54 59 67 60 85 61 52 62 53 63 66 65
REMARK SMILES IDX 86 66 55 67 40 68 41 69 49 70 42 71 48 72 43 73 44 74 45 75
REMARK SMILES IDX 46 76 47 77 70 78 71 79 79 80 72 81 78 82 73 83 74 84 75 85
REMARK SMILES IDX 76 86 77 87 56 88 57 89 65 90 58 91 64 92 59 93 60 94 61 95
REMARK SMILES IDX 62 96 63 97
REMARK H PARENT 15 10 84 53 54 64
REMARK Flexibility Score: inf
ROOT
ATOM      1  C   UNL A   1      41.265  25.867  27.690  1.00  0.00     0.202 C 
ENDROOT
BRANCH   1   2
ATOM      2  C   UNL A   1      39.934  26.581  27.362  1.00  0.00     0.261 C 
BRANCH   2   3
ATOM      3  O   UNL A   1      39.956  27.984  27.649  1.00  0.00    -0.463 OA
BRANCH   3   4
ATOM      4  C   UNL A   1      39.503  28.387  28.850  1.00  0.00     0.306 C 
ATOM      5  O   UNL A   1      39.472  27.690  29.854  1.00  0.00    -0.252 OA
BRANCH   4   6
ATOM      6  C   UNL A   1      39.046  29.826  28.798  1.00  0.00     0.132 C 
BRANCH   6   7
ATOM      7  C   UNL A   1      37.712  30.063  28.075  1.00  0.00     0.112 C 
BRANCH   7   8
ATOM      8  C   UNL A   1      36.527  30.297  29.011  1.00  0.00     0.224 C 
ATOM      9  N   UNL A   1      35.190  30.164  28.737  1.00  0.00    -0.326 N 
ATOM     10  H   UNL A   1      34.640  30.281  29.547  1.00  0.00     0.169 HD
ATOM     11  O   UNL A   1      36.809  30.613  30.178  1.00  0.00    -0.275 OA
BRANCH   9  12
ATOM     12  C   UNL A   1      34.392  29.903  27.599  1.00  0.00     0.041 A 
ATOM     13  C   UNL A   1      32.740  29.281  25.315  1.00  0.00    -0.025 A 
ATOM     14  C   UNL A   1      33.903  28.608  25.583  1.00  0.00     0.010 A 
ATOM     15  C   UNL A   1      32.442  30.356  26.157  1.00  0.00     0.010 A 
ATOM     16  C   UNL A   1      34.644  28.873  26.739  1.00  0.00     0.027 A 
ATOM     17  C   UNL A   1      33.291  30.694  27.258  1.00  0.00     0.027 A 
BRANCH  13  18
ATOM     18  C   UNL A   1      31.849  28.629  24.338  1.00  0.00     0.015 C 
ATOM     19  C   UNL A   1      32.149  25.395  25.171  1.00  0.00     0.063 C 
ATOM     20  C   UNL A   1      31.430  24.763  23.943  1.00  0.00     0.013 C 
ATOM     21  C   UNL A   1      31.300  26.579  25.639  1.00  0.00     0.162 C 
ATOM     22  C   UNL A   1      30.883  25.770  22.903  1.00  0.00     0.009 C 
ATOM     23  C   UNL A   1      31.062  27.550  24.532  1.00  0.00    -0.001 C 
ATOM     24  O   UNL A   1      30.702  26.692  26.697  1.00  0.00    -0.294 OA
ATOM     25  C   UNL A   1      30.118  26.949  23.520  1.00  0.00     0.020 C 
ATOM     26  C   UNL A   1      28.763  26.494  24.100  1.00  0.00     0.013 C 
BRANCH  19  27
ATOM     27  C   UNL A   1      32.693  24.385  26.232  1.00  0.00    -0.007 C 
ATOM     28  C   UNL A   1      31.691  23.429  26.880  1.00  0.00     0.008 C 
ATOM     29  C   UNL A   1      33.889  23.551  25.760  1.00  0.00     0.008 C 
ENDBRANCH  19  27
ENDBRANCH  13  18
ENDBRANCH   9  12
ENDBRANCH   7   8
ENDBRANCH   6   7
ENDBRANCH   4   6
ENDBRANCH   3   4
ENDBRANCH   2   3
ENDBRANCH   1   2
BRANCH   1  30
ATOM     30  O   UNL A   1      42.278  25.940  26.673  1.00  0.00    -0.374 OA
BRANCH  30  31
ATOM     31  C   UNL A   1      43.327  26.913  26.815  1.00  0.00     0.202 C 
BRANCH  31  32
ATOM     32  C   UNL A   1      43.208  28.129  25.797  1.00  0.00     0.261 C 
BRANCH  32  33
ATOM     33  O   UNL A   1      42.795  29.424  26.389  1.00  0.00    -0.460 OA
BRANCH  33  34
ATOM     34  C   UNL A   1      43.783  30.268  26.852  1.00  0.00     0.338 C 
ATOM     35  O   UNL A   1      44.610  30.793  26.139  1.00  0.00    -0.246 OA
BRANCH  34  36
ATOM     36  C   UNL A   1      43.702  30.599  28.343  1.00  0.00     0.060 A 
ATOM     37  C   UNL A   1      43.242  29.611  29.231  1.00  0.00     0.016 A 
ATOM     38  C   UNL A   1      43.923  31.867  28.887  1.00  0.00     0.016 A 
ATOM     39  C   UNL A   1      43.005  29.859  30.608  1.00  0.00     0.010 A 
ATOM     40  C   UNL A   1      43.657  32.130  30.271  1.00  0.00     0.010 A 
ATOM     41  C   UNL A   1      43.175  31.136  31.153  1.00  0.00    -0.014 A 
BRANCH  41  42
ATOM     42  C   UNL A   1      42.650  31.445  32.544  1.00  0.00     0.031 A 
ATOM     43  C   UNL A   1      41.246  32.012  32.687  1.00  0.00     0.074 A 
ATOM     44  C   UNL A   1      43.312  31.193  33.699  1.00  0.00     0.049 A 
ATOM     45  N   UNL A   1      40.573  32.329  33.770  1.00  0.00    -0.248 NA
ATOM     46  C   UNL A   1      40.507  32.238  31.437  1.00  0.00     0.031 C 
ATOM     47  C   UNL A   1      44.629  30.577  33.816  1.00  0.00     0.029 A 
ATOM     48  N   UNL A   1      42.944  31.426  35.017  1.00  0.00    -0.354 N 
ATOM     49  C   UNL A   1      39.331  32.784  33.335  1.00  0.00     0.074 A 
ATOM     50  C   UNL A   1      39.357  32.719  31.886  1.00  0.00     0.031 C 
ATOM     51  C   UNL A   1      44.962  30.490  35.121  1.00  0.00     0.029 A 
ATOM     52  C   UNL A   1      43.897  31.065  35.949  1.00  0.00     0.049 A 
ATOM     53  H   UNL A   1      42.076  31.817  35.267  1.00  0.00     0.167 HD
ATOM     54  C   UNL A   1      38.259  33.220  34.047  1.00  0.00     0.031 A 
ATOM     55  C   UNL A   1      43.929  31.184  37.299  1.00  0.00     0.031 A 
ATOM     56  C   UNL A   1      38.188  33.349  35.480  1.00  0.00     0.049 A 
ATOM     57  C   UNL A   1      42.768  31.786  38.069  1.00  0.00     0.074 A 
ATOM     58  C   UNL A   1      37.130  33.813  36.248  1.00  0.00     0.029 A 
ATOM     59  N   UNL A   1      39.205  33.036  36.364  1.00  0.00    -0.354 N 
ATOM     60  N   UNL A   1      41.603  32.195  37.631  1.00  0.00    -0.248 NA
ATOM     61  C   UNL A   1      42.929  31.928  39.530  1.00  0.00     0.031 C 
ATOM     62  C   UNL A   1      37.525  33.832  37.589  1.00  0.00     0.029 A 
ATOM     63  C   UNL A   1      38.807  33.318  37.665  1.00  0.00     0.049 A 
ATOM     64  H   UNL A   1      40.081  32.668  36.109  1.00  0.00     0.167 HD
ATOM     65  C   UNL A   1      40.886  32.599  38.761  1.00  0.00     0.074 A 
ATOM     66  C   UNL A   1      41.740  32.381  39.904  1.00  0.00     0.031 C 
ATOM     67  C   UNL A   1      39.627  33.099  38.830  1.00  0.00     0.031 A 
BRANCH  54  68
ATOM     68  C   UNL A   1      37.051  33.647  33.254  1.00  0.00    -0.014 A 
ATOM     69  C   UNL A   1      36.897  34.977  32.826  1.00  0.00     0.010 A 
ATOM     70  C   UNL A   1      36.068  32.698  32.918  1.00  0.00     0.010 A 
ATOM     71  C   UNL A   1      35.755  35.363  32.120  1.00  0.00     0.020 A 
ATOM     72  C   UNL A   1      34.938  33.073  32.189  1.00  0.00     0.020 A 
ATOM     73  C   UNL A   1      34.778  34.409  31.815  1.00  0.00     0.054 A 
BRANCH  73  74
ATOM     74  S   UNL A   1      33.299  34.938  30.909  1.00  0.00     0.124 S 
ATOM     75  O   UNL A   1      33.188  33.902  29.885  1.00  0.00    -0.237 OA
ATOM     76  O   UNL A   1      32.265  34.917  31.940  1.00  0.00    -0.237 OA
ATOM     77  O   UNL A   1      33.653  36.266  30.414  1.00  0.00    -0.744 OA
ENDBRANCH  73  74
ENDBRANCH  54  68
BRANCH  55  78
ATOM     78  C   UNL A   1      45.135  30.747  38.072  1.00  0.00    -0.014 A 
ATOM     79  C   UNL A   1      45.227  29.439  38.591  1.00  0.00     0.010 A 
ATOM     80  C   UNL A   1      46.156  31.667  38.374  1.00  0.00     0.010 A 
ATOM     81  C   UNL A   1      46.303  29.070  39.409  1.00  0.00     0.020 A 
ATOM     82  C   UNL A   1      47.247  31.292  39.167  1.00  0.00     0.020 A 
ATOM     83  C   UNL A   1      47.308  29.999  39.689  1.00  0.00     0.054 A 
BRANCH  83  84
ATOM     84  S   UNL A   1      48.719  29.487  40.712  1.00  0.00     0.124 S 
ATOM     85  O   UNL A   1      48.061  28.825  41.834  1.00  0.00    -0.237 OA
ATOM     86  O   UNL A   1      49.462  28.612  39.808  1.00  0.00    -0.237 OA
ATOM     87  O   UNL A   1      49.385  30.749  41.030  1.00  0.00    -0.744 OA
ENDBRANCH  83  84
ENDBRANCH  55  78
BRANCH  67  88
ATOM     88  C   UNL A   1      39.038  33.393  40.193  1.00  0.00    -0.014 A 
ATOM     89  C   UNL A   1      39.171  34.651  40.810  1.00  0.00     0.010 A 
ATOM     90  C   UNL A   1      38.294  32.396  40.855  1.00  0.00     0.010 A 
ATOM     91  C   UNL A   1      38.611  34.892  42.072  1.00  0.00     0.020 A 
ATOM     92  C   UNL A   1      37.710  32.640  42.104  1.00  0.00     0.020 A 
ATOM     93  C   UNL A   1      37.889  33.882  42.716  1.00  0.00     0.054 A 
BRANCH  93  94
ATOM     94  S   UNL A   1      37.155  34.220  44.343  1.00  0.00     0.124 S 
ATOM     95  O   UNL A   1      38.023  35.275  44.856  1.00  0.00    -0.237 OA
ATOM     96  O   UNL A   1      35.795  34.634  44.005  1.00  0.00    -0.237 OA
ATOM     97  O   UNL A   1      37.252  32.939  45.040  1.00  0.00    -0.744 OA
ENDBRANCH  93  94
ENDBRANCH  67  88
ENDBRANCH  41  42
ENDBRANCH  34  36
ENDBRANCH  33  34
ENDBRANCH  32  33
ENDBRANCH  31  32
ENDBRANCH  30  31
ENDBRANCH   1  30
TORSDOF 22
ENDMDL
