MODEL 1
REMARK VINA RESULT:     -10.9      0.000      0.000
REMARK SMILES O=C(CN1C(=O)S/C(=C\c2cccc(F)c2)C1=O)NCC(=O)OCCOCCOC(=O)c1ccc(-c2c3nc(c(-c4ccc(S(=O)(=O)[O-])cc4)c4ccc([nH]4)c(-c4ccc(S(=O)(=O)[O-])cc4)c4nc(c(-c5ccc(S(=O)(=O)[O-])cc5)c5ccc2[nH]5)C=C4)C=C3)cc1
REMARK SMILES IDX 25 1 24 2 23 3 21 4 22 5 20 6 19 7 1 8 2 9 3 11 4 12 5 13
REMARK SMILES IDX 17 14 6 15 7 16 8 17 18 18 9 19 10 20 11 21 16 22 12 23
REMARK SMILES IDX 14 24 13 25 15 26 26 27 27 28 28 29 29 30 30 31 31 32 32 33
REMARK SMILES IDX 33 34 91 35 34 36 90 37 35 38 36 39 37 40 84 41 38 42 89 43
REMARK SMILES IDX 83 44 85 45 39 46 88 47 82 48 81 49 40 51 70 52 51 53 69 54
REMARK SMILES IDX 52 55 55 56 68 57 86 58 53 59 54 60 67 62 87 63 56 64 41 65
REMARK SMILES IDX 42 66 50 67 43 68 49 69 44 70 45 71 46 72 47 73 48 74 71 75
REMARK SMILES IDX 72 76 80 77 73 78 79 79 74 80 75 81 76 82 77 83 78 84 57 85
REMARK SMILES IDX 58 86 66 87 59 88 65 89 60 90 61 91 62 92 63 93 64 94
REMARK H PARENT 19 10 85 50 55 61
REMARK Flexibility Score: inf
ROOT
ATOM      1  C   UNL A   1      46.360  23.293  24.835  1.00  0.00     0.202 C 
ENDROOT
BRANCH   1   2
ATOM      2  C   UNL A   1      46.023  21.949  25.488  1.00  0.00     0.261 C 
BRANCH   2   3
ATOM      3  O   UNL A   1      46.443  20.840  24.675  1.00  0.00    -0.462 OA
BRANCH   3   4
ATOM      4  C   UNL A   1      46.054  19.612  25.118  1.00  0.00     0.325 C 
ATOM      5  O   UNL A   1      46.756  18.840  25.763  1.00  0.00    -0.250 OA
BRANCH   4   6
ATOM      6  C   UNL A   1      44.586  19.314  24.818  1.00  0.00     0.238 C 
BRANCH   6   7
ATOM      7  N   UNL A   1      43.621  19.495  25.895  1.00  0.00    -0.344 N 
ATOM      8  O   UNL A   1      42.798  21.486  25.125  1.00  0.00    -0.273 OA
ATOM      9  C   UNL A   1      42.780  20.585  25.956  1.00  0.00     0.240 C 
ATOM     10  H   UNL A   1      43.567  18.814  26.604  1.00  0.00     0.164 HD
BRANCH   9  11
ATOM     11  C   UNL A   1      41.727  20.508  27.062  1.00  0.00     0.229 C 
BRANCH  11  12
ATOM     12  N   UNL A   1      40.424  20.833  26.502  1.00  0.00    -0.259 N 
ATOM     13  C   UNL A   1      39.713  19.887  25.816  1.00  0.00     0.294 C 
ATOM     14  C   UNL A   1      39.845  22.071  26.642  1.00  0.00     0.268 C 
ATOM     15  O   UNL A   1      40.069  18.746  25.571  1.00  0.00    -0.261 OA
ATOM     16  S   UNL A   1      38.179  20.544  25.289  1.00  0.00    -0.022 SA
ATOM     17  C   UNL A   1      38.489  22.072  26.019  1.00  0.00     0.083 C 
ATOM     18  O   UNL A   1      40.323  23.036  27.220  1.00  0.00    -0.268 OA
ATOM     19  C   UNL A   1      37.676  23.138  26.073  1.00  0.00     0.029 C 
BRANCH  19  20
ATOM     20  C   UNL A   1      36.311  23.220  25.530  1.00  0.00    -0.021 A 
ATOM     21  C   UNL A   1      35.194  23.310  26.375  1.00  0.00     0.008 A 
ATOM     22  C   UNL A   1      36.118  23.247  24.146  1.00  0.00     0.047 A 
ATOM     23  C   UNL A   1      33.902  23.384  25.846  1.00  0.00     0.004 A 
ATOM     24  C   UNL A   1      34.826  23.325  23.629  1.00  0.00     0.123 A 
ATOM     25  C   UNL A   1      33.718  23.387  24.466  1.00  0.00     0.039 A 
ATOM     26  F   UNL A   1      34.648  23.339  22.301  1.00  0.00    -0.207 F 
ENDBRANCH  19  20
ENDBRANCH  11  12
ENDBRANCH   9  11
ENDBRANCH   6   7
ENDBRANCH   4   6
ENDBRANCH   3   4
ENDBRANCH   2   3
ENDBRANCH   1   2
BRANCH   1  27
ATOM     27  O   UNL A   1      45.283  24.031  24.261  1.00  0.00    -0.374 OA
BRANCH  27  28
ATOM     28  C   UNL A   1      44.621  25.002  25.068  1.00  0.00     0.202 C 
BRANCH  28  29
ATOM     29  C   UNL A   1      43.119  24.826  25.333  1.00  0.00     0.261 C 
BRANCH  29  30
ATOM     30  O   UNL A   1      42.341  26.004  25.051  1.00  0.00    -0.460 OA
BRANCH  30  31
ATOM     31  C   UNL A   1      41.145  26.040  25.693  1.00  0.00     0.338 C 
ATOM     32  O   UNL A   1      40.118  25.470  25.364  1.00  0.00    -0.246 OA
BRANCH  31  33
ATOM     33  C   UNL A   1      41.267  26.729  26.992  1.00  0.00     0.060 A 
ATOM     34  C   UNL A   1      40.354  26.375  27.994  1.00  0.00     0.016 A 
ATOM     35  C   UNL A   1      42.162  27.781  27.184  1.00  0.00     0.016 A 
ATOM     36  C   UNL A   1      40.296  27.110  29.174  1.00  0.00     0.010 A 
ATOM     37  C   UNL A   1      42.100  28.519  28.373  1.00  0.00     0.010 A 
ATOM     38  C   UNL A   1      41.140  28.214  29.356  1.00  0.00    -0.014 A 
BRANCH  38  39
ATOM     39  C   UNL A   1      40.918  29.115  30.515  1.00  0.00     0.031 A 
ATOM     40  C   UNL A   1      41.812  29.001  31.723  1.00  0.00     0.074 A 
ATOM     41  C   UNL A   1      39.961  30.060  30.473  1.00  0.00     0.049 A 
ATOM     42  N   UNL A   1      41.792  29.688  32.836  1.00  0.00    -0.248 NA
ATOM     43  C   UNL A   1      42.869  27.977  31.668  1.00  0.00     0.031 C 
ATOM     44  C   UNL A   1      39.061  30.301  29.345  1.00  0.00     0.029 A 
ATOM     45  N   UNL A   1      39.589  30.997  31.405  1.00  0.00    -0.354 N 
ATOM     46  C   UNL A   1      42.820  29.175  33.619  1.00  0.00     0.074 A 
ATOM     47  C   UNL A   1      43.424  28.096  32.866  1.00  0.00     0.031 C 
ATOM     48  C   UNL A   1      38.243  31.323  29.650  1.00  0.00     0.029 A 
ATOM     49  C   UNL A   1      38.535  31.782  31.006  1.00  0.00     0.049 A 
ATOM     50  H   UNL A   1      40.037  31.097  32.276  1.00  0.00     0.167 HD
ATOM     51  C   UNL A   1      43.231  29.570  34.848  1.00  0.00     0.031 A 
ATOM     52  C   UNL A   1      37.866  32.750  31.665  1.00  0.00     0.031 A 
ATOM     53  C   UNL A   1      42.621  30.638  35.598  1.00  0.00     0.049 A 
ATOM     54  C   UNL A   1      38.295  33.122  33.060  1.00  0.00     0.074 A 
ATOM     55  C   UNL A   1      42.975  31.125  36.845  1.00  0.00     0.029 A 
ATOM     56  N   UNL A   1      41.527  31.380  35.178  1.00  0.00    -0.354 N 
ATOM     57  N   UNL A   1      39.285  32.643  33.775  1.00  0.00    -0.248 NA
ATOM     58  C   UNL A   1      37.525  34.179  33.729  1.00  0.00     0.031 C 
ATOM     59  C   UNL A   1      42.054  32.113  37.207  1.00  0.00     0.029 A 
ATOM     60  C   UNL A   1      41.173  32.298  36.154  1.00  0.00     0.049 A 
ATOM     61  H   UNL A   1      41.069  31.270  34.313  1.00  0.00     0.167 HD
ATOM     62  C   UNL A   1      39.274  33.362  34.967  1.00  0.00     0.074 A 
ATOM     63  C   UNL A   1      38.193  34.320  34.866  1.00  0.00     0.031 C 
ATOM     64  C   UNL A   1      40.089  33.242  36.046  1.00  0.00     0.031 A 
BRANCH  51  65
ATOM     65  C   UNL A   1      44.374  28.816  35.480  1.00  0.00    -0.014 A 
ATOM     66  C   UNL A   1      44.163  27.621  36.193  1.00  0.00     0.010 A 
ATOM     67  C   UNL A   1      45.690  29.291  35.323  1.00  0.00     0.010 A 
ATOM     68  C   UNL A   1      45.239  26.938  36.767  1.00  0.00     0.020 A 
ATOM     69  C   UNL A   1      46.772  28.595  35.869  1.00  0.00     0.020 A 
ATOM     70  C   UNL A   1      46.537  27.431  36.602  1.00  0.00     0.054 A 
BRANCH  70  71
ATOM     71  S   UNL A   1      47.917  26.513  37.342  1.00  0.00     0.124 S 
ATOM     72  O   UNL A   1      48.018  27.133  38.661  1.00  0.00    -0.237 OA
ATOM     73  O   UNL A   1      47.425  25.137  37.331  1.00  0.00    -0.237 OA
ATOM     74  O   UNL A   1      49.035  26.779  36.442  1.00  0.00    -0.744 OA
ENDBRANCH  70  71
ENDBRANCH  51  65
BRANCH  52  75
ATOM     75  C   UNL A   1      36.707  33.425  31.017  1.00  0.00    -0.014 A 
ATOM     76  C   UNL A   1      36.832  34.012  29.747  1.00  0.00     0.010 A 
ATOM     77  C   UNL A   1      35.465  33.483  31.676  1.00  0.00     0.010 A 
ATOM     78  C   UNL A   1      35.744  34.661  29.155  1.00  0.00     0.020 A 
ATOM     79  C   UNL A   1      34.365  34.100  31.074  1.00  0.00     0.020 A 
ATOM     80  C   UNL A   1      34.515  34.696  29.821  1.00  0.00     0.054 A 
BRANCH  80  81
ATOM     81  S   UNL A   1      33.104  35.496  29.011  1.00  0.00     0.124 S 
ATOM     82  O   UNL A   1      32.311  35.941  30.152  1.00  0.00    -0.237 OA
ATOM     83  O   UNL A   1      33.746  36.554  28.235  1.00  0.00    -0.237 OA
ATOM     84  O   UNL A   1      32.511  34.423  28.216  1.00  0.00    -0.744 OA
ENDBRANCH  80  81
ENDBRANCH  52  75
BRANCH  64  85
ATOM     85  C   UNL A   1      39.871  34.202  37.190  1.00  0.00    -0.014 A 
ATOM     86  C   UNL A   1      39.014  33.891  38.260  1.00  0.00     0.010 A 
ATOM     87  C   UNL A   1      40.564  35.426  37.207  1.00  0.00     0.010 A 
ATOM     88  C   UNL A   1      38.816  34.806  39.299  1.00  0.00     0.020 A 
ATOM     89  C   UNL A   1      40.399  36.329  38.261  1.00  0.00     0.020 A 
ATOM     90  C   UNL A   1      39.508  36.020  39.291  1.00  0.00     0.054 A 
BRANCH  90  91
ATOM     91  S   UNL A   1      39.251  37.182  40.660  1.00  0.00     0.124 S 
ATOM     92  O   UNL A   1      40.573  37.786  40.798  1.00  0.00    -0.237 OA
ATOM     93  O   UNL A   1      38.209  38.064  40.139  1.00  0.00    -0.237 OA
ATOM     94  O   UNL A   1      38.837  36.326  41.769  1.00  0.00    -0.744 OA
ENDBRANCH  90  91
ENDBRANCH  64  85
ENDBRANCH  38  39
ENDBRANCH  31  33
ENDBRANCH  30  31
ENDBRANCH  29  30
ENDBRANCH  28  29
ENDBRANCH  27  28
ENDBRANCH   1  27
TORSDOF 21
ENDMDL
MODEL 2
REMARK VINA RESULT:     -10.6      2.980      4.967
REMARK SMILES O=C(CN1C(=O)S/C(=C\c2cccc(F)c2)C1=O)NCC(=O)OCCOCCOC(=O)c1ccc(-c2c3nc(c(-c4ccc(S(=O)(=O)[O-])cc4)c4ccc([nH]4)c(-c4ccc(S(=O)(=O)[O-])cc4)c4nc(c(-c5ccc(S(=O)(=O)[O-])cc5)c5ccc2[nH]5)C=C4)C=C3)cc1
REMARK SMILES IDX 25 1 24 2 23 3 21 4 22 5 20 6 19 7 1 8 2 9 3 11 4 12 5 13
REMARK SMILES IDX 17 14 6 15 7 16 8 17 18 18 9 19 10 20 11 21 16 22 12 23
REMARK SMILES IDX 14 24 13 25 15 26 26 27 27 28 28 29 29 30 30 31 31 32 32 33
REMARK SMILES IDX 33 34 91 35 34 36 90 37 35 38 36 39 37 40 84 41 38 42 89 43
REMARK SMILES IDX 83 44 85 45 39 46 88 47 82 48 81 49 40 51 70 52 51 53 69 54
REMARK SMILES IDX 52 55 55 56 68 57 86 58 53 59 54 60 67 62 87 63 56 64 41 65
REMARK SMILES IDX 42 66 50 67 43 68 49 69 44 70 45 71 46 72 47 73 48 74 71 75
REMARK SMILES IDX 72 76 80 77 73 78 79 79 74 80 75 81 76 82 77 83 78 84 57 85
REMARK SMILES IDX 58 86 66 87 59 88 65 89 60 90 61 91 62 92 63 93 64 94
REMARK H PARENT 19 10 85 50 55 61
REMARK Flexibility Score: inf
ROOT
ATOM      1  C   UNL A   1      37.749  23.380  25.803  1.00  0.00     0.202 C 
ENDROOT
BRANCH   1   2
ATOM      2  C   UNL A   1      37.388  22.114  25.018  1.00  0.00     0.261 C 
BRANCH   2   3
ATOM      3  O   UNL A   1      36.698  21.156  25.837  1.00  0.00    -0.462 OA
BRANCH   3   4
ATOM      4  C   UNL A   1      35.355  21.352  25.959  1.00  0.00     0.325 C 
ATOM      5  O   UNL A   1      34.817  22.017  26.838  1.00  0.00    -0.250 OA
BRANCH   4   6
ATOM      6  C   UNL A   1      34.562  20.737  24.808  1.00  0.00     0.238 C 
BRANCH   6   7
ATOM      7  N   UNL A   1      33.681  21.610  24.044  1.00  0.00    -0.344 N 
ATOM      8  O   UNL A   1      31.759  20.982  25.116  1.00  0.00    -0.273 OA
ATOM      9  C   UNL A   1      32.323  21.670  24.272  1.00  0.00     0.240 C 
ATOM     10  H   UNL A   1      34.069  22.178  23.339  1.00  0.00     0.164 HD
BRANCH   9  11
ATOM     11  C   UNL A   1      31.600  22.767  23.489  1.00  0.00     0.229 C 
BRANCH  11  12
ATOM     12  N   UNL A   1      32.071  24.066  23.943  1.00  0.00    -0.259 N 
ATOM     13  C   UNL A   1      32.895  24.817  23.150  1.00  0.00     0.294 C 
ATOM     14  C   UNL A   1      31.711  24.602  25.155  1.00  0.00     0.268 C 
ATOM     15  O   UNL A   1      33.339  24.501  22.058  1.00  0.00    -0.261 OA
ATOM     16  S   UNL A   1      33.273  26.335  23.933  1.00  0.00    -0.022 SA
ATOM     17  C   UNL A   1      32.299  25.967  25.304  1.00  0.00     0.083 C 
ATOM     18  O   UNL A   1      30.986  24.086  25.992  1.00  0.00    -0.268 OA
ATOM     19  C   UNL A   1      32.049  26.744  26.368  1.00  0.00     0.029 C 
BRANCH  19  20
ATOM     20  C   UNL A   1      32.543  28.112  26.582  1.00  0.00    -0.021 A 
ATOM     21  C   UNL A   1      31.783  29.231  26.206  1.00  0.00     0.008 A 
ATOM     22  C   UNL A   1      33.778  28.312  27.206  1.00  0.00     0.047 A 
ATOM     23  C   UNL A   1      32.267  30.526  26.413  1.00  0.00     0.004 A 
ATOM     24  C   UNL A   1      34.249  29.607  27.410  1.00  0.00     0.123 A 
ATOM     25  C   UNL A   1      33.509  30.714  27.013  1.00  0.00     0.039 A 
ATOM     26  F   UNL A   1      35.439  29.790  27.999  1.00  0.00    -0.207 F 
ENDBRANCH  19  20
ENDBRANCH  11  12
ENDBRANCH   9  11
ENDBRANCH   6   7
ENDBRANCH   4   6
ENDBRANCH   3   4
ENDBRANCH   2   3
ENDBRANCH   1   2
BRANCH   1  27
ATOM     27  O   UNL A   1      38.842  23.295  26.715  1.00  0.00    -0.374 OA
BRANCH  27  28
ATOM     28  C   UNL A   1      39.818  22.277  26.510  1.00  0.00     0.202 C 
BRANCH  28  29
ATOM     29  C   UNL A   1      41.271  22.704  26.253  1.00  0.00     0.261 C 
BRANCH  29  30
ATOM     30  O   UNL A   1      41.445  24.130  26.166  1.00  0.00    -0.460 OA
BRANCH  30  31
ATOM     31  C   UNL A   1      42.421  24.616  26.976  1.00  0.00     0.338 C 
ATOM     32  O   UNL A   1      43.606  24.325  26.955  1.00  0.00    -0.246 OA
BRANCH  31  33
ATOM     33  C   UNL A   1      41.911  25.720  27.810  1.00  0.00     0.060 A 
ATOM     34  C   UNL A   1      42.729  26.848  27.954  1.00  0.00     0.016 A 
ATOM     35  C   UNL A   1      40.725  25.605  28.536  1.00  0.00     0.016 A 
ATOM     36  C   UNL A   1      42.391  27.843  28.867  1.00  0.00     0.010 A 
ATOM     37  C   UNL A   1      40.389  26.607  29.455  1.00  0.00     0.010 A 
ATOM     38  C   UNL A   1      41.241  27.710  29.655  1.00  0.00    -0.014 A 
BRANCH  38  39
ATOM     39  C   UNL A   1      41.011  28.662  30.772  1.00  0.00     0.031 A 
ATOM     40  C   UNL A   1      41.890  28.595  31.994  1.00  0.00     0.074 A 
ATOM     41  C   UNL A   1      40.060  29.609  30.676  1.00  0.00     0.049 A 
ATOM     42  N   UNL A   1      41.860  29.330  33.075  1.00  0.00    -0.248 NA
ATOM     43  C   UNL A   1      42.940  27.564  31.997  1.00  0.00     0.031 C 
ATOM     44  C   UNL A   1      39.176  29.807  29.528  1.00  0.00     0.029 A 
ATOM     45  N   UNL A   1      39.684  30.588  31.562  1.00  0.00    -0.354 N 
ATOM     46  C   UNL A   1      42.876  28.846  33.893  1.00  0.00     0.074 A 
ATOM     47  C   UNL A   1      43.482  27.731  33.195  1.00  0.00     0.031 C 
ATOM     48  C   UNL A   1      38.361  30.846  29.778  1.00  0.00     0.029 A 
ATOM     49  C   UNL A   1      38.639  31.361  31.117  1.00  0.00     0.049 A 
ATOM     50  H   UNL A   1      40.121  30.724  32.434  1.00  0.00     0.167 HD
ATOM     51  C   UNL A   1      43.274  29.291  35.109  1.00  0.00     0.031 A 
ATOM     52  C   UNL A   1      37.968  32.361  31.724  1.00  0.00     0.031 A 
ATOM     53  C   UNL A   1      42.662  30.395  35.804  1.00  0.00     0.049 A 
ATOM     54  C   UNL A   1      38.384  32.792  33.107  1.00  0.00     0.074 A 
ATOM     55  C   UNL A   1      43.005  30.933  37.033  1.00  0.00     0.029 A 
ATOM     56  N   UNL A   1      41.578  31.123  35.338  1.00  0.00    -0.354 N 
ATOM     57  N   UNL A   1      39.361  32.337  33.855  1.00  0.00    -0.248 NA
ATOM     58  C   UNL A   1      37.612  33.881  33.720  1.00  0.00     0.031 C 
ATOM     59  C   UNL A   1      42.085  31.941  37.340  1.00  0.00     0.029 A 
ATOM     60  C   UNL A   1      41.218  32.085  36.269  1.00  0.00     0.049 A 
ATOM     61  H   UNL A   1      41.129  30.979  34.474  1.00  0.00     0.167 HD
ATOM     62  C   UNL A   1      39.341  33.108  35.014  1.00  0.00     0.074 A 
ATOM     63  C   UNL A   1      38.267  34.067  34.858  1.00  0.00     0.031 C 
ATOM     64  C   UNL A   1      40.142  33.031  36.107  1.00  0.00     0.031 A 
BRANCH  51  65
ATOM     65  C   UNL A   1      44.405  28.559  35.787  1.00  0.00    -0.014 A 
ATOM     66  C   UNL A   1      44.166  27.470  36.646  1.00  0.00     0.010 A 
ATOM     67  C   UNL A   1      45.735  28.942  35.528  1.00  0.00     0.010 A 
ATOM     68  C   UNL A   1      45.231  26.804  37.261  1.00  0.00     0.020 A 
ATOM     69  C   UNL A   1      46.803  28.259  36.116  1.00  0.00     0.020 A 
ATOM     70  C   UNL A   1      46.543  27.205  36.992  1.00  0.00     0.054 A 
BRANCH  70  71
ATOM     71  S   UNL A   1      47.906  26.310  37.789  1.00  0.00     0.124 S 
ATOM     72  O   UNL A   1      47.632  24.930  37.393  1.00  0.00    -0.237 OA
ATOM     73  O   UNL A   1      49.085  26.917  37.177  1.00  0.00    -0.237 OA
ATOM     74  O   UNL A   1      47.727  26.596  39.210  1.00  0.00    -0.744 OA
ENDBRANCH  70  71
ENDBRANCH  51  65
BRANCH  52  75
ATOM     75  C   UNL A   1      36.822  33.014  31.034  1.00  0.00    -0.014 A 
ATOM     76  C   UNL A   1      37.034  33.901  29.964  1.00  0.00     0.010 A 
ATOM     77  C   UNL A   1      35.503  32.749  31.449  1.00  0.00     0.010 A 
ATOM     78  C   UNL A   1      35.953  34.524  29.335  1.00  0.00     0.020 A 
ATOM     79  C   UNL A   1      34.417  33.343  30.800  1.00  0.00     0.020 A 
ATOM     80  C   UNL A   1      34.650  34.237  29.754  1.00  0.00     0.054 A 
BRANCH  80  81
ATOM     81  S   UNL A   1      33.261  35.017  28.887  1.00  0.00     0.124 S 
ATOM     82  O   UNL A   1      32.820  33.948  27.997  1.00  0.00    -0.237 OA
ATOM     83  O   UNL A   1      32.352  35.344  29.983  1.00  0.00    -0.237 OA
ATOM     84  O   UNL A   1      33.871  36.169  28.228  1.00  0.00    -0.744 OA
ENDBRANCH  80  81
ENDBRANCH  52  75
BRANCH  64  85
ATOM     85  C   UNL A   1      39.916  34.040  37.206  1.00  0.00    -0.014 A 
ATOM     86  C   UNL A   1      39.013  33.798  38.256  1.00  0.00     0.010 A 
ATOM     87  C   UNL A   1      40.648  35.242  37.201  1.00  0.00     0.010 A 
ATOM     88  C   UNL A   1      38.811  34.758  39.252  1.00  0.00     0.020 A 
ATOM     89  C   UNL A   1      40.476  36.190  38.213  1.00  0.00     0.020 A 
ATOM     90  C   UNL A   1      39.541  35.950  39.222  1.00  0.00     0.054 A 
BRANCH  90  91
ATOM     91  S   UNL A   1      39.275  37.171  40.536  1.00  0.00     0.124 S 
ATOM     92  O   UNL A   1      38.222  38.006  39.965  1.00  0.00    -0.237 OA
ATOM     93  O   UNL A   1      38.874  36.340  41.669  1.00  0.00    -0.237 OA
ATOM     94  O   UNL A   1      40.576  37.819  40.677  1.00  0.00    -0.744 OA
ENDBRANCH  90  91
ENDBRANCH  64  85
ENDBRANCH  38  39
ENDBRANCH  31  33
ENDBRANCH  30  31
ENDBRANCH  29  30
ENDBRANCH  28  29
ENDBRANCH  27  28
ENDBRANCH   1  27
TORSDOF 21
ENDMDL
MODEL 3
REMARK VINA RESULT:     -10.2      3.445      5.675
REMARK SMILES O=C(CN1C(=O)S/C(=C\c2cccc(F)c2)C1=O)NCC(=O)OCCOCCOC(=O)c1ccc(-c2c3nc(c(-c4ccc(S(=O)(=O)[O-])cc4)c4ccc([nH]4)c(-c4ccc(S(=O)(=O)[O-])cc4)c4nc(c(-c5ccc(S(=O)(=O)[O-])cc5)c5ccc2[nH]5)C=C4)C=C3)cc1
REMARK SMILES IDX 25 1 24 2 23 3 21 4 22 5 20 6 19 7 1 8 2 9 3 11 4 12 5 13
REMARK SMILES IDX 17 14 6 15 7 16 8 17 18 18 9 19 10 20 11 21 16 22 12 23
REMARK SMILES IDX 14 24 13 25 15 26 26 27 27 28 28 29 29 30 30 31 31 32 32 33
REMARK SMILES IDX 33 34 91 35 34 36 90 37 35 38 36 39 37 40 84 41 38 42 89 43
REMARK SMILES IDX 83 44 85 45 39 46 88 47 82 48 81 49 40 51 70 52 51 53 69 54
REMARK SMILES IDX 52 55 55 56 68 57 86 58 53 59 54 60 67 62 87 63 56 64 41 65
REMARK SMILES IDX 42 66 50 67 43 68 49 69 44 70 45 71 46 72 47 73 48 74 71 75
REMARK SMILES IDX 72 76 80 77 73 78 79 79 74 80 75 81 76 82 77 83 78 84 57 85
REMARK SMILES IDX 58 86 66 87 59 88 65 89 60 90 61 91 62 92 63 93 64 94
REMARK H PARENT 19 10 85 50 55 61
REMARK Flexibility Score: inf
ROOT
ATOM      1  C   UNL A   1      37.861  21.902  25.352  1.00  0.00     0.202 C 
ENDROOT
BRANCH   1   2
ATOM      2  C   UNL A   1      36.549  21.359  24.776  1.00  0.00     0.261 C 
BRANCH   2   3
ATOM      3  O   UNL A   1      35.623  22.415  24.470  1.00  0.00    -0.462 OA
BRANCH   3   4
ATOM      4  C   UNL A   1      34.366  22.252  24.969  1.00  0.00     0.325 C 
ATOM      5  O   UNL A   1      34.064  22.324  26.156  1.00  0.00    -0.250 OA
BRANCH   4   6
ATOM      6  C   UNL A   1      33.315  22.069  23.876  1.00  0.00     0.238 C 
BRANCH   6   7
ATOM      7  N   UNL A   1      32.439  23.194  23.576  1.00  0.00    -0.344 N 
ATOM      8  O   UNL A   1      30.861  22.675  25.150  1.00  0.00    -0.273 OA
ATOM      9  C   UNL A   1      31.263  23.416  24.259  1.00  0.00     0.240 C 
ATOM     10  H   UNL A   1      32.697  23.819  22.860  1.00  0.00     0.164 HD
BRANCH   9  11
ATOM     11  C   UNL A   1      30.574  24.738  23.918  1.00  0.00     0.229 C 
BRANCH  11  12
ATOM     12  N   UNL A   1      31.123  25.792  24.755  1.00  0.00    -0.259 N 
ATOM     13  C   UNL A   1      30.555  26.077  25.966  1.00  0.00     0.294 C 
ATOM     14  C   UNL A   1      32.224  26.529  24.392  1.00  0.00     0.268 C 
ATOM     15  O   UNL A   1      29.565  25.550  26.447  1.00  0.00    -0.261 OA
ATOM     16  S   UNL A   1      31.437  27.360  26.764  1.00  0.00    -0.022 SA
ATOM     17  C   UNL A   1      32.581  27.483  25.483  1.00  0.00     0.083 C 
ATOM     18  O   UNL A   1      32.864  26.418  23.357  1.00  0.00    -0.268 OA
ATOM     19  C   UNL A   1      33.660  28.278  25.417  1.00  0.00     0.029 C 
BRANCH  19  20
ATOM     20  C   UNL A   1      34.116  29.214  26.456  1.00  0.00    -0.021 A 
ATOM     21  C   UNL A   1      35.222  28.920  27.268  1.00  0.00     0.008 A 
ATOM     22  C   UNL A   1      33.464  30.440  26.617  1.00  0.00     0.047 A 
ATOM     23  C   UNL A   1      35.644  29.817  28.254  1.00  0.00     0.004 A 
ATOM     24  C   UNL A   1      33.895  31.328  27.600  1.00  0.00     0.123 A 
ATOM     25  C   UNL A   1      34.973  31.025  28.423  1.00  0.00     0.039 A 
ATOM     26  F   UNL A   1      33.258  32.497  27.756  1.00  0.00    -0.207 F 
ENDBRANCH  19  20
ENDBRANCH  11  12
ENDBRANCH   9  11
ENDBRANCH   6   7
ENDBRANCH   4   6
ENDBRANCH   3   4
ENDBRANCH   2   3
ENDBRANCH   1   2
BRANCH   1  27
ATOM     27  O   UNL A   1      37.789  23.091  26.137  1.00  0.00    -0.374 OA
BRANCH  27  28
ATOM     28  C   UNL A   1      38.957  23.901  26.247  1.00  0.00     0.202 C 
BRANCH  28  29
ATOM     29  C   UNL A   1      39.788  23.806  27.535  1.00  0.00     0.261 C 
BRANCH  29  30
ATOM     30  O   UNL A   1      40.944  24.663  27.540  1.00  0.00    -0.460 OA
BRANCH  30  31
ATOM     31  C   UNL A   1      40.714  25.901  27.029  1.00  0.00     0.338 C 
ATOM     32  O   UNL A   1      40.633  26.205  25.850  1.00  0.00    -0.246 OA
BRANCH  31  33
ATOM     33  C   UNL A   1      40.377  26.857  28.100  1.00  0.00     0.060 A 
ATOM     34  C   UNL A   1      41.121  28.042  28.161  1.00  0.00     0.016 A 
ATOM     35  C   UNL A   1      39.449  26.548  29.095  1.00  0.00     0.016 A 
ATOM     36  C   UNL A   1      40.980  28.899  29.248  1.00  0.00     0.010 A 
ATOM     37  C   UNL A   1      39.310  27.412  30.189  1.00  0.00     0.010 A 
ATOM     38  C   UNL A   1      40.104  28.570  30.291  1.00  0.00    -0.014 A 
BRANCH  38  39
ATOM     39  C   UNL A   1      40.126  29.376  31.539  1.00  0.00     0.031 A 
ATOM     40  C   UNL A   1      41.242  29.175  32.531  1.00  0.00     0.074 A 
ATOM     41  C   UNL A   1      39.186  30.313  31.763  1.00  0.00     0.049 A 
ATOM     42  N   UNL A   1      41.449  29.773  33.676  1.00  0.00    -0.248 NA
ATOM     43  C   UNL A   1      42.258  28.167  32.186  1.00  0.00     0.031 C 
ATOM     44  C   UNL A   1      38.081  30.635  30.860  1.00  0.00     0.029 A 
ATOM     45  N   UNL A   1      39.015  31.171  32.821  1.00  0.00    -0.354 N 
ATOM     46  C   UNL A   1      42.609  29.208  34.195  1.00  0.00     0.074 A 
ATOM     47  C   UNL A   1      43.043  28.196  33.255  1.00  0.00     0.031 C 
ATOM     48  C   UNL A   1      37.348  31.622  31.401  1.00  0.00     0.029 A 
ATOM     49  C   UNL A   1      37.908  31.976  32.704  1.00  0.00     0.049 A 
ATOM     50  H   UNL A   1      39.629  31.206  33.590  1.00  0.00     0.167 HD
ATOM     51  C   UNL A   1      43.260  29.509  35.345  1.00  0.00     0.031 A 
ATOM     52  C   UNL A   1      37.391  32.883  33.556  1.00  0.00     0.031 A 
ATOM     53  C   UNL A   1      42.820  30.510  36.283  1.00  0.00     0.049 A 
ATOM     54  C   UNL A   1      38.094  33.149  34.863  1.00  0.00     0.074 A 
ATOM     55  C   UNL A   1      43.420  30.900  37.468  1.00  0.00     0.029 A 
ATOM     56  N   UNL A   1      41.670  31.273  36.149  1.00  0.00    -0.354 N 
ATOM     57  N   UNL A   1      39.202  32.623  35.326  1.00  0.00    -0.248 NA
ATOM     58  C   UNL A   1      37.480  34.144  35.753  1.00  0.00     0.031 C 
ATOM     59  C   UNL A   1      42.597  31.848  38.083  1.00  0.00     0.029 A 
ATOM     60  C   UNL A   1      41.525  32.108  37.245  1.00  0.00     0.049 A 
ATOM     61  H   UNL A   1      41.047  31.227  35.388  1.00  0.00     0.167 HD
ATOM     62  C   UNL A   1      39.436  33.246  36.549  1.00  0.00     0.074 A 
ATOM     63  C   UNL A   1      38.363  34.200  36.741  1.00  0.00     0.031 C 
ATOM     64  C   UNL A   1      40.449  33.049  37.430  1.00  0.00     0.031 A 
BRANCH  51  65
ATOM     65  C   UNL A   1      44.501  28.717  35.675  1.00  0.00    -0.014 A 
ATOM     66  C   UNL A   1      44.438  27.532  36.431  1.00  0.00     0.010 A 
ATOM     67  C   UNL A   1      45.749  29.146  35.184  1.00  0.00     0.010 A 
ATOM     68  C   UNL A   1      45.602  26.813  36.721  1.00  0.00     0.020 A 
ATOM     69  C   UNL A   1      46.910  28.413  35.445  1.00  0.00     0.020 A 
ATOM     70  C   UNL A   1      46.831  27.260  36.227  1.00  0.00     0.054 A 
BRANCH  70  71
ATOM     71  S   UNL A   1      48.322  26.296  36.603  1.00  0.00     0.124 S 
ATOM     72  O   UNL A   1      47.840  24.925  36.452  1.00  0.00    -0.237 OA
ATOM     73  O   UNL A   1      49.259  26.749  35.578  1.00  0.00    -0.237 OA
ATOM     74  O   UNL A   1      48.657  26.691  37.968  1.00  0.00    -0.744 OA
ENDBRANCH  70  71
ENDBRANCH  51  65
BRANCH  52  75
ATOM     75  C   UNL A   1      36.132  33.598  33.208  1.00  0.00    -0.014 A 
ATOM     76  C   UNL A   1      34.880  32.993  33.411  1.00  0.00     0.010 A 
ATOM     77  C   UNL A   1      36.182  34.897  32.669  1.00  0.00     0.010 A 
ATOM     78  C   UNL A   1      33.704  33.664  33.064  1.00  0.00     0.020 A 
ATOM     79  C   UNL A   1      35.008  35.585  32.352  1.00  0.00     0.020 A 
ATOM     80  C   UNL A   1      33.775  34.958  32.541  1.00  0.00     0.054 A 
BRANCH  80  81
ATOM     81  S   UNL A   1      32.234  35.829  32.148  1.00  0.00     0.124 S 
ATOM     82  O   UNL A   1      32.474  37.147  32.727  1.00  0.00    -0.237 OA
ATOM     83  O   UNL A   1      32.207  35.775  30.688  1.00  0.00    -0.237 OA
ATOM     84  O   UNL A   1      31.208  35.029  32.813  1.00  0.00    -0.744 OA
ENDBRANCH  80  81
ENDBRANCH  52  75
BRANCH  64  85
ATOM     85  C   UNL A   1      40.470  33.914  38.667  1.00  0.00    -0.014 A 
ATOM     86  C   UNL A   1      39.829  33.519  39.855  1.00  0.00     0.010 A 
ATOM     87  C   UNL A   1      41.175  35.132  38.646  1.00  0.00     0.010 A 
ATOM     88  C   UNL A   1      39.851  34.348  40.980  1.00  0.00     0.020 A 
ATOM     89  C   UNL A   1      41.230  35.948  39.780  1.00  0.00     0.020 A 
ATOM     90  C   UNL A   1      40.549  35.559  40.934  1.00  0.00     0.054 A 
BRANCH  90  91
ATOM     91  S   UNL A   1      40.579  36.607  42.414  1.00  0.00     0.124 S 
ATOM     92  O   UNL A   1      41.646  35.993  43.199  1.00  0.00    -0.237 OA
ATOM     93  O   UNL A   1      40.881  37.927  41.865  1.00  0.00    -0.237 OA
ATOM     94  O   UNL A   1      39.235  36.463  42.969  1.00  0.00    -0.744 OA
ENDBRANCH  90  91
ENDBRANCH  64  85
ENDBRANCH  38  39
ENDBRANCH  31  33
ENDBRANCH  30  31
ENDBRANCH  29  30
ENDBRANCH  28  29
ENDBRANCH  27  28
ENDBRANCH   1  27
TORSDOF 21
ENDMDL
