MODEL 1
REMARK VINA RESULT:      -9.6      0.000      0.000
REMARK SMILES CC1(C)CCC[C@@](C)(CCC(=O)OCCOCCOC(=O)c2ccc(-c3c4nc(c(-c5ccc(S(=O)(=O)[O-])cc5)c5ccc([nH]5)c(-c5ccc(S(=O)(=O)[O-])cc5)c5nc(c(-c6ccc(S(=O)(=O)[O-])cc6)c6ccc3[nH]6)C=C5)C=C4)cc2)C1=O
REMARK SMILES IDX 17 1 16 2 15 3 14 4 13 5 11 6 12 7 10 8 9 9 7 10 1 11 2 12
REMARK SMILES IDX 3 13 4 14 82 15 5 16 83 17 6 18 8 19 18 20 19 21 20 22 21 23
REMARK SMILES IDX 22 24 23 25 81 26 24 27 80 28 25 29 26 30 27 31 74 32 28 33
REMARK SMILES IDX 79 34 73 35 75 36 29 37 78 38 72 39 71 40 30 42 60 43 41 44
REMARK SMILES IDX 59 45 42 46 45 47 58 48 76 49 43 50 44 51 57 53 77 54 46 55
REMARK SMILES IDX 31 56 32 57 40 58 33 59 39 60 34 61 35 62 36 63 37 64 38 65
REMARK SMILES IDX 61 66 62 67 70 68 63 69 69 70 64 71 65 72 66 73 67 74 68 75
REMARK SMILES IDX 47 76 48 77 56 78 49 79 55 80 50 81 51 82 52 83 53 84 54 85
REMARK H PARENT 75 41 45 52
REMARK Flexibility Score: inf
ROOT
ATOM      1  C   UNL A   1      36.369  21.634  24.597  1.00  0.00     0.202 C 
ENDROOT
BRANCH   1   2
ATOM      2  O   UNL A   1      35.204  22.381  24.248  1.00  0.00    -0.374 OA
BRANCH   2   3
ATOM      3  C   UNL A   1      33.953  21.848  24.699  1.00  0.00     0.202 C 
BRANCH   3   4
ATOM      4  C   UNL A   1      32.760  22.794  24.557  1.00  0.00     0.261 C 
BRANCH   4   5
ATOM      5  O   UNL A   1      31.764  22.444  25.532  1.00  0.00    -0.463 OA
BRANCH   5   6
ATOM      6  C   UNL A   1      31.113  23.451  26.132  1.00  0.00     0.305 C 
ATOM      7  O   UNL A   1      30.914  23.548  27.337  1.00  0.00    -0.252 OA
BRANCH   6   8
ATOM      8  C   UNL A   1      30.637  24.510  25.163  1.00  0.00     0.124 C 
BRANCH   8   9
ATOM      9  C   UNL A   1      30.666  26.032  25.435  1.00  0.00     0.026 C 
BRANCH   9  10
ATOM     10  C   UNL A   1      31.597  27.019  24.666  1.00  0.00     0.027 C 
ATOM     11  C   UNL A   1      31.585  28.407  27.693  1.00  0.00     0.019 C 
ATOM     12  C   UNL A   1      32.198  28.947  26.397  1.00  0.00     0.024 C 
ATOM     13  C   UNL A   1      32.124  30.483  26.478  1.00  0.00     0.019 C 
ATOM     14  C   UNL A   1      33.665  28.508  26.278  1.00  0.00     0.014 C 
ATOM     15  C   UNL A   1      31.445  28.479  25.133  1.00  0.00     0.144 C 
ATOM     16  C   UNL A   1      33.802  27.005  26.055  1.00  0.00     0.002 C 
ATOM     17  O   UNL A   1      30.711  29.256  24.517  1.00  0.00    -0.298 OA
ATOM     18  C   UNL A   1      33.089  26.584  24.778  1.00  0.00     0.014 C 
ATOM     19  C   UNL A   1      31.311  26.917  23.145  1.00  0.00     0.020 C 
ENDBRANCH   9  10
ENDBRANCH   8   9
ENDBRANCH   6   8
ENDBRANCH   5   6
ENDBRANCH   4   5
ENDBRANCH   3   4
ENDBRANCH   2   3
ENDBRANCH   1   2
BRANCH   1  20
ATOM     20  C   UNL A   1      37.196  22.192  25.758  1.00  0.00     0.261 C 
BRANCH  20  21
ATOM     21  O   UNL A   1      38.516  22.556  25.317  1.00  0.00    -0.460 OA
BRANCH  21  22
ATOM     22  C   UNL A   1      39.453  22.587  26.294  1.00  0.00     0.338 C 
ATOM     23  O   UNL A   1      40.254  21.705  26.561  1.00  0.00    -0.246 OA
BRANCH  22  24
ATOM     24  C   UNL A   1      39.521  23.940  26.889  1.00  0.00     0.060 A 
ATOM     25  C   UNL A   1      40.169  24.931  26.142  1.00  0.00     0.016 A 
ATOM     26  C   UNL A   1      38.998  24.241  28.150  1.00  0.00     0.016 A 
ATOM     27  C   UNL A   1      40.366  26.200  26.679  1.00  0.00     0.010 A 
ATOM     28  C   UNL A   1      39.190  25.521  28.687  1.00  0.00     0.010 A 
ATOM     29  C   UNL A   1      39.921  26.491  27.976  1.00  0.00    -0.014 A 
BRANCH  29  30
ATOM     30  C   UNL A   1      40.390  27.738  28.636  1.00  0.00     0.031 A 
ATOM     31  C   UNL A   1      41.824  27.819  29.098  1.00  0.00     0.074 A 
ATOM     32  C   UNL A   1      39.587  28.811  28.759  1.00  0.00     0.049 A 
ATOM     33  N   UNL A   1      42.458  28.814  29.664  1.00  0.00    -0.248 NA
ATOM     34  C   UNL A   1      42.653  26.619  28.893  1.00  0.00     0.031 C 
ATOM     35  C   UNL A   1      38.196  28.884  28.314  1.00  0.00     0.029 A 
ATOM     36  N   UNL A   1      39.835  30.054  29.287  1.00  0.00    -0.354 N 
ATOM     37  C   UNL A   1      43.752  28.358  29.892  1.00  0.00     0.074 A 
ATOM     38  C   UNL A   1      43.802  26.985  29.440  1.00  0.00     0.031 C 
ATOM     39  C   UNL A   1      37.716  30.112  28.581  1.00  0.00     0.029 A 
ATOM     40  C   UNL A   1      38.753  30.901  29.245  1.00  0.00     0.049 A 
ATOM     41  H   UNL A   1      40.708  30.315  29.663  1.00  0.00     0.167 HD
ATOM     42  C   UNL A   1      44.809  29.022  30.416  1.00  0.00     0.031 A 
ATOM     43  C   UNL A   1      38.608  32.163  29.700  1.00  0.00     0.031 A 
ATOM     44  C   UNL A   1      44.764  30.387  30.867  1.00  0.00     0.049 A 
ATOM     45  C   UNL A   1      39.779  32.858  30.348  1.00  0.00     0.074 A 
ATOM     46  C   UNL A   1      45.790  31.152  31.395  1.00  0.00     0.029 A 
ATOM     47  N   UNL A   1      43.634  31.190  30.853  1.00  0.00    -0.354 N 
ATOM     48  N   UNL A   1      41.003  32.420  30.528  1.00  0.00    -0.248 NA
ATOM     49  C   UNL A   1      39.550  34.222  30.847  1.00  0.00     0.031 C 
ATOM     50  C   UNL A   1      45.265  32.395  31.762  1.00  0.00     0.029 A 
ATOM     51  C   UNL A   1      43.930  32.431  31.393  1.00  0.00     0.049 A 
ATOM     52  H   UNL A   1      42.752  30.919  30.510  1.00  0.00     0.167 HD
ATOM     53  C   UNL A   1      41.696  33.467  31.132  1.00  0.00     0.074 A 
ATOM     54  C   UNL A   1      40.759  34.563  31.271  1.00  0.00     0.031 C 
ATOM     55  C   UNL A   1      42.992  33.517  31.530  1.00  0.00     0.031 A 
BRANCH  42  56
ATOM     56  C   UNL A   1      46.105  28.266  30.562  1.00  0.00    -0.014 A 
ATOM     57  C   UNL A   1      47.087  28.291  29.554  1.00  0.00     0.010 A 
ATOM     58  C   UNL A   1      46.360  27.551  31.746  1.00  0.00     0.010 A 
ATOM     59  C   UNL A   1      48.282  27.582  29.713  1.00  0.00     0.020 A 
ATOM     60  C   UNL A   1      47.566  26.867  31.921  1.00  0.00     0.020 A 
ATOM     61  C   UNL A   1      48.512  26.874  30.896  1.00  0.00     0.054 A 
BRANCH  61  62
ATOM     62  S   UNL A   1      50.081  25.983  31.083  1.00  0.00     0.124 S 
ATOM     63  O   UNL A   1      49.787  25.087  32.199  1.00  0.00    -0.237 OA
ATOM     64  O   UNL A   1      50.239  25.336  29.783  1.00  0.00    -0.237 OA
ATOM     65  O   UNL A   1      51.048  27.039  31.373  1.00  0.00    -0.744 OA
ENDBRANCH  61  62
ENDBRANCH  42  56
BRANCH  43  66
ATOM     66  C   UNL A   1      37.292  32.852  29.577  1.00  0.00    -0.014 A 
ATOM     67  C   UNL A   1      36.877  33.406  28.352  1.00  0.00     0.010 A 
ATOM     68  C   UNL A   1      36.449  32.970  30.697  1.00  0.00     0.010 A 
ATOM     69  C   UNL A   1      35.655  34.080  28.256  1.00  0.00     0.020 A 
ATOM     70  C   UNL A   1      35.213  33.615  30.598  1.00  0.00     0.020 A 
ATOM     71  C   UNL A   1      34.829  34.177  29.380  1.00  0.00     0.054 A 
BRANCH  71  72
ATOM     72  S   UNL A   1      33.229  35.016  29.220  1.00  0.00     0.124 S 
ATOM     73  O   UNL A   1      32.698  34.921  30.576  1.00  0.00    -0.237 OA
ATOM     74  O   UNL A   1      33.618  36.355  28.785  1.00  0.00    -0.237 OA
ATOM     75  O   UNL A   1      32.525  34.222  28.215  1.00  0.00    -0.744 OA
ENDBRANCH  71  72
ENDBRANCH  43  66
BRANCH  55  76
ATOM     76  C   UNL A   1      43.497  34.809  32.121  1.00  0.00    -0.014 A 
ATOM     77  C   UNL A   1      44.042  35.824  31.315  1.00  0.00     0.010 A 
ATOM     78  C   UNL A   1      43.365  35.034  33.505  1.00  0.00     0.010 A 
ATOM     79  C   UNL A   1      44.475  37.025  31.886  1.00  0.00     0.020 A 
ATOM     80  C   UNL A   1      43.766  36.245  34.075  1.00  0.00     0.020 A 
ATOM     81  C   UNL A   1      44.333  37.230  33.262  1.00  0.00     0.054 A 
BRANCH  81  82
ATOM     82  S   UNL A   1      44.862  38.814  33.970  1.00  0.00     0.124 S 
ATOM     83  O   UNL A   1      45.750  38.385  35.046  1.00  0.00    -0.237 OA
ATOM     84  O   UNL A   1      45.515  39.467  32.838  1.00  0.00    -0.237 OA
ATOM     85  O   UNL A   1      43.613  39.435  34.405  1.00  0.00    -0.744 OA
ENDBRANCH  81  82
ENDBRANCH  55  76
ENDBRANCH  29  30
ENDBRANCH  22  24
ENDBRANCH  21  22
ENDBRANCH  20  21
ENDBRANCH   1  20
TORSDOF 19
ENDMDL
MODEL 2
REMARK VINA RESULT:      -9.6      1.122      2.069
REMARK SMILES CC1(C)CCC[C@@](C)(CCC(=O)OCCOCCOC(=O)c2ccc(-c3c4nc(c(-c5ccc(S(=O)(=O)[O-])cc5)c5ccc([nH]5)c(-c5ccc(S(=O)(=O)[O-])cc5)c5nc(c(-c6ccc(S(=O)(=O)[O-])cc6)c6ccc3[nH]6)C=C5)C=C4)cc2)C1=O
REMARK SMILES IDX 17 1 16 2 15 3 14 4 13 5 11 6 12 7 10 8 9 9 7 10 1 11 2 12
REMARK SMILES IDX 3 13 4 14 82 15 5 16 83 17 6 18 8 19 18 20 19 21 20 22 21 23
REMARK SMILES IDX 22 24 23 25 81 26 24 27 80 28 25 29 26 30 27 31 74 32 28 33
REMARK SMILES IDX 79 34 73 35 75 36 29 37 78 38 72 39 71 40 30 42 60 43 41 44
REMARK SMILES IDX 59 45 42 46 45 47 58 48 76 49 43 50 44 51 57 53 77 54 46 55
REMARK SMILES IDX 31 56 32 57 40 58 33 59 39 60 34 61 35 62 36 63 37 64 38 65
REMARK SMILES IDX 61 66 62 67 70 68 63 69 69 70 64 71 65 72 66 73 67 74 68 75
REMARK SMILES IDX 47 76 48 77 56 78 49 79 55 80 50 81 51 82 52 83 53 84 54 85
REMARK H PARENT 75 41 45 52
REMARK Flexibility Score: inf
ROOT
ATOM      1  C   UNL A   1      35.400  22.963  24.314  1.00  0.00     0.202 C 
ENDROOT
BRANCH   1   2
ATOM      2  O   UNL A   1      34.660  21.750  24.170  1.00  0.00    -0.374 OA
BRANCH   2   3
ATOM      3  C   UNL A   1      33.557  21.573  25.067  1.00  0.00     0.202 C 
BRANCH   3   4
ATOM      4  C   UNL A   1      32.444  22.614  24.933  1.00  0.00     0.261 C 
BRANCH   4   5
ATOM      5  O   UNL A   1      31.473  22.398  25.969  1.00  0.00    -0.463 OA
BRANCH   5   6
ATOM      6  C   UNL A   1      31.063  23.473  26.659  1.00  0.00     0.305 C 
ATOM      7  O   UNL A   1      30.055  23.528  27.353  1.00  0.00    -0.252 OA
BRANCH   6   8
ATOM      8  C   UNL A   1      31.992  24.658  26.516  1.00  0.00     0.124 C 
BRANCH   8   9
ATOM      9  C   UNL A   1      31.533  26.111  26.256  1.00  0.00     0.026 C 
BRANCH   9  10
ATOM     10  C   UNL A   1      32.230  27.057  25.229  1.00  0.00     0.027 C 
ATOM     11  C   UNL A   1      30.518  25.067  23.180  1.00  0.00     0.019 C 
ATOM     12  C   UNL A   1      31.544  26.149  22.825  1.00  0.00     0.024 C 
ATOM     13  C   UNL A   1      32.238  25.694  21.527  1.00  0.00     0.019 C 
ATOM     14  C   UNL A   1      30.841  27.493  22.589  1.00  0.00     0.014 C 
ATOM     15  C   UNL A   1      32.616  26.345  23.919  1.00  0.00     0.144 C 
ATOM     16  C   UNL A   1      30.249  28.070  23.872  1.00  0.00     0.002 C 
ATOM     17  O   UNL A   1      33.761  25.915  23.759  1.00  0.00    -0.298 OA
ATOM     18  C   UNL A   1      31.337  28.295  24.912  1.00  0.00     0.014 C 
ATOM     19  C   UNL A   1      33.488  27.686  25.882  1.00  0.00     0.020 C 
ENDBRANCH   9  10
ENDBRANCH   8   9
ENDBRANCH   6   8
ENDBRANCH   5   6
ENDBRANCH   4   5
ENDBRANCH   3   4
ENDBRANCH   2   3
ENDBRANCH   1   2
BRANCH   1  20
ATOM     20  C   UNL A   1      36.082  23.170  25.669  1.00  0.00     0.261 C 
BRANCH  20  21
ATOM     21  O   UNL A   1      37.231  24.027  25.537  1.00  0.00    -0.460 OA
BRANCH  21  22
ATOM     22  C   UNL A   1      38.383  23.511  26.025  1.00  0.00     0.338 C 
ATOM     23  O   UNL A   1      38.868  22.426  25.747  1.00  0.00    -0.246 OA
BRANCH  22  24
ATOM     24  C   UNL A   1      39.107  24.537  26.808  1.00  0.00     0.060 A 
ATOM     25  C   UNL A   1      38.754  24.675  28.156  1.00  0.00     0.016 A 
ATOM     26  C   UNL A   1      40.085  25.366  26.250  1.00  0.00     0.016 A 
ATOM     27  C   UNL A   1      39.315  25.688  28.929  1.00  0.00     0.010 A 
ATOM     28  C   UNL A   1      40.655  26.380  27.032  1.00  0.00     0.010 A 
ATOM     29  C   UNL A   1      40.234  26.579  28.360  1.00  0.00    -0.014 A 
BRANCH  29  30
ATOM     30  C   UNL A   1      40.596  27.815  29.104  1.00  0.00     0.031 A 
ATOM     31  C   UNL A   1      41.966  27.911  29.726  1.00  0.00     0.074 A 
ATOM     32  C   UNL A   1      39.758  28.867  29.166  1.00  0.00     0.049 A 
ATOM     33  N   UNL A   1      42.508  28.902  30.388  1.00  0.00    -0.248 NA
ATOM     34  C   UNL A   1      42.842  26.737  29.582  1.00  0.00     0.031 C 
ATOM     35  C   UNL A   1      38.424  28.924  28.570  1.00  0.00     0.029 A 
ATOM     36  N   UNL A   1      39.915  30.097  29.754  1.00  0.00    -0.354 N 
ATOM     37  C   UNL A   1      43.779  28.466  30.747  1.00  0.00     0.074 A 
ATOM     38  C   UNL A   1      43.913  27.110  30.266  1.00  0.00     0.031 C 
ATOM     39  C   UNL A   1      37.888  30.133  28.815  1.00  0.00     0.029 A 
ATOM     40  C   UNL A   1      38.824  30.923  29.613  1.00  0.00     0.049 A 
ATOM     41  H   UNL A   1      40.733  30.365  30.232  1.00  0.00     0.167 HD
ATOM     42  C   UNL A   1      44.755  29.136  31.406  1.00  0.00     0.031 A 
ATOM     43  C   UNL A   1      38.598  32.167  30.085  1.00  0.00     0.031 A 
ATOM     44  C   UNL A   1      44.626  30.485  31.887  1.00  0.00     0.049 A 
ATOM     45  C   UNL A   1      39.672  32.866  30.880  1.00  0.00     0.074 A 
ATOM     46  C   UNL A   1      45.568  31.255  32.549  1.00  0.00     0.029 A 
ATOM     47  N   UNL A   1      43.486  31.265  31.768  1.00  0.00    -0.354 N 
ATOM     48  N   UNL A   1      40.879  32.448  31.184  1.00  0.00    -0.248 NA
ATOM     49  C   UNL A   1      39.356  34.209  31.388  1.00  0.00     0.031 C 
ATOM     50  C   UNL A   1      44.975  32.475  32.889  1.00  0.00     0.029 A 
ATOM     51  C   UNL A   1      43.690  32.494  32.373  1.00  0.00     0.049 A 
ATOM     52  H   UNL A   1      42.655  30.986  31.320  1.00  0.00     0.167 HD
ATOM     53  C   UNL A   1      41.474  33.491  31.891  1.00  0.00     0.074 A 
ATOM     54  C   UNL A   1      40.501  34.562  31.955  1.00  0.00     0.031 C 
ATOM     55  C   UNL A   1      42.716  33.556  32.434  1.00  0.00     0.031 A 
BRANCH  42  56
ATOM     56  C   UNL A   1      46.045  28.403  31.675  1.00  0.00    -0.014 A 
ATOM     57  C   UNL A   1      47.125  28.464  30.776  1.00  0.00     0.010 A 
ATOM     58  C   UNL A   1      46.190  27.674  32.869  1.00  0.00     0.010 A 
ATOM     59  C   UNL A   1      48.311  27.776  31.048  1.00  0.00     0.020 A 
ATOM     60  C   UNL A   1      47.386  27.011  33.159  1.00  0.00     0.020 A 
ATOM     61  C   UNL A   1      48.433  27.053  32.238  1.00  0.00     0.054 A 
BRANCH  61  62
ATOM     62  S   UNL A   1      49.992  26.191  32.575  1.00  0.00     0.124 S 
ATOM     63  O   UNL A   1      50.825  26.626  31.456  1.00  0.00    -0.237 OA
ATOM     64  O   UNL A   1      50.373  26.717  33.883  1.00  0.00    -0.237 OA
ATOM     65  O   UNL A   1      49.619  24.778  32.559  1.00  0.00    -0.744 OA
ENDBRANCH  61  62
ENDBRANCH  42  56
BRANCH  43  66
ATOM     66  C   UNL A   1      37.288  32.831  29.834  1.00  0.00    -0.014 A 
ATOM     67  C   UNL A   1      37.059  33.556  28.649  1.00  0.00     0.010 A 
ATOM     68  C   UNL A   1      36.261  32.753  30.793  1.00  0.00     0.010 A 
ATOM     69  C   UNL A   1      35.838  34.204  28.439  1.00  0.00     0.020 A 
ATOM     70  C   UNL A   1      35.028  33.373  30.572  1.00  0.00     0.020 A 
ATOM     71  C   UNL A   1      34.829  34.105  29.402  1.00  0.00     0.054 A 
BRANCH  71  72
ATOM     72  S   UNL A   1      33.236  34.916  29.087  1.00  0.00     0.124 S 
ATOM     73  O   UNL A   1      33.653  36.229  28.606  1.00  0.00    -0.237 OA
ATOM     74  O   UNL A   1      32.629  34.040  28.089  1.00  0.00    -0.237 OA
ATOM     75  O   UNL A   1      32.583  34.906  30.394  1.00  0.00    -0.744 OA
ENDBRANCH  71  72
ENDBRANCH  43  66
BRANCH  55  76
ATOM     76  C   UNL A   1      43.120  34.839  33.115  1.00  0.00    -0.014 A 
ATOM     77  C   UNL A   1      42.948  35.023  34.498  1.00  0.00     0.010 A 
ATOM     78  C   UNL A   1      43.738  35.857  32.363  1.00  0.00     0.010 A 
ATOM     79  C   UNL A   1      43.359  36.213  35.110  1.00  0.00     0.020 A 
ATOM     80  C   UNL A   1      44.179  37.032  32.976  1.00  0.00     0.020 A 
ATOM     81  C   UNL A   1      43.973  37.209  34.345  1.00  0.00     0.054 A 
BRANCH  81  82
ATOM     82  S   UNL A   1      44.536  38.722  35.172  1.00  0.00     0.124 S 
ATOM     83  O   UNL A   1      44.153  38.472  36.558  1.00  0.00    -0.237 OA
ATOM     84  O   UNL A   1      45.973  38.717  34.906  1.00  0.00    -0.237 OA
ATOM     85  O   UNL A   1      43.789  39.784  34.502  1.00  0.00    -0.744 OA
ENDBRANCH  81  82
ENDBRANCH  55  76
ENDBRANCH  29  30
ENDBRANCH  22  24
ENDBRANCH  21  22
ENDBRANCH  20  21
ENDBRANCH   1  20
TORSDOF 19
ENDMDL
MODEL 3
REMARK VINA RESULT:      -9.3      3.995      9.868
REMARK SMILES CC1(C)CCC[C@@](C)(CCC(=O)OCCOCCOC(=O)c2ccc(-c3c4nc(c(-c5ccc(S(=O)(=O)[O-])cc5)c5ccc([nH]5)c(-c5ccc(S(=O)(=O)[O-])cc5)c5nc(c(-c6ccc(S(=O)(=O)[O-])cc6)c6ccc3[nH]6)C=C5)C=C4)cc2)C1=O
REMARK SMILES IDX 17 1 16 2 15 3 14 4 13 5 11 6 12 7 10 8 9 9 7 10 1 11 2 12
REMARK SMILES IDX 3 13 4 14 82 15 5 16 83 17 6 18 8 19 18 20 19 21 20 22 21 23
REMARK SMILES IDX 22 24 23 25 81 26 24 27 80 28 25 29 26 30 27 31 74 32 28 33
REMARK SMILES IDX 79 34 73 35 75 36 29 37 78 38 72 39 71 40 30 42 60 43 41 44
REMARK SMILES IDX 59 45 42 46 45 47 58 48 76 49 43 50 44 51 57 53 77 54 46 55
REMARK SMILES IDX 31 56 32 57 40 58 33 59 39 60 34 61 35 62 36 63 37 64 38 65
REMARK SMILES IDX 61 66 62 67 70 68 63 69 69 70 64 71 65 72 66 73 67 74 68 75
REMARK SMILES IDX 47 76 48 77 56 78 49 79 55 80 50 81 51 82 52 83 53 84 54 85
REMARK H PARENT 75 41 45 52
REMARK Flexibility Score: inf
ROOT
ATOM      1  C   UNL A   1      31.755  29.798  26.392  1.00  0.00     0.202 C 
ENDROOT
BRANCH   1   2
ATOM      2  O   UNL A   1      31.353  29.577  25.040  1.00  0.00    -0.374 OA
BRANCH   2   3
ATOM      3  C   UNL A   1      31.426  28.224  24.573  1.00  0.00     0.202 C 
BRANCH   3   4
ATOM      4  C   UNL A   1      31.798  27.193  25.640  1.00  0.00     0.261 C 
BRANCH   4   5
ATOM      5  O   UNL A   1      30.597  26.606  26.165  1.00  0.00    -0.463 OA
BRANCH   5   6
ATOM      6  C   UNL A   1      30.469  25.275  26.061  1.00  0.00     0.305 C 
ATOM      7  O   UNL A   1      29.723  24.579  26.740  1.00  0.00    -0.252 OA
BRANCH   6   8
ATOM      8  C   UNL A   1      31.345  24.678  24.981  1.00  0.00     0.124 C 
BRANCH   8   9
ATOM      9  C   UNL A   1      32.502  23.686  25.235  1.00  0.00     0.026 C 
BRANCH   9  10
ATOM     10  C   UNL A   1      32.983  22.646  24.176  1.00  0.00     0.027 C 
ATOM     11  C   UNL A   1      35.900  23.653  25.427  1.00  0.00     0.019 C 
ATOM     12  C   UNL A   1      35.640  22.726  24.234  1.00  0.00     0.024 C 
ATOM     13  C   UNL A   1      36.806  22.936  23.248  1.00  0.00     0.019 C 
ATOM     14  C   UNL A   1      35.611  21.262  24.692  1.00  0.00     0.014 C 
ATOM     15  C   UNL A   1      34.314  23.037  23.507  1.00  0.00     0.144 C 
ATOM     16  C   UNL A   1      34.397  20.953  25.564  1.00  0.00     0.002 C 
ATOM     17  O   UNL A   1      34.316  23.613  22.416  1.00  0.00    -0.298 OA
ATOM     18  C   UNL A   1      33.107  21.224  24.803  1.00  0.00     0.014 C 
ATOM     19  C   UNL A   1      31.882  22.462  23.099  1.00  0.00     0.020 C 
ENDBRANCH   9  10
ENDBRANCH   8   9
ENDBRANCH   6   8
ENDBRANCH   5   6
ENDBRANCH   4   5
ENDBRANCH   3   4
ENDBRANCH   2   3
ENDBRANCH   1   2
BRANCH   1  20
ATOM     20  C   UNL A   1      32.702  30.979  26.620  1.00  0.00     0.261 C 
BRANCH  20  21
ATOM     21  O   UNL A   1      33.751  30.623  27.539  1.00  0.00    -0.460 OA
BRANCH  21  22
ATOM     22  C   UNL A   1      34.602  31.629  27.846  1.00  0.00     0.338 C 
ATOM     23  O   UNL A   1      34.321  32.812  27.954  1.00  0.00    -0.246 OA
BRANCH  22  24
ATOM     24  C   UNL A   1      35.917  31.078  28.242  1.00  0.00     0.060 A 
ATOM     25  C   UNL A   1      35.966  29.715  28.560  1.00  0.00     0.016 A 
ATOM     26  C   UNL A   1      37.072  31.862  28.332  1.00  0.00     0.016 A 
ATOM     27  C   UNL A   1      37.143  29.148  29.042  1.00  0.00     0.010 A 
ATOM     28  C   UNL A   1      38.258  31.287  28.810  1.00  0.00     0.010 A 
ATOM     29  C   UNL A   1      38.285  29.940  29.217  1.00  0.00    -0.014 A 
BRANCH  29  30
ATOM     30  C   UNL A   1      39.428  29.396  29.996  1.00  0.00     0.031 A 
ATOM     31  C   UNL A   1      39.627  29.864  31.416  1.00  0.00     0.074 A 
ATOM     32  C   UNL A   1      40.233  28.445  29.487  1.00  0.00     0.049 A 
ATOM     33  N   UNL A   1      40.531  29.501  32.290  1.00  0.00    -0.248 NA
ATOM     34  C   UNL A   1      38.681  30.876  31.917  1.00  0.00     0.031 C 
ATOM     35  C   UNL A   1      40.124  27.870  28.147  1.00  0.00     0.029 A 
ATOM     36  N   UNL A   1      41.300  27.787  30.048  1.00  0.00    -0.354 N 
ATOM     37  C   UNL A   1      40.269  30.245  33.436  1.00  0.00     0.074 A 
ATOM     38  C   UNL A   1      39.150  31.108  33.134  1.00  0.00     0.031 C 
ATOM     39  C   UNL A   1      41.081  26.937  27.993  1.00  0.00     0.029 A 
ATOM     40  C   UNL A   1      41.891  26.872  29.209  1.00  0.00     0.049 A 
ATOM     41  H   UNL A   1      41.613  27.954  30.967  1.00  0.00     0.167 HD
ATOM     42  C   UNL A   1      40.894  30.206  34.638  1.00  0.00     0.031 A 
ATOM     43  C   UNL A   1      42.969  26.082  29.392  1.00  0.00     0.031 A 
ATOM     44  C   UNL A   1      42.008  29.349  34.942  1.00  0.00     0.049 A 
ATOM     45  C   UNL A   1      43.695  26.110  30.714  1.00  0.00     0.074 A 
ATOM     46  C   UNL A   1      42.694  29.226  36.139  1.00  0.00     0.029 A 
ATOM     47  N   UNL A   1      42.607  28.477  34.047  1.00  0.00    -0.354 N 
ATOM     48  N   UNL A   1      43.415  26.799  31.795  1.00  0.00    -0.248 NA
ATOM     49  C   UNL A   1      44.877  25.246  30.842  1.00  0.00     0.031 C 
ATOM     50  C   UNL A   1      43.749  28.328  35.947  1.00  0.00     0.029 A 
ATOM     51  C   UNL A   1      43.674  27.836  34.654  1.00  0.00     0.049 A 
ATOM     52  H   UNL A   1      42.316  28.334  33.117  1.00  0.00     0.167 HD
ATOM     53  C   UNL A   1      44.368  26.425  32.740  1.00  0.00     0.074 A 
ATOM     54  C   UNL A   1      45.221  25.440  32.108  1.00  0.00     0.031 C 
ATOM     55  C   UNL A   1      44.520  26.857  34.018  1.00  0.00     0.031 A 
BRANCH  42  56
ATOM     56  C   UNL A   1      40.403  31.146  35.709  1.00  0.00    -0.014 A 
ATOM     57  C   UNL A   1      41.193  32.217  36.164  1.00  0.00     0.010 A 
ATOM     58  C   UNL A   1      39.111  30.976  36.240  1.00  0.00     0.010 A 
ATOM     59  C   UNL A   1      40.715  33.076  37.158  1.00  0.00     0.020 A 
ATOM     60  C   UNL A   1      38.618  31.851  37.211  1.00  0.00     0.020 A 
ATOM     61  C   UNL A   1      39.430  32.886  37.676  1.00  0.00     0.054 A 
BRANCH  61  62
ATOM     62  S   UNL A   1      38.828  34.030  38.947  1.00  0.00     0.124 S 
ATOM     63  O   UNL A   1      39.845  33.887  39.987  1.00  0.00    -0.237 OA
ATOM     64  O   UNL A   1      38.822  35.312  38.248  1.00  0.00    -0.237 OA
ATOM     65  O   UNL A   1      37.509  33.505  39.293  1.00  0.00    -0.744 OA
ENDBRANCH  61  62
ENDBRANCH  42  56
BRANCH  43  66
ATOM     66  C   UNL A   1      43.446  25.205  28.285  1.00  0.00    -0.014 A 
ATOM     67  C   UNL A   1      42.940  23.902  28.125  1.00  0.00     0.010 A 
ATOM     68  C   UNL A   1      44.426  25.669  27.388  1.00  0.00     0.010 A 
ATOM     69  C   UNL A   1      43.419  23.075  27.104  1.00  0.00     0.020 A 
ATOM     70  C   UNL A   1      44.884  24.857  26.346  1.00  0.00     0.020 A 
ATOM     71  C   UNL A   1      44.386  23.561  26.218  1.00  0.00     0.054 A 
BRANCH  71  72
ATOM     72  S   UNL A   1      44.960  22.486  24.873  1.00  0.00     0.124 S 
ATOM     73  O   UNL A   1      46.156  21.885  25.452  1.00  0.00    -0.237 OA
ATOM     74  O   UNL A   1      43.826  21.586  24.685  1.00  0.00    -0.237 OA
ATOM     75  O   UNL A   1      45.196  23.416  23.771  1.00  0.00    -0.744 OA
ENDBRANCH  71  72
ENDBRANCH  43  66
BRANCH  55  76
ATOM     76  C   UNL A   1      45.624  26.244  34.841  1.00  0.00    -0.014 A 
ATOM     77  C   UNL A   1      46.889  26.848  34.940  1.00  0.00     0.010 A 
ATOM     78  C   UNL A   1      45.369  25.070  35.577  1.00  0.00     0.010 A 
ATOM     79  C   UNL A   1      47.888  26.274  35.735  1.00  0.00     0.020 A 
ATOM     80  C   UNL A   1      46.353  24.512  36.397  1.00  0.00     0.020 A 
ATOM     81  C   UNL A   1      47.613  25.110  36.459  1.00  0.00     0.054 A 
BRANCH  81  82
ATOM     82  S   UNL A   1      48.911  24.412  37.516  1.00  0.00     0.124 S 
ATOM     83  O   UNL A   1      48.610  25.020  38.809  1.00  0.00    -0.237 OA
ATOM     84  O   UNL A   1      48.661  22.976  37.423  1.00  0.00    -0.237 OA
ATOM     85  O   UNL A   1      50.151  24.864  36.890  1.00  0.00    -0.744 OA
ENDBRANCH  81  82
ENDBRANCH  55  76
ENDBRANCH  29  30
ENDBRANCH  22  24
ENDBRANCH  21  22
ENDBRANCH  20  21
ENDBRANCH   1  20
TORSDOF 19
ENDMDL
