MODEL 1
REMARK VINA RESULT:      -7.9      0.000      0.000
REMARK SMILES Cc1cc(=O)oc2cc(NC(=O)CC3(CC(=O)OCCOCCOC(=O)c4ccc(-c5c6nc(c(-c7ccc(S(=O)(=O)[O-])cc7)c7ccc([nH]7)c(-c7ccc(S(=O)(=O)[O-])cc7)c7nc(c(-c8ccc(S(=O)(=O)[O-])cc8)c8ccc5[nH]8)C=C7)C=C6)cc4)CCCC3)ccc12
REMARK SMILES IDX 20 1 19 2 18 3 16 4 17 5 15 6 14 7 87 8 90 9 88 10 89 11
REMARK SMILES IDX 13 12 11 13 10 14 12 16 9 17 1 18 2 19 3 20 93 21 4 22 7 23
REMARK SMILES IDX 92 24 5 25 6 26 8 27 91 28 21 29 22 30 23 31 24 32 25 33
REMARK SMILES IDX 26 34 27 35 28 36 86 37 29 38 85 39 30 40 31 41 32 42 79 43
REMARK SMILES IDX 33 44 84 45 78 46 80 47 34 48 83 49 77 50 76 51 35 53 65 54
REMARK SMILES IDX 46 55 64 56 47 57 50 58 63 59 81 60 48 61 49 62 62 64 82 65
REMARK SMILES IDX 51 66 36 67 37 68 45 69 38 70 44 71 39 72 40 73 41 74 42 75
REMARK SMILES IDX 43 76 66 77 67 78 75 79 68 80 74 81 69 82 70 83 71 84 72 85
REMARK SMILES IDX 73 86 52 87 53 88 61 89 54 90 60 91 55 92 56 93 57 94 58 95
REMARK SMILES IDX 59 96
REMARK H PARENT 10 15 80 52 50 63
REMARK Flexibility Score: inf
ROOT
ATOM      1  C   UNL A   1      42.678  22.634  25.014  1.00  0.00     0.202 C 
ENDROOT
BRANCH   1   2
ATOM      2  C   UNL A   1      44.012  23.309  24.667  1.00  0.00     0.261 C 
BRANCH   2   3
ATOM      3  O   UNL A   1      44.681  23.836  25.837  1.00  0.00    -0.463 OA
BRANCH   3   4
ATOM      4  C   UNL A   1      45.916  23.340  26.106  1.00  0.00     0.306 C 
ATOM      5  O   UNL A   1      46.404  22.352  25.574  1.00  0.00    -0.252 OA
BRANCH   4   6
ATOM      6  C   UNL A   1      46.611  24.085  27.231  1.00  0.00     0.130 C 
BRANCH   6   7
ATOM      7  C   UNL A   1      46.895  25.615  27.122  1.00  0.00    -0.011 C 
ATOM      8  C   UNL A   1      47.941  25.792  25.997  1.00  0.00     0.008 C 
ATOM      9  C   UNL A   1      47.702  26.162  28.325  1.00  0.00     0.008 C 
ATOM     10  C   UNL A   1      49.291  25.448  26.618  1.00  0.00     0.001 C 
ATOM     11  C   UNL A   1      49.147  25.718  28.112  1.00  0.00     0.001 C 
BRANCH   7  12
ATOM     12  C   UNL A   1      45.597  26.449  26.948  1.00  0.00     0.108 C 
BRANCH  12  13
ATOM     13  C   UNL A   1      45.444  27.414  25.787  1.00  0.00     0.224 C 
ATOM     14  N   UNL A   1      45.325  28.763  25.922  1.00  0.00    -0.326 N 
ATOM     15  H   UNL A   1      45.113  29.227  25.080  1.00  0.00     0.169 HD
ATOM     16  O   UNL A   1      45.430  26.968  24.634  1.00  0.00    -0.275 OA
BRANCH  14  17
ATOM     17  C   UNL A   1      45.445  29.624  27.023  1.00  0.00     0.044 A 
ATOM     18  C   UNL A   1      47.190  33.669  29.779  1.00  0.00     0.045 C 
ATOM     19  C   UNL A   1      45.839  33.189  29.337  1.00  0.00    -0.033 A 
ATOM     20  C   UNL A   1      44.751  33.967  29.433  1.00  0.00     0.098 A 
ATOM     21  C   UNL A   1      45.700  31.877  28.695  1.00  0.00     0.021 A 
ATOM     22  C   UNL A   1      43.427  33.573  28.925  1.00  0.00     0.336 A 
ATOM     23  C   UNL A   1      44.485  31.553  28.097  1.00  0.00     0.140 A 
ATOM     24  C   UNL A   1      46.741  30.951  28.585  1.00  0.00     0.014 A 
ATOM     25  O   UNL A   1      42.449  34.293  29.093  1.00  0.00    -0.246 OA
ATOM     26  O   UNL A   1      43.355  32.381  28.226  1.00  0.00    -0.423 OA
ATOM     27  C   UNL A   1      44.338  30.432  27.282  1.00  0.00     0.074 A 
ATOM     28  C   UNL A   1      46.606  29.819  27.769  1.00  0.00     0.027 A 
ENDBRANCH  14  17
ENDBRANCH  12  13
ENDBRANCH   7  12
ENDBRANCH   6   7
ENDBRANCH   4   6
ENDBRANCH   3   4
ENDBRANCH   2   3
ENDBRANCH   1   2
BRANCH   1  29
ATOM     29  O   UNL A   1      42.766  21.271  25.444  1.00  0.00    -0.374 OA
BRANCH  29  30
ATOM     30  C   UNL A   1      41.901  20.917  26.518  1.00  0.00     0.202 C 
BRANCH  30  31
ATOM     31  C   UNL A   1      41.287  22.096  27.277  1.00  0.00     0.261 C 
BRANCH  31  32
ATOM     32  O   UNL A   1      39.850  22.034  27.233  1.00  0.00    -0.460 OA
BRANCH  32  33
ATOM     33  C   UNL A   1      39.277  23.010  26.488  1.00  0.00     0.338 C 
ATOM     34  O   UNL A   1      38.565  22.866  25.510  1.00  0.00    -0.246 OA
BRANCH  33  35
ATOM     35  C   UNL A   1      39.480  24.322  27.132  1.00  0.00     0.060 A 
ATOM     36  C   UNL A   1      40.308  25.230  26.463  1.00  0.00     0.016 A 
ATOM     37  C   UNL A   1      38.939  24.641  28.380  1.00  0.00     0.016 A 
ATOM     38  C   UNL A   1      40.651  26.437  27.065  1.00  0.00     0.010 A 
ATOM     39  C   UNL A   1      39.290  25.853  28.988  1.00  0.00     0.010 A 
ATOM     40  C   UNL A   1      40.181  26.736  28.350  1.00  0.00    -0.014 A 
BRANCH  40  41
ATOM     41  C   UNL A   1      40.763  27.895  29.069  1.00  0.00     0.031 A 
ATOM     42  C   UNL A   1      39.912  29.118  29.288  1.00  0.00     0.074 A 
ATOM     43  C   UNL A   1      42.002  27.831  29.590  1.00  0.00     0.049 A 
ATOM     44  N   UNL A   1      40.195  30.217  29.936  1.00  0.00    -0.248 NA
ATOM     45  C   UNL A   1      38.559  29.093  28.704  1.00  0.00     0.031 C 
ATOM     46  C   UNL A   1      42.905  26.685  29.486  1.00  0.00     0.029 A 
ATOM     47  N   UNL A   1      42.708  28.751  30.325  1.00  0.00    -0.354 N 
ATOM     48  C   UNL A   1      39.060  31.016  29.841  1.00  0.00     0.074 A 
ATOM     49  C   UNL A   1      38.096  30.287  29.045  1.00  0.00     0.031 C 
ATOM     50  C   UNL A   1      44.047  26.971  30.137  1.00  0.00     0.029 A 
ATOM     51  C   UNL A   1      43.965  28.324  30.682  1.00  0.00     0.049 A 
ATOM     52  H   UNL A   1      42.348  29.634  30.572  1.00  0.00     0.167 HD
ATOM     53  C   UNL A   1      38.836  32.239  30.376  1.00  0.00     0.031 A 
ATOM     54  C   UNL A   1      44.942  28.959  31.361  1.00  0.00     0.031 A 
ATOM     55  C   UNL A   1      39.797  32.966  31.161  1.00  0.00     0.049 A 
ATOM     56  C   UNL A   1      44.694  30.348  31.887  1.00  0.00     0.074 A 
ATOM     57  C   UNL A   1      39.660  34.208  31.755  1.00  0.00     0.029 A 
ATOM     58  N   UNL A   1      41.076  32.520  31.455  1.00  0.00    -0.354 N 
ATOM     59  N   UNL A   1      43.606  31.077  31.808  1.00  0.00    -0.248 NA
ATOM     60  C   UNL A   1      45.803  30.997  32.600  1.00  0.00     0.031 C 
ATOM     61  C   UNL A   1      40.876  34.537  32.364  1.00  0.00     0.029 A 
ATOM     62  C   UNL A   1      41.750  33.474  32.198  1.00  0.00     0.049 A 
ATOM     63  H   UNL A   1      41.451  31.653  31.177  1.00  0.00     0.167 HD
ATOM     64  C   UNL A   1      43.892  32.260  32.481  1.00  0.00     0.074 A 
ATOM     65  C   UNL A   1      45.249  32.144  32.973  1.00  0.00     0.031 C 
ATOM     66  C   UNL A   1      43.102  33.345  32.677  1.00  0.00     0.031 A 
BRANCH  53  67
ATOM     67  C   UNL A   1      37.503  32.883  30.104  1.00  0.00    -0.014 A 
ATOM     68  C   UNL A   1      36.522  32.977  31.107  1.00  0.00     0.010 A 
ATOM     69  C   UNL A   1      37.244  33.438  28.838  1.00  0.00     0.010 A 
ATOM     70  C   UNL A   1      35.292  33.585  30.837  1.00  0.00     0.020 A 
ATOM     71  C   UNL A   1      36.026  34.068  28.572  1.00  0.00     0.020 A 
ATOM     72  C   UNL A   1      35.051  34.123  29.570  1.00  0.00     0.054 A 
BRANCH  72  73
ATOM     73  S   UNL A   1      33.456  34.927  29.252  1.00  0.00     0.124 S 
ATOM     74  O   UNL A   1      32.840  34.904  30.577  1.00  0.00    -0.237 OA
ATOM     75  O   UNL A   1      33.851  36.246  28.766  1.00  0.00    -0.237 OA
ATOM     76  O   UNL A   1      32.824  34.064  28.258  1.00  0.00    -0.744 OA
ENDBRANCH  72  73
ENDBRANCH  53  67
BRANCH  54  77
ATOM     77  C   UNL A   1      46.256  28.291  31.566  1.00  0.00    -0.014 A 
ATOM     78  C   UNL A   1      46.370  27.153  32.383  1.00  0.00     0.010 A 
ATOM     79  C   UNL A   1      47.409  28.803  30.942  1.00  0.00     0.010 A 
ATOM     80  C   UNL A   1      47.615  26.547  32.584  1.00  0.00     0.020 A 
ATOM     81  C   UNL A   1      48.649  28.185  31.119  1.00  0.00     0.020 A 
ATOM     82  C   UNL A   1      48.747  27.068  31.949  1.00  0.00     0.054 A 
BRANCH  82  83
ATOM     83  S   UNL A   1      50.344  26.238  32.181  1.00  0.00     0.124 S 
ATOM     84  O   UNL A   1      50.161  25.010  31.415  1.00  0.00    -0.237 OA
ATOM     85  O   UNL A   1      51.287  27.203  31.620  1.00  0.00    -0.237 OA
ATOM     86  O   UNL A   1      50.430  26.066  33.630  1.00  0.00    -0.744 OA
ENDBRANCH  82  83
ENDBRANCH  54  77
BRANCH  66  87
ATOM     87  C   UNL A   1      43.671  34.485  33.477  1.00  0.00    -0.014 A 
ATOM     88  C   UNL A   1      44.409  35.510  32.858  1.00  0.00     0.010 A 
ATOM     89  C   UNL A   1      43.408  34.567  34.857  1.00  0.00     0.010 A 
ATOM     90  C   UNL A   1      44.896  36.583  33.611  1.00  0.00     0.020 A 
ATOM     91  C   UNL A   1      43.872  35.650  35.608  1.00  0.00     0.020 A 
ATOM     92  C   UNL A   1      44.624  36.645  34.982  1.00  0.00     0.054 A 
BRANCH  92  93
ATOM     93  S   UNL A   1      45.225  38.072  35.928  1.00  0.00     0.124 S 
ATOM     94  O   UNL A   1      45.848  38.885  34.888  1.00  0.00    -0.237 OA
ATOM     95  O   UNL A   1      43.997  38.617  36.501  1.00  0.00    -0.237 OA
ATOM     96  O   UNL A   1      46.148  37.481  36.895  1.00  0.00    -0.744 OA
ENDBRANCH  92  93
ENDBRANCH  66  87
ENDBRANCH  40  41
ENDBRANCH  33  35
ENDBRANCH  32  33
ENDBRANCH  31  32
ENDBRANCH  30  31
ENDBRANCH  29  30
ENDBRANCH   1  29
TORSDOF 21
ENDMDL
MODEL 2
REMARK VINA RESULT:      -7.9      5.062      9.363
REMARK SMILES Cc1cc(=O)oc2cc(NC(=O)CC3(CC(=O)OCCOCCOC(=O)c4ccc(-c5c6nc(c(-c7ccc(S(=O)(=O)[O-])cc7)c7ccc([nH]7)c(-c7ccc(S(=O)(=O)[O-])cc7)c7nc(c(-c8ccc(S(=O)(=O)[O-])cc8)c8ccc5[nH]8)C=C7)C=C6)cc4)CCCC3)ccc12
REMARK SMILES IDX 20 1 19 2 18 3 16 4 17 5 15 6 14 7 87 8 90 9 88 10 89 11
REMARK SMILES IDX 13 12 11 13 10 14 12 16 9 17 1 18 2 19 3 20 93 21 4 22 7 23
REMARK SMILES IDX 92 24 5 25 6 26 8 27 91 28 21 29 22 30 23 31 24 32 25 33
REMARK SMILES IDX 26 34 27 35 28 36 86 37 29 38 85 39 30 40 31 41 32 42 79 43
REMARK SMILES IDX 33 44 84 45 78 46 80 47 34 48 83 49 77 50 76 51 35 53 65 54
REMARK SMILES IDX 46 55 64 56 47 57 50 58 63 59 81 60 48 61 49 62 62 64 82 65
REMARK SMILES IDX 51 66 36 67 37 68 45 69 38 70 44 71 39 72 40 73 41 74 42 75
REMARK SMILES IDX 43 76 66 77 67 78 75 79 68 80 74 81 69 82 70 83 71 84 72 85
REMARK SMILES IDX 73 86 52 87 53 88 61 89 54 90 60 91 55 92 56 93 57 94 58 95
REMARK SMILES IDX 59 96
REMARK H PARENT 10 15 80 52 50 63
REMARK Flexibility Score: inf
ROOT
ATOM      1  C   UNL A   1      36.902  20.917  24.490  1.00  0.00     0.202 C 
ENDROOT
BRANCH   1   2
ATOM      2  C   UNL A   1      35.538  21.571  24.748  1.00  0.00     0.261 C 
BRANCH   2   3
ATOM      3  O   UNL A   1      34.634  20.693  25.460  1.00  0.00    -0.463 OA
BRANCH   3   4
ATOM      4  C   UNL A   1      33.334  21.080  25.523  1.00  0.00     0.306 C 
ATOM      5  O   UNL A   1      32.391  20.331  25.748  1.00  0.00    -0.252 OA
BRANCH   4   6
ATOM      6  C   UNL A   1      33.144  22.546  25.181  1.00  0.00     0.130 C 
BRANCH   6   7
ATOM      7  C   UNL A   1      31.935  23.015  24.313  1.00  0.00    -0.011 C 
ATOM      8  C   UNL A   1      31.771  21.974  23.182  1.00  0.00     0.008 C 
ATOM      9  C   UNL A   1      32.254  24.276  23.472  1.00  0.00     0.008 C 
ATOM     10  C   UNL A   1      32.829  22.317  22.136  1.00  0.00     0.001 C 
ATOM     11  C   UNL A   1      33.114  23.806  22.302  1.00  0.00     0.001 C 
BRANCH   7  12
ATOM     12  C   UNL A   1      30.659  23.268  25.161  1.00  0.00     0.108 C 
BRANCH  12  13
ATOM     13  C   UNL A   1      30.764  23.729  26.603  1.00  0.00     0.224 C 
ATOM     14  N   UNL A   1      31.273  24.931  26.989  1.00  0.00    -0.326 N 
ATOM     15  H   UNL A   1      31.379  25.020  27.963  1.00  0.00     0.169 HD
ATOM     16  O   UNL A   1      30.360  22.982  27.502  1.00  0.00    -0.275 OA
BRANCH  14  17
ATOM     17  C   UNL A   1      31.677  26.067  26.273  1.00  0.00     0.044 A 
ATOM     18  C   UNL A   1      34.131  28.796  22.595  1.00  0.00     0.045 C 
ATOM     19  C   UNL A   1      32.703  28.642  23.026  1.00  0.00    -0.033 A 
ATOM     20  C   UNL A   1      31.688  29.098  22.277  1.00  0.00     0.098 A 
ATOM     21  C   UNL A   1      32.382  27.895  24.248  1.00  0.00     0.021 A 
ATOM     22  C   UNL A   1      30.272  28.884  22.615  1.00  0.00     0.336 A 
ATOM     23  C   UNL A   1      31.052  27.576  24.505  1.00  0.00     0.140 A 
ATOM     24  C   UNL A   1      33.344  27.418  25.143  1.00  0.00     0.014 A 
ATOM     25  O   UNL A   1      29.381  29.375  21.932  1.00  0.00    -0.246 OA
ATOM     26  O   UNL A   1      30.006  28.080  23.709  1.00  0.00    -0.423 OA
ATOM     27  C   UNL A   1      30.685  26.689  25.514  1.00  0.00     0.074 A 
ATOM     28  C   UNL A   1      32.989  26.526  26.164  1.00  0.00     0.027 A 
ENDBRANCH  14  17
ENDBRANCH  12  13
ENDBRANCH   7  12
ENDBRANCH   6   7
ENDBRANCH   4   6
ENDBRANCH   3   4
ENDBRANCH   2   3
ENDBRANCH   1   2
BRANCH   1  29
ATOM     29  O   UNL A   1      37.699  20.666  25.654  1.00  0.00    -0.374 OA
BRANCH  29  30
ATOM     30  C   UNL A   1      39.107  20.697  25.444  1.00  0.00     0.202 C 
BRANCH  30  31
ATOM     31  C   UNL A   1      39.928  21.258  26.608  1.00  0.00     0.261 C 
BRANCH  31  32
ATOM     32  O   UNL A   1      40.611  20.199  27.302  1.00  0.00    -0.460 OA
BRANCH  32  33
ATOM     33  C   UNL A   1      41.845  19.924  26.815  1.00  0.00     0.338 C 
ATOM     34  O   UNL A   1      42.215  18.886  26.294  1.00  0.00    -0.246 OA
BRANCH  33  35
ATOM     35  C   UNL A   1      42.677  21.142  26.828  1.00  0.00     0.060 A 
ATOM     36  C   UNL A   1      42.998  21.672  28.083  1.00  0.00     0.016 A 
ATOM     37  C   UNL A   1      43.081  21.792  25.658  1.00  0.00     0.016 A 
ATOM     38  C   UNL A   1      43.670  22.887  28.177  1.00  0.00     0.010 A 
ATOM     39  C   UNL A   1      43.751  23.018  25.754  1.00  0.00     0.010 A 
ATOM     40  C   UNL A   1      44.010  23.590  27.013  1.00  0.00    -0.014 A 
BRANCH  40  41
ATOM     41  C   UNL A   1      44.486  24.989  27.141  1.00  0.00     0.031 A 
ATOM     42  C   UNL A   1      43.508  26.054  27.561  1.00  0.00     0.074 A 
ATOM     43  C   UNL A   1      45.785  25.293  26.967  1.00  0.00     0.049 A 
ATOM     44  N   UNL A   1      43.717  27.325  27.790  1.00  0.00    -0.248 NA
ATOM     45  C   UNL A   1      42.111  25.629  27.754  1.00  0.00     0.031 C 
ATOM     46  C   UNL A   1      46.836  24.342  26.606  1.00  0.00     0.029 A 
ATOM     47  N   UNL A   1      46.442  26.492  27.084  1.00  0.00    -0.354 N 
ATOM     48  C   UNL A   1      42.482  27.851  28.155  1.00  0.00     0.074 A 
ATOM     49  C   UNL A   1      41.524  26.770  28.084  1.00  0.00     0.031 C 
ATOM     50  C   UNL A   1      48.008  24.996  26.535  1.00  0.00     0.029 A 
ATOM     51  C   UNL A   1      47.788  26.412  26.820  1.00  0.00     0.049 A 
ATOM     52  H   UNL A   1      45.991  27.332  27.334  1.00  0.00     0.167 HD
ATOM     53  C   UNL A   1      42.176  29.117  28.525  1.00  0.00     0.031 A 
ATOM     54  C   UNL A   1      48.733  27.374  26.800  1.00  0.00     0.031 A 
ATOM     55  C   UNL A   1      43.127  30.193  28.587  1.00  0.00     0.049 A 
ATOM     56  C   UNL A   1      48.354  28.789  27.147  1.00  0.00     0.074 A 
ATOM     57  C   UNL A   1      42.915  31.509  28.959  1.00  0.00     0.029 A 
ATOM     58  N   UNL A   1      44.470  30.081  28.260  1.00  0.00    -0.354 N 
ATOM     59  N   UNL A   1      47.186  29.263  27.513  1.00  0.00    -0.248 NA
ATOM     60  C   UNL A   1      49.421  29.798  27.086  1.00  0.00     0.031 C 
ATOM     61  C   UNL A   1      44.119  32.205  28.808  1.00  0.00     0.029 A 
ATOM     62  C   UNL A   1      45.094  31.309  28.397  1.00  0.00     0.049 A 
ATOM     63  H   UNL A   1      44.915  29.250  27.975  1.00  0.00     0.167 HD
ATOM     64  C   UNL A   1      47.385  30.620  27.748  1.00  0.00     0.074 A 
ATOM     65  C   UNL A   1      48.786  30.888  27.497  1.00  0.00     0.031 C 
ATOM     66  C   UNL A   1      46.489  31.560  28.139  1.00  0.00     0.031 A 
BRANCH  53  67
ATOM     67  C   UNL A   1      40.739  29.413  28.864  1.00  0.00    -0.014 A 
ATOM     68  C   UNL A   1      40.334  29.619  30.195  1.00  0.00     0.010 A 
ATOM     69  C   UNL A   1      39.791  29.528  27.833  1.00  0.00     0.010 A 
ATOM     70  C   UNL A   1      38.997  29.900  30.490  1.00  0.00     0.020 A 
ATOM     71  C   UNL A   1      38.458  29.832  28.122  1.00  0.00     0.020 A 
ATOM     72  C   UNL A   1      38.067  30.001  29.451  1.00  0.00     0.054 A 
BRANCH  72  73
ATOM     73  S   UNL A   1      36.342  30.390  29.860  1.00  0.00     0.124 S 
ATOM     74  O   UNL A   1      36.361  31.850  29.884  1.00  0.00    -0.237 OA
ATOM     75  O   UNL A   1      35.606  29.789  28.751  1.00  0.00    -0.237 OA
ATOM     76  O   UNL A   1      36.141  29.749  31.157  1.00  0.00    -0.744 OA
ENDBRANCH  72  73
ENDBRANCH  53  67
BRANCH  54  77
ATOM     77  C   UNL A   1      50.130  27.033  26.416  1.00  0.00    -0.014 A 
ATOM     78  C   UNL A   1      51.105  26.770  27.394  1.00  0.00     0.010 A 
ATOM     79  C   UNL A   1      50.492  26.976  25.058  1.00  0.00     0.010 A 
ATOM     80  C   UNL A   1      52.419  26.471  27.020  1.00  0.00     0.020 A 
ATOM     81  C   UNL A   1      51.797  26.653  24.680  1.00  0.00     0.020 A 
ATOM     82  C   UNL A   1      52.757  26.414  25.665  1.00  0.00     0.054 A 
BRANCH  82  83
ATOM     83  S   UNL A   1      54.455  25.975  25.198  1.00  0.00     0.124 S 
ATOM     84  O   UNL A   1      54.301  24.591  24.764  1.00  0.00    -0.237 OA
ATOM     85  O   UNL A   1      54.754  26.942  24.145  1.00  0.00    -0.237 OA
ATOM     86  O   UNL A   1      55.206  26.162  26.437  1.00  0.00    -0.744 OA
ENDBRANCH  82  83
ENDBRANCH  54  77
BRANCH  66  87
ATOM     87  C   UNL A   1      46.995  32.962  28.346  1.00  0.00    -0.014 A 
ATOM     88  C   UNL A   1      47.520  33.370  29.585  1.00  0.00     0.010 A 
ATOM     89  C   UNL A   1      47.005  33.864  27.265  1.00  0.00     0.010 A 
ATOM     90  C   UNL A   1      48.023  34.665  29.746  1.00  0.00     0.020 A 
ATOM     91  C   UNL A   1      47.530  35.150  27.416  1.00  0.00     0.020 A 
ATOM     92  C   UNL A   1      48.024  35.546  28.660  1.00  0.00     0.054 A 
BRANCH  92  93
ATOM     93  S   UNL A   1      48.727  37.204  28.881  1.00  0.00     0.124 S 
ATOM     94  O   UNL A   1      47.676  38.056  28.332  1.00  0.00    -0.237 OA
ATOM     95  O   UNL A   1      48.910  37.284  30.328  1.00  0.00    -0.237 OA
ATOM     96  O   UNL A   1      49.964  37.162  28.104  1.00  0.00    -0.744 OA
ENDBRANCH  92  93
ENDBRANCH  66  87
ENDBRANCH  40  41
ENDBRANCH  33  35
ENDBRANCH  32  33
ENDBRANCH  31  32
ENDBRANCH  30  31
ENDBRANCH  29  30
ENDBRANCH   1  29
TORSDOF 21
ENDMDL
MODEL 3
REMARK VINA RESULT:      -7.5      3.973     10.546
REMARK SMILES Cc1cc(=O)oc2cc(NC(=O)CC3(CC(=O)OCCOCCOC(=O)c4ccc(-c5c6nc(c(-c7ccc(S(=O)(=O)[O-])cc7)c7ccc([nH]7)c(-c7ccc(S(=O)(=O)[O-])cc7)c7nc(c(-c8ccc(S(=O)(=O)[O-])cc8)c8ccc5[nH]8)C=C7)C=C6)cc4)CCCC3)ccc12
REMARK SMILES IDX 20 1 19 2 18 3 16 4 17 5 15 6 14 7 87 8 90 9 88 10 89 11
REMARK SMILES IDX 13 12 11 13 10 14 12 16 9 17 1 18 2 19 3 20 93 21 4 22 7 23
REMARK SMILES IDX 92 24 5 25 6 26 8 27 91 28 21 29 22 30 23 31 24 32 25 33
REMARK SMILES IDX 26 34 27 35 28 36 86 37 29 38 85 39 30 40 31 41 32 42 79 43
REMARK SMILES IDX 33 44 84 45 78 46 80 47 34 48 83 49 77 50 76 51 35 53 65 54
REMARK SMILES IDX 46 55 64 56 47 57 50 58 63 59 81 60 48 61 49 62 62 64 82 65
REMARK SMILES IDX 51 66 36 67 37 68 45 69 38 70 44 71 39 72 40 73 41 74 42 75
REMARK SMILES IDX 43 76 66 77 67 78 75 79 68 80 74 81 69 82 70 83 71 84 72 85
REMARK SMILES IDX 73 86 52 87 53 88 61 89 54 90 60 91 55 92 56 93 57 94 58 95
REMARK SMILES IDX 59 96
REMARK H PARENT 10 15 80 52 50 63
REMARK Flexibility Score: inf
ROOT
ATOM      1  C   UNL A   1      45.849  24.167  25.116  1.00  0.00     0.202 C 
ENDROOT
BRANCH   1   2
ATOM      2  C   UNL A   1      45.237  23.508  26.359  1.00  0.00     0.261 C 
BRANCH   2   3
ATOM      3  O   UNL A   1      44.666  22.211  26.067  1.00  0.00    -0.463 OA
BRANCH   3   4
ATOM      4  C   UNL A   1      43.356  22.189  25.710  1.00  0.00     0.306 C 
ATOM      5  O   UNL A   1      42.817  21.285  25.086  1.00  0.00    -0.252 OA
BRANCH   4   6
ATOM      6  C   UNL A   1      42.630  23.470  26.078  1.00  0.00     0.130 C 
BRANCH   6   7
ATOM      7  C   UNL A   1      41.484  23.464  27.137  1.00  0.00    -0.011 C 
ATOM      8  C   UNL A   1      41.641  24.761  27.964  1.00  0.00     0.008 C 
ATOM      9  C   UNL A   1      41.703  22.410  28.250  1.00  0.00     0.008 C 
ATOM     10  C   UNL A   1      42.756  24.489  28.969  1.00  0.00     0.001 C 
ATOM     11  C   UNL A   1      42.773  22.979  29.178  1.00  0.00     0.001 C 
BRANCH   7  12
ATOM     12  C   UNL A   1      40.085  23.259  26.497  1.00  0.00     0.108 C 
BRANCH  12  13
ATOM     13  C   UNL A   1      39.425  21.894  26.495  1.00  0.00     0.224 C 
ATOM     14  N   UNL A   1      38.182  21.643  25.999  1.00  0.00    -0.326 N 
ATOM     15  H   UNL A   1      37.858  20.733  26.185  1.00  0.00     0.169 HD
ATOM     16  O   UNL A   1      40.040  20.929  26.965  1.00  0.00    -0.275 OA
BRANCH  14  17
ATOM     17  C   UNL A   1      37.271  22.425  25.274  1.00  0.00     0.044 A 
ATOM     18  C   UNL A   1      33.266  23.437  22.122  1.00  0.00     0.045 C 
ATOM     19  C   UNL A   1      33.629  23.808  23.530  1.00  0.00    -0.033 A 
ATOM     20  C   UNL A   1      32.737  24.366  24.362  1.00  0.00     0.098 A 
ATOM     21  C   UNL A   1      34.957  23.474  24.057  1.00  0.00     0.021 A 
ATOM     22  C   UNL A   1      33.022  24.657  25.776  1.00  0.00     0.336 A 
ATOM     23  C   UNL A   1      35.190  23.625  25.421  1.00  0.00     0.140 A 
ATOM     24  C   UNL A   1      35.991  22.945  23.280  1.00  0.00     0.014 A 
ATOM     25  O   UNL A   1      32.196  25.225  26.480  1.00  0.00    -0.246 OA
ATOM     26  O   UNL A   1      34.241  24.227  26.269  1.00  0.00    -0.423 OA
ATOM     27  C   UNL A   1      36.337  23.129  26.035  1.00  0.00     0.074 A 
ATOM     28  C   UNL A   1      37.152  22.442  23.885  1.00  0.00     0.027 A 
ENDBRANCH  14  17
ENDBRANCH  12  13
ENDBRANCH   7  12
ENDBRANCH   6   7
ENDBRANCH   4   6
ENDBRANCH   3   4
ENDBRANCH   2   3
ENDBRANCH   1   2
BRANCH   1  29
ATOM     29  O   UNL A   1      45.317  25.451  24.769  1.00  0.00    -0.374 OA
BRANCH  29  30
ATOM     30  C   UNL A   1      45.936  26.559  25.415  1.00  0.00     0.202 C 
BRANCH  30  31
ATOM     31  C   UNL A   1      44.999  27.433  26.252  1.00  0.00     0.261 C 
BRANCH  31  32
ATOM     32  O   UNL A   1      43.642  26.965  26.150  1.00  0.00    -0.460 OA
BRANCH  32  33
ATOM     33  C   UNL A   1      42.753  27.920  25.785  1.00  0.00     0.338 C 
ATOM     34  O   UNL A   1      42.362  28.169  24.658  1.00  0.00    -0.246 OA
BRANCH  33  35
ATOM     35  C   UNL A   1      42.154  28.537  26.984  1.00  0.00     0.060 A 
ATOM     36  C   UNL A   1      42.677  29.770  27.386  1.00  0.00     0.016 A 
ATOM     37  C   UNL A   1      41.159  27.907  27.737  1.00  0.00     0.016 A 
ATOM     38  C   UNL A   1      42.254  30.353  28.577  1.00  0.00     0.010 A 
ATOM     39  C   UNL A   1      40.738  28.492  28.939  1.00  0.00     0.010 A 
ATOM     40  C   UNL A   1      41.315  29.696  29.383  1.00  0.00    -0.014 A 
BRANCH  40  41
ATOM     41  C   UNL A   1      41.077  30.203  30.756  1.00  0.00     0.031 A 
ATOM     42  C   UNL A   1      42.095  29.910  31.827  1.00  0.00     0.074 A 
ATOM     43  C   UNL A   1      40.015  30.982  31.028  1.00  0.00     0.049 A 
ATOM     44  N   UNL A   1      42.119  30.301  33.074  1.00  0.00    -0.248 NA
ATOM     45  C   UNL A   1      43.240  29.070  31.436  1.00  0.00     0.031 C 
ATOM     46  C   UNL A   1      38.986  31.376  30.066  1.00  0.00     0.029 A 
ATOM     47  N   UNL A   1      39.634  31.593  32.197  1.00  0.00    -0.354 N 
ATOM     48  C   UNL A   1      43.278  29.758  33.619  1.00  0.00     0.074 A 
ATOM     49  C   UNL A   1      43.913  28.983  32.574  1.00  0.00     0.031 C 
ATOM     50  C   UNL A   1      38.091  32.166  30.685  1.00  0.00     0.029 A 
ATOM     51  C   UNL A   1      38.469  32.314  32.088  1.00  0.00     0.049 A 
ATOM     52  H   UNL A   1      40.147  31.521  33.034  1.00  0.00     0.167 HD
ATOM     53  C   UNL A   1      43.775  29.899  34.870  1.00  0.00     0.031 A 
ATOM     54  C   UNL A   1      37.780  33.006  33.019  1.00  0.00     0.031 A 
ATOM     55  C   UNL A   1      43.139  30.663  35.910  1.00  0.00     0.049 A 
ATOM     56  C   UNL A   1      38.317  33.090  34.423  1.00  0.00     0.074 A 
ATOM     57  C   UNL A   1      43.569  30.874  37.208  1.00  0.00     0.029 A 
ATOM     58  N   UNL A   1      41.934  31.334  35.773  1.00  0.00    -0.354 N 
ATOM     59  N   UNL A   1      39.427  32.591  34.913  1.00  0.00    -0.248 NA
ATOM     60  C   UNL A   1      37.511  33.839  35.399  1.00  0.00     0.031 C 
ATOM     61  C   UNL A   1      42.597  31.629  37.872  1.00  0.00     0.029 A 
ATOM     62  C   UNL A   1      41.591  31.938  36.971  1.00  0.00     0.049 A 
ATOM     63  H   UNL A   1      41.401  31.377  34.946  1.00  0.00     0.167 HD
ATOM     64  C   UNL A   1      39.464  32.985  36.247  1.00  0.00     0.074 A 
ATOM     65  C   UNL A   1      38.274  33.775  36.483  1.00  0.00     0.031 C 
ATOM     66  C   UNL A   1      40.400  32.718  37.191  1.00  0.00     0.031 A 
BRANCH  53  67
ATOM     67  C   UNL A   1      45.060  29.185  35.193  1.00  0.00    -0.014 A 
ATOM     68  C   UNL A   1      46.300  29.843  35.102  1.00  0.00     0.010 A 
ATOM     69  C   UNL A   1      45.023  27.850  35.632  1.00  0.00     0.010 A 
ATOM     70  C   UNL A   1      47.483  29.165  35.412  1.00  0.00     0.020 A 
ATOM     71  C   UNL A   1      46.201  27.177  35.966  1.00  0.00     0.020 A 
ATOM     72  C   UNL A   1      47.425  27.835  35.839  1.00  0.00     0.054 A 
BRANCH  72  73
ATOM     73  S   UNL A   1      48.973  26.986  36.257  1.00  0.00     0.124 S 
ATOM     74  O   UNL A   1      48.649  26.394  37.553  1.00  0.00    -0.237 OA
ATOM     75  O   UNL A   1      49.128  26.040  35.156  1.00  0.00    -0.237 OA
ATOM     76  O   UNL A   1      49.959  28.062  36.295  1.00  0.00    -0.744 OA
ENDBRANCH  72  73
ENDBRANCH  53  67
BRANCH  54  77
ATOM     77  C   UNL A   1      36.493  33.658  32.655  1.00  0.00    -0.014 A 
ATOM     78  C   UNL A   1      35.403  32.900  32.193  1.00  0.00     0.010 A 
ATOM     79  C   UNL A   1      36.356  35.054  32.766  1.00  0.00     0.010 A 
ATOM     80  C   UNL A   1      34.205  33.528  31.836  1.00  0.00     0.020 A 
ATOM     81  C   UNL A   1      35.153  35.681  32.434  1.00  0.00     0.020 A 
ATOM     82  C   UNL A   1      34.088  34.915  31.959  1.00  0.00     0.054 A 
BRANCH  82  83
ATOM     83  S   UNL A   1      32.510  35.706  31.538  1.00  0.00     0.124 S 
ATOM     84  O   UNL A   1      31.597  35.087  32.494  1.00  0.00    -0.237 OA
ATOM     85  O   UNL A   1      32.796  37.121  31.757  1.00  0.00    -0.237 OA
ATOM     86  O   UNL A   1      32.303  35.329  30.141  1.00  0.00    -0.744 OA
ENDBRANCH  82  83
ENDBRANCH  54  77
BRANCH  66  87
ATOM     87  C   UNL A   1      40.194  33.304  38.562  1.00  0.00    -0.014 A 
ATOM     88  C   UNL A   1      40.835  34.494  38.948  1.00  0.00     0.010 A 
ATOM     89  C   UNL A   1      39.294  32.689  39.452  1.00  0.00     0.010 A 
ATOM     90  C   UNL A   1      40.599  35.045  40.211  1.00  0.00     0.020 A 
ATOM     91  C   UNL A   1      39.038  33.250  40.706  1.00  0.00     0.020 A 
ATOM     92  C   UNL A   1      39.702  34.419  41.082  1.00  0.00     0.054 A 
BRANCH  92  93
ATOM     93  S   UNL A   1      39.376  35.180  42.697  1.00  0.00     0.124 S 
ATOM     94  O   UNL A   1      39.534  34.047  43.604  1.00  0.00    -0.237 OA
ATOM     95  O   UNL A   1      40.412  36.205  42.783  1.00  0.00    -0.237 OA
ATOM     96  O   UNL A   1      38.012  35.690  42.569  1.00  0.00    -0.744 OA
ENDBRANCH  92  93
ENDBRANCH  66  87
ENDBRANCH  40  41
ENDBRANCH  33  35
ENDBRANCH  32  33
ENDBRANCH  31  32
ENDBRANCH  30  31
ENDBRANCH  29  30
ENDBRANCH   1  29
TORSDOF 21
ENDMDL
