MODEL 1
REMARK VINA RESULT:      -8.9      0.000      0.000
REMARK SMILES O=C(CCOCc1ccccc1)OCCOCCOC(=O)c1ccc(-c2c3nc(c(-c4ccc(S(=O)(=O)[O-])cc4)c4ccc([nH]4)c(-c4ccc(S(=O)(=O)[O-])cc4)c4nc(c(-c5ccc(S(=O)(=O)[O-])cc5)c5ccc2[nH]5)C=C4)C=C3)cc1
REMARK SMILES IDX 15 1 14 2 13 3 2 4 1 5 3 6 4 7 5 8 6 9 7 10 8 11 12 12 9 13
REMARK SMILES IDX 11 14 10 15 16 16 17 17 18 18 19 19 20 20 21 21 22 22 23 23
REMARK SMILES IDX 81 24 24 25 80 26 25 27 26 28 27 29 74 30 28 31 79 32 73 33
REMARK SMILES IDX 75 34 29 35 78 36 72 37 71 38 30 40 60 41 41 42 59 43 42 44
REMARK SMILES IDX 45 45 58 46 76 47 43 48 44 49 57 51 77 52 46 53 31 54 32 55
REMARK SMILES IDX 40 56 33 57 39 58 34 59 35 60 36 61 37 62 38 63 61 64 62 65
REMARK SMILES IDX 70 66 63 67 69 68 64 69 65 70 66 71 67 72 68 73 47 74 48 75
REMARK SMILES IDX 56 76 49 77 55 78 50 79 51 80 52 81 53 82 54 83
REMARK H PARENT 75 39 45 50
REMARK Flexibility Score: inf
ROOT
ATOM      1  C   UNL A   1      46.307  22.624  24.273  1.00  0.00     0.202 C 
ENDROOT
BRANCH   1   2
ATOM      2  C   UNL A   1      45.906  21.365  25.048  1.00  0.00     0.261 C 
BRANCH   2   3
ATOM      3  O   UNL A   1      45.084  20.361  24.429  1.00  0.00    -0.463 OA
BRANCH   3   4
ATOM      4  C   UNL A   1      44.104  19.616  24.970  1.00  0.00     0.308 C 
ATOM      5  O   UNL A   1      44.056  18.408  24.742  1.00  0.00    -0.252 OA
BRANCH   4   6
ATOM      6  C   UNL A   1      43.013  20.287  25.736  1.00  0.00     0.151 C 
BRANCH   6   7
ATOM      7  C   UNL A   1      42.124  19.477  26.658  1.00  0.00     0.172 C 
BRANCH   7   8
ATOM      8  O   UNL A   1      41.440  20.074  27.732  1.00  0.00    -0.376 OA
BRANCH   8   9
ATOM      9  C   UNL A   1      40.956  21.411  27.719  1.00  0.00     0.195 C 
BRANCH   9  10
ATOM     10  C   UNL A   1      39.839  21.972  26.863  1.00  0.00    -0.022 A 
ATOM     11  C   UNL A   1      39.540  23.335  27.080  1.00  0.00     0.006 A 
ATOM     12  C   UNL A   1      39.040  21.276  25.957  1.00  0.00     0.006 A 
ATOM     13  C   UNL A   1      38.476  23.965  26.437  1.00  0.00     0.000 A 
ATOM     14  C   UNL A   1      37.963  21.902  25.318  1.00  0.00     0.000 A 
ATOM     15  C   UNL A   1      37.678  23.242  25.559  1.00  0.00     0.000 A 
ENDBRANCH   9  10
ENDBRANCH   8   9
ENDBRANCH   7   8
ENDBRANCH   6   7
ENDBRANCH   4   6
ENDBRANCH   3   4
ENDBRANCH   2   3
ENDBRANCH   1   2
BRANCH   1  16
ATOM     16  O   UNL A   1      45.473  23.772  24.232  1.00  0.00    -0.374 OA
BRANCH  16  17
ATOM     17  C   UNL A   1      44.156  23.749  24.761  1.00  0.00     0.202 C 
BRANCH  17  18
ATOM     18  C   UNL A   1      43.820  24.749  25.861  1.00  0.00     0.261 C 
BRANCH  18  19
ATOM     19  O   UNL A   1      42.413  24.999  25.961  1.00  0.00    -0.460 OA
BRANCH  19  20
ATOM     20  C   UNL A   1      42.062  26.303  25.975  1.00  0.00     0.338 C 
ATOM     21  O   UNL A   1      41.618  26.961  25.042  1.00  0.00    -0.246 OA
BRANCH  20  22
ATOM     22  C   UNL A   1      42.152  26.821  27.347  1.00  0.00     0.060 A 
ATOM     23  C   UNL A   1      41.329  26.251  28.325  1.00  0.00     0.016 A 
ATOM     24  C   UNL A   1      42.981  27.905  27.648  1.00  0.00     0.016 A 
ATOM     25  C   UNL A   1      41.284  26.805  29.601  1.00  0.00     0.010 A 
ATOM     26  C   UNL A   1      42.926  28.467  28.924  1.00  0.00     0.010 A 
ATOM     27  C   UNL A   1      42.041  27.948  29.886  1.00  0.00    -0.014 A 
BRANCH  27  28
ATOM     28  C   UNL A   1      41.748  28.736  31.104  1.00  0.00     0.031 A 
ATOM     29  C   UNL A   1      40.570  29.670  31.077  1.00  0.00     0.074 A 
ATOM     30  C   UNL A   1      42.507  28.616  32.205  1.00  0.00     0.049 A 
ATOM     31  N   UNL A   1      40.146  30.497  31.996  1.00  0.00    -0.248 NA
ATOM     32  C   UNL A   1      39.765  29.675  29.843  1.00  0.00     0.031 C 
ATOM     33  C   UNL A   1      43.642  27.707  32.357  1.00  0.00     0.029 A 
ATOM     34  N   UNL A   1      42.436  29.275  33.405  1.00  0.00    -0.354 N 
ATOM     35  C   UNL A   1      39.038  31.132  31.446  1.00  0.00     0.074 A 
ATOM     36  C   UNL A   1      38.873  30.616  30.105  1.00  0.00     0.031 C 
ATOM     37  C   UNL A   1      44.167  27.871  33.583  1.00  0.00     0.029 A 
ATOM     38  C   UNL A   1      43.429  28.921  34.285  1.00  0.00     0.049 A 
ATOM     39  H   UNL A   1      41.740  29.939  33.615  1.00  0.00     0.167 HD
ATOM     40  C   UNL A   1      38.229  32.060  32.009  1.00  0.00     0.031 A 
ATOM     41  C   UNL A   1      43.717  29.405  35.508  1.00  0.00     0.031 A 
ATOM     42  C   UNL A   1      38.418  32.584  33.335  1.00  0.00     0.049 A 
ATOM     43  C   UNL A   1      42.850  30.491  36.088  1.00  0.00     0.074 A 
ATOM     44  C   UNL A   1      37.655  33.519  34.010  1.00  0.00     0.029 A 
ATOM     45  N   UNL A   1      39.456  32.224  34.184  1.00  0.00    -0.354 N 
ATOM     46  N   UNL A   1      41.792  31.069  35.569  1.00  0.00    -0.248 NA
ATOM     47  C   UNL A   1      43.209  30.982  37.425  1.00  0.00     0.031 C 
ATOM     48  C   UNL A   1      38.266  33.769  35.244  1.00  0.00     0.029 A 
ATOM     49  C   UNL A   1      39.370  32.938  35.366  1.00  0.00     0.049 A 
ATOM     50  H   UNL A   1      40.152  31.559  33.975  1.00  0.00     0.167 HD
ATOM     51  C   UNL A   1      41.340  31.969  36.529  1.00  0.00     0.074 A 
ATOM     52  C   UNL A   1      42.235  31.852  37.662  1.00  0.00     0.031 C 
ATOM     53  C   UNL A   1      40.275  32.809  36.482  1.00  0.00     0.031 A 
BRANCH  40  54
ATOM     54  C   UNL A   1      37.103  32.598  31.164  1.00  0.00    -0.014 A 
ATOM     55  C   UNL A   1      35.763  32.252  31.418  1.00  0.00     0.010 A 
ATOM     56  C   UNL A   1      37.392  33.462  30.091  1.00  0.00     0.010 A 
ATOM     57  C   UNL A   1      34.741  32.711  30.583  1.00  0.00     0.020 A 
ATOM     58  C   UNL A   1      36.369  33.949  29.273  1.00  0.00     0.020 A 
ATOM     59  C   UNL A   1      35.052  33.552  29.510  1.00  0.00     0.054 A 
BRANCH  59  60
ATOM     60  S   UNL A   1      33.708  34.127  28.436  1.00  0.00     0.124 S 
ATOM     61  O   UNL A   1      32.743  34.635  29.408  1.00  0.00    -0.237 OA
ATOM     62  O   UNL A   1      34.365  35.140  27.616  1.00  0.00    -0.237 OA
ATOM     63  O   UNL A   1      33.296  32.921  27.722  1.00  0.00    -0.744 OA
ENDBRANCH  59  60
ENDBRANCH  40  54
BRANCH  41  64
ATOM     64  C   UNL A   1      44.880  28.860  36.262  1.00  0.00    -0.014 A 
ATOM     65  C   UNL A   1      44.735  27.718  37.069  1.00  0.00     0.010 A 
ATOM     66  C   UNL A   1      46.146  29.463  36.151  1.00  0.00     0.010 A 
ATOM     67  C   UNL A   1      45.834  27.190  37.751  1.00  0.00     0.020 A 
ATOM     68  C   UNL A   1      47.254  28.923  36.811  1.00  0.00     0.020 A 
ATOM     69  C   UNL A   1      47.089  27.791  37.612  1.00  0.00     0.054 A 
BRANCH  69  70
ATOM     70  S   UNL A   1      48.514  27.039  38.445  1.00  0.00     0.124 S 
ATOM     71  O   UNL A   1      49.632  27.559  37.665  1.00  0.00    -0.237 OA
ATOM     72  O   UNL A   1      48.393  27.560  39.804  1.00  0.00    -0.237 OA
ATOM     73  O   UNL A   1      48.271  25.604  38.312  1.00  0.00    -0.744 OA
ENDBRANCH  69  70
ENDBRANCH  41  64
BRANCH  53  74
ATOM     74  C   UNL A   1      39.991  33.640  37.706  1.00  0.00    -0.014 A 
ATOM     75  C   UNL A   1      40.474  34.953  37.833  1.00  0.00     0.010 A 
ATOM     76  C   UNL A   1      39.174  33.109  38.722  1.00  0.00     0.010 A 
ATOM     77  C   UNL A   1      40.173  35.710  38.969  1.00  0.00     0.020 A 
ATOM     78  C   UNL A   1      38.845  33.872  39.844  1.00  0.00     0.020 A 
ATOM     79  C   UNL A   1      39.360  35.163  39.968  1.00  0.00     0.054 A 
BRANCH  79  80
ATOM     80  S   UNL A   1      38.951  36.179  41.413  1.00  0.00     0.124 S 
ATOM     81  O   UNL A   1      37.682  35.599  41.844  1.00  0.00    -0.237 OA
ATOM     82  O   UNL A   1      40.085  35.942  42.304  1.00  0.00    -0.237 OA
ATOM     83  O   UNL A   1      38.865  37.534  40.872  1.00  0.00    -0.744 OA
ENDBRANCH  79  80
ENDBRANCH  53  74
ENDBRANCH  27  28
ENDBRANCH  20  22
ENDBRANCH  19  20
ENDBRANCH  18  19
ENDBRANCH  17  18
ENDBRANCH  16  17
ENDBRANCH   1  16
TORSDOF 21
ENDMDL
MODEL 2
REMARK VINA RESULT:      -8.8      5.979     13.650
REMARK SMILES O=C(CCOCc1ccccc1)OCCOCCOC(=O)c1ccc(-c2c3nc(c(-c4ccc(S(=O)(=O)[O-])cc4)c4ccc([nH]4)c(-c4ccc(S(=O)(=O)[O-])cc4)c4nc(c(-c5ccc(S(=O)(=O)[O-])cc5)c5ccc2[nH]5)C=C4)C=C3)cc1
REMARK SMILES IDX 15 1 14 2 13 3 2 4 1 5 3 6 4 7 5 8 6 9 7 10 8 11 12 12 9 13
REMARK SMILES IDX 11 14 10 15 16 16 17 17 18 18 19 19 20 20 21 21 22 22 23 23
REMARK SMILES IDX 81 24 24 25 80 26 25 27 26 28 27 29 74 30 28 31 79 32 73 33
REMARK SMILES IDX 75 34 29 35 78 36 72 37 71 38 30 40 60 41 41 42 59 43 42 44
REMARK SMILES IDX 45 45 58 46 76 47 43 48 44 49 57 51 77 52 46 53 31 54 32 55
REMARK SMILES IDX 40 56 33 57 39 58 34 59 35 60 36 61 37 62 38 63 61 64 62 65
REMARK SMILES IDX 70 66 63 67 69 68 64 69 65 70 66 71 67 72 68 73 47 74 48 75
REMARK SMILES IDX 56 76 49 77 55 78 50 79 51 80 52 81 53 82 54 83
REMARK H PARENT 75 39 45 50
REMARK Flexibility Score: inf
ROOT
ATOM      1  C   UNL A   1      34.579  33.703  28.227  1.00  0.00     0.202 C 
ENDROOT
BRANCH   1   2
ATOM      2  C   UNL A   1      34.167  34.938  29.033  1.00  0.00     0.261 C 
BRANCH   2   3
ATOM      3  O   UNL A   1      33.193  34.829  30.086  1.00  0.00    -0.463 OA
BRANCH   3   4
ATOM      4  C   UNL A   1      32.901  35.703  31.064  1.00  0.00     0.308 C 
ATOM      5  O   UNL A   1      32.225  36.700  30.813  1.00  0.00    -0.252 OA
BRANCH   4   6
ATOM      6  C   UNL A   1      33.512  35.521  32.413  1.00  0.00     0.151 C 
BRANCH   6   7
ATOM      7  C   UNL A   1      34.940  35.028  32.540  1.00  0.00     0.172 C 
BRANCH   7   8
ATOM      8  O   UNL A   1      35.231  33.679  32.810  1.00  0.00    -0.376 OA
BRANCH   8   9
ATOM      9  C   UNL A   1      36.498  33.218  33.265  1.00  0.00     0.195 C 
BRANCH   9  10
ATOM     10  C   UNL A   1      37.691  32.832  32.415  1.00  0.00    -0.022 A 
ATOM     11  C   UNL A   1      37.867  33.597  31.240  1.00  0.00     0.006 A 
ATOM     12  C   UNL A   1      38.571  31.771  32.629  1.00  0.00     0.006 A 
ATOM     13  C   UNL A   1      38.863  33.298  30.313  1.00  0.00     0.000 A 
ATOM     14  C   UNL A   1      39.564  31.461  31.692  1.00  0.00     0.000 A 
ATOM     15  C   UNL A   1      39.709  32.219  30.535  1.00  0.00     0.000 A 
ENDBRANCH   9  10
ENDBRANCH   8   9
ENDBRANCH   7   8
ENDBRANCH   6   7
ENDBRANCH   4   6
ENDBRANCH   3   4
ENDBRANCH   2   3
ENDBRANCH   1   2
BRANCH   1  16
ATOM     16  O   UNL A   1      34.318  32.387  28.693  1.00  0.00    -0.374 OA
BRANCH  16  17
ATOM     17  C   UNL A   1      34.172  31.300  27.791  1.00  0.00     0.202 C 
BRANCH  17  18
ATOM     18  C   UNL A   1      35.206  30.182  27.861  1.00  0.00     0.261 C 
BRANCH  18  19
ATOM     19  O   UNL A   1      36.427  30.606  28.479  1.00  0.00    -0.460 OA
BRANCH  19  20
ATOM     20  C   UNL A   1      36.914  29.770  29.421  1.00  0.00     0.338 C 
ATOM     21  O   UNL A   1      36.356  29.404  30.448  1.00  0.00    -0.246 OA
BRANCH  20  22
ATOM     22  C   UNL A   1      38.201  29.220  28.972  1.00  0.00     0.060 A 
ATOM     23  C   UNL A   1      39.018  28.588  29.918  1.00  0.00     0.016 A 
ATOM     24  C   UNL A   1      38.630  29.392  27.654  1.00  0.00     0.016 A 
ATOM     25  C   UNL A   1      40.300  28.180  29.564  1.00  0.00     0.010 A 
ATOM     26  C   UNL A   1      39.920  28.994  27.303  1.00  0.00     0.010 A 
ATOM     27  C   UNL A   1      40.773  28.433  28.270  1.00  0.00    -0.014 A 
BRANCH  27  28
ATOM     28  C   UNL A   1      42.221  28.320  27.986  1.00  0.00     0.031 A 
ATOM     29  C   UNL A   1      43.092  29.514  28.260  1.00  0.00     0.074 A 
ATOM     30  C   UNL A   1      42.744  27.182  27.501  1.00  0.00     0.049 A 
ATOM     31  N   UNL A   1      44.371  29.674  28.045  1.00  0.00    -0.248 NA
ATOM     32  C   UNL A   1      42.428  30.687  28.854  1.00  0.00     0.031 C 
ATOM     33  C   UNL A   1      42.001  25.950  27.242  1.00  0.00     0.029 A 
ATOM     34  N   UNL A   1      44.031  26.886  27.133  1.00  0.00    -0.354 N 
ATOM     35  C   UNL A   1      44.661  30.970  28.461  1.00  0.00     0.074 A 
ATOM     36  C   UNL A   1      43.421  31.560  28.912  1.00  0.00     0.031 C 
ATOM     37  C   UNL A   1      42.847  25.029  26.750  1.00  0.00     0.029 A 
ATOM     38  C   UNL A   1      44.179  25.620  26.624  1.00  0.00     0.049 A 
ATOM     39  H   UNL A   1      44.778  27.522  27.224  1.00  0.00     0.167 HD
ATOM     40  C   UNL A   1      45.855  31.609  28.467  1.00  0.00     0.031 A 
ATOM     41  C   UNL A   1      45.263  25.016  26.100  1.00  0.00     0.031 A 
ATOM     42  C   UNL A   1      47.077  31.019  27.992  1.00  0.00     0.049 A 
ATOM     43  C   UNL A   1      46.566  25.770  26.047  1.00  0.00     0.074 A 
ATOM     44  C   UNL A   1      48.346  31.570  27.961  1.00  0.00     0.029 A 
ATOM     45  N   UNL A   1      47.181  29.744  27.453  1.00  0.00    -0.354 N 
ATOM     46  N   UNL A   1      46.834  26.986  26.461  1.00  0.00    -0.248 NA
ATOM     47  C   UNL A   1      47.716  25.064  25.465  1.00  0.00     0.031 C 
ATOM     48  C   UNL A   1      49.204  30.651  27.347  1.00  0.00     0.029 A 
ATOM     49  C   UNL A   1      48.484  29.500  27.061  1.00  0.00     0.049 A 
ATOM     50  H   UNL A   1      46.435  29.108  27.362  1.00  0.00     0.167 HD
ATOM     51  C   UNL A   1      48.191  27.180  26.220  1.00  0.00     0.074 A 
ATOM     52  C   UNL A   1      48.687  25.952  25.631  1.00  0.00     0.031 C 
ATOM     53  C   UNL A   1      48.958  28.271  26.471  1.00  0.00     0.031 A 
BRANCH  40  54
ATOM     54  C   UNL A   1      45.872  33.034  28.956  1.00  0.00    -0.014 A 
ATOM     55  C   UNL A   1      45.870  34.118  28.059  1.00  0.00     0.010 A 
ATOM     56  C   UNL A   1      45.896  33.294  30.339  1.00  0.00     0.010 A 
ATOM     57  C   UNL A   1      45.950  35.431  28.533  1.00  0.00     0.020 A 
ATOM     58  C   UNL A   1      45.945  34.605  30.818  1.00  0.00     0.020 A 
ATOM     59  C   UNL A   1      45.994  35.666  29.911  1.00  0.00     0.054 A 
BRANCH  59  60
ATOM     60  S   UNL A   1      46.108  37.377  30.499  1.00  0.00     0.124 S 
ATOM     61  O   UNL A   1      45.023  37.432  31.476  1.00  0.00    -0.237 OA
ATOM     62  O   UNL A   1      47.457  37.436  31.054  1.00  0.00    -0.237 OA
ATOM     63  O   UNL A   1      45.898  38.173  29.291  1.00  0.00    -0.744 OA
ENDBRANCH  59  60
ENDBRANCH  40  54
BRANCH  41  64
ATOM     64  C   UNL A   1      45.156  23.623  25.587  1.00  0.00    -0.014 A 
ATOM     65  C   UNL A   1      45.382  22.529  26.441  1.00  0.00     0.010 A 
ATOM     66  C   UNL A   1      44.796  23.382  24.248  1.00  0.00     0.010 A 
ATOM     67  C   UNL A   1      45.250  21.221  25.966  1.00  0.00     0.020 A 
ATOM     68  C   UNL A   1      44.638  22.076  23.776  1.00  0.00     0.020 A 
ATOM     69  C   UNL A   1      44.871  21.003  24.638  1.00  0.00     0.054 A 
BRANCH  69  70
ATOM     70  S   UNL A   1      44.631  19.297  24.068  1.00  0.00     0.124 S 
ATOM     71  O   UNL A   1      43.347  18.953  24.669  1.00  0.00    -0.237 OA
ATOM     72  O   UNL A   1      44.630  19.450  22.616  1.00  0.00    -0.237 OA
ATOM     73  O   UNL A   1      45.788  18.588  24.612  1.00  0.00    -0.744 OA
ENDBRANCH  69  70
ENDBRANCH  41  64
BRANCH  53  74
ATOM     74  C   UNL A   1      50.427  28.175  26.152  1.00  0.00    -0.014 A 
ATOM     75  C   UNL A   1      50.924  28.482  24.874  1.00  0.00     0.010 A 
ATOM     76  C   UNL A   1      51.332  27.826  27.173  1.00  0.00     0.010 A 
ATOM     77  C   UNL A   1      52.295  28.408  24.613  1.00  0.00     0.020 A 
ATOM     78  C   UNL A   1      52.705  27.781  26.925  1.00  0.00     0.020 A 
ATOM     79  C   UNL A   1      53.177  28.058  25.641  1.00  0.00     0.054 A 
BRANCH  79  80
ATOM     80  S   UNL A   1      54.955  28.010  25.288  1.00  0.00     0.124 S 
ATOM     81  O   UNL A   1      55.503  28.815  26.375  1.00  0.00    -0.237 OA
ATOM     82  O   UNL A   1      55.256  26.581  25.350  1.00  0.00    -0.237 OA
ATOM     83  O   UNL A   1      55.061  28.605  23.957  1.00  0.00    -0.744 OA
ENDBRANCH  79  80
ENDBRANCH  53  74
ENDBRANCH  27  28
ENDBRANCH  20  22
ENDBRANCH  19  20
ENDBRANCH  18  19
ENDBRANCH  17  18
ENDBRANCH  16  17
ENDBRANCH   1  16
TORSDOF 21
ENDMDL
MODEL 3
REMARK VINA RESULT:      -8.5      1.125      8.570
REMARK SMILES O=C(CCOCc1ccccc1)OCCOCCOC(=O)c1ccc(-c2c3nc(c(-c4ccc(S(=O)(=O)[O-])cc4)c4ccc([nH]4)c(-c4ccc(S(=O)(=O)[O-])cc4)c4nc(c(-c5ccc(S(=O)(=O)[O-])cc5)c5ccc2[nH]5)C=C4)C=C3)cc1
REMARK SMILES IDX 15 1 14 2 13 3 2 4 1 5 3 6 4 7 5 8 6 9 7 10 8 11 12 12 9 13
REMARK SMILES IDX 11 14 10 15 16 16 17 17 18 18 19 19 20 20 21 21 22 22 23 23
REMARK SMILES IDX 81 24 24 25 80 26 25 27 26 28 27 29 74 30 28 31 79 32 73 33
REMARK SMILES IDX 75 34 29 35 78 36 72 37 71 38 30 40 60 41 41 42 59 43 42 44
REMARK SMILES IDX 45 45 58 46 76 47 43 48 44 49 57 51 77 52 46 53 31 54 32 55
REMARK SMILES IDX 40 56 33 57 39 58 34 59 35 60 36 61 37 62 38 63 61 64 62 65
REMARK SMILES IDX 70 66 63 67 69 68 64 69 65 70 66 71 67 72 68 73 47 74 48 75
REMARK SMILES IDX 56 76 49 77 55 78 50 79 51 80 52 81 53 82 54 83
REMARK H PARENT 75 39 45 50
REMARK Flexibility Score: inf
ROOT
ATOM      1  C   UNL A   1      46.146  22.538  24.466  1.00  0.00     0.202 C 
ENDROOT
BRANCH   1   2
ATOM      2  C   UNL A   1      45.859  21.449  25.503  1.00  0.00     0.261 C 
BRANCH   2   3
ATOM      3  O   UNL A   1      45.808  20.066  25.111  1.00  0.00    -0.463 OA
BRANCH   3   4
ATOM      4  C   UNL A   1      44.836  19.162  25.317  1.00  0.00     0.308 C 
ATOM      5  O   UNL A   1      45.107  17.962  25.332  1.00  0.00    -0.252 OA
BRANCH   4   6
ATOM      6  C   UNL A   1      43.417  19.619  25.397  1.00  0.00     0.151 C 
BRANCH   6   7
ATOM      7  C   UNL A   1      42.543  19.184  26.556  1.00  0.00     0.172 C 
BRANCH   7   8
ATOM      8  O   UNL A   1      41.407  19.920  26.938  1.00  0.00    -0.376 OA
BRANCH   8   9
ATOM      9  C   UNL A   1      41.403  21.330  27.127  1.00  0.00     0.195 C 
BRANCH   9  10
ATOM     10  C   UNL A   1      40.232  22.274  26.951  1.00  0.00    -0.022 A 
ATOM     11  C   UNL A   1      39.205  21.808  26.100  1.00  0.00     0.006 A 
ATOM     12  C   UNL A   1      40.102  23.563  27.468  1.00  0.00     0.006 A 
ATOM     13  C   UNL A   1      38.111  22.605  25.767  1.00  0.00     0.000 A 
ATOM     14  C   UNL A   1      39.010  24.370  27.126  1.00  0.00     0.000 A 
ATOM     15  C   UNL A   1      38.018  23.894  26.274  1.00  0.00     0.000 A 
ENDBRANCH   9  10
ENDBRANCH   8   9
ENDBRANCH   7   8
ENDBRANCH   6   7
ENDBRANCH   4   6
ENDBRANCH   3   4
ENDBRANCH   2   3
ENDBRANCH   1   2
BRANCH   1  16
ATOM     16  O   UNL A   1      45.136  23.431  24.021  1.00  0.00    -0.374 OA
BRANCH  16  17
ATOM     17  C   UNL A   1      43.777  23.252  24.390  1.00  0.00     0.202 C 
BRANCH  17  18
ATOM     18  C   UNL A   1      43.214  24.167  25.472  1.00  0.00     0.261 C 
BRANCH  18  19
ATOM     19  O   UNL A   1      44.200  25.062  25.999  1.00  0.00    -0.460 OA
BRANCH  19  20
ATOM     20  C   UNL A   1      44.437  24.941  27.323  1.00  0.00     0.338 C 
ATOM     21  O   UNL A   1      45.211  24.164  27.870  1.00  0.00    -0.246 OA
BRANCH  20  22
ATOM     22  C   UNL A   1      43.720  25.998  28.049  1.00  0.00     0.060 A 
ATOM     23  C   UNL A   1      44.092  27.329  27.817  1.00  0.00     0.016 A 
ATOM     24  C   UNL A   1      42.747  25.680  29.000  1.00  0.00     0.016 A 
ATOM     25  C   UNL A   1      43.535  28.347  28.585  1.00  0.00     0.010 A 
ATOM     26  C   UNL A   1      42.199  26.700  29.777  1.00  0.00     0.010 A 
ATOM     27  C   UNL A   1      42.629  28.028  29.604  1.00  0.00    -0.014 A 
BRANCH  27  28
ATOM     28  C   UNL A   1      42.299  29.039  30.632  1.00  0.00     0.031 A 
ATOM     29  C   UNL A   1      43.193  29.144  31.836  1.00  0.00     0.074 A 
ATOM     30  C   UNL A   1      41.234  29.846  30.493  1.00  0.00     0.049 A 
ATOM     31  N   UNL A   1      43.082  29.911  32.889  1.00  0.00    -0.248 NA
ATOM     32  C   UNL A   1      44.370  28.258  31.857  1.00  0.00     0.031 C 
ATOM     33  C   UNL A   1      40.328  29.863  29.346  1.00  0.00     0.029 A 
ATOM     34  N   UNL A   1      40.733  30.804  31.336  1.00  0.00    -0.354 N 
ATOM     35  C   UNL A   1      44.162  29.589  33.703  1.00  0.00     0.074 A 
ATOM     36  C   UNL A   1      44.899  28.538  33.037  1.00  0.00     0.031 C 
ATOM     37  C   UNL A   1      39.375  30.786  29.561  1.00  0.00     0.029 A 
ATOM     38  C   UNL A   1      39.584  31.395  30.874  1.00  0.00     0.049 A 
ATOM     39  H   UNL A   1      41.158  31.046  32.191  1.00  0.00     0.167 HD
ATOM     40  C   UNL A   1      44.509  30.123  34.897  1.00  0.00     0.031 A 
ATOM     41  C   UNL A   1      38.782  32.308  31.456  1.00  0.00     0.031 A 
ATOM     42  C   UNL A   1      43.754  31.151  35.561  1.00  0.00     0.049 A 
ATOM     43  C   UNL A   1      39.145  32.836  32.819  1.00  0.00     0.074 A 
ATOM     44  C   UNL A   1      44.018  31.772  36.769  1.00  0.00     0.029 A 
ATOM     45  N   UNL A   1      42.575  31.700  35.077  1.00  0.00    -0.354 N 
ATOM     46  N   UNL A   1      40.180  32.540  33.571  1.00  0.00    -0.248 NA
ATOM     47  C   UNL A   1      38.237  33.829  33.408  1.00  0.00     0.031 C 
ATOM     48  C   UNL A   1      42.966  32.653  37.043  1.00  0.00     0.029 A 
ATOM     49  C   UNL A   1      42.084  32.633  35.972  1.00  0.00     0.049 A 
ATOM     50  H   UNL A   1      42.150  31.460  34.222  1.00  0.00     0.167 HD
ATOM     51  C   UNL A   1      40.064  33.336  34.707  1.00  0.00     0.074 A 
ATOM     52  C   UNL A   1      38.864  34.130  34.538  1.00  0.00     0.031 C 
ATOM     53  C   UNL A   1      40.883  33.410  35.788  1.00  0.00     0.031 A 
BRANCH  40  54
ATOM     54  C   UNL A   1      45.732  29.560  35.576  1.00  0.00    -0.014 A 
ATOM     55  C   UNL A   1      47.012  30.100  35.351  1.00  0.00     0.010 A 
ATOM     56  C   UNL A   1      45.598  28.465  36.451  1.00  0.00     0.010 A 
ATOM     57  C   UNL A   1      48.139  29.522  35.941  1.00  0.00     0.020 A 
ATOM     58  C   UNL A   1      46.719  27.904  37.067  1.00  0.00     0.020 A 
ATOM     59  C   UNL A   1      47.986  28.422  36.791  1.00  0.00     0.054 A 
BRANCH  59  60
ATOM     60  S   UNL A   1      49.466  27.684  37.536  1.00  0.00     0.124 S 
ATOM     61  O   UNL A   1      49.472  28.298  38.862  1.00  0.00    -0.237 OA
ATOM     62  O   UNL A   1      49.162  26.257  37.507  1.00  0.00    -0.237 OA
ATOM     63  O   UNL A   1      50.547  28.108  36.650  1.00  0.00    -0.744 OA
ENDBRANCH  59  60
ENDBRANCH  40  54
BRANCH  41  64
ATOM     64  C   UNL A   1      37.561  32.778  30.747  1.00  0.00    -0.014 A 
ATOM     65  C   UNL A   1      36.344  32.090  30.889  1.00  0.00     0.010 A 
ATOM     66  C   UNL A   1      37.602  33.938  29.951  1.00  0.00     0.010 A 
ATOM     67  C   UNL A   1      35.191  32.551  30.247  1.00  0.00     0.020 A 
ATOM     68  C   UNL A   1      36.446  34.417  29.328  1.00  0.00     0.020 A 
ATOM     69  C   UNL A   1      35.248  33.716  29.477  1.00  0.00     0.054 A 
BRANCH  69  70
ATOM     70  S   UNL A   1      33.720  34.337  28.719  1.00  0.00     0.124 S 
ATOM     71  O   UNL A   1      34.200  35.495  27.971  1.00  0.00    -0.237 OA
ATOM     72  O   UNL A   1      33.285  33.198  27.915  1.00  0.00    -0.237 OA
ATOM     73  O   UNL A   1      32.868  34.642  29.867  1.00  0.00    -0.744 OA
ENDBRANCH  69  70
ENDBRANCH  41  64
BRANCH  53  74
ATOM     74  C   UNL A   1      40.534  34.414  36.855  1.00  0.00    -0.014 A 
ATOM     75  C   UNL A   1      41.201  35.647  36.952  1.00  0.00     0.010 A 
ATOM     76  C   UNL A   1      39.475  34.136  37.742  1.00  0.00     0.010 A 
ATOM     77  C   UNL A   1      40.839  36.571  37.937  1.00  0.00     0.020 A 
ATOM     78  C   UNL A   1      39.091  35.068  38.707  1.00  0.00     0.020 A 
ATOM     79  C   UNL A   1      39.785  36.274  38.808  1.00  0.00     0.054 A 
BRANCH  79  80
ATOM     80  S   UNL A   1      39.308  37.506  40.051  1.00  0.00     0.124 S 
ATOM     81  O   UNL A   1      40.557  38.233  40.254  1.00  0.00    -0.237 OA
ATOM     82  O   UNL A   1      38.248  38.251  39.374  1.00  0.00    -0.237 OA
ATOM     83  O   UNL A   1      38.865  36.699  41.187  1.00  0.00    -0.744 OA
ENDBRANCH  79  80
ENDBRANCH  53  74
ENDBRANCH  27  28
ENDBRANCH  20  22
ENDBRANCH  19  20
ENDBRANCH  18  19
ENDBRANCH  17  18
ENDBRANCH  16  17
ENDBRANCH   1  16
TORSDOF 21
ENDMDL
