MODEL 1
REMARK VINA RESULT:      -9.2      0.000      0.000
REMARK SMILES Cc1nsc(N(C)C(=O)[C@@H](C)CCC[C@H](C)[NH3+])c1C(=O)OCCOCCOC(=O)c1ccc(-c2c3nc(c(-c4ccc(S(=O)(=O)[O-])cc4)c4ccc([nH]4)c(-c4ccc(S(=O)(=O)[O-])cc4)c4nc(c(-c5ccc(S(=O)(=O)[O-])cc5)c5ccc2[nH]5)C=C4)C=C3)cc1
REMARK SMILES IDX 22 1 21 2 19 3 20 4 18 5 1 6 2 7 3 8 4 9 5 10 6 11 7 12 8 13
REMARK SMILES IDX 9 14 10 15 11 16 12 17 13 18 14 19 15 20 16 21 17 22 23 26
REMARK SMILES IDX 24 27 25 28 26 29 27 30 28 31 29 32 30 33 31 34 89 35 32 36
REMARK SMILES IDX 88 37 33 38 34 39 35 40 82 41 36 42 87 43 81 44 83 45 37 46
REMARK SMILES IDX 86 47 80 48 79 49 38 51 68 52 49 53 67 54 50 55 53 56 66 57
REMARK SMILES IDX 84 58 51 59 52 60 65 62 85 63 54 64 39 65 40 66 48 67 41 68
REMARK SMILES IDX 47 69 42 70 43 71 44 72 45 73 46 74 69 75 70 76 78 77 71 78
REMARK SMILES IDX 77 79 72 80 73 81 74 82 75 83 76 84 55 85 56 86 64 87 57 88
REMARK SMILES IDX 63 89 58 90 59 91 60 92 61 93 62 94
REMARK H PARENT 17 23 17 24 17 25 83 50 53 61
REMARK Flexibility Score: inf
ROOT
ATOM      1  C   UNL A   1      33.977  28.539  26.436  1.00  0.00     0.261 C 
ENDROOT
BRANCH   1   2
ATOM      2  O   UNL A   1      33.231  27.330  26.247  1.00  0.00    -0.460 OA
BRANCH   2   3
ATOM      3  C   UNL A   1      33.431  26.724  25.044  1.00  0.00     0.343 C 
ATOM      4  O   UNL A   1      34.328  25.918  24.802  1.00  0.00    -0.246 OA
BRANCH   3   5
ATOM      5  C   UNL A   1      32.510  27.223  24.043  1.00  0.00     0.117 A 
ATOM      6  C   UNL A   1      34.256  28.905  23.047  1.00  0.00     0.069 C 
ATOM      7  C   UNL A   1      32.933  28.214  23.077  1.00  0.00     0.068 A 
ATOM      8  N   UNL A   1      32.041  28.548  22.151  1.00  0.00    -0.195 NA
ATOM      9  S   UNL A   1      30.646  27.742  22.441  1.00  0.00    -0.017 S 
ATOM     10  C   UNL A   1      31.152  26.914  23.876  1.00  0.00     0.133 A 
BRANCH  10  11
ATOM     11  N   UNL A   1      30.136  26.186  24.584  1.00  0.00    -0.305 N 
ATOM     12  C   UNL A   1      28.721  26.314  24.237  1.00  0.00     0.154 C 
BRANCH  11  13
ATOM     13  C   UNL A   1      30.513  25.390  25.664  1.00  0.00     0.230 C 
ATOM     14  O   UNL A   1      30.603  25.833  26.811  1.00  0.00    -0.274 OA
BRANCH  13  15
ATOM     15  C   UNL A   1      30.871  23.891  25.520  1.00  0.00     0.076 C 
ATOM     16  C   UNL A   1      31.432  23.394  24.187  1.00  0.00     0.018 C 
BRANCH  15  17
ATOM     17  C   UNL A   1      31.663  23.373  26.730  1.00  0.00     0.013 C 
BRANCH  17  18
ATOM     18  C   UNL A   1      33.178  23.262  26.496  1.00  0.00     0.007 C 
BRANCH  18  19
ATOM     19  C   UNL A   1      33.776  21.872  26.759  1.00  0.00     0.064 C 
BRANCH  19  20
ATOM     20  C   UNL A   1      35.232  21.738  26.276  1.00  0.00     0.177 C 
ATOM     21  C   UNL A   1      35.913  23.099  26.134  1.00  0.00     0.075 C 
BRANCH  20  22
ATOM     22  N   UNL A   1      35.264  21.043  24.985  1.00  0.00    -0.355 N 
ATOM     23  H   UNL A   1      35.539  20.071  25.128  1.00  0.00     0.344 HD
ATOM     24  H   UNL A   1      35.938  21.498  24.370  1.00  0.00     0.344 HD
ATOM     25  H   UNL A   1      34.338  21.074  24.558  1.00  0.00     0.344 HD
ENDBRANCH  20  22
ENDBRANCH  19  20
ENDBRANCH  18  19
ENDBRANCH  17  18
ENDBRANCH  15  17
ENDBRANCH  13  15
ENDBRANCH  11  13
ENDBRANCH  10  11
ENDBRANCH   3   5
ENDBRANCH   2   3
ENDBRANCH   1   2
BRANCH   1  26
ATOM     26  C   UNL A   1      33.023  29.732  26.539  1.00  0.00     0.202 C 
BRANCH  26  27
ATOM     27  O   UNL A   1      33.283  30.734  27.527  1.00  0.00    -0.374 OA
BRANCH  27  28
ATOM     28  C   UNL A   1      34.552  31.379  27.577  1.00  0.00     0.202 C 
BRANCH  28  29
ATOM     29  C   UNL A   1      34.676  32.745  28.220  1.00  0.00     0.261 C 
BRANCH  29  30
ATOM     30  O   UNL A   1      35.587  32.675  29.294  1.00  0.00    -0.460 OA
BRANCH  30  31
ATOM     31  C   UNL A   1      35.078  33.109  30.463  1.00  0.00     0.338 C 
ATOM     32  O   UNL A   1      34.073  33.793  30.629  1.00  0.00    -0.246 OA
BRANCH  31  33
ATOM     33  C   UNL A   1      36.014  32.729  31.526  1.00  0.00     0.060 A 
ATOM     34  C   UNL A   1      37.197  33.461  31.474  1.00  0.00     0.016 A 
ATOM     35  C   UNL A   1      35.954  31.405  31.992  1.00  0.00     0.016 A 
ATOM     36  C   UNL A   1      38.357  32.739  31.447  1.00  0.00     0.010 A 
ATOM     37  C   UNL A   1      37.110  30.678  31.928  1.00  0.00     0.010 A 
ATOM     38  C   UNL A   1      38.269  31.347  31.545  1.00  0.00    -0.014 A 
BRANCH  38  39
ATOM     39  C   UNL A   1      39.469  30.600  31.293  1.00  0.00     0.031 A 
ATOM     40  C   UNL A   1      40.255  30.388  32.517  1.00  0.00     0.074 A 
ATOM     41  C   UNL A   1      39.774  30.105  30.084  1.00  0.00     0.049 A 
ATOM     42  N   UNL A   1      41.382  30.931  32.823  1.00  0.00    -0.248 NA
ATOM     43  C   UNL A   1      39.599  29.663  33.614  1.00  0.00     0.031 C 
ATOM     44  C   UNL A   1      38.933  30.014  28.890  1.00  0.00     0.029 A 
ATOM     45  N   UNL A   1      40.897  29.436  29.729  1.00  0.00    -0.354 N 
ATOM     46  C   UNL A   1      41.669  30.473  34.098  1.00  0.00     0.074 A 
ATOM     47  C   UNL A   1      40.455  29.888  34.608  1.00  0.00     0.031 C 
ATOM     48  C   UNL A   1      39.479  29.104  28.049  1.00  0.00     0.029 A 
ATOM     49  C   UNL A   1      40.745  28.645  28.605  1.00  0.00     0.049 A 
ATOM     50  H   UNL A   1      41.745  29.507  30.225  1.00  0.00     0.167 HD
ATOM     51  C   UNL A   1      42.943  30.387  34.560  1.00  0.00     0.031 A 
ATOM     52  C   UNL A   1      41.542  27.601  28.266  1.00  0.00     0.031 A 
ATOM     53  C   UNL A   1      43.869  31.092  33.714  1.00  0.00     0.049 A 
ATOM     54  C   UNL A   1      42.828  27.770  29.005  1.00  0.00     0.074 A 
ATOM     55  C   UNL A   1      44.022  32.416  33.354  1.00  0.00     0.029 A 
ATOM     56  N   UNL A   1      44.554  30.352  32.776  1.00  0.00    -0.354 N 
ATOM     57  N   UNL A   1      43.661  28.749  28.775  1.00  0.00    -0.248 NA
ATOM     58  C   UNL A   1      42.970  27.144  30.314  1.00  0.00     0.031 C 
ATOM     59  C   UNL A   1      44.406  32.384  31.984  1.00  0.00     0.029 A 
ATOM     60  C   UNL A   1      44.519  31.047  31.592  1.00  0.00     0.049 A 
ATOM     61  H   UNL A   1      44.989  29.482  32.926  1.00  0.00     0.167 HD
ATOM     62  C   UNL A   1      44.118  29.142  30.028  1.00  0.00     0.074 A 
ATOM     63  C   UNL A   1      43.747  28.048  30.923  1.00  0.00     0.031 C 
ATOM     64  C   UNL A   1      44.489  30.433  30.277  1.00  0.00     0.031 A 
BRANCH  51  65
ATOM     65  C   UNL A   1      43.375  29.355  35.559  1.00  0.00    -0.014 A 
ATOM     66  C   UNL A   1      44.294  29.717  36.559  1.00  0.00     0.010 A 
ATOM     67  C   UNL A   1      43.102  27.980  35.399  1.00  0.00     0.010 A 
ATOM     68  C   UNL A   1      44.949  28.742  37.320  1.00  0.00     0.020 A 
ATOM     69  C   UNL A   1      43.710  27.004  36.185  1.00  0.00     0.020 A 
ATOM     70  C   UNL A   1      44.661  27.392  37.115  1.00  0.00     0.054 A 
BRANCH  70  71
ATOM     71  S   UNL A   1      45.604  26.133  38.006  1.00  0.00     0.124 S 
ATOM     72  O   UNL A   1      44.602  25.091  38.197  1.00  0.00    -0.237 OA
ATOM     73  O   UNL A   1      46.674  25.823  37.062  1.00  0.00    -0.237 OA
ATOM     74  O   UNL A   1      46.033  26.823  39.221  1.00  0.00    -0.744 OA
ENDBRANCH  70  71
ENDBRANCH  51  65
BRANCH  52  75
ATOM     75  C   UNL A   1      41.099  26.318  27.660  1.00  0.00    -0.014 A 
ATOM     76  C   UNL A   1      41.748  25.776  26.537  1.00  0.00     0.010 A 
ATOM     77  C   UNL A   1      40.178  25.488  28.339  1.00  0.00     0.010 A 
ATOM     78  C   UNL A   1      41.528  24.441  26.146  1.00  0.00     0.020 A 
ATOM     79  C   UNL A   1      39.940  24.167  27.949  1.00  0.00     0.020 A 
ATOM     80  C   UNL A   1      40.638  23.640  26.869  1.00  0.00     0.054 A 
BRANCH  80  81
ATOM     81  S   UNL A   1      40.495  21.871  26.481  1.00  0.00     0.124 S 
ATOM     82  O   UNL A   1      39.210  21.808  25.790  1.00  0.00    -0.237 OA
ATOM     83  O   UNL A   1      41.673  21.632  25.653  1.00  0.00    -0.237 OA
ATOM     84  O   UNL A   1      40.525  21.228  27.794  1.00  0.00    -0.744 OA
ENDBRANCH  80  81
ENDBRANCH  52  75
BRANCH  64  85
ATOM     85  C   UNL A   1      44.618  31.380  29.101  1.00  0.00    -0.014 A 
ATOM     86  C   UNL A   1      45.611  31.246  28.110  1.00  0.00     0.010 A 
ATOM     87  C   UNL A   1      43.597  32.324  28.896  1.00  0.00     0.010 A 
ATOM     88  C   UNL A   1      45.601  32.052  26.963  1.00  0.00     0.020 A 
ATOM     89  C   UNL A   1      43.568  33.118  27.745  1.00  0.00     0.020 A 
ATOM     90  C   UNL A   1      44.576  32.985  26.788  1.00  0.00     0.054 A 
BRANCH  90  91
ATOM     91  S   UNL A   1      44.533  33.986  25.275  1.00  0.00     0.124 S 
ATOM     92  O   UNL A   1      44.246  32.992  24.246  1.00  0.00    -0.237 OA
ATOM     93  O   UNL A   1      43.459  34.940  25.545  1.00  0.00    -0.237 OA
ATOM     94  O   UNL A   1      45.870  34.576  25.210  1.00  0.00    -0.744 OA
ENDBRANCH  90  91
ENDBRANCH  64  85
ENDBRANCH  38  39
ENDBRANCH  31  33
ENDBRANCH  30  31
ENDBRANCH  29  30
ENDBRANCH  28  29
ENDBRANCH  27  28
ENDBRANCH  26  27
ENDBRANCH   1  26
TORSDOF 25
ENDMDL
MODEL 2
REMARK VINA RESULT:      -9.2      1.922      3.324
REMARK SMILES Cc1nsc(N(C)C(=O)[C@@H](C)CCC[C@H](C)[NH3+])c1C(=O)OCCOCCOC(=O)c1ccc(-c2c3nc(c(-c4ccc(S(=O)(=O)[O-])cc4)c4ccc([nH]4)c(-c4ccc(S(=O)(=O)[O-])cc4)c4nc(c(-c5ccc(S(=O)(=O)[O-])cc5)c5ccc2[nH]5)C=C4)C=C3)cc1
REMARK SMILES IDX 22 1 21 2 19 3 20 4 18 5 1 6 2 7 3 8 4 9 5 10 6 11 7 12 8 13
REMARK SMILES IDX 9 14 10 15 11 16 12 17 13 18 14 19 15 20 16 21 17 22 23 26
REMARK SMILES IDX 24 27 25 28 26 29 27 30 28 31 29 32 30 33 31 34 89 35 32 36
REMARK SMILES IDX 88 37 33 38 34 39 35 40 82 41 36 42 87 43 81 44 83 45 37 46
REMARK SMILES IDX 86 47 80 48 79 49 38 51 68 52 49 53 67 54 50 55 53 56 66 57
REMARK SMILES IDX 84 58 51 59 52 60 65 62 85 63 54 64 39 65 40 66 48 67 41 68
REMARK SMILES IDX 47 69 42 70 43 71 44 72 45 73 46 74 69 75 70 76 78 77 71 78
REMARK SMILES IDX 77 79 72 80 73 81 74 82 75 83 76 84 55 85 56 86 64 87 57 88
REMARK SMILES IDX 63 89 58 90 59 91 60 92 61 93 62 94
REMARK H PARENT 17 23 17 24 17 25 83 50 53 61
REMARK Flexibility Score: inf
ROOT
ATOM      1  C   UNL A   1      34.365  28.889  26.954  1.00  0.00     0.261 C 
ENDROOT
BRANCH   1   2
ATOM      2  O   UNL A   1      34.194  28.566  25.570  1.00  0.00    -0.460 OA
BRANCH   2   3
ATOM      3  C   UNL A   1      33.062  27.863  25.287  1.00  0.00     0.343 C 
ATOM      4  O   UNL A   1      32.002  27.955  25.905  1.00  0.00    -0.246 OA
BRANCH   3   5
ATOM      5  C   UNL A   1      33.288  26.908  24.221  1.00  0.00     0.117 A 
ATOM      6  C   UNL A   1      33.576  28.771  22.400  1.00  0.00     0.069 C 
ATOM      7  C   UNL A   1      33.580  27.356  22.876  1.00  0.00     0.068 A 
ATOM      8  N   UNL A   1      33.851  26.406  21.989  1.00  0.00    -0.195 NA
ATOM      9  S   UNL A   1      33.701  24.945  22.710  1.00  0.00    -0.017 S 
ATOM     10  C   UNL A   1      33.214  25.508  24.274  1.00  0.00     0.133 A 
BRANCH  10  11
ATOM     11  N   UNL A   1      32.803  24.503  25.215  1.00  0.00    -0.305 N 
ATOM     12  C   UNL A   1      33.654  24.116  26.340  1.00  0.00     0.154 C 
BRANCH  11  13
ATOM     13  C   UNL A   1      31.593  23.846  25.006  1.00  0.00     0.230 C 
ATOM     14  O   UNL A   1      31.526  22.631  24.808  1.00  0.00    -0.274 OA
BRANCH  13  15
ATOM     15  C   UNL A   1      30.229  24.580  24.983  1.00  0.00     0.076 C 
ATOM     16  C   UNL A   1      29.810  25.389  26.210  1.00  0.00     0.018 C 
BRANCH  15  17
ATOM     17  C   UNL A   1      30.011  25.340  23.665  1.00  0.00     0.013 C 
BRANCH  17  18
ATOM     18  C   UNL A   1      29.343  26.715  23.829  1.00  0.00     0.007 C 
BRANCH  18  19
ATOM     19  C   UNL A   1      29.818  27.789  22.841  1.00  0.00     0.064 C 
BRANCH  19  20
ATOM     20  C   UNL A   1      29.249  29.188  23.146  1.00  0.00     0.177 C 
ATOM     21  C   UNL A   1      28.095  29.550  22.213  1.00  0.00     0.075 C 
BRANCH  20  22
ATOM     22  N   UNL A   1      30.310  30.192  23.017  1.00  0.00    -0.355 N 
ATOM     23  H   UNL A   1      30.519  30.588  23.934  1.00  0.00     0.344 HD
ATOM     24  H   UNL A   1      30.001  30.935  22.390  1.00  0.00     0.344 HD
ATOM     25  H   UNL A   1      31.150  29.754  22.638  1.00  0.00     0.344 HD
ENDBRANCH  20  22
ENDBRANCH  19  20
ENDBRANCH  18  19
ENDBRANCH  17  18
ENDBRANCH  15  17
ENDBRANCH  13  15
ENDBRANCH  11  13
ENDBRANCH  10  11
ENDBRANCH   3   5
ENDBRANCH   2   3
ENDBRANCH   1   2
BRANCH   1  26
ATOM     26  C   UNL A   1      34.220  30.398  27.163  1.00  0.00     0.202 C 
BRANCH  26  27
ATOM     27  O   UNL A   1      34.636  30.961  28.411  1.00  0.00    -0.374 OA
BRANCH  27  28
ATOM     28  C   UNL A   1      35.964  31.451  28.569  1.00  0.00     0.202 C 
BRANCH  28  29
ATOM     29  C   UNL A   1      36.907  30.771  29.541  1.00  0.00     0.261 C 
BRANCH  29  30
ATOM     30  O   UNL A   1      37.149  31.628  30.633  1.00  0.00    -0.460 OA
BRANCH  30  31
ATOM     31  C   UNL A   1      36.444  31.309  31.736  1.00  0.00     0.338 C 
ATOM     32  O   UNL A   1      35.316  31.687  32.033  1.00  0.00    -0.246 OA
BRANCH  31  33
ATOM     33  C   UNL A   1      37.316  30.516  32.609  1.00  0.00     0.060 A 
ATOM     34  C   UNL A   1      38.508  31.174  32.902  1.00  0.00     0.016 A 
ATOM     35  C   UNL A   1      37.217  29.118  32.517  1.00  0.00     0.016 A 
ATOM     36  C   UNL A   1      39.660  30.484  32.649  1.00  0.00     0.010 A 
ATOM     37  C   UNL A   1      38.366  28.437  32.229  1.00  0.00     0.010 A 
ATOM     38  C   UNL A   1      39.551  29.167  32.193  1.00  0.00    -0.014 A 
BRANCH  38  39
ATOM     39  C   UNL A   1      40.756  28.539  31.725  1.00  0.00     0.031 A 
ATOM     40  C   UNL A   1      41.733  28.345  32.806  1.00  0.00     0.074 A 
ATOM     41  C   UNL A   1      40.914  28.126  30.459  1.00  0.00     0.049 A 
ATOM     42  N   UNL A   1      42.845  28.972  32.973  1.00  0.00    -0.248 NA
ATOM     43  C   UNL A   1      41.311  27.518  33.946  1.00  0.00     0.031 C 
ATOM     44  C   UNL A   1      39.912  28.013  29.398  1.00  0.00     0.029 A 
ATOM     45  N   UNL A   1      42.021  27.575  29.906  1.00  0.00    -0.354 N 
ATOM     46  C   UNL A   1      43.358  28.486  34.164  1.00  0.00     0.074 A 
ATOM     47  C   UNL A   1      42.287  27.774  34.814  1.00  0.00     0.031 C 
ATOM     48  C   UNL A   1      40.395  27.193  28.437  1.00  0.00     0.029 A 
ATOM     49  C   UNL A   1      41.764  26.823  28.773  1.00  0.00     0.049 A 
ATOM     50  H   UNL A   1      42.925  27.699  30.275  1.00  0.00     0.167 HD
ATOM     51  C   UNL A   1      44.690  28.492  34.428  1.00  0.00     0.031 A 
ATOM     52  C   UNL A   1      42.582  25.868  28.263  1.00  0.00     0.031 A 
ATOM     53  C   UNL A   1      45.418  29.312  33.497  1.00  0.00     0.049 A 
ATOM     54  C   UNL A   1      43.947  26.118  28.813  1.00  0.00     0.074 A 
ATOM     55  C   UNL A   1      45.407  30.658  33.192  1.00  0.00     0.029 A 
ATOM     56  N   UNL A   1      46.010  28.676  32.427  1.00  0.00    -0.354 N 
ATOM     57  N   UNL A   1      44.654  27.175  28.518  1.00  0.00    -0.248 NA
ATOM     58  C   UNL A   1      44.336  25.451  30.049  1.00  0.00     0.031 C 
ATOM     59  C   UNL A   1      45.581  30.720  31.781  1.00  0.00     0.029 A 
ATOM     60  C   UNL A   1      45.741  29.416  31.302  1.00  0.00     0.049 A 
ATOM     61  H   UNL A   1      46.532  27.843  32.463  1.00  0.00     0.167 HD
ATOM     62  C   UNL A   1      45.263  27.552  29.710  1.00  0.00     0.074 A 
ATOM     63  C   UNL A   1      45.120  26.392  30.588  1.00  0.00     0.031 C 
ATOM     64  C   UNL A   1      45.562  28.860  29.974  1.00  0.00     0.031 A 
BRANCH  51  65
ATOM     65  C   UNL A   1      45.351  27.460  35.294  1.00  0.00    -0.014 A 
ATOM     66  C   UNL A   1      45.491  26.150  34.806  1.00  0.00     0.010 A 
ATOM     67  C   UNL A   1      45.613  27.671  36.664  1.00  0.00     0.010 A 
ATOM     68  C   UNL A   1      45.821  25.094  35.665  1.00  0.00     0.020 A 
ATOM     69  C   UNL A   1      45.992  26.638  37.517  1.00  0.00     0.020 A 
ATOM     70  C   UNL A   1      46.054  25.347  37.018  1.00  0.00     0.054 A 
BRANCH  70  71
ATOM     71  S   UNL A   1      46.349  23.966  38.145  1.00  0.00     0.124 S 
ATOM     72  O   UNL A   1      47.611  24.354  38.766  1.00  0.00    -0.237 OA
ATOM     73  O   UNL A   1      45.173  24.015  39.008  1.00  0.00    -0.237 OA
ATOM     74  O   UNL A   1      46.417  22.808  37.257  1.00  0.00    -0.744 OA
ENDBRANCH  70  71
ENDBRANCH  51  65
BRANCH  52  75
ATOM     75  C   UNL A   1      42.157  24.579  27.658  1.00  0.00    -0.014 A 
ATOM     76  C   UNL A   1      42.698  24.128  26.441  1.00  0.00     0.010 A 
ATOM     77  C   UNL A   1      41.388  23.659  28.405  1.00  0.00     0.010 A 
ATOM     78  C   UNL A   1      42.525  22.795  26.021  1.00  0.00     0.020 A 
ATOM     79  C   UNL A   1      41.195  22.339  27.987  1.00  0.00     0.020 A 
ATOM     80  C   UNL A   1      41.788  21.905  26.808  1.00  0.00     0.054 A 
BRANCH  80  81
ATOM     81  S   UNL A   1      41.721  20.145  26.362  1.00  0.00     0.124 S 
ATOM     82  O   UNL A   1      40.339  19.990  25.917  1.00  0.00    -0.237 OA
ATOM     83  O   UNL A   1      42.737  20.045  25.319  1.00  0.00    -0.237 OA
ATOM     84  O   UNL A   1      42.052  19.461  27.611  1.00  0.00    -0.744 OA
ENDBRANCH  80  81
ENDBRANCH  52  75
BRANCH  64  85
ATOM     85  C   UNL A   1      45.435  29.864  28.847  1.00  0.00    -0.014 A 
ATOM     86  C   UNL A   1      44.243  30.061  28.121  1.00  0.00     0.010 A 
ATOM     87  C   UNL A   1      46.499  30.759  28.633  1.00  0.00     0.010 A 
ATOM     88  C   UNL A   1      44.128  31.102  27.190  1.00  0.00     0.020 A 
ATOM     89  C   UNL A   1      46.384  31.813  27.721  1.00  0.00     0.020 A 
ATOM     90  C   UNL A   1      45.202  31.974  26.996  1.00  0.00     0.054 A 
BRANCH  90  91
ATOM     91  S   UNL A   1      45.028  33.355  25.832  1.00  0.00     0.124 S 
ATOM     92  O   UNL A   1      46.412  33.776  25.632  1.00  0.00    -0.237 OA
ATOM     93  O   UNL A   1      44.388  32.729  24.676  1.00  0.00    -0.237 OA
ATOM     94  O   UNL A   1      44.188  34.312  26.550  1.00  0.00    -0.744 OA
ENDBRANCH  90  91
ENDBRANCH  64  85
ENDBRANCH  38  39
ENDBRANCH  31  33
ENDBRANCH  30  31
ENDBRANCH  29  30
ENDBRANCH  28  29
ENDBRANCH  27  28
ENDBRANCH  26  27
ENDBRANCH   1  26
TORSDOF 25
ENDMDL
MODEL 3
REMARK VINA RESULT:      -9.1      4.368      7.342
REMARK SMILES Cc1nsc(N(C)C(=O)[C@@H](C)CCC[C@H](C)[NH3+])c1C(=O)OCCOCCOC(=O)c1ccc(-c2c3nc(c(-c4ccc(S(=O)(=O)[O-])cc4)c4ccc([nH]4)c(-c4ccc(S(=O)(=O)[O-])cc4)c4nc(c(-c5ccc(S(=O)(=O)[O-])cc5)c5ccc2[nH]5)C=C4)C=C3)cc1
REMARK SMILES IDX 22 1 21 2 19 3 20 4 18 5 1 6 2 7 3 8 4 9 5 10 6 11 7 12 8 13
REMARK SMILES IDX 9 14 10 15 11 16 12 17 13 18 14 19 15 20 16 21 17 22 23 26
REMARK SMILES IDX 24 27 25 28 26 29 27 30 28 31 29 32 30 33 31 34 89 35 32 36
REMARK SMILES IDX 88 37 33 38 34 39 35 40 82 41 36 42 87 43 81 44 83 45 37 46
REMARK SMILES IDX 86 47 80 48 79 49 38 51 68 52 49 53 67 54 50 55 53 56 66 57
REMARK SMILES IDX 84 58 51 59 52 60 65 62 85 63 54 64 39 65 40 66 48 67 41 68
REMARK SMILES IDX 47 69 42 70 43 71 44 72 45 73 46 74 69 75 70 76 78 77 71 78
REMARK SMILES IDX 77 79 72 80 73 81 74 82 75 83 76 84 55 85 56 86 64 87 57 88
REMARK SMILES IDX 63 89 58 90 59 91 60 92 61 93 62 94
REMARK H PARENT 17 23 17 24 17 25 83 50 53 61
REMARK Flexibility Score: inf
ROOT
ATOM      1  C   UNL A   1      35.311  24.234  24.974  1.00  0.00     0.261 C 
ENDROOT
BRANCH   1   2
ATOM      2  O   UNL A   1      34.786  25.441  25.539  1.00  0.00    -0.460 OA
BRANCH   2   3
ATOM      3  C   UNL A   1      33.857  26.071  24.767  1.00  0.00     0.343 C 
ATOM      4  O   UNL A   1      34.102  26.688  23.732  1.00  0.00    -0.246 OA
BRANCH   3   5
ATOM      5  C   UNL A   1      32.541  26.008  25.371  1.00  0.00     0.117 A 
ATOM      6  C   UNL A   1      33.022  28.001  27.003  1.00  0.00     0.069 C 
ATOM      7  C   UNL A   1      32.147  26.960  26.387  1.00  0.00     0.068 A 
ATOM      8  N   UNL A   1      30.895  26.871  26.820  1.00  0.00    -0.195 NA
ATOM      9  S   UNL A   1      30.165  25.607  26.079  1.00  0.00    -0.017 S 
ATOM     10  C   UNL A   1      31.522  25.070  25.147  1.00  0.00     0.133 A 
BRANCH  10  11
ATOM     11  N   UNL A   1      31.360  23.830  24.440  1.00  0.00    -0.305 N 
ATOM     12  C   UNL A   1      30.539  23.740  23.233  1.00  0.00     0.154 C 
BRANCH  11  13
ATOM     13  C   UNL A   1      31.954  22.681  24.959  1.00  0.00     0.230 C 
ATOM     14  O   UNL A   1      32.339  22.607  26.128  1.00  0.00    -0.274 OA
BRANCH  13  15
ATOM     15  C   UNL A   1      32.201  21.406  24.115  1.00  0.00     0.076 C 
ATOM     16  C   UNL A   1      32.459  21.557  22.616  1.00  0.00     0.018 C 
BRANCH  15  17
ATOM     17  C   UNL A   1      33.193  20.452  24.798  1.00  0.00     0.013 C 
BRANCH  17  18
ATOM     18  C   UNL A   1      32.534  19.283  25.549  1.00  0.00     0.007 C 
BRANCH  18  19
ATOM     19  C   UNL A   1      33.073  17.893  25.186  1.00  0.00     0.064 C 
BRANCH  19  20
ATOM     20  C   UNL A   1      34.252  17.938  24.197  1.00  0.00     0.177 C 
ATOM     21  C   UNL A   1      34.084  16.925  23.064  1.00  0.00     0.075 C 
BRANCH  20  22
ATOM     22  N   UNL A   1      35.506  17.665  24.908  1.00  0.00    -0.355 N 
ATOM     23  H   UNL A   1      35.406  16.812  25.458  1.00  0.00     0.344 HD
ATOM     24  H   UNL A   1      35.722  18.445  25.528  1.00  0.00     0.344 HD
ATOM     25  H   UNL A   1      36.262  17.547  24.233  1.00  0.00     0.344 HD
ENDBRANCH  20  22
ENDBRANCH  19  20
ENDBRANCH  18  19
ENDBRANCH  17  18
ENDBRANCH  15  17
ENDBRANCH  13  15
ENDBRANCH  11  13
ENDBRANCH  10  11
ENDBRANCH   3   5
ENDBRANCH   2   3
ENDBRANCH   1   2
BRANCH   1  26
ATOM     26  C   UNL A   1      35.728  23.272  26.089  1.00  0.00     0.202 C 
BRANCH  26  27
ATOM     27  O   UNL A   1      36.175  21.961  25.731  1.00  0.00    -0.374 OA
BRANCH  27  28
ATOM     28  C   UNL A   1      37.394  21.790  25.015  1.00  0.00     0.202 C 
BRANCH  28  29
ATOM     29  C   UNL A   1      38.526  20.994  25.633  1.00  0.00     0.261 C 
BRANCH  29  30
ATOM     30  O   UNL A   1      39.230  21.812  26.540  1.00  0.00    -0.460 OA
BRANCH  30  31
ATOM     31  C   UNL A   1      40.546  21.536  26.606  1.00  0.00     0.338 C 
ATOM     32  O   UNL A   1      41.081  20.591  27.176  1.00  0.00    -0.246 OA
BRANCH  31  33
ATOM     33  C   UNL A   1      41.267  22.647  25.976  1.00  0.00     0.060 A 
ATOM     34  C   UNL A   1      42.557  22.289  25.592  1.00  0.00     0.016 A 
ATOM     35  C   UNL A   1      40.923  23.947  26.379  1.00  0.00     0.016 A 
ATOM     36  C   UNL A   1      43.568  23.088  26.046  1.00  0.00     0.010 A 
ATOM     37  C   UNL A   1      41.934  24.729  26.865  1.00  0.00     0.010 A 
ATOM     38  C   UNL A   1      43.229  24.224  26.785  1.00  0.00    -0.014 A 
BRANCH  38  39
ATOM     39  C   UNL A   1      44.303  24.922  27.436  1.00  0.00     0.031 A 
ATOM     40  C   UNL A   1      44.319  24.683  28.886  1.00  0.00     0.074 A 
ATOM     41  C   UNL A   1      45.211  25.643  26.763  1.00  0.00     0.049 A 
ATOM     42  N   UNL A   1      44.019  25.520  29.817  1.00  0.00    -0.248 NA
ATOM     43  C   UNL A   1      44.467  23.289  29.330  1.00  0.00     0.031 C 
ATOM     44  C   UNL A   1      45.448  25.705  25.320  1.00  0.00     0.029 A 
ATOM     45  N   UNL A   1      46.225  26.377  27.280  1.00  0.00    -0.354 N 
ATOM     46  C   UNL A   1      44.115  24.799  30.996  1.00  0.00     0.074 A 
ATOM     47  C   UNL A   1      44.175  23.408  30.624  1.00  0.00     0.031 C 
ATOM     48  C   UNL A   1      46.684  26.217  25.109  1.00  0.00     0.029 A 
ATOM     49  C   UNL A   1      47.260  26.607  26.390  1.00  0.00     0.049 A 
ATOM     50  H   UNL A   1      46.226  26.718  28.204  1.00  0.00     0.167 HD
ATOM     51  C   UNL A   1      44.381  25.398  32.185  1.00  0.00     0.031 A 
ATOM     52  C   UNL A   1      48.527  26.951  26.731  1.00  0.00     0.031 A 
ATOM     53  C   UNL A   1      44.241  26.828  32.108  1.00  0.00     0.049 A 
ATOM     54  C   UNL A   1      48.476  27.499  28.118  1.00  0.00     0.074 A 
ATOM     55  C   UNL A   1      43.184  27.675  31.845  1.00  0.00     0.029 A 
ATOM     56  N   UNL A   1      45.389  27.563  31.904  1.00  0.00    -0.354 N 
ATOM     57  N   UNL A   1      47.870  28.615  28.424  1.00  0.00    -0.248 NA
ATOM     58  C   UNL A   1      48.677  26.589  29.239  1.00  0.00     0.031 C 
ATOM     59  C   UNL A   1      43.740  28.732  31.070  1.00  0.00     0.029 A 
ATOM     60  C   UNL A   1      45.114  28.505  30.943  1.00  0.00     0.049 A 
ATOM     61  H   UNL A   1      46.249  27.435  32.363  1.00  0.00     0.167 HD
ATOM     62  C   UNL A   1      47.239  28.367  29.638  1.00  0.00     0.074 A 
ATOM     63  C   UNL A   1      47.862  27.146  30.143  1.00  0.00     0.031 C 
ATOM     64  C   UNL A   1      46.077  29.002  29.979  1.00  0.00     0.031 A 
BRANCH  51  65
ATOM     65  C   UNL A   1      45.124  24.710  33.292  1.00  0.00    -0.014 A 
ATOM     66  C   UNL A   1      44.451  23.759  34.077  1.00  0.00     0.010 A 
ATOM     67  C   UNL A   1      46.387  25.146  33.745  1.00  0.00     0.010 A 
ATOM     68  C   UNL A   1      44.994  23.313  35.288  1.00  0.00     0.020 A 
ATOM     69  C   UNL A   1      46.960  24.671  34.922  1.00  0.00     0.020 A 
ATOM     70  C   UNL A   1      46.238  23.786  35.707  1.00  0.00     0.054 A 
BRANCH  70  71
ATOM     71  S   UNL A   1      46.873  23.310  37.331  1.00  0.00     0.124 S 
ATOM     72  O   UNL A   1      45.750  23.647  38.199  1.00  0.00    -0.237 OA
ATOM     73  O   UNL A   1      47.135  21.885  37.154  1.00  0.00    -0.237 OA
ATOM     74  O   UNL A   1      48.063  24.143  37.491  1.00  0.00    -0.744 OA
ENDBRANCH  70  71
ENDBRANCH  51  65
BRANCH  52  75
ATOM     75  C   UNL A   1      49.773  26.476  26.075  1.00  0.00    -0.014 A 
ATOM     76  C   UNL A   1      50.357  27.187  25.012  1.00  0.00     0.010 A 
ATOM     77  C   UNL A   1      50.536  25.438  26.657  1.00  0.00     0.010 A 
ATOM     78  C   UNL A   1      51.672  26.910  24.591  1.00  0.00     0.020 A 
ATOM     79  C   UNL A   1      51.835  25.144  26.234  1.00  0.00     0.020 A 
ATOM     80  C   UNL A   1      52.408  25.901  25.219  1.00  0.00     0.054 A 
BRANCH  80  81
ATOM     81  S   UNL A   1      54.161  25.668  24.803  1.00  0.00     0.124 S 
ATOM     82  O   UNL A   1      54.366  24.253  25.099  1.00  0.00    -0.237 OA
ATOM     83  O   UNL A   1      54.202  26.033  23.390  1.00  0.00    -0.237 OA
ATOM     84  O   UNL A   1      54.853  26.595  25.697  1.00  0.00    -0.744 OA
ENDBRANCH  80  81
ENDBRANCH  52  75
BRANCH  64  85
ATOM     85  C   UNL A   1      45.613  30.156  29.114  1.00  0.00    -0.014 A 
ATOM     86  C   UNL A   1      45.922  31.502  29.394  1.00  0.00     0.010 A 
ATOM     87  C   UNL A   1      44.998  29.857  27.885  1.00  0.00     0.010 A 
ATOM     88  C   UNL A   1      45.600  32.522  28.488  1.00  0.00     0.020 A 
ATOM     89  C   UNL A   1      44.692  30.866  26.966  1.00  0.00     0.020 A 
ATOM     90  C   UNL A   1      44.985  32.196  27.276  1.00  0.00     0.054 A 
BRANCH  90  91
ATOM     91  S   UNL A   1      44.623  33.511  26.080  1.00  0.00     0.124 S 
ATOM     92  O   UNL A   1      44.005  34.537  26.915  1.00  0.00    -0.237 OA
ATOM     93  O   UNL A   1      45.944  33.844  25.550  1.00  0.00    -0.237 OA
ATOM     94  O   UNL A   1      43.724  32.871  25.120  1.00  0.00    -0.744 OA
ENDBRANCH  90  91
ENDBRANCH  64  85
ENDBRANCH  38  39
ENDBRANCH  31  33
ENDBRANCH  30  31
ENDBRANCH  29  30
ENDBRANCH  28  29
ENDBRANCH  27  28
ENDBRANCH  26  27
ENDBRANCH   1  26
TORSDOF 25
ENDMDL
