MODEL 1
REMARK VINA RESULT:     -10.8      0.000      0.000
REMARK SMILES O=C(OCCOCCOC(=O)[C@@H]1CCCC[C@H]1C(=O)Nc1cccc(-c2nnc(-c3ccccc3)o2)c1)c1ccc(-c2c3nc(c(-c4ccc(S(=O)(=O)[O-])cc4)c4ccc([nH]4)c(-c4ccc(S(=O)(=O)[O-])cc4)c4nc(c(-c5ccc(S(=O)(=O)[O-])cc5)c5ccc2[nH]5)C=C4)C=C3)cc1
REMARK SMILES IDX 7 1 6 2 5 3 4 4 3 5 2 6 1 7 38 8 39 9 97 10 40 11 96 12
REMARK SMILES IDX 41 13 42 14 43 15 90 16 44 17 95 18 89 19 91 20 45 21 94 22
REMARK SMILES IDX 88 23 87 24 46 26 76 27 57 28 75 29 58 30 61 31 74 32 92 33
REMARK SMILES IDX 59 34 60 35 73 37 93 38 62 39 47 40 48 41 56 42 49 43 55 44
REMARK SMILES IDX 50 45 51 46 52 47 53 48 54 49 77 50 78 51 86 52 79 53 85 54
REMARK SMILES IDX 80 55 81 56 82 57 83 58 84 59 63 60 64 61 72 62 65 63 71 64
REMARK SMILES IDX 66 65 67 66 68 67 69 68 70 69 8 70 9 71 10 72 11 73 12 74
REMARK SMILES IDX 13 75 17 76 14 77 16 78 15 79 18 80 19 81 20 82 21 84 22 85
REMARK SMILES IDX 37 86 23 87 25 88 24 89 26 90 27 91 36 92 28 93 29 94 30 95
REMARK SMILES IDX 31 96 35 97 32 98 34 99 33 100
REMARK H PARENT 91 25 61 36 20 83
REMARK Flexibility Score: inf
ROOT
ATOM      1  C   UNL A   1      37.967  22.651  25.207  1.00  0.00     0.202 C 
ENDROOT
BRANCH   1   2
ATOM      2  O   UNL A   1      38.855  22.170  26.218  1.00  0.00    -0.374 OA
BRANCH   2   3
ATOM      3  C   UNL A   1      39.616  21.001  25.942  1.00  0.00     0.202 C 
BRANCH   3   4
ATOM      4  C   UNL A   1      40.667  20.588  26.966  1.00  0.00     0.261 C 
BRANCH   4   5
ATOM      5  O   UNL A   1      41.698  19.793  26.368  1.00  0.00    -0.460 OA
BRANCH   5   6
ATOM      6  C   UNL A   1      42.777  20.271  25.700  1.00  0.00     0.338 C 
ATOM      7  O   UNL A   1      43.363  19.550  24.897  1.00  0.00    -0.246 OA
BRANCH   6   8
ATOM      8  C   UNL A   1      43.283  21.653  25.935  1.00  0.00     0.060 A 
ATOM      9  C   UNL A   1      43.997  22.009  27.073  1.00  0.00     0.016 A 
ATOM     10  C   UNL A   1      43.093  22.627  24.951  1.00  0.00     0.016 A 
ATOM     11  C   UNL A   1      44.416  23.289  27.315  1.00  0.00     0.010 A 
ATOM     12  C   UNL A   1      43.601  23.918  25.136  1.00  0.00     0.010 A 
ATOM     13  C   UNL A   1      44.258  24.242  26.330  1.00  0.00    -0.014 A 
BRANCH  13  14
ATOM     14  C   UNL A   1      44.728  25.580  26.692  1.00  0.00     0.031 A 
ATOM     15  C   UNL A   1      43.846  26.409  27.564  1.00  0.00     0.074 A 
ATOM     16  C   UNL A   1      46.014  25.897  26.444  1.00  0.00     0.049 A 
ATOM     17  N   UNL A   1      44.039  27.616  28.007  1.00  0.00    -0.248 NA
ATOM     18  C   UNL A   1      42.587  25.786  28.019  1.00  0.00     0.031 C 
ATOM     19  C   UNL A   1      46.989  25.022  25.772  1.00  0.00     0.029 A 
ATOM     20  N   UNL A   1      46.744  27.001  26.781  1.00  0.00    -0.354 N 
ATOM     21  C   UNL A   1      42.912  27.916  28.759  1.00  0.00     0.074 A 
ATOM     22  C   UNL A   1      42.037  26.769  28.714  1.00  0.00     0.031 C 
ATOM     23  C   UNL A   1      48.192  25.616  25.778  1.00  0.00     0.029 A 
ATOM     24  C   UNL A   1      48.050  26.942  26.356  1.00  0.00     0.049 A 
ATOM     25  H   UNL A   1      46.371  27.762  27.280  1.00  0.00     0.167 HD
ATOM     26  C   UNL A   1      42.645  29.063  29.419  1.00  0.00     0.031 A 
ATOM     27  C   UNL A   1      49.003  27.892  26.384  1.00  0.00     0.031 A 
ATOM     28  C   UNL A   1      43.550  30.178  29.421  1.00  0.00     0.049 A 
ATOM     29  C   UNL A   1      48.621  29.214  26.992  1.00  0.00     0.074 A 
ATOM     30  C   UNL A   1      43.369  31.443  29.943  1.00  0.00     0.029 A 
ATOM     31  N   UNL A   1      44.828  30.144  28.871  1.00  0.00    -0.354 N 
ATOM     32  N   UNL A   1      47.500  29.549  27.590  1.00  0.00    -0.248 NA
ATOM     33  C   UNL A   1      49.615  30.287  26.916  1.00  0.00     0.031 C 
ATOM     34  C   UNL A   1      44.518  32.189  29.662  1.00  0.00     0.029 A 
ATOM     35  C   UNL A   1      45.443  31.369  29.028  1.00  0.00     0.049 A 
ATOM     36  H   UNL A   1      45.233  29.361  28.435  1.00  0.00     0.167 HD
ATOM     37  C   UNL A   1      47.659  30.870  27.980  1.00  0.00     0.074 A 
ATOM     38  C   UNL A   1      48.997  31.259  27.573  1.00  0.00     0.031 C 
ATOM     39  C   UNL A   1      46.783  31.695  28.607  1.00  0.00     0.031 A 
BRANCH  26  40
ATOM     40  C   UNL A   1      41.306  29.172  30.088  1.00  0.00    -0.014 A 
ATOM     41  C   UNL A   1      40.230  29.844  29.479  1.00  0.00     0.010 A 
ATOM     42  C   UNL A   1      41.132  28.624  31.371  1.00  0.00     0.010 A 
ATOM     43  C   UNL A   1      39.017  29.995  30.157  1.00  0.00     0.020 A 
ATOM     44  C   UNL A   1      39.912  28.749  32.041  1.00  0.00     0.020 A 
ATOM     45  C   UNL A   1      38.867  29.448  31.434  1.00  0.00     0.054 A 
BRANCH  45  46
ATOM     46  S   UNL A   1      37.277  29.645  32.284  1.00  0.00     0.124 S 
ATOM     47  O   UNL A   1      37.362  31.022  32.765  1.00  0.00    -0.237 OA
ATOM     48  O   UNL A   1      36.313  29.414  31.212  1.00  0.00    -0.237 OA
ATOM     49  O   UNL A   1      37.308  28.619  33.323  1.00  0.00    -0.744 OA
ENDBRANCH  45  46
ENDBRANCH  26  40
BRANCH  27  50
ATOM     50  C   UNL A   1      50.325  27.669  25.733  1.00  0.00    -0.014 A 
ATOM     51  C   UNL A   1      50.543  27.984  24.381  1.00  0.00     0.010 A 
ATOM     52  C   UNL A   1      51.382  27.095  26.469  1.00  0.00     0.010 A 
ATOM     53  C   UNL A   1      51.769  27.693  23.770  1.00  0.00     0.020 A 
ATOM     54  C   UNL A   1      52.620  26.837  25.876  1.00  0.00     0.020 A 
ATOM     55  C   UNL A   1      52.797  27.114  24.521  1.00  0.00     0.054 A 
BRANCH  55  56
ATOM     56  S   UNL A   1      54.374  26.730  23.710  1.00  0.00     0.124 S 
ATOM     57  O   UNL A   1      53.940  26.370  22.363  1.00  0.00    -0.237 OA
ATOM     58  O   UNL A   1      55.104  27.990  23.823  1.00  0.00    -0.237 OA
ATOM     59  O   UNL A   1      54.912  25.632  24.508  1.00  0.00    -0.744 OA
ENDBRANCH  55  56
ENDBRANCH  27  50
BRANCH  39  60
ATOM     60  C   UNL A   1      47.279  33.076  28.928  1.00  0.00    -0.014 A 
ATOM     61  C   UNL A   1      47.957  33.346  30.128  1.00  0.00     0.010 A 
ATOM     62  C   UNL A   1      47.103  34.101  27.981  1.00  0.00     0.010 A 
ATOM     63  C   UNL A   1      48.421  34.634  30.392  1.00  0.00     0.020 A 
ATOM     64  C   UNL A   1      47.598  35.380  28.226  1.00  0.00     0.020 A 
ATOM     65  C   UNL A   1      48.240  35.642  29.439  1.00  0.00     0.054 A 
BRANCH  65  66
ATOM     66  S   UNL A   1      48.893  37.295  29.786  1.00  0.00     0.124 S 
ATOM     67  O   UNL A   1      47.892  37.828  30.705  1.00  0.00    -0.237 OA
ATOM     68  O   UNL A   1      50.198  37.005  30.375  1.00  0.00    -0.237 OA
ATOM     69  O   UNL A   1      48.937  37.933  28.473  1.00  0.00    -0.744 OA
ENDBRANCH  65  66
ENDBRANCH  39  60
ENDBRANCH  13  14
ENDBRANCH   6   8
ENDBRANCH   5   6
ENDBRANCH   4   5
ENDBRANCH   3   4
ENDBRANCH   2   3
ENDBRANCH   1   2
BRANCH   1  70
ATOM     70  C   UNL A   1      36.846  23.421  25.904  1.00  0.00     0.261 C 
BRANCH  70  71
ATOM     71  O   UNL A   1      36.001  23.941  24.870  1.00  0.00    -0.463 OA
BRANCH  71  72
ATOM     72  C   UNL A   1      34.884  23.208  24.585  1.00  0.00     0.309 C 
ATOM     73  O   UNL A   1      34.863  22.043  24.214  1.00  0.00    -0.252 OA
BRANCH  72  74
ATOM     74  C   UNL A   1      33.670  24.045  24.954  1.00  0.00     0.111 C 
ATOM     75  C   UNL A   1      33.101  23.678  26.329  1.00  0.00     0.016 C 
ATOM     76  C   UNL A   1      32.663  24.046  23.805  1.00  0.00     0.093 C 
ATOM     77  C   UNL A   1      31.810  24.431  26.611  1.00  0.00     0.001 C 
ATOM     78  C   UNL A   1      31.266  24.560  24.168  1.00  0.00     0.014 C 
ATOM     79  C   UNL A   1      30.787  24.094  25.539  1.00  0.00     0.001 C 
BRANCH  76  80
ATOM     80  C   UNL A   1      33.227  24.731  22.546  1.00  0.00     0.228 C 
ATOM     81  O   UNL A   1      33.420  24.047  21.532  1.00  0.00    -0.274 OA
ATOM     82  N   UNL A   1      33.541  26.066  22.444  1.00  0.00    -0.326 N 
ATOM     83  H   UNL A   1      34.242  26.291  21.791  1.00  0.00     0.169 HD
BRANCH  82  84
ATOM     84  C   UNL A   1      32.993  27.149  23.147  1.00  0.00     0.041 A 
ATOM     85  C   UNL A   1      31.660  27.467  22.899  1.00  0.00     0.026 A 
ATOM     86  C   UNL A   1      33.728  27.926  24.049  1.00  0.00     0.040 A 
ATOM     87  C   UNL A   1      31.031  28.458  23.649  1.00  0.00     0.003 A 
ATOM     88  C   UNL A   1      33.092  28.863  24.876  1.00  0.00     0.041 A 
ATOM     89  C   UNL A   1      31.732  29.119  24.661  1.00  0.00     0.014 A 
BRANCH  88  90
ATOM     90  C   UNL A   1      33.727  29.387  26.080  1.00  0.00     0.248 A 
ATOM     91  N   UNL A   1      34.632  28.782  26.822  1.00  0.00    -0.107 NA
ATOM     92  O   UNL A   1      33.414  30.643  26.540  1.00  0.00    -0.416 OA
ATOM     93  N   UNL A   1      34.987  29.665  27.812  1.00  0.00    -0.107 NA
ATOM     94  C   UNL A   1      34.237  30.735  27.650  1.00  0.00     0.248 A 
BRANCH  94  95
ATOM     95  C   UNL A   1      34.270  31.986  28.400  1.00  0.00     0.039 A 
ATOM     96  C   UNL A   1      34.988  32.046  29.609  1.00  0.00     0.014 A 
ATOM     97  C   UNL A   1      33.613  33.140  27.955  1.00  0.00     0.014 A 
ATOM     98  C   UNL A   1      35.054  33.229  30.349  1.00  0.00     0.001 A 
ATOM     99  C   UNL A   1      33.661  34.318  28.711  1.00  0.00     0.001 A 
ATOM    100  C   UNL A   1      34.383  34.362  29.903  1.00  0.00     0.000 A 
ENDBRANCH  94  95
ENDBRANCH  88  90
ENDBRANCH  82  84
ENDBRANCH  76  80
ENDBRANCH  72  74
ENDBRANCH  71  72
ENDBRANCH  70  71
ENDBRANCH   1  70
TORSDOF 21
ENDMDL
MODEL 2
REMARK VINA RESULT:     -10.8      5.328     11.434
REMARK SMILES O=C(OCCOCCOC(=O)[C@@H]1CCCC[C@H]1C(=O)Nc1cccc(-c2nnc(-c3ccccc3)o2)c1)c1ccc(-c2c3nc(c(-c4ccc(S(=O)(=O)[O-])cc4)c4ccc([nH]4)c(-c4ccc(S(=O)(=O)[O-])cc4)c4nc(c(-c5ccc(S(=O)(=O)[O-])cc5)c5ccc2[nH]5)C=C4)C=C3)cc1
REMARK SMILES IDX 7 1 6 2 5 3 4 4 3 5 2 6 1 7 38 8 39 9 97 10 40 11 96 12
REMARK SMILES IDX 41 13 42 14 43 15 90 16 44 17 95 18 89 19 91 20 45 21 94 22
REMARK SMILES IDX 88 23 87 24 46 26 76 27 57 28 75 29 58 30 61 31 74 32 92 33
REMARK SMILES IDX 59 34 60 35 73 37 93 38 62 39 47 40 48 41 56 42 49 43 55 44
REMARK SMILES IDX 50 45 51 46 52 47 53 48 54 49 77 50 78 51 86 52 79 53 85 54
REMARK SMILES IDX 80 55 81 56 82 57 83 58 84 59 63 60 64 61 72 62 65 63 71 64
REMARK SMILES IDX 66 65 67 66 68 67 69 68 70 69 8 70 9 71 10 72 11 73 12 74
REMARK SMILES IDX 13 75 17 76 14 77 16 78 15 79 18 80 19 81 20 82 21 84 22 85
REMARK SMILES IDX 37 86 23 87 25 88 24 89 26 90 27 91 36 92 28 93 29 94 30 95
REMARK SMILES IDX 31 96 35 97 32 98 34 99 33 100
REMARK H PARENT 91 25 61 36 20 83
REMARK Flexibility Score: inf
ROOT
ATOM      1  C   UNL A   1      33.530  28.225  26.314  1.00  0.00     0.202 C 
ENDROOT
BRANCH   1   2
ATOM      2  O   UNL A   1      32.362  29.047  26.247  1.00  0.00    -0.374 OA
BRANCH   2   3
ATOM      3  C   UNL A   1      32.376  30.290  26.936  1.00  0.00     0.202 C 
BRANCH   3   4
ATOM      4  C   UNL A   1      33.734  30.927  27.210  1.00  0.00     0.261 C 
BRANCH   4   5
ATOM      5  O   UNL A   1      33.595  32.259  27.721  1.00  0.00    -0.460 OA
BRANCH   5   6
ATOM      6  C   UNL A   1      34.617  33.097  28.027  1.00  0.00     0.338 C 
ATOM      7  O   UNL A   1      34.592  34.256  27.622  1.00  0.00    -0.246 OA
BRANCH   6   8
ATOM      8  C   UNL A   1      35.784  32.635  28.829  1.00  0.00     0.060 A 
ATOM      9  C   UNL A   1      35.725  31.539  29.681  1.00  0.00     0.016 A 
ATOM     10  C   UNL A   1      37.014  33.283  28.681  1.00  0.00     0.016 A 
ATOM     11  C   UNL A   1      36.780  31.147  30.458  1.00  0.00     0.010 A 
ATOM     12  C   UNL A   1      38.132  32.834  29.393  1.00  0.00     0.010 A 
ATOM     13  C   UNL A   1      38.002  31.764  30.288  1.00  0.00    -0.014 A 
BRANCH  13  14
ATOM     14  C   UNL A   1      39.062  31.280  31.175  1.00  0.00     0.031 A 
ATOM     15  C   UNL A   1      40.027  30.287  30.621  1.00  0.00     0.074 A 
ATOM     16  C   UNL A   1      39.269  31.928  32.338  1.00  0.00     0.049 A 
ATOM     17  N   UNL A   1      41.033  29.711  31.209  1.00  0.00    -0.248 NA
ATOM     18  C   UNL A   1      39.850  29.907  29.206  1.00  0.00     0.031 C 
ATOM     19  C   UNL A   1      38.470  33.062  32.832  1.00  0.00     0.029 A 
ATOM     20  N   UNL A   1      40.245  31.781  33.282  1.00  0.00    -0.354 N 
ATOM     21  C   UNL A   1      41.587  28.872  30.253  1.00  0.00     0.074 A 
ATOM     22  C   UNL A   1      40.808  29.008  29.046  1.00  0.00     0.031 C 
ATOM     23  C   UNL A   1      39.012  33.521  33.970  1.00  0.00     0.029 A 
ATOM     24  C   UNL A   1      40.123  32.656  34.335  1.00  0.00     0.049 A 
ATOM     25  H   UNL A   1      40.965  31.114  33.214  1.00  0.00     0.167 HD
ATOM     26  C   UNL A   1      42.655  28.057  30.394  1.00  0.00     0.031 A 
ATOM     27  C   UNL A   1      40.806  32.704  35.493  1.00  0.00     0.031 A 
ATOM     28  C   UNL A   1      43.388  27.955  31.625  1.00  0.00     0.049 A 
ATOM     29  C   UNL A   1      41.892  31.679  35.679  1.00  0.00     0.074 A 
ATOM     30  C   UNL A   1      44.412  27.091  31.955  1.00  0.00     0.029 A 
ATOM     31  N   UNL A   1      43.166  28.767  32.732  1.00  0.00    -0.354 N 
ATOM     32  N   UNL A   1      42.333  30.787  34.821  1.00  0.00    -0.248 NA
ATOM     33  C   UNL A   1      42.557  31.650  36.983  1.00  0.00     0.031 C 
ATOM     34  C   UNL A   1      44.775  27.349  33.282  1.00  0.00     0.029 A 
ATOM     35  C   UNL A   1      44.025  28.417  33.754  1.00  0.00     0.049 A 
ATOM     36  H   UNL A   1      42.495  29.485  32.780  1.00  0.00     0.167 HD
ATOM     37  C   UNL A   1      43.344  30.100  35.476  1.00  0.00     0.074 A 
ATOM     38  C   UNL A   1      43.464  30.702  36.791  1.00  0.00     0.031 C 
ATOM     39  C   UNL A   1      44.102  29.061  35.043  1.00  0.00     0.031 A 
BRANCH  26  40
ATOM     40  C   UNL A   1      43.001  27.177  29.229  1.00  0.00    -0.014 A 
ATOM     41  C   UNL A   1      42.583  25.835  29.168  1.00  0.00     0.010 A 
ATOM     42  C   UNL A   1      43.797  27.693  28.190  1.00  0.00     0.010 A 
ATOM     43  C   UNL A   1      42.983  25.017  28.108  1.00  0.00     0.020 A 
ATOM     44  C   UNL A   1      44.177  26.887  27.115  1.00  0.00     0.020 A 
ATOM     45  C   UNL A   1      43.779  25.549  27.089  1.00  0.00     0.054 A 
BRANCH  45  46
ATOM     46  S   UNL A   1      44.270  24.469  25.717  1.00  0.00     0.124 S 
ATOM     47  O   UNL A   1      42.984  24.185  25.083  1.00  0.00    -0.237 OA
ATOM     48  O   UNL A   1      45.173  25.322  24.949  1.00  0.00    -0.237 OA
ATOM     49  O   UNL A   1      44.903  23.331  26.378  1.00  0.00    -0.744 OA
ENDBRANCH  45  46
ENDBRANCH  26  40
BRANCH  27  50
ATOM     50  C   UNL A   1      40.415  33.653  36.574  1.00  0.00    -0.014 A 
ATOM     51  C   UNL A   1      41.192  34.783  36.879  1.00  0.00     0.010 A 
ATOM     52  C   UNL A   1      39.260  33.402  37.343  1.00  0.00     0.010 A 
ATOM     53  C   UNL A   1      40.847  35.616  37.951  1.00  0.00     0.020 A 
ATOM     54  C   UNL A   1      38.890  34.249  38.389  1.00  0.00     0.020 A 
ATOM     55  C   UNL A   1      39.701  35.339  38.703  1.00  0.00     0.054 A 
BRANCH  55  56
ATOM     56  S   UNL A   1      39.279  36.420  40.098  1.00  0.00     0.124 S 
ATOM     57  O   UNL A   1      38.353  35.585  40.857  1.00  0.00    -0.237 OA
ATOM     58  O   UNL A   1      40.578  36.655  40.722  1.00  0.00    -0.237 OA
ATOM     59  O   UNL A   1      38.683  37.589  39.456  1.00  0.00    -0.744 OA
ENDBRANCH  55  56
ENDBRANCH  27  50
BRANCH  39  60
ATOM     60  C   UNL A   1      45.151  28.558  35.992  1.00  0.00    -0.014 A 
ATOM     61  C   UNL A   1      46.430  29.137  36.037  1.00  0.00     0.010 A 
ATOM     62  C   UNL A   1      44.824  27.522  36.884  1.00  0.00     0.010 A 
ATOM     63  C   UNL A   1      47.381  28.661  36.939  1.00  0.00     0.020 A 
ATOM     64  C   UNL A   1      45.759  27.069  37.813  1.00  0.00     0.020 A 
ATOM     65  C   UNL A   1      47.038  27.631  37.822  1.00  0.00     0.054 A 
BRANCH  65  66
ATOM     66  S   UNL A   1      48.274  27.063  39.016  1.00  0.00     0.124 S 
ATOM     67  O   UNL A   1      48.748  28.323  39.582  1.00  0.00    -0.237 OA
ATOM     68  O   UNL A   1      47.487  26.225  39.917  1.00  0.00    -0.237 OA
ATOM     69  O   UNL A   1      49.245  26.344  38.195  1.00  0.00    -0.744 OA
ENDBRANCH  65  66
ENDBRANCH  39  60
ENDBRANCH  13  14
ENDBRANCH   6   8
ENDBRANCH   5   6
ENDBRANCH   4   5
ENDBRANCH   3   4
ENDBRANCH   2   3
ENDBRANCH   1   2
BRANCH   1  70
ATOM     70  C   UNL A   1      34.258  28.346  24.976  1.00  0.00     0.261 C 
BRANCH  70  71
ATOM     71  O   UNL A   1      33.771  27.285  24.146  1.00  0.00    -0.463 OA
BRANCH  71  72
ATOM     72  C   UNL A   1      33.342  27.647  22.900  1.00  0.00     0.309 C 
ATOM     73  O   UNL A   1      34.003  28.229  22.053  1.00  0.00    -0.252 OA
BRANCH  72  74
ATOM     74  C   UNL A   1      31.952  27.065  22.698  1.00  0.00     0.111 C 
ATOM     75  C   UNL A   1      30.885  27.798  23.518  1.00  0.00     0.016 C 
ATOM     76  C   UNL A   1      31.988  25.548  22.872  1.00  0.00     0.093 C 
ATOM     77  C   UNL A   1      29.533  27.110  23.405  1.00  0.00     0.001 C 
ATOM     78  C   UNL A   1      30.617  24.882  23.031  1.00  0.00     0.014 C 
ATOM     79  C   UNL A   1      29.653  25.680  23.904  1.00  0.00     0.001 C 
BRANCH  76  80
ATOM     80  C   UNL A   1      32.845  24.865  21.790  1.00  0.00     0.228 C 
ATOM     81  O   UNL A   1      33.046  25.463  20.725  1.00  0.00    -0.274 OA
ATOM     82  N   UNL A   1      33.424  23.623  21.905  1.00  0.00    -0.326 N 
ATOM     83  H   UNL A   1      33.574  23.141  21.059  1.00  0.00     0.169 HD
BRANCH  82  84
ATOM     84  C   UNL A   1      33.829  22.951  23.068  1.00  0.00     0.041 A 
ATOM     85  C   UNL A   1      33.101  21.825  23.446  1.00  0.00     0.026 A 
ATOM     86  C   UNL A   1      34.897  23.376  23.865  1.00  0.00     0.040 A 
ATOM     87  C   UNL A   1      33.525  21.053  24.525  1.00  0.00     0.003 A 
ATOM     88  C   UNL A   1      35.393  22.566  24.896  1.00  0.00     0.041 A 
ATOM     89  C   UNL A   1      34.689  21.399  25.216  1.00  0.00     0.014 A 
BRANCH  88  90
ATOM     90  C   UNL A   1      36.718  22.771  25.470  1.00  0.00     0.248 A 
ATOM     91  N   UNL A   1      37.171  23.870  26.037  1.00  0.00    -0.107 NA
ATOM     92  O   UNL A   1      37.639  21.752  25.472  1.00  0.00    -0.416 OA
ATOM     93  N   UNL A   1      38.440  23.592  26.483  1.00  0.00    -0.107 NA
ATOM     94  C   UNL A   1      38.709  22.357  26.110  1.00  0.00     0.248 A 
BRANCH  94  95
ATOM     95  C   UNL A   1      39.900  21.564  26.395  1.00  0.00     0.039 A 
ATOM     96  C   UNL A   1      40.936  22.129  27.161  1.00  0.00     0.014 A 
ATOM     97  C   UNL A   1      40.049  20.251  25.934  1.00  0.00     0.014 A 
ATOM     98  C   UNL A   1      42.087  21.398  27.466  1.00  0.00     0.001 A 
ATOM     99  C   UNL A   1      41.214  19.528  26.219  1.00  0.00     0.001 A 
ATOM    100  C   UNL A   1      42.228  20.099  26.987  1.00  0.00     0.000 A 
ENDBRANCH  94  95
ENDBRANCH  88  90
ENDBRANCH  82  84
ENDBRANCH  76  80
ENDBRANCH  72  74
ENDBRANCH  71  72
ENDBRANCH  70  71
ENDBRANCH   1  70
TORSDOF 21
ENDMDL
MODEL 3
REMARK VINA RESULT:     -10.7      1.419      2.251
REMARK SMILES O=C(OCCOCCOC(=O)[C@@H]1CCCC[C@H]1C(=O)Nc1cccc(-c2nnc(-c3ccccc3)o2)c1)c1ccc(-c2c3nc(c(-c4ccc(S(=O)(=O)[O-])cc4)c4ccc([nH]4)c(-c4ccc(S(=O)(=O)[O-])cc4)c4nc(c(-c5ccc(S(=O)(=O)[O-])cc5)c5ccc2[nH]5)C=C4)C=C3)cc1
REMARK SMILES IDX 7 1 6 2 5 3 4 4 3 5 2 6 1 7 38 8 39 9 97 10 40 11 96 12
REMARK SMILES IDX 41 13 42 14 43 15 90 16 44 17 95 18 89 19 91 20 45 21 94 22
REMARK SMILES IDX 88 23 87 24 46 26 76 27 57 28 75 29 58 30 61 31 74 32 92 33
REMARK SMILES IDX 59 34 60 35 73 37 93 38 62 39 47 40 48 41 56 42 49 43 55 44
REMARK SMILES IDX 50 45 51 46 52 47 53 48 54 49 77 50 78 51 86 52 79 53 85 54
REMARK SMILES IDX 80 55 81 56 82 57 83 58 84 59 63 60 64 61 72 62 65 63 71 64
REMARK SMILES IDX 66 65 67 66 68 67 69 68 70 69 8 70 9 71 10 72 11 73 12 74
REMARK SMILES IDX 13 75 17 76 14 77 16 78 15 79 18 80 19 81 20 82 21 84 22 85
REMARK SMILES IDX 37 86 23 87 25 88 24 89 26 90 27 91 36 92 28 93 29 94 30 95
REMARK SMILES IDX 31 96 35 97 32 98 34 99 33 100
REMARK H PARENT 91 25 61 36 20 83
REMARK Flexibility Score: inf
ROOT
ATOM      1  C   UNL A   1      38.681  21.588  25.821  1.00  0.00     0.202 C 
ENDROOT
BRANCH   1   2
ATOM      2  O   UNL A   1      39.992  21.951  26.260  1.00  0.00    -0.374 OA
BRANCH   2   3
ATOM      3  C   UNL A   1      40.484  21.365  27.458  1.00  0.00     0.202 C 
BRANCH   3   4
ATOM      4  C   UNL A   1      41.348  20.116  27.326  1.00  0.00     0.261 C 
BRANCH   4   5
ATOM      5  O   UNL A   1      41.784  19.919  25.976  1.00  0.00    -0.460 OA
BRANCH   5   6
ATOM      6  C   UNL A   1      42.967  20.337  25.459  1.00  0.00     0.338 C 
ATOM      7  O   UNL A   1      43.632  19.570  24.768  1.00  0.00    -0.246 OA
BRANCH   6   8
ATOM      8  C   UNL A   1      43.489  21.706  25.729  1.00  0.00     0.060 A 
ATOM      9  C   UNL A   1      44.377  21.981  26.762  1.00  0.00     0.016 A 
ATOM     10  C   UNL A   1      43.129  22.755  24.878  1.00  0.00     0.016 A 
ATOM     11  C   UNL A   1      44.816  23.246  27.045  1.00  0.00     0.010 A 
ATOM     12  C   UNL A   1      43.647  24.038  25.091  1.00  0.00     0.010 A 
ATOM     13  C   UNL A   1      44.488  24.275  26.185  1.00  0.00    -0.014 A 
BRANCH  13  14
ATOM     14  C   UNL A   1      44.996  25.590  26.583  1.00  0.00     0.031 A 
ATOM     15  C   UNL A   1      44.166  26.396  27.523  1.00  0.00     0.074 A 
ATOM     16  C   UNL A   1      46.278  25.895  26.296  1.00  0.00     0.049 A 
ATOM     17  N   UNL A   1      44.398  27.581  28.006  1.00  0.00    -0.248 NA
ATOM     18  C   UNL A   1      42.914  25.777  28.002  1.00  0.00     0.031 C 
ATOM     19  C   UNL A   1      47.209  25.032  25.550  1.00  0.00     0.029 A 
ATOM     20  N   UNL A   1      47.041  26.971  26.648  1.00  0.00    -0.354 N 
ATOM     21  C   UNL A   1      43.307  27.868  28.815  1.00  0.00     0.074 A 
ATOM     22  C   UNL A   1      42.410  26.739  28.758  1.00  0.00     0.031 C 
ATOM     23  C   UNL A   1      48.422  25.604  25.532  1.00  0.00     0.029 A 
ATOM     24  C   UNL A   1      48.327  26.908  26.169  1.00  0.00     0.049 A 
ATOM     25  H   UNL A   1      46.702  27.717  27.192  1.00  0.00     0.167 HD
ATOM     26  C   UNL A   1      43.088  28.991  29.531  1.00  0.00     0.031 A 
ATOM     27  C   UNL A   1      49.298  27.839  26.197  1.00  0.00     0.031 A 
ATOM     28  C   UNL A   1      44.013  30.089  29.542  1.00  0.00     0.049 A 
ATOM     29  C   UNL A   1      48.965  29.141  26.873  1.00  0.00     0.074 A 
ATOM     30  C   UNL A   1      43.876  31.334  30.122  1.00  0.00     0.029 A 
ATOM     31  N   UNL A   1      45.267  30.057  28.940  1.00  0.00    -0.354 N 
ATOM     32  N   UNL A   1      47.875  29.470  27.529  1.00  0.00    -0.248 NA
ATOM     33  C   UNL A   1      49.975  30.200  26.801  1.00  0.00     0.031 C 
ATOM     34  C   UNL A   1      45.027  32.072  29.826  1.00  0.00     0.029 A 
ATOM     35  C   UNL A   1      45.910  31.264  29.122  1.00  0.00     0.049 A 
ATOM     36  H   UNL A   1      45.640  29.285  28.456  1.00  0.00     0.167 HD
ATOM     37  C   UNL A   1      48.073  30.771  27.965  1.00  0.00     0.074 A 
ATOM     38  C   UNL A   1      49.401  31.154  27.521  1.00  0.00     0.031 C 
ATOM     39  C   UNL A   1      47.239  31.584  28.661  1.00  0.00     0.031 A 
BRANCH  26  40
ATOM     40  C   UNL A   1      41.779  29.095  30.258  1.00  0.00    -0.014 A 
ATOM     41  C   UNL A   1      41.605  28.552  31.544  1.00  0.00     0.010 A 
ATOM     42  C   UNL A   1      40.687  29.713  29.622  1.00  0.00     0.010 A 
ATOM     43  C   UNL A   1      40.353  28.596  32.165  1.00  0.00     0.020 A 
ATOM     44  C   UNL A   1      39.442  29.784  30.251  1.00  0.00     0.020 A 
ATOM     45  C   UNL A   1      39.280  29.211  31.514  1.00  0.00     0.054 A 
BRANCH  45  46
ATOM     46  S   UNL A   1      37.672  29.268  32.351  1.00  0.00     0.124 S 
ATOM     47  O   UNL A   1      37.766  30.522  33.097  1.00  0.00    -0.237 OA
ATOM     48  O   UNL A   1      36.732  29.272  31.234  1.00  0.00    -0.237 OA
ATOM     49  O   UNL A   1      37.661  28.058  33.168  1.00  0.00    -0.744 OA
ENDBRANCH  45  46
ENDBRANCH  26  40
BRANCH  27  50
ATOM     50  C   UNL A   1      50.589  27.621  25.484  1.00  0.00    -0.014 A 
ATOM     51  C   UNL A   1      51.739  27.181  26.161  1.00  0.00     0.010 A 
ATOM     52  C   UNL A   1      50.683  27.894  24.104  1.00  0.00     0.010 A 
ATOM     53  C   UNL A   1      52.960  27.059  25.486  1.00  0.00     0.020 A 
ATOM     54  C   UNL A   1      51.889  27.739  23.417  1.00  0.00     0.020 A 
ATOM     55  C   UNL A   1      53.028  27.346  24.119  1.00  0.00     0.054 A 
BRANCH  55  56
ATOM     56  S   UNL A   1      54.622  27.197  23.264  1.00  0.00     0.124 S 
ATOM     57  O   UNL A   1      55.373  26.340  24.175  1.00  0.00    -0.237 OA
ATOM     58  O   UNL A   1      54.243  26.590  21.991  1.00  0.00    -0.237 OA
ATOM     59  O   UNL A   1      55.092  28.577  23.174  1.00  0.00    -0.744 OA
ENDBRANCH  55  56
ENDBRANCH  27  50
BRANCH  39  60
ATOM     60  C   UNL A   1      47.773  32.942  29.017  1.00  0.00    -0.014 A 
ATOM     61  C   UNL A   1      48.506  33.150  30.197  1.00  0.00     0.010 A 
ATOM     62  C   UNL A   1      47.574  34.009  28.123  1.00  0.00     0.010 A 
ATOM     63  C   UNL A   1      49.004  34.418  30.495  1.00  0.00     0.020 A 
ATOM     64  C   UNL A   1      48.102  35.268  28.400  1.00  0.00     0.020 A 
ATOM     65  C   UNL A   1      48.800  35.468  29.593  1.00  0.00     0.054 A 
BRANCH  65  66
ATOM     66  S   UNL A   1      49.497  37.094  29.980  1.00  0.00     0.124 S 
ATOM     67  O   UNL A   1      50.325  36.797  31.146  1.00  0.00    -0.237 OA
ATOM     68  O   UNL A   1      50.226  37.428  28.759  1.00  0.00    -0.237 OA
ATOM     69  O   UNL A   1      48.322  37.921  30.244  1.00  0.00    -0.744 OA
ENDBRANCH  65  66
ENDBRANCH  39  60
ENDBRANCH  13  14
ENDBRANCH   6   8
ENDBRANCH   5   6
ENDBRANCH   4   5
ENDBRANCH   3   4
ENDBRANCH   2   3
ENDBRANCH   1   2
BRANCH   1  70
ATOM     70  C   UNL A   1      37.817  22.848  25.854  1.00  0.00     0.261 C 
BRANCH  70  71
ATOM     71  O   UNL A   1      36.585  22.518  25.201  1.00  0.00    -0.463 OA
BRANCH  71  72
ATOM     72  C   UNL A   1      35.448  22.707  25.936  1.00  0.00     0.309 C 
ATOM     73  O   UNL A   1      35.110  23.747  26.483  1.00  0.00    -0.252 OA
BRANCH  72  74
ATOM     74  C   UNL A   1      34.606  21.447  25.826  1.00  0.00     0.111 C 
ATOM     75  C   UNL A   1      35.093  20.512  24.713  1.00  0.00     0.016 C 
ATOM     76  C   UNL A   1      33.122  21.809  25.778  1.00  0.00     0.093 C 
ATOM     77  C   UNL A   1      34.151  19.330  24.534  1.00  0.00     0.001 C 
ATOM     78  C   UNL A   1      32.193  20.675  25.331  1.00  0.00     0.014 C 
ATOM     79  C   UNL A   1      32.763  19.841  24.188  1.00  0.00     0.001 C 
BRANCH  76  80
ATOM     80  C   UNL A   1      32.649  22.468  27.088  1.00  0.00     0.228 C 
ATOM     81  O   UNL A   1      33.035  21.995  28.165  1.00  0.00    -0.274 OA
ATOM     82  N   UNL A   1      31.819  23.561  27.169  1.00  0.00    -0.326 N 
ATOM     83  H   UNL A   1      31.277  23.625  27.989  1.00  0.00     0.169 HD
BRANCH  82  84
ATOM     84  C   UNL A   1      31.641  24.596  26.239  1.00  0.00     0.041 A 
ATOM     85  C   UNL A   1      30.785  24.355  25.167  1.00  0.00     0.026 A 
ATOM     86  C   UNL A   1      32.301  25.826  26.328  1.00  0.00     0.040 A 
ATOM     87  C   UNL A   1      30.482  25.382  24.276  1.00  0.00     0.003 A 
ATOM     88  C   UNL A   1      31.941  26.897  25.498  1.00  0.00     0.041 A 
ATOM     89  C   UNL A   1      31.023  26.656  24.469  1.00  0.00     0.014 A 
BRANCH  88  90
ATOM     90  C   UNL A   1      32.299  28.274  25.816  1.00  0.00     0.248 A 
ATOM     91  N   UNL A   1      31.576  29.352  25.588  1.00  0.00    -0.107 NA
ATOM     92  O   UNL A   1      33.493  28.556  26.437  1.00  0.00    -0.416 OA
ATOM     93  N   UNL A   1      32.276  30.415  26.102  1.00  0.00    -0.107 NA
ATOM     94  C   UNL A   1      33.412  29.933  26.562  1.00  0.00     0.248 A 
BRANCH  94  95
ATOM     95  C   UNL A   1      34.476  30.640  27.265  1.00  0.00     0.039 A 
ATOM     96  C   UNL A   1      34.242  31.946  27.737  1.00  0.00     0.014 A 
ATOM     97  C   UNL A   1      35.731  30.062  27.493  1.00  0.00     0.014 A 
ATOM     98  C   UNL A   1      35.232  32.651  28.426  1.00  0.00     0.001 A 
ATOM     99  C   UNL A   1      36.731  30.781  28.162  1.00  0.00     0.001 A 
ATOM    100  C   UNL A   1      36.480  32.070  28.630  1.00  0.00     0.000 A 
ENDBRANCH  94  95
ENDBRANCH  88  90
ENDBRANCH  82  84
ENDBRANCH  76  80
ENDBRANCH  72  74
ENDBRANCH  71  72
ENDBRANCH  70  71
ENDBRANCH   1  70
TORSDOF 21
ENDMDL
