MODEL 1
REMARK VINA RESULT:     -10.0      0.000      0.000
REMARK SMILES Cc1cc(C(=O)N2C[C@@H](C(=O)OCCOCCOC(=O)c3ccc(-c4c5nc(c(-c6ccc(S(=O)(=O)[O-])cc6)c6ccc([nH]6)c(-c6ccc(S(=O)(=O)[O-])cc6)c6nc(c(-c7ccc(S(=O)(=O)[O-])cc7)c7ccc4[nH]7)C=C6)C=C5)cc3)[C@H](C3CC3)C2)sc1C
REMARK SMILES IDX 16 1 15 2 14 3 13 4 12 5 10 6 11 7 9 8 7 9 8 10 85 11 81 12
REMARK SMILES IDX 5 13 6 14 4 15 1 16 2 17 3 18 87 19 86 20 88 21 82 22 83 23
REMARK SMILES IDX 84 24 17 25 18 26 19 27 20 28 21 29 22 30 80 31 23 32 79 33
REMARK SMILES IDX 24 34 25 35 26 36 73 37 27 38 78 39 72 40 74 41 28 42 77 43
REMARK SMILES IDX 71 44 70 45 29 47 59 48 40 49 58 50 41 51 44 52 57 53 75 54
REMARK SMILES IDX 42 55 43 56 56 58 76 59 45 60 30 61 31 62 39 63 32 64 38 65
REMARK SMILES IDX 33 66 34 67 35 68 36 69 37 70 60 71 61 72 69 73 62 74 68 75
REMARK SMILES IDX 63 76 64 77 65 78 66 79 67 80 46 81 47 82 55 83 48 84 54 85
REMARK SMILES IDX 49 86 50 87 51 88 52 89 53 90
REMARK H PARENT 74 46 44 57
REMARK Flexibility Score: inf
ROOT
ATOM      1  C   UNL A   1      35.999  21.715  25.282  1.00  0.00     0.202 C 
ENDROOT
BRANCH   1   2
ATOM      2  O   UNL A   1      35.343  21.946  24.038  1.00  0.00    -0.374 OA
BRANCH   2   3
ATOM      3  C   UNL A   1      34.798  23.247  23.811  1.00  0.00     0.202 C 
BRANCH   3   4
ATOM      4  C   UNL A   1      33.654  23.322  22.795  1.00  0.00     0.261 C 
BRANCH   4   5
ATOM      5  O   UNL A   1      32.794  24.432  23.093  1.00  0.00    -0.463 OA
BRANCH   5   6
ATOM      6  C   UNL A   1      33.024  25.586  22.411  1.00  0.00     0.311 C 
ATOM      7  O   UNL A   1      33.501  25.668  21.288  1.00  0.00    -0.252 OA
BRANCH   6   8
ATOM      8  C   UNL A   1      32.548  26.761  23.221  1.00  0.00     0.124 C 
ATOM      9  N   UNL A   1      32.131  27.401  25.414  1.00  0.00    -0.337 N 
ATOM     10  C   UNL A   1      33.138  26.729  24.625  1.00  0.00     0.135 C 
ATOM     11  C   UNL A   1      30.819  27.062  24.912  1.00  0.00     0.124 C 
ATOM     12  C   UNL A   1      31.022  26.716  23.424  1.00  0.00     0.028 C 
BRANCH   9  13
ATOM     13  C   UNL A   1      32.291  27.891  26.698  1.00  0.00     0.263 C 
ATOM     14  O   UNL A   1      31.582  27.454  27.608  1.00  0.00    -0.268 OA
BRANCH  13  15
ATOM     15  C   UNL A   1      33.193  29.021  26.914  1.00  0.00     0.093 A 
ATOM     16  C   UNL A   1      36.581  30.281  27.988  1.00  0.00     0.045 C 
ATOM     17  C   UNL A   1      35.150  30.164  27.574  1.00  0.00    -0.037 A 
ATOM     18  C   UNL A   1      34.556  28.934  27.137  1.00  0.00     0.029 A 
ATOM     19  C   UNL A   1      34.210  31.179  27.601  1.00  0.00     0.005 A 
ATOM     20  S   UNL A   1      32.657  30.627  27.148  1.00  0.00    -0.135 S 
ATOM     21  C   UNL A   1      34.392  32.605  28.013  1.00  0.00     0.056 C 
ENDBRANCH  13  15
ENDBRANCH   9  13
BRANCH  12  22
ATOM     22  C   UNL A   1      30.202  27.614  22.524  1.00  0.00    -0.005 C 
ATOM     23  C   UNL A   1      29.209  28.662  22.978  1.00  0.00     0.004 C 
ATOM     24  C   UNL A   1      30.536  29.082  22.412  1.00  0.00     0.004 C 
ENDBRANCH  12  22
ENDBRANCH   6   8
ENDBRANCH   5   6
ENDBRANCH   4   5
ENDBRANCH   3   4
ENDBRANCH   2   3
ENDBRANCH   1   2
BRANCH   1  25
ATOM     25  C   UNL A   1      37.512  21.476  25.237  1.00  0.00     0.261 C 
BRANCH  25  26
ATOM     26  O   UNL A   1      38.259  22.607  25.714  1.00  0.00    -0.460 OA
BRANCH  26  27
ATOM     27  C   UNL A   1      39.373  22.289  26.413  1.00  0.00     0.338 C 
ATOM     28  O   UNL A   1      39.963  21.215  26.410  1.00  0.00    -0.246 OA
BRANCH  27  29
ATOM     29  C   UNL A   1      39.916  23.483  27.082  1.00  0.00     0.060 A 
ATOM     30  C   UNL A   1      39.429  24.732  26.673  1.00  0.00     0.016 A 
ATOM     31  C   UNL A   1      40.943  23.393  28.023  1.00  0.00     0.016 A 
ATOM     32  C   UNL A   1      40.008  25.899  27.163  1.00  0.00     0.010 A 
ATOM     33  C   UNL A   1      41.529  24.568  28.507  1.00  0.00     0.010 A 
ATOM     34  C   UNL A   1      41.090  25.822  28.048  1.00  0.00    -0.014 A 
BRANCH  34  35
ATOM     35  C   UNL A   1      41.862  27.046  28.368  1.00  0.00     0.031 A 
ATOM     36  C   UNL A   1      41.142  28.222  28.970  1.00  0.00     0.074 A 
ATOM     37  C   UNL A   1      43.187  27.102  28.149  1.00  0.00     0.049 A 
ATOM     38  N   UNL A   1      41.605  29.402  29.289  1.00  0.00    -0.248 NA
ATOM     39  C   UNL A   1      39.707  28.043  29.249  1.00  0.00     0.031 C 
ATOM     40  C   UNL A   1      44.004  26.010  27.621  1.00  0.00     0.029 A 
ATOM     41  N   UNL A   1      44.078  28.127  28.342  1.00  0.00    -0.354 N 
ATOM     42  C   UNL A   1      40.521  30.110  29.797  1.00  0.00     0.074 A 
ATOM     43  C   UNL A   1      39.371  29.235  29.718  1.00  0.00     0.031 C 
ATOM     44  C   UNL A   1      45.278  26.427  27.525  1.00  0.00     0.029 A 
ATOM     45  C   UNL A   1      45.359  27.823  27.950  1.00  0.00     0.049 A 
ATOM     46  H   UNL A   1      43.823  28.998  28.724  1.00  0.00     0.167 HD
ATOM     47  C   UNL A   1      40.486  31.371  30.286  1.00  0.00     0.031 A 
ATOM     48  C   UNL A   1      46.466  28.592  27.916  1.00  0.00     0.031 A 
ATOM     49  C   UNL A   1      41.628  32.244  30.345  1.00  0.00     0.049 A 
ATOM     50  C   UNL A   1      46.388  30.019  28.389  1.00  0.00     0.074 A 
ATOM     51  C   UNL A   1      41.699  33.539  30.828  1.00  0.00     0.029 A 
ATOM     52  N   UNL A   1      42.899  31.912  29.900  1.00  0.00    -0.354 N 
ATOM     53  N   UNL A   1      45.357  30.670  28.876  1.00  0.00    -0.248 NA
ATOM     54  C   UNL A   1      47.621  30.814  28.311  1.00  0.00     0.031 C 
ATOM     55  C   UNL A   1      43.001  34.009  30.625  1.00  0.00     0.029 A 
ATOM     56  C   UNL A   1      43.755  32.986  30.072  1.00  0.00     0.049 A 
ATOM     57  H   UNL A   1      43.155  31.041  29.518  1.00  0.00     0.167 HD
ATOM     58  C   UNL A   1      45.826  31.942  29.190  1.00  0.00     0.074 A 
ATOM     59  C   UNL A   1      47.233  31.966  28.843  1.00  0.00     0.031 C 
ATOM     60  C   UNL A   1      45.154  32.992  29.722  1.00  0.00     0.031 A 
BRANCH  47  61
ATOM     61  C   UNL A   1      39.155  31.894  30.755  1.00  0.00    -0.014 A 
ATOM     62  C   UNL A   1      38.644  31.559  32.022  1.00  0.00     0.010 A 
ATOM     63  C   UNL A   1      38.408  32.746  29.921  1.00  0.00     0.010 A 
ATOM     64  C   UNL A   1      37.390  32.026  32.426  1.00  0.00     0.020 A 
ATOM     65  C   UNL A   1      37.166  33.237  30.332  1.00  0.00     0.020 A 
ATOM     66  C   UNL A   1      36.656  32.856  31.574  1.00  0.00     0.054 A 
BRANCH  66  67
ATOM     67  S   UNL A   1      35.031  33.450  32.122  1.00  0.00     0.124 S 
ATOM     68  O   UNL A   1      34.894  34.691  31.364  1.00  0.00    -0.237 OA
ATOM     69  O   UNL A   1      34.139  32.366  31.717  1.00  0.00    -0.237 OA
ATOM     70  O   UNL A   1      35.190  33.614  33.564  1.00  0.00    -0.744 OA
ENDBRANCH  66  67
ENDBRANCH  47  61
BRANCH  48  71
ATOM     71  C   UNL A   1      47.742  28.025  27.402  1.00  0.00    -0.014 A 
ATOM     72  C   UNL A   1      48.664  27.426  28.277  1.00  0.00     0.010 A 
ATOM     73  C   UNL A   1      48.031  28.067  26.025  1.00  0.00     0.010 A 
ATOM     74  C   UNL A   1      49.856  26.884  27.786  1.00  0.00     0.020 A 
ATOM     75  C   UNL A   1      49.210  27.504  25.527  1.00  0.00     0.020 A 
ATOM     76  C   UNL A   1      50.119  26.923  26.413  1.00  0.00     0.054 A 
BRANCH  76  77
ATOM     77  S   UNL A   1      51.638  26.152  25.789  1.00  0.00     0.124 S 
ATOM     78  O   UNL A   1      51.533  24.798  26.323  1.00  0.00    -0.237 OA
ATOM     79  O   UNL A   1      51.484  26.276  24.341  1.00  0.00    -0.237 OA
ATOM     80  O   UNL A   1      52.700  26.973  26.366  1.00  0.00    -0.744 OA
ENDBRANCH  76  77
ENDBRANCH  48  71
BRANCH  60  81
ATOM     81  C   UNL A   1      45.934  34.250  30.002  1.00  0.00    -0.014 A 
ATOM     82  C   UNL A   1      46.633  34.422  31.210  1.00  0.00     0.010 A 
ATOM     83  C   UNL A   1      46.025  35.242  29.008  1.00  0.00     0.010 A 
ATOM     84  C   UNL A   1      47.392  35.575  31.426  1.00  0.00     0.020 A 
ATOM     85  C   UNL A   1      46.803  36.384  29.212  1.00  0.00     0.020 A 
ATOM     86  C   UNL A   1      47.474  36.548  30.425  1.00  0.00     0.054 A 
BRANCH  86  87
ATOM     87  S   UNL A   1      48.514  38.009  30.708  1.00  0.00     0.124 S 
ATOM     88  O   UNL A   1      47.622  39.097  30.319  1.00  0.00    -0.237 OA
ATOM     89  O   UNL A   1      48.811  37.920  32.136  1.00  0.00    -0.237 OA
ATOM     90  O   UNL A   1      49.659  37.794  29.825  1.00  0.00    -0.744 OA
ENDBRANCH  86  87
ENDBRANCH  60  81
ENDBRANCH  34  35
ENDBRANCH  27  29
ENDBRANCH  26  27
ENDBRANCH  25  26
ENDBRANCH   1  25
TORSDOF 20
ENDMDL
MODEL 2
REMARK VINA RESULT:     -10.0      2.341      3.850
REMARK SMILES Cc1cc(C(=O)N2C[C@@H](C(=O)OCCOCCOC(=O)c3ccc(-c4c5nc(c(-c6ccc(S(=O)(=O)[O-])cc6)c6ccc([nH]6)c(-c6ccc(S(=O)(=O)[O-])cc6)c6nc(c(-c7ccc(S(=O)(=O)[O-])cc7)c7ccc4[nH]7)C=C6)C=C5)cc3)[C@H](C3CC3)C2)sc1C
REMARK SMILES IDX 16 1 15 2 14 3 13 4 12 5 10 6 11 7 9 8 7 9 8 10 85 11 81 12
REMARK SMILES IDX 5 13 6 14 4 15 1 16 2 17 3 18 87 19 86 20 88 21 82 22 83 23
REMARK SMILES IDX 84 24 17 25 18 26 19 27 20 28 21 29 22 30 80 31 23 32 79 33
REMARK SMILES IDX 24 34 25 35 26 36 73 37 27 38 78 39 72 40 74 41 28 42 77 43
REMARK SMILES IDX 71 44 70 45 29 47 59 48 40 49 58 50 41 51 44 52 57 53 75 54
REMARK SMILES IDX 42 55 43 56 56 58 76 59 45 60 30 61 31 62 39 63 32 64 38 65
REMARK SMILES IDX 33 66 34 67 35 68 36 69 37 70 60 71 61 72 69 73 62 74 68 75
REMARK SMILES IDX 63 76 64 77 65 78 66 79 67 80 46 81 47 82 55 83 48 84 54 85
REMARK SMILES IDX 49 86 50 87 51 88 52 89 53 90
REMARK H PARENT 74 46 44 57
REMARK Flexibility Score: inf
ROOT
ATOM      1  C   UNL A   1      39.222  20.835  25.794  1.00  0.00     0.202 C 
ENDROOT
BRANCH   1   2
ATOM      2  O   UNL A   1      38.125  20.418  24.984  1.00  0.00    -0.374 OA
BRANCH   2   3
ATOM      3  C   UNL A   1      37.140  21.398  24.652  1.00  0.00     0.202 C 
BRANCH   3   4
ATOM      4  C   UNL A   1      35.869  21.381  25.506  1.00  0.00     0.261 C 
BRANCH   4   5
ATOM      5  O   UNL A   1      34.899  20.486  24.941  1.00  0.00    -0.463 OA
BRANCH   5   6
ATOM      6  C   UNL A   1      33.612  20.638  25.356  1.00  0.00     0.311 C 
ATOM      7  O   UNL A   1      32.925  19.775  25.882  1.00  0.00    -0.252 OA
BRANCH   6   8
ATOM      8  C   UNL A   1      33.166  22.057  25.125  1.00  0.00     0.124 C 
ATOM      9  N   UNL A   1      31.407  23.502  25.583  1.00  0.00    -0.337 N 
ATOM     10  C   UNL A   1      32.246  22.528  26.243  1.00  0.00     0.135 C 
ATOM     11  C   UNL A   1      31.138  23.070  24.232  1.00  0.00     0.124 C 
ATOM     12  C   UNL A   1      32.329  22.175  23.837  1.00  0.00     0.028 C 
BRANCH   9  13
ATOM     13  C   UNL A   1      30.592  24.432  26.203  1.00  0.00     0.263 C 
ATOM     14  O   UNL A   1      29.781  24.058  27.054  1.00  0.00    -0.268 OA
BRANCH  13  15
ATOM     15  C   UNL A   1      30.610  25.814  25.726  1.00  0.00     0.093 A 
ATOM     16  C   UNL A   1      29.799  28.295  23.004  1.00  0.00     0.045 C 
ATOM     17  C   UNL A   1      30.318  27.617  24.231  1.00  0.00    -0.037 A 
ATOM     18  C   UNL A   1      29.922  26.297  24.627  1.00  0.00     0.029 A 
ATOM     19  C   UNL A   1      31.264  28.127  25.104  1.00  0.00     0.005 A 
ATOM     20  S   UNL A   1      31.672  27.010  26.331  1.00  0.00    -0.135 S 
ATOM     21  C   UNL A   1      31.959  29.450  25.054  1.00  0.00     0.056 C 
ENDBRANCH  13  15
ENDBRANCH   9  13
BRANCH  12  22
ATOM     22  C   UNL A   1      33.050  22.708  22.618  1.00  0.00    -0.005 C 
ATOM     23  C   UNL A   1      33.218  24.166  22.251  1.00  0.00     0.004 C 
ATOM     24  C   UNL A   1      34.392  23.383  22.768  1.00  0.00     0.004 C 
ENDBRANCH  12  22
ENDBRANCH   6   8
ENDBRANCH   5   6
ENDBRANCH   4   5
ENDBRANCH   3   4
ENDBRANCH   2   3
ENDBRANCH   1   2
BRANCH   1  25
ATOM     25  C   UNL A   1      40.171  19.742  26.297  1.00  0.00     0.261 C 
BRANCH  25  26
ATOM     26  O   UNL A   1      41.252  19.494  25.383  1.00  0.00    -0.460 OA
BRANCH  26  27
ATOM     27  C   UNL A   1      42.485  19.670  25.911  1.00  0.00     0.338 C 
ATOM     28  O   UNL A   1      43.385  18.841  25.974  1.00  0.00    -0.246 OA
BRANCH  27  29
ATOM     29  C   UNL A   1      42.690  21.083  26.273  1.00  0.00     0.060 A 
ATOM     30  C   UNL A   1      42.774  22.013  25.228  1.00  0.00     0.016 A 
ATOM     31  C   UNL A   1      42.886  21.480  27.597  1.00  0.00     0.016 A 
ATOM     32  C   UNL A   1      43.114  23.336  25.498  1.00  0.00     0.010 A 
ATOM     33  C   UNL A   1      43.236  22.807  27.865  1.00  0.00     0.010 A 
ATOM     34  C   UNL A   1      43.389  23.729  26.814  1.00  0.00    -0.014 A 
BRANCH  34  35
ATOM     35  C   UNL A   1      43.991  25.059  27.070  1.00  0.00     0.031 A 
ATOM     36  C   UNL A   1      43.116  26.162  27.599  1.00  0.00     0.074 A 
ATOM     37  C   UNL A   1      45.300  25.276  26.856  1.00  0.00     0.049 A 
ATOM     38  N   UNL A   1      43.417  27.409  27.854  1.00  0.00    -0.248 NA
ATOM     39  C   UNL A   1      41.712  25.812  27.877  1.00  0.00     0.031 C 
ATOM     40  C   UNL A   1      46.260  24.272  26.397  1.00  0.00     0.029 A 
ATOM     41  N   UNL A   1      46.047  26.418  26.997  1.00  0.00    -0.354 N 
ATOM     42  C   UNL A   1      42.242  27.995  28.313  1.00  0.00     0.074 A 
ATOM     43  C   UNL A   1      41.218  26.974  28.276  1.00  0.00     0.031 C 
ATOM     44  C   UNL A   1      47.470  24.847  26.286  1.00  0.00     0.029 A 
ATOM     45  C   UNL A   1      47.362  26.263  26.631  1.00  0.00     0.049 A 
ATOM     46  H   UNL A   1      45.676  27.267  27.328  1.00  0.00     0.167 HD
ATOM     47  C   UNL A   1      42.036  29.266  28.730  1.00  0.00     0.031 A 
ATOM     48  C   UNL A   1      48.360  27.167  26.562  1.00  0.00     0.031 A 
ATOM     49  C   UNL A   1      43.054  30.283  28.747  1.00  0.00     0.049 A 
ATOM     50  C   UNL A   1      48.090  28.595  26.953  1.00  0.00     0.074 A 
ATOM     51  C   UNL A   1      42.948  31.601  29.156  1.00  0.00     0.029 A 
ATOM     52  N   UNL A   1      44.363  30.096  28.330  1.00  0.00    -0.354 N 
ATOM     53  N   UNL A   1      46.977  29.132  27.395  1.00  0.00    -0.248 NA
ATOM     54  C   UNL A   1      49.211  29.540  26.838  1.00  0.00     0.031 C 
ATOM     55  C   UNL A   1      44.181  32.225  28.936  1.00  0.00     0.029 A 
ATOM     56  C   UNL A   1      45.070  31.280  28.447  1.00  0.00     0.049 A 
ATOM     57  H   UNL A   1      44.736  29.247  28.000  1.00  0.00     0.167 HD
ATOM     58  C   UNL A   1      47.271  30.469  27.639  1.00  0.00     0.074 A 
ATOM     59  C   UNL A   1      48.667  30.658  27.301  1.00  0.00     0.031 C 
ATOM     60  C   UNL A   1      46.461  31.451  28.107  1.00  0.00     0.031 A 
BRANCH  47  61
ATOM     61  C   UNL A   1      40.641  29.635  29.160  1.00  0.00    -0.014 A 
ATOM     62  C   UNL A   1      39.589  29.720  28.230  1.00  0.00     0.010 A 
ATOM     63  C   UNL A   1      40.376  29.889  30.518  1.00  0.00     0.010 A 
ATOM     64  C   UNL A   1      38.308  30.099  28.644  1.00  0.00     0.020 A 
ATOM     65  C   UNL A   1      39.092  30.242  30.940  1.00  0.00     0.020 A 
ATOM     66  C   UNL A   1      38.070  30.365  29.996  1.00  0.00     0.054 A 
BRANCH  66  67
ATOM     67  S   UNL A   1      36.400  30.855  30.507  1.00  0.00     0.124 S 
ATOM     68  O   UNL A   1      36.667  32.056  31.294  1.00  0.00    -0.237 OA
ATOM     69  O   UNL A   1      35.724  31.077  29.231  1.00  0.00    -0.237 OA
ATOM     70  O   UNL A   1      35.920  29.705  31.270  1.00  0.00    -0.744 OA
ENDBRANCH  66  67
ENDBRANCH  47  61
BRANCH  48  71
ATOM     71  C   UNL A   1      49.706  26.745  26.089  1.00  0.00    -0.014 A 
ATOM     72  C   UNL A   1      50.108  26.984  24.763  1.00  0.00     0.010 A 
ATOM     73  C   UNL A   1      50.603  26.116  26.973  1.00  0.00     0.010 A 
ATOM     74  C   UNL A   1      51.379  26.596  24.329  1.00  0.00     0.020 A 
ATOM     75  C   UNL A   1      51.883  25.749  26.550  1.00  0.00     0.020 A 
ATOM     76  C   UNL A   1      52.260  25.985  25.226  1.00  0.00     0.054 A 
BRANCH  76  77
ATOM     77  S   UNL A   1      53.928  25.553  24.659  1.00  0.00     0.124 S 
ATOM     78  O   UNL A   1      53.893  25.976  23.263  1.00  0.00    -0.237 OA
ATOM     79  O   UNL A   1      54.778  26.351  25.542  1.00  0.00    -0.237 OA
ATOM     80  O   UNL A   1      54.000  24.111  24.877  1.00  0.00    -0.744 OA
ENDBRANCH  76  77
ENDBRANCH  48  71
BRANCH  60  81
ATOM     81  C   UNL A   1      47.066  32.813  28.321  1.00  0.00    -0.014 A 
ATOM     82  C   UNL A   1      47.705  33.147  29.527  1.00  0.00     0.010 A 
ATOM     83  C   UNL A   1      47.056  33.747  27.268  1.00  0.00     0.010 A 
ATOM     84  C   UNL A   1      48.305  34.400  29.684  1.00  0.00     0.020 A 
ATOM     85  C   UNL A   1      47.676  34.990  27.412  1.00  0.00     0.020 A 
ATOM     86  C   UNL A   1      48.288  35.312  28.624  1.00  0.00     0.054 A 
BRANCH  86  87
ATOM     87  S   UNL A   1      49.125  36.909  28.833  1.00  0.00     0.124 S 
ATOM     88  O   UNL A   1      48.863  37.209  30.237  1.00  0.00    -0.237 OA
ATOM     89  O   UNL A   1      50.513  36.589  28.507  1.00  0.00    -0.237 OA
ATOM     90  O   UNL A   1      48.451  37.780  27.872  1.00  0.00    -0.744 OA
ENDBRANCH  86  87
ENDBRANCH  60  81
ENDBRANCH  34  35
ENDBRANCH  27  29
ENDBRANCH  26  27
ENDBRANCH  25  26
ENDBRANCH   1  25
TORSDOF 20
ENDMDL
MODEL 3
REMARK VINA RESULT:      -9.8      2.317      3.994
REMARK SMILES Cc1cc(C(=O)N2C[C@@H](C(=O)OCCOCCOC(=O)c3ccc(-c4c5nc(c(-c6ccc(S(=O)(=O)[O-])cc6)c6ccc([nH]6)c(-c6ccc(S(=O)(=O)[O-])cc6)c6nc(c(-c7ccc(S(=O)(=O)[O-])cc7)c7ccc4[nH]7)C=C6)C=C5)cc3)[C@H](C3CC3)C2)sc1C
REMARK SMILES IDX 16 1 15 2 14 3 13 4 12 5 10 6 11 7 9 8 7 9 8 10 85 11 81 12
REMARK SMILES IDX 5 13 6 14 4 15 1 16 2 17 3 18 87 19 86 20 88 21 82 22 83 23
REMARK SMILES IDX 84 24 17 25 18 26 19 27 20 28 21 29 22 30 80 31 23 32 79 33
REMARK SMILES IDX 24 34 25 35 26 36 73 37 27 38 78 39 72 40 74 41 28 42 77 43
REMARK SMILES IDX 71 44 70 45 29 47 59 48 40 49 58 50 41 51 44 52 57 53 75 54
REMARK SMILES IDX 42 55 43 56 56 58 76 59 45 60 30 61 31 62 39 63 32 64 38 65
REMARK SMILES IDX 33 66 34 67 35 68 36 69 37 70 60 71 61 72 69 73 62 74 68 75
REMARK SMILES IDX 63 76 64 77 65 78 66 79 67 80 46 81 47 82 55 83 48 84 54 85
REMARK SMILES IDX 49 86 50 87 51 88 52 89 53 90
REMARK H PARENT 74 46 44 57
REMARK Flexibility Score: inf
ROOT
ATOM      1  C   UNL A   1      38.887  22.421  26.381  1.00  0.00     0.202 C 
ENDROOT
BRANCH   1   2
ATOM      2  O   UNL A   1      37.768  22.978  25.695  1.00  0.00    -0.374 OA
BRANCH   2   3
ATOM      3  C   UNL A   1      37.140  22.173  24.695  1.00  0.00     0.202 C 
BRANCH   3   4
ATOM      4  C   UNL A   1      35.683  21.790  24.966  1.00  0.00     0.261 C 
BRANCH   4   5
ATOM      5  O   UNL A   1      34.836  22.263  23.907  1.00  0.00    -0.463 OA
BRANCH   5   6
ATOM      6  C   UNL A   1      33.512  21.970  24.007  1.00  0.00     0.311 C 
ATOM      7  O   UNL A   1      33.033  20.849  24.106  1.00  0.00    -0.252 OA
BRANCH   6   8
ATOM      8  C   UNL A   1      32.709  23.243  24.037  1.00  0.00     0.124 C 
ATOM      9  N   UNL A   1      32.743  25.426  23.246  1.00  0.00    -0.337 N 
ATOM     10  C   UNL A   1      32.959  24.074  22.785  1.00  0.00     0.135 C 
ATOM     11  C   UNL A   1      33.226  25.556  24.601  1.00  0.00     0.124 C 
ATOM     12  C   UNL A   1      33.137  24.144  25.210  1.00  0.00     0.028 C 
BRANCH   9  13
ATOM     13  C   UNL A   1      32.565  26.543  22.449  1.00  0.00     0.263 C 
ATOM     14  O   UNL A   1      33.406  26.816  21.589  1.00  0.00    -0.268 OA
BRANCH  13  15
ATOM     15  C   UNL A   1      31.461  27.453  22.747  1.00  0.00     0.093 A 
ATOM     16  C   UNL A   1      27.780  27.951  23.399  1.00  0.00     0.045 C 
ATOM     17  C   UNL A   1      29.235  28.146  23.121  1.00  0.00    -0.037 A 
ATOM     18  C   UNL A   1      30.191  27.077  23.149  1.00  0.00     0.029 A 
ATOM     19  C   UNL A   1      29.841  29.335  22.756  1.00  0.00     0.005 A 
ATOM     20  S   UNL A   1      31.506  29.132  22.425  1.00  0.00    -0.135 S 
ATOM     21  C   UNL A   1      29.217  30.683  22.582  1.00  0.00     0.056 C 
ENDBRANCH  13  15
ENDBRANCH   9  13
BRANCH  12  22
ATOM     22  C   UNL A   1      32.247  24.116  26.433  1.00  0.00    -0.005 C 
ATOM     23  C   UNL A   1      30.774  23.771  26.453  1.00  0.00     0.004 C 
ATOM     24  C   UNL A   1      31.780  22.797  26.999  1.00  0.00     0.004 C 
ENDBRANCH  12  22
ENDBRANCH   6   8
ENDBRANCH   5   6
ENDBRANCH   4   5
ENDBRANCH   3   4
ENDBRANCH   2   3
ENDBRANCH   1   2
BRANCH   1  25
ATOM     25  C   UNL A   1      39.393  21.058  25.895  1.00  0.00     0.261 C 
BRANCH  25  26
ATOM     26  O   UNL A   1      40.196  20.390  26.881  1.00  0.00    -0.460 OA
BRANCH  26  27
ATOM     27  C   UNL A   1      41.440  20.060  26.461  1.00  0.00     0.338 C 
ATOM     28  O   UNL A   1      41.776  19.027  25.894  1.00  0.00    -0.246 OA
BRANCH  27  29
ATOM     29  C   UNL A   1      42.355  21.202  26.624  1.00  0.00     0.060 A 
ATOM     30  C   UNL A   1      42.611  21.645  27.928  1.00  0.00     0.016 A 
ATOM     31  C   UNL A   1      42.879  21.884  25.524  1.00  0.00     0.016 A 
ATOM     32  C   UNL A   1      43.348  22.808  28.136  1.00  0.00     0.010 A 
ATOM     33  C   UNL A   1      43.611  23.057  25.736  1.00  0.00     0.010 A 
ATOM     34  C   UNL A   1      43.814  23.543  27.039  1.00  0.00    -0.014 A 
BRANCH  34  35
ATOM     35  C   UNL A   1      44.372  24.900  27.251  1.00  0.00     0.031 A 
ATOM     36  C   UNL A   1      43.449  26.002  27.697  1.00  0.00     0.074 A 
ATOM     37  C   UNL A   1      45.681  25.143  27.072  1.00  0.00     0.049 A 
ATOM     38  N   UNL A   1      43.709  27.267  27.902  1.00  0.00    -0.248 NA
ATOM     39  C   UNL A   1      42.047  25.627  27.945  1.00  0.00     0.031 C 
ATOM     40  C   UNL A   1      46.682  24.146  26.693  1.00  0.00     0.029 A 
ATOM     41  N   UNL A   1      46.392  26.310  27.183  1.00  0.00    -0.354 N 
ATOM     42  C   UNL A   1      42.504  27.842  28.293  1.00  0.00     0.074 A 
ATOM     43  C   UNL A   1      41.509  26.792  28.271  1.00  0.00     0.031 C 
ATOM     44  C   UNL A   1      47.880  24.748  26.595  1.00  0.00     0.029 A 
ATOM     45  C   UNL A   1      47.723  26.175  26.869  1.00  0.00     0.049 A 
ATOM     46  H   UNL A   1      45.988  27.164  27.460  1.00  0.00     0.167 HD
ATOM     47  C   UNL A   1      42.251  29.125  28.641  1.00  0.00     0.031 A 
ATOM     48  C   UNL A   1      48.699  27.102  26.790  1.00  0.00     0.031 A 
ATOM     49  C   UNL A   1      43.241  30.169  28.644  1.00  0.00     0.049 A 
ATOM     50  C   UNL A   1      48.378  28.539  27.102  1.00  0.00     0.074 A 
ATOM     51  C   UNL A   1      43.087  31.501  28.985  1.00  0.00     0.029 A 
ATOM     52  N   UNL A   1      44.568  29.999  28.281  1.00  0.00    -0.354 N 
ATOM     53  N   UNL A   1      47.237  29.065  27.481  1.00  0.00    -0.248 NA
ATOM     54  C   UNL A   1      49.477  29.507  26.980  1.00  0.00     0.031 C 
ATOM     55  C   UNL A   1      44.310  32.148  28.777  1.00  0.00     0.029 A 
ATOM     56  C   UNL A   1      45.239  31.207  28.364  1.00  0.00     0.049 A 
ATOM     57  H   UNL A   1      44.974  29.146  28.004  1.00  0.00     0.167 HD
ATOM     58  C   UNL A   1      47.488  30.420  27.671  1.00  0.00     0.074 A 
ATOM     59  C   UNL A   1      48.889  30.631  27.371  1.00  0.00     0.031 C 
ATOM     60  C   UNL A   1      46.636  31.400  28.063  1.00  0.00     0.031 A 
BRANCH  47  61
ATOM     61  C   UNL A   1      40.833  29.475  29.006  1.00  0.00    -0.014 A 
ATOM     62  C   UNL A   1      40.497  29.899  30.304  1.00  0.00     0.010 A 
ATOM     63  C   UNL A   1      39.823  29.392  28.031  1.00  0.00     0.010 A 
ATOM     64  C   UNL A   1      39.168  30.186  30.633  1.00  0.00     0.020 A 
ATOM     65  C   UNL A   1      38.498  29.704  28.348  1.00  0.00     0.020 A 
ATOM     66  C   UNL A   1      38.177  30.079  29.654  1.00  0.00     0.054 A 
BRANCH  66  67
ATOM     67  S   UNL A   1      36.460  30.458  30.106  1.00  0.00     0.124 S 
ATOM     68  O   UNL A   1      35.778  30.336  28.820  1.00  0.00    -0.237 OA
ATOM     69  O   UNL A   1      36.148  29.418  31.083  1.00  0.00    -0.237 OA
ATOM     70  O   UNL A   1      36.535  31.813  30.645  1.00  0.00    -0.744 OA
ENDBRANCH  66  67
ENDBRANCH  47  61
BRANCH  48  71
ATOM     71  C   UNL A   1      50.071  26.695  26.383  1.00  0.00    -0.014 A 
ATOM     72  C   UNL A   1      50.460  26.735  25.033  1.00  0.00     0.010 A 
ATOM     73  C   UNL A   1      51.004  26.282  27.353  1.00  0.00     0.010 A 
ATOM     74  C   UNL A   1      51.755  26.364  24.659  1.00  0.00     0.020 A 
ATOM     75  C   UNL A   1      52.307  25.935  26.986  1.00  0.00     0.020 A 
ATOM     76  C   UNL A   1      52.672  25.971  25.639  1.00  0.00     0.054 A 
BRANCH  76  77
ATOM     77  S   UNL A   1      54.367  25.560  25.138  1.00  0.00     0.124 S 
ATOM     78  O   UNL A   1      54.308  24.106  25.032  1.00  0.00    -0.237 OA
ATOM     79  O   UNL A   1      54.507  26.283  23.876  1.00  0.00    -0.237 OA
ATOM     80  O   UNL A   1      55.182  26.076  26.235  1.00  0.00    -0.744 OA
ENDBRANCH  76  77
ENDBRANCH  48  71
BRANCH  60  81
ATOM     81  C   UNL A   1      47.197  32.786  28.231  1.00  0.00    -0.014 A 
ATOM     82  C   UNL A   1      47.186  33.713  27.174  1.00  0.00     0.010 A 
ATOM     83  C   UNL A   1      47.678  33.189  29.492  1.00  0.00     0.010 A 
ATOM     84  C   UNL A   1      47.665  35.012  27.370  1.00  0.00     0.020 A 
ATOM     85  C   UNL A   1      48.134  34.493  29.697  1.00  0.00     0.020 A 
ATOM     86  C   UNL A   1      48.134  35.394  28.630  1.00  0.00     0.054 A 
BRANCH  86  87
ATOM     87  S   UNL A   1      48.695  37.102  28.873  1.00  0.00     0.124 S 
ATOM     88  O   UNL A   1      48.813  37.181  30.326  1.00  0.00    -0.237 OA
ATOM     89  O   UNL A   1      49.958  37.132  28.138  1.00  0.00    -0.237 OA
ATOM     90  O   UNL A   1      47.623  37.905  28.289  1.00  0.00    -0.744 OA
ENDBRANCH  86  87
ENDBRANCH  60  81
ENDBRANCH  34  35
ENDBRANCH  27  29
ENDBRANCH  26  27
ENDBRANCH  25  26
ENDBRANCH   1  25
TORSDOF 20
ENDMDL
