MODEL 1
REMARK VINA RESULT:     -10.1      0.000      0.000
REMARK SMILES O=C(NC(=S)Nc1c(Cl)cc(Cl)cc1C(=O)OCCOCCOC(=O)c1ccc(-c2c3nc(c(-c4ccc(S(=O)(=O)[O-])cc4)c4ccc([nH]4)c(-c4ccc(S(=O)(=O)[O-])cc4)c4nc(c(-c5ccc(S(=O)(=O)[O-])cc5)c5ccc2[nH]5)C=C4)C=C3)cc1)c1cccc([N+](=O)[O-])c1
REMARK SMILES IDX 19 1 18 2 17 3 15 4 16 5 14 6 7 7 8 8 9 9 10 10 13 11 11 12
REMARK SMILES IDX 12 13 6 14 4 16 5 17 3 18 1 19 2 20 86 22 87 23 94 24 88 25
REMARK SMILES IDX 90 26 89 27 91 28 92 29 93 30 20 31 21 32 22 33 23 34 24 35
REMARK SMILES IDX 25 36 26 37 27 38 85 39 28 40 84 41 29 42 30 43 31 44 78 45
REMARK SMILES IDX 32 46 83 47 77 48 79 49 33 50 82 51 76 52 75 53 34 55 64 56
REMARK SMILES IDX 45 57 63 58 46 59 49 60 62 61 80 62 47 63 48 64 61 66 81 67
REMARK SMILES IDX 50 68 35 69 36 70 44 71 37 72 43 73 38 74 39 75 40 76 41 77
REMARK SMILES IDX 42 78 65 79 66 80 74 81 67 82 73 83 68 84 69 85 70 86 71 87
REMARK SMILES IDX 72 88 51 89 52 90 60 91 53 92 59 93 54 94 55 95 56 96 57 97
REMARK SMILES IDX 58 98
REMARK H PARENT 6 15 3 21 79 54 49 65
REMARK Flexibility Score: inf
ROOT
ATOM      1  C   UNL A   1      33.636  31.293  26.977  1.00  0.00     0.202 C 
ENDROOT
BRANCH   1   2
ATOM      2  C   UNL A   1      33.325  29.853  26.561  1.00  0.00     0.261 C 
BRANCH   2   3
ATOM      3  O   UNL A   1      31.945  29.521  26.813  1.00  0.00    -0.460 OA
BRANCH   3   4
ATOM      4  C   UNL A   1      31.706  28.204  26.953  1.00  0.00     0.340 C 
ATOM      5  O   UNL A   1      31.021  27.633  27.783  1.00  0.00    -0.246 OA
BRANCH   4   6
ATOM      6  C   UNL A   1      32.307  27.454  25.856  1.00  0.00     0.086 A 
ATOM      7  C   UNL A   1      31.618  27.189  24.020  1.00  0.00     0.074 A 
ATOM      8  C   UNL A   1      32.511  26.097  22.645  1.00  0.00     0.066 A 
ATOM      9  Cl  UNL A   1      31.835  25.989  21.049  1.00  0.00    -0.082 Cl
ATOM     10  C   UNL A   1      34.164  25.062  22.971  1.00  0.00     0.043 A 
ATOM     11  C   UNL A   1      34.003  26.452  26.188  1.00  0.00     0.038 A 
ATOM     12  C   UNL A   1      34.844  25.311  24.834  1.00  0.00     0.043 A 
ATOM     13  Cl  UNL A   1      36.145  24.284  25.363  1.00  0.00    -0.084 Cl
BRANCH   7  14
ATOM     14  N   UNL A   1      30.228  27.352  23.885  1.00  0.00    -0.330 N 
ATOM     15  H   UNL A   1      29.900  28.123  23.369  1.00  0.00     0.169 HD
BRANCH  14  16
ATOM     16  C   UNL A   1      29.314  26.508  24.426  1.00  0.00     0.177 C 
ATOM     17  S   UNL A   1      27.728  26.575  23.914  1.00  0.00    -0.040 S 
BRANCH  16  18
ATOM     18  N   UNL A   1      29.649  25.640  25.452  1.00  0.00    -0.299 N 
ATOM     19  O   UNL A   1      30.290  23.837  26.719  1.00  0.00    -0.269 OA
ATOM     20  C   UNL A   1      30.206  24.361  25.610  1.00  0.00     0.257 C 
ATOM     21  H   UNL A   1      29.431  26.035  26.327  1.00  0.00     0.172 HD
BRANCH  20  22
ATOM     22  C   UNL A   1      30.829  23.632  24.490  1.00  0.00     0.047 A 
ATOM     23  C   UNL A   1      31.294  22.468  24.214  1.00  0.00     0.014 A 
ATOM     24  C   UNL A   1      31.973  23.025  24.759  1.00  0.00     0.099 A 
ATOM     25  C   UNL A   1      32.249  20.764  24.780  1.00  0.00     0.008 A 
ATOM     26  C   UNL A   1      33.024  21.359  25.350  1.00  0.00     0.270 A 
ATOM     27  C   UNL A   1      32.783  20.164  25.766  1.00  0.00     0.085 A 
BRANCH  26  28
ATOM     28  N   UNL A   1      34.778  21.197  25.555  1.00  0.00     0.062 N 
ATOM     29  O   UNL A   1      35.215  21.451  26.692  1.00  0.00    -0.258 OA
ATOM     30  O   UNL A   1      35.463  21.065  24.527  1.00  0.00    -0.258 OA
ENDBRANCH  26  28
ENDBRANCH  20  22
ENDBRANCH  16  18
ENDBRANCH  14  16
ENDBRANCH   7  14
ENDBRANCH   4   6
ENDBRANCH   3   4
ENDBRANCH   2   3
ENDBRANCH   1   2
BRANCH   1  31
ATOM     31  O   UNL A   1      34.165  31.386  28.303  1.00  0.00    -0.374 OA
BRANCH  31  32
ATOM     32  C   UNL A   1      35.590  31.344  28.406  1.00  0.00     0.202 C 
BRANCH  32  33
ATOM     33  C   UNL A   1      36.094  31.575  29.829  1.00  0.00     0.261 C 
BRANCH  33  34
ATOM     34  O   UNL A   1      37.472  31.167  29.904  1.00  0.00    -0.460 OA
BRANCH  34  35
ATOM     35  C   UNL A   1      37.666  29.870  30.238  1.00  0.00     0.338 C 
ATOM     36  O   UNL A   1      36.899  29.154  30.860  1.00  0.00    -0.246 OA
BRANCH  35  37
ATOM     37  C   UNL A   1      38.884  29.369  29.569  1.00  0.00     0.060 A 
ATOM     38  C   UNL A   1      39.875  28.811  30.389  1.00  0.00     0.016 A 
ATOM     39  C   UNL A   1      39.072  29.461  28.182  1.00  0.00     0.016 A 
ATOM     40  C   UNL A   1      41.080  28.395  29.833  1.00  0.00     0.010 A 
ATOM     41  C   UNL A   1      40.291  29.057  27.626  1.00  0.00     0.010 A 
ATOM     42  C   UNL A   1      41.311  28.559  28.457  1.00  0.00    -0.014 A 
BRANCH  42  43
ATOM     43  C   UNL A   1      42.692  28.387  27.952  1.00  0.00     0.031 A 
ATOM     44  C   UNL A   1      43.660  29.529  28.110  1.00  0.00     0.074 A 
ATOM     45  C   UNL A   1      43.107  27.221  27.428  1.00  0.00     0.049 A 
ATOM     46  N   UNL A   1      44.943  29.568  27.858  1.00  0.00    -0.248 NA
ATOM     47  C   UNL A   1      43.109  30.789  28.636  1.00  0.00     0.031 C 
ATOM     48  C   UNL A   1      42.278  26.033  27.236  1.00  0.00     0.029 A 
ATOM     49  N   UNL A   1      44.346  26.848  26.970  1.00  0.00    -0.354 N 
ATOM     50  C   UNL A   1      45.356  30.845  28.216  1.00  0.00     0.074 A 
ATOM     51  C   UNL A   1      44.186  31.559  28.679  1.00  0.00     0.031 C 
ATOM     52  C   UNL A   1      43.035  25.058  26.699  1.00  0.00     0.029 A 
ATOM     53  C   UNL A   1      44.396  25.556  26.508  1.00  0.00     0.049 A 
ATOM     54  H   UNL A   1      45.124  27.450  26.974  1.00  0.00     0.167 HD
ATOM     55  C   UNL A   1      46.599  31.379  28.170  1.00  0.00     0.031 A 
ATOM     56  C   UNL A   1      45.424  24.857  25.990  1.00  0.00     0.031 A 
ATOM     57  C   UNL A   1      47.760  30.695  27.678  1.00  0.00     0.049 A 
ATOM     58  C   UNL A   1      46.784  25.492  25.887  1.00  0.00     0.074 A 
ATOM     59  C   UNL A   1      49.061  31.159  27.589  1.00  0.00     0.029 A 
ATOM     60  N   UNL A   1      47.757  29.405  27.175  1.00  0.00    -0.354 N 
ATOM     61  N   UNL A   1      47.165  26.687  26.269  1.00  0.00    -0.248 NA
ATOM     62  C   UNL A   1      47.852  24.680  25.286  1.00  0.00     0.031 C 
ATOM     63  C   UNL A   1      49.841  30.154  27.002  1.00  0.00     0.029 A 
ATOM     64  C   UNL A   1      49.028  29.060  26.752  1.00  0.00     0.049 A 
ATOM     65  H   UNL A   1      46.967  28.819  27.125  1.00  0.00     0.167 HD
ATOM     66  C   UNL A   1      48.521  26.765  25.967  1.00  0.00     0.074 A 
ATOM     67  C   UNL A   1      48.894  25.496  25.377  1.00  0.00     0.031 C 
ATOM     68  C   UNL A   1      49.380  27.795  26.163  1.00  0.00     0.031 A 
BRANCH  55  69
ATOM     69  C   UNL A   1      46.743  32.791  28.659  1.00  0.00    -0.014 A 
ATOM     70  C   UNL A   1      46.875  33.851  27.743  1.00  0.00     0.010 A 
ATOM     71  C   UNL A   1      46.762  33.057  30.040  1.00  0.00     0.010 A 
ATOM     72  C   UNL A   1      47.059  35.156  28.202  1.00  0.00     0.020 A 
ATOM     73  C   UNL A   1      46.936  34.363  30.502  1.00  0.00     0.020 A 
ATOM     74  C   UNL A   1      47.102  35.402  29.579  1.00  0.00     0.054 A 
BRANCH  74  75
ATOM     75  S   UNL A   1      47.352  37.102  30.162  1.00  0.00     0.124 S 
ATOM     76  O   UNL A   1      48.572  36.969  30.956  1.00  0.00    -0.237 OA
ATOM     77  O   UNL A   1      47.493  37.859  28.920  1.00  0.00    -0.237 OA
ATOM     78  O   UNL A   1      46.138  37.385  30.925  1.00  0.00    -0.744 OA
ENDBRANCH  74  75
ENDBRANCH  55  69
BRANCH  56  79
ATOM     79  C   UNL A   1      45.205  23.465  25.522  1.00  0.00    -0.014 A 
ATOM     80  C   UNL A   1      45.080  23.184  24.148  1.00  0.00     0.010 A 
ATOM     81  C   UNL A   1      45.132  22.413  26.456  1.00  0.00     0.010 A 
ATOM     82  C   UNL A   1      44.880  21.871  23.714  1.00  0.00     0.020 A 
ATOM     83  C   UNL A   1      44.946  21.099  26.023  1.00  0.00     0.020 A 
ATOM     84  C   UNL A   1      44.814  20.837  24.655  1.00  0.00     0.054 A 
BRANCH  84  85
ATOM     85  S   UNL A   1      44.627  19.123  24.083  1.00  0.00     0.124 S 
ATOM     86  O   UNL A   1      45.758  18.463  24.726  1.00  0.00    -0.237 OA
ATOM     87  O   UNL A   1      43.307  18.753  24.588  1.00  0.00    -0.237 OA
ATOM     88  O   UNL A   1      44.712  19.245  22.629  1.00  0.00    -0.744 OA
ENDBRANCH  84  85
ENDBRANCH  56  79
BRANCH  68  89
ATOM     89  C   UNL A   1      50.808  27.592  25.745  1.00  0.00    -0.014 A 
ATOM     90  C   UNL A   1      51.767  27.143  26.671  1.00  0.00     0.010 A 
ATOM     91  C   UNL A   1      51.177  27.793  24.403  1.00  0.00     0.010 A 
ATOM     92  C   UNL A   1      53.083  26.914  26.263  1.00  0.00     0.020 A 
ATOM     93  C   UNL A   1      52.491  27.554  23.989  1.00  0.00     0.020 A 
ATOM     94  C   UNL A   1      53.437  27.126  24.926  1.00  0.00     0.054 A 
BRANCH  94  95
ATOM     95  S   UNL A   1      55.138  26.776  24.393  1.00  0.00     0.124 S 
ATOM     96  O   UNL A   1      55.085  27.109  22.972  1.00  0.00    -0.237 OA
ATOM     97  O   UNL A   1      55.936  27.677  25.219  1.00  0.00    -0.237 OA
ATOM     98  O   UNL A   1      55.304  25.355  24.696  1.00  0.00    -0.744 OA
ENDBRANCH  94  95
ENDBRANCH  68  89
ENDBRANCH  42  43
ENDBRANCH  35  37
ENDBRANCH  34  35
ENDBRANCH  33  34
ENDBRANCH  32  33
ENDBRANCH  31  32
ENDBRANCH   1  31
TORSDOF 22
ENDMDL
MODEL 2
REMARK VINA RESULT:      -9.5      6.701     12.136
REMARK SMILES O=C(NC(=S)Nc1c(Cl)cc(Cl)cc1C(=O)OCCOCCOC(=O)c1ccc(-c2c3nc(c(-c4ccc(S(=O)(=O)[O-])cc4)c4ccc([nH]4)c(-c4ccc(S(=O)(=O)[O-])cc4)c4nc(c(-c5ccc(S(=O)(=O)[O-])cc5)c5ccc2[nH]5)C=C4)C=C3)cc1)c1cccc([N+](=O)[O-])c1
REMARK SMILES IDX 19 1 18 2 17 3 15 4 16 5 14 6 7 7 8 8 9 9 10 10 13 11 11 12
REMARK SMILES IDX 12 13 6 14 4 16 5 17 3 18 1 19 2 20 86 22 87 23 94 24 88 25
REMARK SMILES IDX 90 26 89 27 91 28 92 29 93 30 20 31 21 32 22 33 23 34 24 35
REMARK SMILES IDX 25 36 26 37 27 38 85 39 28 40 84 41 29 42 30 43 31 44 78 45
REMARK SMILES IDX 32 46 83 47 77 48 79 49 33 50 82 51 76 52 75 53 34 55 64 56
REMARK SMILES IDX 45 57 63 58 46 59 49 60 62 61 80 62 47 63 48 64 61 66 81 67
REMARK SMILES IDX 50 68 35 69 36 70 44 71 37 72 43 73 38 74 39 75 40 76 41 77
REMARK SMILES IDX 42 78 65 79 66 80 74 81 67 82 73 83 68 84 69 85 70 86 71 87
REMARK SMILES IDX 72 88 51 89 52 90 60 91 53 92 59 93 54 94 55 95 56 96 57 97
REMARK SMILES IDX 58 98
REMARK H PARENT 6 15 3 21 79 54 49 65
REMARK Flexibility Score: inf
ROOT
ATOM      1  C   UNL A   1      37.085  23.218  23.831  1.00  0.00     0.202 C 
ENDROOT
BRANCH   1   2
ATOM      2  C   UNL A   1      35.576  23.414  23.670  1.00  0.00     0.261 C 
BRANCH   2   3
ATOM      3  O   UNL A   1      35.175  23.282  22.291  1.00  0.00    -0.460 OA
BRANCH   3   4
ATOM      4  C   UNL A   1      33.848  23.154  22.106  1.00  0.00     0.340 C 
ATOM      5  O   UNL A   1      33.234  22.924  21.080  1.00  0.00    -0.246 OA
BRANCH   4   6
ATOM      6  C   UNL A   1      33.146  23.213  23.384  1.00  0.00     0.086 A 
ATOM      7  C   UNL A   1      31.928  24.620  24.058  1.00  0.00     0.074 A 
ATOM      8  C   UNL A   1      31.086  24.601  25.839  1.00  0.00     0.066 A 
ATOM      9  Cl  UNL A   1      29.988  25.868  26.293  1.00  0.00    -0.082 Cl
ATOM     10  C   UNL A   1      31.433  23.209  27.200  1.00  0.00     0.043 A 
ATOM     11  C   UNL A   1      33.470  21.774  24.730  1.00  0.00     0.038 A 
ATOM     12  C   UNL A   1      32.684  21.803  26.525  1.00  0.00     0.043 A 
ATOM     13  Cl  UNL A   1      33.287  20.642  27.672  1.00  0.00    -0.084 Cl
BRANCH   7  14
ATOM     14  N   UNL A   1      32.099  25.880  23.460  1.00  0.00    -0.330 N 
ATOM     15  H   UNL A   1      32.779  26.484  23.838  1.00  0.00     0.169 HD
BRANCH  14  16
ATOM     16  C   UNL A   1      31.381  26.313  22.393  1.00  0.00     0.177 C 
ATOM     17  S   UNL A   1      32.060  26.265  20.870  1.00  0.00    -0.040 S 
BRANCH  16  18
ATOM     18  N   UNL A   1      30.121  26.866  22.545  1.00  0.00    -0.299 N 
ATOM     19  O   UNL A   1      28.315  28.161  23.117  1.00  0.00    -0.269 OA
ATOM     20  C   UNL A   1      29.536  28.026  23.078  1.00  0.00     0.257 C 
ATOM     21  H   UNL A   1      29.432  26.269  22.171  1.00  0.00     0.172 HD
BRANCH  20  22
ATOM     22  C   UNL A   1      30.340  29.188  23.499  1.00  0.00     0.047 A 
ATOM     23  C   UNL A   1      31.545  29.479  23.833  1.00  0.00     0.014 A 
ATOM     24  C   UNL A   1      31.033  29.038  24.616  1.00  0.00     0.099 A 
ATOM     25  C   UNL A   1      33.309  28.976  24.711  1.00  0.00     0.008 A 
ATOM     26  C   UNL A   1      32.767  28.522  25.596  1.00  0.00     0.270 A 
ATOM     27  C   UNL A   1      33.927  28.041  25.313  1.00  0.00     0.085 A 
BRANCH  26  28
ATOM     28  N   UNL A   1      33.068  28.524  27.343  1.00  0.00     0.062 N 
ATOM     29  O   UNL A   1      32.101  28.205  28.058  1.00  0.00    -0.258 OA
ATOM     30  O   UNL A   1      34.124  29.044  27.740  1.00  0.00    -0.258 OA
ENDBRANCH  26  28
ENDBRANCH  20  22
ENDBRANCH  16  18
ENDBRANCH  14  16
ENDBRANCH   7  14
ENDBRANCH   4   6
ENDBRANCH   3   4
ENDBRANCH   2   3
ENDBRANCH   1   2
BRANCH   1  31
ATOM     31  O   UNL A   1      37.428  22.502  25.021  1.00  0.00    -0.374 OA
BRANCH  31  32
ATOM     32  C   UNL A   1      37.817  23.305  26.137  1.00  0.00     0.202 C 
BRANCH  32  33
ATOM     33  C   UNL A   1      39.309  23.633  26.148  1.00  0.00     0.261 C 
BRANCH  33  34
ATOM     34  O   UNL A   1      39.473  25.051  25.965  1.00  0.00    -0.460 OA
BRANCH  34  35
ATOM     35  C   UNL A   1      40.739  25.504  26.124  1.00  0.00     0.338 C 
ATOM     36  O   UNL A   1      41.648  25.429  25.314  1.00  0.00    -0.246 OA
BRANCH  35  37
ATOM     37  C   UNL A   1      40.825  26.290  27.372  1.00  0.00     0.060 A 
ATOM     38  C   UNL A   1      39.908  25.976  28.384  1.00  0.00     0.016 A 
ATOM     39  C   UNL A   1      41.755  27.325  27.545  1.00  0.00     0.016 A 
ATOM     40  C   UNL A   1      39.880  26.732  29.552  1.00  0.00     0.010 A 
ATOM     41  C   UNL A   1      41.716  28.096  28.712  1.00  0.00     0.010 A 
ATOM     42  C   UNL A   1      40.752  27.824  29.701  1.00  0.00    -0.014 A 
BRANCH  42  43
ATOM     43  C   UNL A   1      40.501  28.777  30.806  1.00  0.00     0.031 A 
ATOM     44  C   UNL A   1      41.376  28.703  32.027  1.00  0.00     0.074 A 
ATOM     45  C   UNL A   1      39.565  29.736  30.705  1.00  0.00     0.049 A 
ATOM     46  N   UNL A   1      41.426  29.505  33.060  1.00  0.00    -0.248 NA
ATOM     47  C   UNL A   1      42.334  27.586  32.083  1.00  0.00     0.031 C 
ATOM     48  C   UNL A   1      38.665  29.930  29.570  1.00  0.00     0.029 A 
ATOM     49  N   UNL A   1      39.230  30.740  31.579  1.00  0.00    -0.354 N 
ATOM     50  C   UNL A   1      42.432  29.002  33.876  1.00  0.00     0.074 A 
ATOM     51  C   UNL A   1      42.951  27.814  33.233  1.00  0.00     0.031 C 
ATOM     52  C   UNL A   1      37.877  30.992  29.817  1.00  0.00     0.029 A 
ATOM     53  C   UNL A   1      38.217  31.548  31.127  1.00  0.00     0.049 A 
ATOM     54  H   UNL A   1      39.675  30.868  32.447  1.00  0.00     0.167 HD
ATOM     55  C   UNL A   1      42.890  29.486  35.054  1.00  0.00     0.031 A 
ATOM     56  C   UNL A   1      37.631  32.615  31.704  1.00  0.00     0.031 A 
ATOM     57  C   UNL A   1      42.359  30.640  35.721  1.00  0.00     0.049 A 
ATOM     58  C   UNL A   1      38.112  33.096  33.046  1.00  0.00     0.074 A 
ATOM     59  C   UNL A   1      42.757  31.201  36.922  1.00  0.00     0.029 A 
ATOM     60  N   UNL A   1      41.301  31.400  35.251  1.00  0.00    -0.354 N 
ATOM     61  N   UNL A   1      39.093  32.634  33.783  1.00  0.00    -0.248 NA
ATOM     62  C   UNL A   1      37.408  34.248  33.629  1.00  0.00     0.031 C 
ATOM     63  C   UNL A   1      41.916  32.289  37.192  1.00  0.00     0.029 A 
ATOM     64  C   UNL A   1      41.015  32.415  36.147  1.00  0.00     0.049 A 
ATOM     65  H   UNL A   1      40.823  31.242  34.406  1.00  0.00     0.167 HD
ATOM     66  C   UNL A   1      39.132  33.447  34.911  1.00  0.00     0.074 A 
ATOM     67  C   UNL A   1      38.082  34.433  34.757  1.00  0.00     0.031 C 
ATOM     68  C   UNL A   1      39.965  33.383  35.979  1.00  0.00     0.031 A 
BRANCH  55  69
ATOM     69  C   UNL A   1      44.022  28.736  35.694  1.00  0.00    -0.014 A 
ATOM     70  C   UNL A   1      43.762  27.645  36.545  1.00  0.00     0.010 A 
ATOM     71  C   UNL A   1      45.350  29.134  35.457  1.00  0.00     0.010 A 
ATOM     72  C   UNL A   1      44.815  26.983  37.178  1.00  0.00     0.020 A 
ATOM     73  C   UNL A   1      46.406  28.466  36.082  1.00  0.00     0.020 A 
ATOM     74  C   UNL A   1      46.130  27.406  36.953  1.00  0.00     0.054 A 
BRANCH  74  75
ATOM     75  S   UNL A   1      47.488  26.543  37.790  1.00  0.00     0.124 S 
ATOM     76  O   UNL A   1      47.007  25.163  37.793  1.00  0.00    -0.237 OA
ATOM     77  O   UNL A   1      48.632  26.805  36.920  1.00  0.00    -0.237 OA
ATOM     78  O   UNL A   1      47.547  27.187  39.100  1.00  0.00    -0.744 OA
ENDBRANCH  74  75
ENDBRANCH  55  69
BRANCH  56  79
ATOM     79  C   UNL A   1      36.512  33.303  31.013  1.00  0.00    -0.014 A 
ATOM     80  C   UNL A   1      35.196  33.196  31.500  1.00  0.00     0.010 A 
ATOM     81  C   UNL A   1      36.767  34.080  29.866  1.00  0.00     0.010 A 
ATOM     82  C   UNL A   1      34.148  33.853  30.848  1.00  0.00     0.020 A 
ATOM     83  C   UNL A   1      35.724  34.747  29.220  1.00  0.00     0.020 A 
ATOM     84  C   UNL A   1      34.420  34.624  29.712  1.00  0.00     0.054 A 
BRANCH  84  85
ATOM     85  S   UNL A   1      33.068  35.534  28.910  1.00  0.00     0.124 S 
ATOM     86  O   UNL A   1      33.794  36.484  28.076  1.00  0.00    -0.237 OA
ATOM     87  O   UNL A   1      32.348  34.483  28.194  1.00  0.00    -0.237 OA
ATOM     88  O   UNL A   1      32.340  36.112  30.038  1.00  0.00    -0.744 OA
ENDBRANCH  84  85
ENDBRANCH  56  79
BRANCH  68  89
ATOM     89  C   UNL A   1      39.782  34.411  37.059  1.00  0.00    -0.014 A 
ATOM     90  C   UNL A   1      39.005  34.124  38.195  1.00  0.00     0.010 A 
ATOM     91  C   UNL A   1      40.442  35.650  36.963  1.00  0.00     0.010 A 
ATOM     92  C   UNL A   1      38.875  35.069  39.215  1.00  0.00     0.020 A 
ATOM     93  C   UNL A   1      40.324  36.593  37.987  1.00  0.00     0.020 A 
ATOM     94  C   UNL A   1      39.532  36.300  39.101  1.00  0.00     0.054 A 
BRANCH  94  95
ATOM     95  S   UNL A   1      39.401  37.502  40.457  1.00  0.00     0.124 S 
ATOM     96  O   UNL A   1      39.039  36.649  41.585  1.00  0.00    -0.237 OA
ATOM     97  O   UNL A   1      40.740  38.084  40.513  1.00  0.00    -0.237 OA
ATOM     98  O   UNL A   1      38.353  38.415  40.002  1.00  0.00    -0.744 OA
ENDBRANCH  94  95
ENDBRANCH  68  89
ENDBRANCH  42  43
ENDBRANCH  35  37
ENDBRANCH  34  35
ENDBRANCH  33  34
ENDBRANCH  32  33
ENDBRANCH  31  32
ENDBRANCH   1  31
TORSDOF 22
ENDMDL
MODEL 3
REMARK VINA RESULT:      -9.2      3.289      8.921
REMARK SMILES O=C(NC(=S)Nc1c(Cl)cc(Cl)cc1C(=O)OCCOCCOC(=O)c1ccc(-c2c3nc(c(-c4ccc(S(=O)(=O)[O-])cc4)c4ccc([nH]4)c(-c4ccc(S(=O)(=O)[O-])cc4)c4nc(c(-c5ccc(S(=O)(=O)[O-])cc5)c5ccc2[nH]5)C=C4)C=C3)cc1)c1cccc([N+](=O)[O-])c1
REMARK SMILES IDX 19 1 18 2 17 3 15 4 16 5 14 6 7 7 8 8 9 9 10 10 13 11 11 12
REMARK SMILES IDX 12 13 6 14 4 16 5 17 3 18 1 19 2 20 86 22 87 23 94 24 88 25
REMARK SMILES IDX 90 26 89 27 91 28 92 29 93 30 20 31 21 32 22 33 23 34 24 35
REMARK SMILES IDX 25 36 26 37 27 38 85 39 28 40 84 41 29 42 30 43 31 44 78 45
REMARK SMILES IDX 32 46 83 47 77 48 79 49 33 50 82 51 76 52 75 53 34 55 64 56
REMARK SMILES IDX 45 57 63 58 46 59 49 60 62 61 80 62 47 63 48 64 61 66 81 67
REMARK SMILES IDX 50 68 35 69 36 70 44 71 37 72 43 73 38 74 39 75 40 76 41 77
REMARK SMILES IDX 42 78 65 79 66 80 74 81 67 82 73 83 68 84 69 85 70 86 71 87
REMARK SMILES IDX 72 88 51 89 52 90 60 91 53 92 59 93 54 94 55 95 56 96 57 97
REMARK SMILES IDX 58 98
REMARK H PARENT 6 15 3 21 79 54 49 65
REMARK Flexibility Score: inf
ROOT
ATOM      1  C   UNL A   1      36.415  23.393  23.213  1.00  0.00     0.202 C 
ENDROOT
BRANCH   1   2
ATOM      2  C   UNL A   1      35.115  24.112  23.587  1.00  0.00     0.261 C 
BRANCH   2   3
ATOM      3  O   UNL A   1      34.602  24.877  22.477  1.00  0.00    -0.460 OA
BRANCH   3   4
ATOM      4  C   UNL A   1      33.326  24.600  22.152  1.00  0.00     0.340 C 
ATOM      5  O   UNL A   1      32.677  24.981  21.195  1.00  0.00    -0.246 OA
BRANCH   4   6
ATOM      6  C   UNL A   1      32.764  23.621  23.077  1.00  0.00     0.086 A 
ATOM      7  C   UNL A   1      31.721  23.941  24.728  1.00  0.00     0.074 A 
ATOM      8  C   UNL A   1      31.066  22.519  25.923  1.00  0.00     0.066 A 
ATOM      9  Cl  UNL A   1      30.110  22.926  27.314  1.00  0.00    -0.082 Cl
ATOM     10  C   UNL A   1      31.453  20.598  25.653  1.00  0.00     0.043 A 
ATOM     11  C   UNL A   1      33.124  21.681  22.764  1.00  0.00     0.038 A 
ATOM     12  C   UNL A   1      32.529  20.279  23.999  1.00  0.00     0.043 A 
ATOM     13  Cl  UNL A   1      33.164  18.680  23.745  1.00  0.00    -0.084 Cl
BRANCH   7  14
ATOM     14  N   UNL A   1      31.917  25.206  25.309  1.00  0.00    -0.330 N 
ATOM     15  H   UNL A   1      32.828  25.451  25.589  1.00  0.00     0.169 HD
BRANCH  14  16
ATOM     16  C   UNL A   1      30.923  26.108  25.507  1.00  0.00     0.177 C 
ATOM     17  S   UNL A   1      29.686  26.227  24.395  1.00  0.00    -0.040 S 
BRANCH  16  18
ATOM     18  N   UNL A   1      30.947  26.988  26.576  1.00  0.00    -0.299 N 
ATOM     19  O   UNL A   1      31.526  28.529  28.176  1.00  0.00    -0.269 OA
ATOM     20  C   UNL A   1      31.797  27.967  27.116  1.00  0.00     0.257 C 
ATOM     21  H   UNL A   1      30.128  26.902  27.116  1.00  0.00     0.172 HD
BRANCH  20  22
ATOM     22  C   UNL A   1      32.984  28.462  26.394  1.00  0.00     0.047 A 
ATOM     23  C   UNL A   1      34.161  28.913  26.633  1.00  0.00     0.014 A 
ATOM     24  C   UNL A   1      33.442  29.642  26.775  1.00  0.00     0.099 A 
ATOM     25  C   UNL A   1      35.449  29.964  27.804  1.00  0.00     0.008 A 
ATOM     26  C   UNL A   1      34.689  30.792  27.939  1.00  0.00     0.270 A 
ATOM     27  C   UNL A   1      35.548  30.628  28.885  1.00  0.00     0.085 A 
BRANCH  26  28
ATOM     28  N   UNL A   1      34.806  32.561  27.986  1.00  0.00     0.062 N 
ATOM     29  O   UNL A   1      33.801  33.158  28.408  1.00  0.00    -0.258 OA
ATOM     30  O   UNL A   1      35.770  33.085  27.400  1.00  0.00    -0.258 OA
ENDBRANCH  26  28
ENDBRANCH  20  22
ENDBRANCH  16  18
ENDBRANCH  14  16
ENDBRANCH   7  14
ENDBRANCH   4   6
ENDBRANCH   3   4
ENDBRANCH   2   3
ENDBRANCH   1   2
BRANCH   1  31
ATOM     31  O   UNL A   1      36.505  22.080  23.775  1.00  0.00    -0.374 OA
BRANCH  31  32
ATOM     32  C   UNL A   1      36.565  22.021  25.202  1.00  0.00     0.202 C 
BRANCH  32  33
ATOM     33  C   UNL A   1      37.981  21.803  25.732  1.00  0.00     0.261 C 
BRANCH  33  34
ATOM     34  O   UNL A   1      38.479  23.050  26.248  1.00  0.00    -0.460 OA
BRANCH  34  35
ATOM     35  C   UNL A   1      39.819  23.097  26.432  1.00  0.00     0.338 C 
ATOM     36  O   UNL A   1      40.636  22.267  26.067  1.00  0.00    -0.246 OA
BRANCH  35  37
ATOM     37  C   UNL A   1      40.193  24.416  26.984  1.00  0.00     0.060 A 
ATOM     38  C   UNL A   1      40.500  25.426  26.062  1.00  0.00     0.016 A 
ATOM     39  C   UNL A   1      40.268  24.659  28.363  1.00  0.00     0.016 A 
ATOM     40  C   UNL A   1      40.938  26.666  26.515  1.00  0.00     0.010 A 
ATOM     41  C   UNL A   1      40.725  25.902  28.818  1.00  0.00     0.010 A 
ATOM     42  C   UNL A   1      41.097  26.894  27.892  1.00  0.00    -0.014 A 
BRANCH  42  43
ATOM     43  C   UNL A   1      41.837  28.101  28.323  1.00  0.00     0.031 A 
ATOM     44  C   UNL A   1      41.064  29.227  28.955  1.00  0.00     0.074 A 
ATOM     45  C   UNL A   1      43.176  28.175  28.226  1.00  0.00     0.049 A 
ATOM     46  N   UNL A   1      41.507  30.322  29.518  1.00  0.00    -0.248 NA
ATOM     47  C   UNL A   1      39.598  29.092  28.967  1.00  0.00     0.031 C 
ATOM     48  C   UNL A   1      44.044  27.149  27.652  1.00  0.00     0.029 A 
ATOM     49  N   UNL A   1      44.037  29.166  28.623  1.00  0.00    -0.354 N 
ATOM     50  C   UNL A   1      40.377  30.994  29.969  1.00  0.00     0.074 A 
ATOM     51  C   UNL A   1      39.228  30.198  29.595  1.00  0.00     0.031 C 
ATOM     52  C   UNL A   1      45.321  27.565  27.737  1.00  0.00     0.029 A 
ATOM     53  C   UNL A   1      45.356  28.885  28.366  1.00  0.00     0.049 A 
ATOM     54  H   UNL A   1      43.738  30.000  29.053  1.00  0.00     0.167 HD
ATOM     55  C   UNL A   1      40.299  32.166  30.641  1.00  0.00     0.031 A 
ATOM     56  C   UNL A   1      46.465  29.610  28.610  1.00  0.00     0.031 A 
ATOM     57  C   UNL A   1      41.427  32.983  30.985  1.00  0.00     0.049 A 
ATOM     58  C   UNL A   1      46.349  30.942  29.300  1.00  0.00     0.074 A 
ATOM     59  C   UNL A   1      41.443  34.190  31.661  1.00  0.00     0.029 A 
ATOM     60  N   UNL A   1      42.740  32.684  30.662  1.00  0.00    -0.354 N 
ATOM     61  N   UNL A   1      45.277  31.542  29.757  1.00  0.00    -0.248 NA
ATOM     62  C   UNL A   1      47.597  31.692  29.509  1.00  0.00     0.031 C 
ATOM     63  C   UNL A   1      42.770  34.636  31.721  1.00  0.00     0.029 A 
ATOM     64  C   UNL A   1      43.577  33.693  31.106  1.00  0.00     0.049 A 
ATOM     65  H   UNL A   1      43.035  31.873  30.187  1.00  0.00     0.167 HD
ATOM     66  C   UNL A   1      45.722  32.733  30.320  1.00  0.00     0.074 A 
ATOM     67  C   UNL A   1      47.160  32.767  30.152  1.00  0.00     0.031 C 
ATOM     68  C   UNL A   1      45.004  33.711  30.925  1.00  0.00     0.031 A 
BRANCH  55  69
ATOM     69  C   UNL A   1      38.925  32.629  31.029  1.00  0.00    -0.014 A 
ATOM     70  C   UNL A   1      38.359  32.230  32.255  1.00  0.00     0.010 A 
ATOM     71  C   UNL A   1      38.190  33.453  30.158  1.00  0.00     0.010 A 
ATOM     72  C   UNL A   1      37.062  32.621  32.588  1.00  0.00     0.020 A 
ATOM     73  C   UNL A   1      36.896  33.855  30.494  1.00  0.00     0.020 A 
ATOM     74  C   UNL A   1      36.333  33.420  31.699  1.00  0.00     0.054 A 
BRANCH  74  75
ATOM     75  S   UNL A   1      34.644  33.914  32.142  1.00  0.00     0.124 S 
ATOM     76  O   UNL A   1      34.360  34.939  31.140  1.00  0.00    -0.237 OA
ATOM     77  O   UNL A   1      33.889  32.671  31.996  1.00  0.00    -0.237 OA
ATOM     78  O   UNL A   1      34.777  34.399  33.513  1.00  0.00    -0.744 OA
ENDBRANCH  74  75
ENDBRANCH  55  69
BRANCH  56  79
ATOM     79  C   UNL A   1      47.791  29.090  28.193  1.00  0.00    -0.014 A 
ATOM     80  C   UNL A   1      48.292  29.359  26.906  1.00  0.00     0.010 A 
ATOM     81  C   UNL A   1      48.562  28.329  29.094  1.00  0.00     0.010 A 
ATOM     82  C   UNL A   1      49.545  28.871  26.522  1.00  0.00     0.020 A 
ATOM     83  C   UNL A   1      49.819  27.852  28.717  1.00  0.00     0.020 A 
ATOM     84  C   UNL A   1      50.299  28.121  27.431  1.00  0.00     0.054 A 
BRANCH  84  85
ATOM     85  S   UNL A   1      51.957  27.550  26.954  1.00  0.00     0.124 S 
ATOM     86  O   UNL A   1      51.679  26.224  26.416  1.00  0.00    -0.237 OA
ATOM     87  O   UNL A   1      52.379  28.554  25.980  1.00  0.00    -0.237 OA
ATOM     88  O   UNL A   1      52.695  27.577  28.216  1.00  0.00    -0.744 OA
ENDBRANCH  84  85
ENDBRANCH  56  79
BRANCH  68  89
ATOM     89  C   UNL A   1      45.761  34.895  31.457  1.00  0.00    -0.014 A 
ATOM     90  C   UNL A   1      45.968  36.030  30.653  1.00  0.00     0.010 A 
ATOM     91  C   UNL A   1      46.213  34.894  32.789  1.00  0.00     0.010 A 
ATOM     92  C   UNL A   1      46.634  37.144  31.169  1.00  0.00     0.020 A 
ATOM     93  C   UNL A   1      46.870  36.011  33.311  1.00  0.00     0.020 A 
ATOM     94  C   UNL A   1      47.086  37.124  32.493  1.00  0.00     0.054 A 
BRANCH  94  95
ATOM     95  S   UNL A   1      47.905  38.597  33.173  1.00  0.00     0.124 S 
ATOM     96  O   UNL A   1      48.219  38.167  34.533  1.00  0.00    -0.237 OA
ATOM     97  O   UNL A   1      49.054  38.773  32.289  1.00  0.00    -0.237 OA
ATOM     98  O   UNL A   1      46.882  39.635  33.065  1.00  0.00    -0.744 OA
ENDBRANCH  94  95
ENDBRANCH  68  89
ENDBRANCH  42  43
ENDBRANCH  35  37
ENDBRANCH  34  35
ENDBRANCH  33  34
ENDBRANCH  32  33
ENDBRANCH  31  32
ENDBRANCH   1  31
TORSDOF 22
ENDMDL
