MODEL 1
REMARK VINA RESULT:     -10.6      0.000      0.000
REMARK SMILES N#Cc1ccccc1Cn1cccc1C(=O)OCCOCCOC(=O)c1ccc(-c2c3nc(c(-c4ccc(S(=O)(=O)[O-])cc4)c4ccc([nH]4)c(-c4ccc(S(=O)(=O)[O-])cc4)c4nc(c(-c5ccc(S(=O)(=O)[O-])cc5)c5ccc2[nH]5)C=C4)C=C3)cc1
REMARK SMILES IDX 20 1 19 2 18 3 17 4 15 5 16 6 14 7 10 8 11 9 12 10 13 11
REMARK SMILES IDX 9 12 8 13 3 14 4 15 5 16 7 17 6 18 2 19 1 20 21 21 22 22
REMARK SMILES IDX 23 23 24 24 25 25 26 26 27 27 85 28 28 29 84 30 29 31 30 32
REMARK SMILES IDX 31 33 78 34 32 35 83 36 77 37 79 38 33 39 82 40 76 41 75 42
REMARK SMILES IDX 34 44 64 45 45 46 63 47 46 48 49 49 62 50 80 51 47 52 48 53
REMARK SMILES IDX 61 55 81 56 50 57 35 58 36 59 44 60 37 61 43 62 38 63 39 64
REMARK SMILES IDX 40 65 41 66 42 67 65 68 66 69 74 70 67 71 73 72 68 73 69 74
REMARK SMILES IDX 70 75 71 76 72 77 51 78 52 79 60 80 53 81 59 82 54 83 55 84
REMARK SMILES IDX 56 85 57 86 58 87
REMARK H PARENT 79 43 49 54
REMARK Flexibility Score: inf
ROOT
ATOM      1  O   UNL A   1      38.407  21.641  25.238  1.00  0.00    -0.374 OA
ENDROOT
BRANCH   1   2
ATOM      2  C   UNL A   1      37.117  21.042  25.077  1.00  0.00     0.202 C 
BRANCH   2   3
ATOM      3  C   UNL A   1      35.909  21.948  25.311  1.00  0.00     0.261 C 
BRANCH   3   4
ATOM      4  O   UNL A   1      35.047  21.983  24.158  1.00  0.00    -0.459 OA
BRANCH   4   5
ATOM      5  C   UNL A   1      35.305  22.997  23.293  1.00  0.00     0.355 C 
ATOM      6  O   UNL A   1      36.306  23.078  22.593  1.00  0.00    -0.244 OA
BRANCH   5   7
ATOM      7  C   UNL A   1      34.164  23.882  23.156  1.00  0.00     0.127 A 
ATOM      8  N   UNL A   1      33.644  24.853  24.003  1.00  0.00    -0.338 N 
ATOM      9  C   UNL A   1      32.753  25.611  23.263  1.00  0.00     0.087 A 
ATOM     10  C   UNL A   1      32.452  24.947  22.103  1.00  0.00     0.020 A 
ATOM     11  C   UNL A   1      33.344  23.868  22.029  1.00  0.00     0.035 A 
BRANCH   8  12
ATOM     12  C   UNL A   1      34.065  25.213  25.368  1.00  0.00     0.159 C 
BRANCH  12  13
ATOM     13  C   UNL A   1      33.356  26.443  25.935  1.00  0.00    -0.010 A 
ATOM     14  C   UNL A   1      32.094  26.387  26.562  1.00  0.00     0.057 A 
ATOM     15  C   UNL A   1      31.491  27.559  27.059  1.00  0.00     0.020 A 
ATOM     16  C   UNL A   1      32.120  28.796  26.939  1.00  0.00     0.001 A 
ATOM     17  C   UNL A   1      33.998  27.701  25.901  1.00  0.00     0.007 A 
ATOM     18  C   UNL A   1      33.380  28.864  26.367  1.00  0.00     0.000 A 
BRANCH  14  19
ATOM     19  C   UNL A   1      31.396  25.140  26.772  1.00  0.00     0.099 C 
ATOM     20  N   UNL A   1      30.827  24.161  26.959  1.00  0.00    -0.192 NA
ENDBRANCH  14  19
ENDBRANCH  12  13
ENDBRANCH   8  12
ENDBRANCH   5   7
ENDBRANCH   4   5
ENDBRANCH   3   4
ENDBRANCH   2   3
ENDBRANCH   1   2
BRANCH   1  21
ATOM     21  C   UNL A   1      39.353  21.007  26.091  1.00  0.00     0.202 C 
BRANCH  21  22
ATOM     22  C   UNL A   1      39.909  19.647  25.696  1.00  0.00     0.261 C 
BRANCH  22  23
ATOM     23  O   UNL A   1      40.827  19.112  26.634  1.00  0.00    -0.460 OA
BRANCH  23  24
ATOM     24  C   UNL A   1      42.094  19.114  26.158  1.00  0.00     0.338 C 
ATOM     25  O   UNL A   1      42.740  18.161  25.757  1.00  0.00    -0.246 OA
BRANCH  24  26
ATOM     26  C   UNL A   1      42.684  20.425  26.392  1.00  0.00     0.060 A 
ATOM     27  C   UNL A   1      42.616  20.927  27.693  1.00  0.00     0.016 A 
ATOM     28  C   UNL A   1      43.009  21.227  25.287  1.00  0.00     0.016 A 
ATOM     29  C   UNL A   1      42.751  22.284  27.874  1.00  0.00     0.010 A 
ATOM     30  C   UNL A   1      43.117  22.583  25.462  1.00  0.00     0.010 A 
ATOM     31  C   UNL A   1      42.951  23.098  26.749  1.00  0.00    -0.014 A 
BRANCH  31  32
ATOM     32  C   UNL A   1      43.240  24.512  26.971  1.00  0.00     0.031 A 
ATOM     33  C   UNL A   1      41.885  25.240  27.144  1.00  0.00     0.074 A 
ATOM     34  C   UNL A   1      44.572  24.863  26.923  1.00  0.00     0.049 A 
ATOM     35  N   UNL A   1      41.574  26.446  26.818  1.00  0.00    -0.248 NA
ATOM     36  C   UNL A   1      40.656  24.517  27.621  1.00  0.00     0.031 C 
ATOM     37  C   UNL A   1      45.710  23.914  26.767  1.00  0.00     0.029 A 
ATOM     38  N   UNL A   1      45.266  26.055  27.004  1.00  0.00    -0.354 N 
ATOM     39  C   UNL A   1      40.277  26.713  27.306  1.00  0.00     0.074 A 
ATOM     40  C   UNL A   1      39.698  25.451  27.632  1.00  0.00     0.031 C 
ATOM     41  C   UNL A   1      46.896  24.565  26.650  1.00  0.00     0.029 A 
ATOM     42  C   UNL A   1      46.677  25.994  26.761  1.00  0.00     0.049 A 
ATOM     43  H   UNL A   1      44.814  26.902  27.220  1.00  0.00     0.167 HD
ATOM     44  C   UNL A   1      39.878  27.985  27.602  1.00  0.00     0.031 A 
ATOM     45  C   UNL A   1      47.570  27.038  26.631  1.00  0.00     0.031 A 
ATOM     46  C   UNL A   1      40.955  28.874  27.304  1.00  0.00     0.049 A 
ATOM     47  C   UNL A   1      46.803  28.207  27.083  1.00  0.00     0.074 A 
ATOM     48  C   UNL A   1      41.562  29.186  26.113  1.00  0.00     0.029 A 
ATOM     49  N   UNL A   1      41.823  29.108  28.351  1.00  0.00    -0.354 N 
ATOM     50  N   UNL A   1      46.481  28.448  28.317  1.00  0.00    -0.248 NA
ATOM     51  C   UNL A   1      46.290  29.142  26.074  1.00  0.00     0.031 C 
ATOM     52  C   UNL A   1      42.923  29.033  26.440  1.00  0.00     0.029 A 
ATOM     53  C   UNL A   1      43.085  29.053  27.831  1.00  0.00     0.049 A 
ATOM     54  H   UNL A   1      41.579  29.280  29.289  1.00  0.00     0.167 HD
ATOM     55  C   UNL A   1      45.400  29.274  28.160  1.00  0.00     0.074 A 
ATOM     56  C   UNL A   1      45.556  29.920  26.867  1.00  0.00     0.031 C 
ATOM     57  C   UNL A   1      44.212  28.899  28.712  1.00  0.00     0.031 A 
BRANCH  44  58
ATOM     58  C   UNL A   1      38.766  28.549  28.436  1.00  0.00    -0.014 A 
ATOM     59  C   UNL A   1      38.126  29.701  27.904  1.00  0.00     0.010 A 
ATOM     60  C   UNL A   1      38.572  28.264  29.792  1.00  0.00     0.010 A 
ATOM     61  C   UNL A   1      37.448  30.607  28.714  1.00  0.00     0.020 A 
ATOM     62  C   UNL A   1      37.846  29.152  30.608  1.00  0.00     0.020 A 
ATOM     63  C   UNL A   1      37.331  30.338  30.071  1.00  0.00     0.054 A 
BRANCH  63  64
ATOM     64  S   UNL A   1      36.537  31.593  31.109  1.00  0.00     0.124 S 
ATOM     65  O   UNL A   1      36.340  30.877  32.365  1.00  0.00    -0.237 OA
ATOM     66  O   UNL A   1      37.546  32.650  31.143  1.00  0.00    -0.237 OA
ATOM     67  O   UNL A   1      35.320  31.927  30.374  1.00  0.00    -0.744 OA
ENDBRANCH  63  64
ENDBRANCH  44  58
BRANCH  45  68
ATOM     68  C   UNL A   1      48.976  27.396  26.144  1.00  0.00    -0.014 A 
ATOM     69  C   UNL A   1      49.576  27.072  24.922  1.00  0.00     0.010 A 
ATOM     70  C   UNL A   1      49.730  28.313  26.948  1.00  0.00     0.010 A 
ATOM     71  C   UNL A   1      50.745  27.762  24.473  1.00  0.00     0.020 A 
ATOM     72  C   UNL A   1      50.831  29.045  26.497  1.00  0.00     0.020 A 
ATOM     73  C   UNL A   1      51.317  28.793  25.233  1.00  0.00     0.054 A 
BRANCH  73  74
ATOM     74  S   UNL A   1      52.574  29.913  24.535  1.00  0.00     0.124 S 
ATOM     75  O   UNL A   1      53.511  28.990  23.903  1.00  0.00    -0.237 OA
ATOM     76  O   UNL A   1      51.790  30.743  23.623  1.00  0.00    -0.237 OA
ATOM     77  O   UNL A   1      53.095  30.622  25.704  1.00  0.00    -0.744 OA
ENDBRANCH  73  74
ENDBRANCH  45  68
BRANCH  57  78
ATOM     78  C   UNL A   1      44.274  28.067  29.988  1.00  0.00    -0.014 A 
ATOM     79  C   UNL A   1      43.913  26.707  29.923  1.00  0.00     0.010 A 
ATOM     80  C   UNL A   1      44.632  28.569  31.258  1.00  0.00     0.010 A 
ATOM     81  C   UNL A   1      43.927  25.874  31.052  1.00  0.00     0.020 A 
ATOM     82  C   UNL A   1      44.643  27.741  32.404  1.00  0.00     0.020 A 
ATOM     83  C   UNL A   1      44.307  26.391  32.288  1.00  0.00     0.054 A 
BRANCH  83  84
ATOM     84  S   UNL A   1      44.384  25.258  33.712  1.00  0.00     0.124 S 
ATOM     85  O   UNL A   1      44.501  23.946  33.080  1.00  0.00    -0.237 OA
ATOM     86  O   UNL A   1      45.578  25.719  34.416  1.00  0.00    -0.237 OA
ATOM     87  O   UNL A   1      43.122  25.492  34.414  1.00  0.00    -0.744 OA
ENDBRANCH  83  84
ENDBRANCH  57  78
ENDBRANCH  31  32
ENDBRANCH  24  26
ENDBRANCH  23  24
ENDBRANCH  22  23
ENDBRANCH  21  22
ENDBRANCH   1  21
TORSDOF 20
ENDMDL
MODEL 2
REMARK VINA RESULT:     -10.3      1.222      1.708
REMARK SMILES N#Cc1ccccc1Cn1cccc1C(=O)OCCOCCOC(=O)c1ccc(-c2c3nc(c(-c4ccc(S(=O)(=O)[O-])cc4)c4ccc([nH]4)c(-c4ccc(S(=O)(=O)[O-])cc4)c4nc(c(-c5ccc(S(=O)(=O)[O-])cc5)c5ccc2[nH]5)C=C4)C=C3)cc1
REMARK SMILES IDX 20 1 19 2 18 3 17 4 15 5 16 6 14 7 10 8 11 9 12 10 13 11
REMARK SMILES IDX 9 12 8 13 3 14 4 15 5 16 7 17 6 18 2 19 1 20 21 21 22 22
REMARK SMILES IDX 23 23 24 24 25 25 26 26 27 27 85 28 28 29 84 30 29 31 30 32
REMARK SMILES IDX 31 33 78 34 32 35 83 36 77 37 79 38 33 39 82 40 76 41 75 42
REMARK SMILES IDX 34 44 64 45 45 46 63 47 46 48 49 49 62 50 80 51 47 52 48 53
REMARK SMILES IDX 61 55 81 56 50 57 35 58 36 59 44 60 37 61 43 62 38 63 39 64
REMARK SMILES IDX 40 65 41 66 42 67 65 68 66 69 74 70 67 71 73 72 68 73 69 74
REMARK SMILES IDX 70 75 71 76 72 77 51 78 52 79 60 80 53 81 59 82 54 83 55 84
REMARK SMILES IDX 56 85 57 86 58 87
REMARK H PARENT 79 43 49 54
REMARK Flexibility Score: inf
ROOT
ATOM      1  O   UNL A   1      38.514  21.888  25.343  1.00  0.00    -0.374 OA
ENDROOT
BRANCH   1   2
ATOM      2  C   UNL A   1      37.332  21.222  24.889  1.00  0.00     0.202 C 
BRANCH   2   3
ATOM      3  C   UNL A   1      36.016  21.642  25.542  1.00  0.00     0.261 C 
BRANCH   3   4
ATOM      4  O   UNL A   1      34.916  21.548  24.618  1.00  0.00    -0.459 OA
BRANCH   4   5
ATOM      5  C   UNL A   1      34.385  22.743  24.251  1.00  0.00     0.355 C 
ATOM      6  O   UNL A   1      34.782  23.424  23.314  1.00  0.00    -0.244 OA
BRANCH   5   7
ATOM      7  C   UNL A   1      33.169  23.032  24.985  1.00  0.00     0.127 A 
ATOM      8  N   UNL A   1      32.759  24.162  25.682  1.00  0.00    -0.338 N 
ATOM      9  C   UNL A   1      31.402  24.029  25.922  1.00  0.00     0.087 A 
ATOM     10  C   UNL A   1      31.032  22.727  25.704  1.00  0.00     0.020 A 
ATOM     11  C   UNL A   1      32.135  22.104  25.107  1.00  0.00     0.035 A 
BRANCH   8  12
ATOM     12  C   UNL A   1      33.506  25.401  25.958  1.00  0.00     0.159 C 
BRANCH  12  13
ATOM     13  C   UNL A   1      33.114  26.577  25.064  1.00  0.00    -0.010 A 
ATOM     14  C   UNL A   1      32.306  27.646  25.506  1.00  0.00     0.057 A 
ATOM     15  C   UNL A   1      31.975  28.700  24.630  1.00  0.00     0.020 A 
ATOM     16  C   UNL A   1      32.429  28.709  23.314  1.00  0.00     0.001 A 
ATOM     17  C   UNL A   1      33.620  26.660  23.749  1.00  0.00     0.007 A 
ATOM     18  C   UNL A   1      33.261  27.690  22.877  1.00  0.00     0.000 A 
BRANCH  14  19
ATOM     19  C   UNL A   1      31.834  27.741  26.868  1.00  0.00     0.099 C 
ATOM     20  N   UNL A   1      31.437  27.830  27.941  1.00  0.00    -0.192 NA
ENDBRANCH  14  19
ENDBRANCH  12  13
ENDBRANCH   8  12
ENDBRANCH   5   7
ENDBRANCH   4   5
ENDBRANCH   3   4
ENDBRANCH   2   3
ENDBRANCH   1   2
BRANCH   1  21
ATOM     21  C   UNL A   1      39.429  21.174  26.165  1.00  0.00     0.202 C 
BRANCH  21  22
ATOM     22  C   UNL A   1      39.888  19.790  25.730  1.00  0.00     0.261 C 
BRANCH  22  23
ATOM     23  O   UNL A   1      40.780  19.173  26.642  1.00  0.00    -0.460 OA
BRANCH  23  24
ATOM     24  C   UNL A   1      42.046  19.140  26.165  1.00  0.00     0.338 C 
ATOM     25  O   UNL A   1      42.666  18.171  25.760  1.00  0.00    -0.246 OA
BRANCH  24  26
ATOM     26  C   UNL A   1      42.673  20.434  26.403  1.00  0.00     0.060 A 
ATOM     27  C   UNL A   1      42.618  20.934  27.705  1.00  0.00     0.016 A 
ATOM     28  C   UNL A   1      43.021  21.229  25.300  1.00  0.00     0.016 A 
ATOM     29  C   UNL A   1      42.792  22.286  27.890  1.00  0.00     0.010 A 
ATOM     30  C   UNL A   1      43.166  22.582  25.479  1.00  0.00     0.010 A 
ATOM     31  C   UNL A   1      43.014  23.098  26.768  1.00  0.00    -0.014 A 
BRANCH  31  32
ATOM     32  C   UNL A   1      43.344  24.502  26.993  1.00  0.00     0.031 A 
ATOM     33  C   UNL A   1      42.009  25.266  27.178  1.00  0.00     0.074 A 
ATOM     34  C   UNL A   1      44.683  24.818  26.939  1.00  0.00     0.049 A 
ATOM     35  N   UNL A   1      41.729  26.481  26.858  1.00  0.00    -0.248 NA
ATOM     36  C   UNL A   1      40.764  24.574  27.659  1.00  0.00     0.031 C 
ATOM     37  C   UNL A   1      45.795  23.838  26.772  1.00  0.00     0.029 A 
ATOM     38  N   UNL A   1      45.410  25.989  27.021  1.00  0.00    -0.354 N 
ATOM     39  C   UNL A   1      40.443  26.781  27.356  1.00  0.00     0.074 A 
ATOM     40  C   UNL A   1      39.832  25.534  27.681  1.00  0.00     0.031 C 
ATOM     41  C   UNL A   1      46.997  24.458  26.650  1.00  0.00     0.029 A 
ATOM     42  C   UNL A   1      46.818  25.892  26.768  1.00  0.00     0.049 A 
ATOM     43  H   UNL A   1      44.982  26.848  27.242  1.00  0.00     0.167 HD
ATOM     44  C   UNL A   1      40.080  28.062  27.660  1.00  0.00     0.031 A 
ATOM     45  C   UNL A   1      47.737  26.912  26.638  1.00  0.00     0.031 A 
ATOM     46  C   UNL A   1      41.179  28.923  27.359  1.00  0.00     0.049 A 
ATOM     47  C   UNL A   1      47.006  28.099  27.099  1.00  0.00     0.074 A 
ATOM     48  C   UNL A   1      41.787  29.223  26.165  1.00  0.00     0.029 A 
ATOM     49  N   UNL A   1      42.059  29.129  28.401  1.00  0.00    -0.354 N 
ATOM     50  N   UNL A   1      46.697  28.344  28.336  1.00  0.00    -0.248 NA
ATOM     51  C   UNL A   1      46.511  29.052  26.097  1.00  0.00     0.031 C 
ATOM     52  C   UNL A   1      43.145  29.033  26.483  1.00  0.00     0.029 A 
ATOM     53  C   UNL A   1      43.316  29.042  27.874  1.00  0.00     0.049 A 
ATOM     54  H   UNL A   1      41.826  29.303  29.341  1.00  0.00     0.167 HD
ATOM     55  C   UNL A   1      45.638  29.199  28.189  1.00  0.00     0.074 A 
ATOM     56  C   UNL A   1      45.804  29.846  26.898  1.00  0.00     0.031 C 
ATOM     57  C   UNL A   1      44.444  28.854  28.746  1.00  0.00     0.031 A 
BRANCH  44  58
ATOM     58  C   UNL A   1      38.989  28.652  28.503  1.00  0.00    -0.014 A 
ATOM     59  C   UNL A   1      38.375  29.822  27.979  1.00  0.00     0.010 A 
ATOM     60  C   UNL A   1      38.797  28.367  29.860  1.00  0.00     0.010 A 
ATOM     61  C   UNL A   1      37.727  30.743  28.796  1.00  0.00     0.020 A 
ATOM     62  C   UNL A   1      38.100  29.272  30.683  1.00  0.00     0.020 A 
ATOM     63  C   UNL A   1      37.612  30.473  30.153  1.00  0.00     0.054 A 
BRANCH  63  64
ATOM     64  S   UNL A   1      36.858  31.744  31.200  1.00  0.00     0.124 S 
ATOM     65  O   UNL A   1      38.010  32.276  31.921  1.00  0.00    -0.237 OA
ATOM     66  O   UNL A   1      36.267  32.647  30.213  1.00  0.00    -0.237 OA
ATOM     67  O   UNL A   1      35.896  30.999  32.008  1.00  0.00    -0.744 OA
ENDBRANCH  63  64
ENDBRANCH  44  58
BRANCH  45  68
ATOM     68  C   UNL A   1      49.150  27.233  26.143  1.00  0.00    -0.014 A 
ATOM     69  C   UNL A   1      50.196  27.837  26.849  1.00  0.00     0.010 A 
ATOM     70  C   UNL A   1      49.524  26.713  24.860  1.00  0.00     0.010 A 
ATOM     71  C   UNL A   1      51.543  27.754  26.377  1.00  0.00     0.020 A 
ATOM     72  C   UNL A   1      50.842  26.562  24.418  1.00  0.00     0.020 A 
ATOM     73  C   UNL A   1      51.861  27.054  25.204  1.00  0.00     0.054 A 
BRANCH  73  74
ATOM     74  S   UNL A   1      53.582  26.635  24.774  1.00  0.00     0.124 S 
ATOM     75  O   UNL A   1      54.240  26.608  26.075  1.00  0.00    -0.237 OA
ATOM     76  O   UNL A   1      53.438  25.341  24.110  1.00  0.00    -0.237 OA
ATOM     77  O   UNL A   1      53.995  27.726  23.892  1.00  0.00    -0.744 OA
ENDBRANCH  73  74
ENDBRANCH  45  68
BRANCH  57  78
ATOM     78  C   UNL A   1      44.491  28.015  30.019  1.00  0.00    -0.014 A 
ATOM     79  C   UNL A   1      44.158  26.648  29.937  1.00  0.00     0.010 A 
ATOM     80  C   UNL A   1      44.809  28.515  31.300  1.00  0.00     0.010 A 
ATOM     81  C   UNL A   1      44.161  25.809  31.060  1.00  0.00     0.020 A 
ATOM     82  C   UNL A   1      44.808  27.680  32.441  1.00  0.00     0.020 A 
ATOM     83  C   UNL A   1      44.501  26.324  32.309  1.00  0.00     0.054 A 
BRANCH  83  84
ATOM     84  S   UNL A   1      44.566  25.185  33.727  1.00  0.00     0.124 S 
ATOM     85  O   UNL A   1      46.000  25.013  33.944  1.00  0.00    -0.237 OA
ATOM     86  O   UNL A   1      43.864  25.934  34.766  1.00  0.00    -0.237 OA
ATOM     87  O   UNL A   1      43.870  23.990  33.249  1.00  0.00    -0.744 OA
ENDBRANCH  83  84
ENDBRANCH  57  78
ENDBRANCH  31  32
ENDBRANCH  24  26
ENDBRANCH  23  24
ENDBRANCH  22  23
ENDBRANCH  21  22
ENDBRANCH   1  21
TORSDOF 20
ENDMDL
MODEL 3
REMARK VINA RESULT:     -10.3      5.235     11.254
REMARK SMILES N#Cc1ccccc1Cn1cccc1C(=O)OCCOCCOC(=O)c1ccc(-c2c3nc(c(-c4ccc(S(=O)(=O)[O-])cc4)c4ccc([nH]4)c(-c4ccc(S(=O)(=O)[O-])cc4)c4nc(c(-c5ccc(S(=O)(=O)[O-])cc5)c5ccc2[nH]5)C=C4)C=C3)cc1
REMARK SMILES IDX 20 1 19 2 18 3 17 4 15 5 16 6 14 7 10 8 11 9 12 10 13 11
REMARK SMILES IDX 9 12 8 13 3 14 4 15 5 16 7 17 6 18 2 19 1 20 21 21 22 22
REMARK SMILES IDX 23 23 24 24 25 25 26 26 27 27 85 28 28 29 84 30 29 31 30 32
REMARK SMILES IDX 31 33 78 34 32 35 83 36 77 37 79 38 33 39 82 40 76 41 75 42
REMARK SMILES IDX 34 44 64 45 45 46 63 47 46 48 49 49 62 50 80 51 47 52 48 53
REMARK SMILES IDX 61 55 81 56 50 57 35 58 36 59 44 60 37 61 43 62 38 63 39 64
REMARK SMILES IDX 40 65 41 66 42 67 65 68 66 69 74 70 67 71 73 72 68 73 69 74
REMARK SMILES IDX 70 75 71 76 72 77 51 78 52 79 60 80 53 81 59 82 54 83 55 84
REMARK SMILES IDX 56 85 57 86 58 87
REMARK H PARENT 79 43 49 54
REMARK Flexibility Score: inf
ROOT
ATOM      1  O   UNL A   1      33.193  31.084  26.942  1.00  0.00    -0.374 OA
ENDROOT
BRANCH   1   2
ATOM      2  C   UNL A   1      33.999  29.914  27.118  1.00  0.00     0.202 C 
BRANCH   2   3
ATOM      3  C   UNL A   1      33.821  28.801  26.087  1.00  0.00     0.261 C 
BRANCH   3   4
ATOM      4  O   UNL A   1      33.201  27.638  26.669  1.00  0.00    -0.459 OA
BRANCH   4   5
ATOM      5  C   UNL A   1      31.844  27.660  26.661  1.00  0.00     0.355 C 
ATOM      6  O   UNL A   1      31.141  27.692  27.663  1.00  0.00    -0.244 OA
BRANCH   5   7
ATOM      7  C   UNL A   1      31.324  27.832  25.318  1.00  0.00     0.127 A 
ATOM      8  N   UNL A   1      30.933  26.909  24.355  1.00  0.00    -0.338 N 
ATOM      9  C   UNL A   1      30.226  27.598  23.386  1.00  0.00     0.087 A 
ATOM     10  C   UNL A   1      30.452  28.942  23.534  1.00  0.00     0.020 A 
ATOM     11  C   UNL A   1      31.131  29.091  24.750  1.00  0.00     0.035 A 
BRANCH   8  12
ATOM     12  C   UNL A   1      31.021  25.438  24.393  1.00  0.00     0.159 C 
BRANCH  12  13
ATOM     13  C   UNL A   1      32.379  24.908  24.853  1.00  0.00    -0.010 A 
ATOM     14  C   UNL A   1      32.543  24.094  25.994  1.00  0.00     0.057 A 
ATOM     15  C   UNL A   1      33.823  23.641  26.369  1.00  0.00     0.020 A 
ATOM     16  C   UNL A   1      34.952  23.988  25.631  1.00  0.00     0.001 A 
ATOM     17  C   UNL A   1      33.534  25.175  24.087  1.00  0.00     0.007 A 
ATOM     18  C   UNL A   1      34.804  24.749  24.482  1.00  0.00     0.000 A 
BRANCH  14  19
ATOM     19  C   UNL A   1      31.421  23.646  26.786  1.00  0.00     0.099 C 
ATOM     20  N   UNL A   1      30.540  23.304  27.436  1.00  0.00    -0.192 NA
ENDBRANCH  14  19
ENDBRANCH  12  13
ENDBRANCH   8  12
ENDBRANCH   5   7
ENDBRANCH   4   5
ENDBRANCH   3   4
ENDBRANCH   2   3
ENDBRANCH   1   2
BRANCH   1  21
ATOM     21  C   UNL A   1      33.228  32.095  27.943  1.00  0.00     0.202 C 
BRANCH  21  22
ATOM     22  C   UNL A   1      33.076  33.550  27.527  1.00  0.00     0.261 C 
BRANCH  22  23
ATOM     23  O   UNL A   1      32.358  34.338  28.460  1.00  0.00    -0.460 OA
BRANCH  23  24
ATOM     24  C   UNL A   1      33.090  35.386  28.905  1.00  0.00     0.338 C 
ATOM     25  O   UNL A   1      32.978  36.559  28.594  1.00  0.00    -0.246 OA
BRANCH  24  26
ATOM     26  C   UNL A   1      34.215  34.880  29.681  1.00  0.00     0.060 A 
ATOM     27  C   UNL A   1      35.465  34.890  29.062  1.00  0.00     0.016 A 
ATOM     28  C   UNL A   1      33.955  34.152  30.852  1.00  0.00     0.016 A 
ATOM     29  C   UNL A   1      36.441  34.053  29.553  1.00  0.00     0.010 A 
ATOM     30  C   UNL A   1      34.917  33.297  31.327  1.00  0.00     0.010 A 
ATOM     31  C   UNL A   1      36.137  33.232  30.649  1.00  0.00    -0.014 A 
BRANCH  31  32
ATOM     32  C   UNL A   1      37.222  32.463  31.251  1.00  0.00     0.031 A 
ATOM     33  C   UNL A   1      37.395  31.173  30.411  1.00  0.00     0.074 A 
ATOM     34  C   UNL A   1      37.775  33.002  32.392  1.00  0.00     0.049 A 
ATOM     35  N   UNL A   1      37.772  30.006  30.802  1.00  0.00    -0.248 NA
ATOM     36  C   UNL A   1      36.975  31.108  28.969  1.00  0.00     0.031 C 
ATOM     37  C   UNL A   1      37.422  34.326  32.980  1.00  0.00     0.029 A 
ATOM     38  N   UNL A   1      38.739  32.592  33.292  1.00  0.00    -0.354 N 
ATOM     39  C   UNL A   1      37.927  29.190  29.661  1.00  0.00     0.074 A 
ATOM     40  C   UNL A   1      37.261  29.857  28.591  1.00  0.00     0.031 C 
ATOM     41  C   UNL A   1      38.058  34.536  34.161  1.00  0.00     0.029 A 
ATOM     42  C   UNL A   1      38.924  33.411  34.454  1.00  0.00     0.049 A 
ATOM     43  H   UNL A   1      39.272  31.779  33.142  1.00  0.00     0.167 HD
ATOM     44  C   UNL A   1      38.788  28.129  29.659  1.00  0.00     0.031 A 
ATOM     45  C   UNL A   1      39.698  33.157  35.566  1.00  0.00     0.031 A 
ATOM     46  C   UNL A   1      39.397  28.043  30.948  1.00  0.00     0.049 A 
ATOM     47  C   UNL A   1      40.510  32.000  35.167  1.00  0.00     0.074 A 
ATOM     48  C   UNL A   1      38.856  27.788  32.184  1.00  0.00     0.029 A 
ATOM     49  N   UNL A   1      40.573  28.750  31.084  1.00  0.00    -0.354 N 
ATOM     50  N   UNL A   1      41.491  32.043  34.318  1.00  0.00    -0.248 NA
ATOM     51  C   UNL A   1      40.155  30.676  35.694  1.00  0.00     0.031 C 
ATOM     52  C   UNL A   1      39.402  28.833  32.952  1.00  0.00     0.029 A 
ATOM     53  C   UNL A   1      40.510  29.383  32.294  1.00  0.00     0.049 A 
ATOM     54  H   UNL A   1      41.312  28.793  30.436  1.00  0.00     0.167 HD
ATOM     55  C   UNL A   1      41.551  30.739  33.904  1.00  0.00     0.074 A 
ATOM     56  C   UNL A   1      41.002  29.936  34.984  1.00  0.00     0.031 C 
ATOM     57  C   UNL A   1      41.406  30.472  32.576  1.00  0.00     0.031 A 
BRANCH  44  58
ATOM     58  C   UNL A   1      39.431  27.326  28.568  1.00  0.00    -0.014 A 
ATOM     59  C   UNL A   1      39.501  25.926  28.797  1.00  0.00     0.010 A 
ATOM     60  C   UNL A   1      40.252  27.865  27.570  1.00  0.00     0.010 A 
ATOM     61  C   UNL A   1      40.447  25.123  28.169  1.00  0.00     0.020 A 
ATOM     62  C   UNL A   1      41.180  27.047  26.896  1.00  0.00     0.020 A 
ATOM     63  C   UNL A   1      41.300  25.694  27.235  1.00  0.00     0.054 A 
BRANCH  63  64
ATOM     64  S   UNL A   1      42.588  24.640  26.520  1.00  0.00     0.124 S 
ATOM     65  O   UNL A   1      42.653  25.120  25.143  1.00  0.00    -0.237 OA
ATOM     66  O   UNL A   1      43.748  24.962  27.350  1.00  0.00    -0.237 OA
ATOM     67  O   UNL A   1      42.062  23.288  26.693  1.00  0.00    -0.744 OA
ENDBRANCH  63  64
ENDBRANCH  44  58
BRANCH  45  68
ATOM     68  C   UNL A   1      39.945  33.590  37.014  1.00  0.00    -0.014 A 
ATOM     69  C   UNL A   1      41.107  34.139  37.565  1.00  0.00     0.010 A 
ATOM     70  C   UNL A   1      38.811  33.600  37.892  1.00  0.00     0.010 A 
ATOM     71  C   UNL A   1      41.074  34.809  38.828  1.00  0.00     0.020 A 
ATOM     72  C   UNL A   1      38.744  34.309  39.094  1.00  0.00     0.020 A 
ATOM     73  C   UNL A   1      39.876  34.951  39.545  1.00  0.00     0.054 A 
BRANCH  73  74
ATOM     74  S   UNL A   1      39.737  36.090  40.961  1.00  0.00     0.124 S 
ATOM     75  O   UNL A   1      40.840  35.672  41.819  1.00  0.00    -0.237 OA
ATOM     76  O   UNL A   1      39.884  37.400  40.331  1.00  0.00    -0.237 OA
ATOM     77  O   UNL A   1      38.401  35.819  41.493  1.00  0.00    -0.744 OA
ENDBRANCH  73  74
ENDBRANCH  45  68
BRANCH  57  78
ATOM     78  C   UNL A   1      41.894  31.537  31.599  1.00  0.00    -0.014 A 
ATOM     79  C   UNL A   1      40.941  32.365  30.973  1.00  0.00     0.010 A 
ATOM     80  C   UNL A   1      43.244  31.736  31.237  1.00  0.00     0.010 A 
ATOM     81  C   UNL A   1      41.303  33.358  30.051  1.00  0.00     0.020 A 
ATOM     82  C   UNL A   1      43.620  32.729  30.303  1.00  0.00     0.020 A 
ATOM     83  C   UNL A   1      42.645  33.547  29.729  1.00  0.00     0.054 A 
BRANCH  83  84
ATOM     84  S   UNL A   1      43.078  34.896  28.586  1.00  0.00     0.124 S 
ATOM     85  O   UNL A   1      43.925  35.760  29.404  1.00  0.00    -0.237 OA
ATOM     86  O   UNL A   1      43.766  34.188  27.509  1.00  0.00    -0.237 OA
ATOM     87  O   UNL A   1      41.784  35.474  28.219  1.00  0.00    -0.744 OA
ENDBRANCH  83  84
ENDBRANCH  57  78
ENDBRANCH  31  32
ENDBRANCH  24  26
ENDBRANCH  23  24
ENDBRANCH  22  23
ENDBRANCH  21  22
ENDBRANCH   1  21
TORSDOF 20
ENDMDL
