MODEL 1
REMARK VINA RESULT:     -11.3      0.000      0.000
REMARK SMILES CCN1C(=O)[C@@H](CC(=O)Nc2cccc(C(=O)OCCOCCOC(=O)c3ccc(-c4c5nc(c(-c6ccc(S(=O)(=O)[O-])cc6)c6ccc([nH]6)c(-c6ccc(S(=O)(=O)[O-])cc6)c6nc(c(-c7ccc(S(=O)(=O)[O-])cc7)c7ccc4[nH]7)C=C6)C=C5)cc3)c2)S/C1=[NH+]\c1cc(Cl)c(O)c(Cl)c1
REMARK SMILES IDX 20 1 19 2 18 3 16 4 17 5 15 6 11 7 12 8 87 9 13 10 14 11
REMARK SMILES IDX 10 12 8 13 9 14 7 16 6 17 3 18 4 19 89 20 5 21 88 22 90 23
REMARK SMILES IDX 2 25 1 26 91 27 92 28 99 29 93 30 97 31 94 32 95 33 98 34
REMARK SMILES IDX 96 35 21 37 22 38 23 39 24 40 25 41 26 42 27 43 28 44 86 45
REMARK SMILES IDX 29 46 85 47 30 48 31 49 32 50 79 51 33 52 84 53 78 54 80 55
REMARK SMILES IDX 34 56 83 57 77 58 76 59 35 61 65 62 46 63 64 64 47 65 50 66
REMARK SMILES IDX 63 67 81 68 48 69 49 70 62 72 82 73 51 74 36 75 37 76 45 77
REMARK SMILES IDX 38 78 44 79 39 80 40 81 41 82 42 83 43 84 66 85 67 86 75 87
REMARK SMILES IDX 68 88 74 89 69 90 70 91 71 92 72 93 73 94 52 95 53 96 61 97
REMARK SMILES IDX 54 98 60 99 55 100 56 101 57 102 58 103 59 104
REMARK H PARENT 10 15 90 24 96 36 80 60 50 71
REMARK Flexibility Score: inf
ROOT
ATOM      1  C   UNL A   1      37.880  22.147  25.765  1.00  0.00     0.202 C 
ENDROOT
BRANCH   1   2
ATOM      2  C   UNL A   1      36.921  21.190  25.049  1.00  0.00     0.261 C 
BRANCH   2   3
ATOM      3  O   UNL A   1      35.650  21.089  25.718  1.00  0.00    -0.460 OA
BRANCH   3   4
ATOM      4  C   UNL A   1      34.645  20.555  24.982  1.00  0.00     0.338 C 
ATOM      5  O   UNL A   1      34.549  19.388  24.620  1.00  0.00    -0.246 OA
BRANCH   4   6
ATOM      6  C   UNL A   1      33.599  21.567  24.677  1.00  0.00     0.062 A 
ATOM      7  C   UNL A   1      32.614  23.200  23.185  1.00  0.00     0.042 A 
ATOM      8  C   UNL A   1      31.500  23.291  24.016  1.00  0.00     0.026 A 
ATOM      9  C   UNL A   1      33.709  22.456  23.606  1.00  0.00     0.041 A 
ATOM     10  C   UNL A   1      31.420  22.496  25.163  1.00  0.00     0.003 A 
ATOM     11  C   UNL A   1      32.445  21.598  25.463  1.00  0.00     0.016 A 
BRANCH   7  12
ATOM     12  N   UNL A   1      32.581  23.850  21.947  1.00  0.00    -0.326 N 
ATOM     13  C   UNL A   1      33.030  25.099  21.598  1.00  0.00     0.226 C 
ATOM     14  O   UNL A   1      32.919  25.443  20.416  1.00  0.00    -0.275 OA
ATOM     15  H   UNL A   1      32.173  23.334  21.215  1.00  0.00     0.169 HD
BRANCH  13  16
ATOM     16  C   UNL A   1      33.804  25.988  22.570  1.00  0.00     0.128 C 
BRANCH  16  17
ATOM     17  C   UNL A   1      32.979  26.752  23.587  1.00  0.00     0.183 C 
ATOM     18  N   UNL A   1      31.241  28.395  23.573  1.00  0.00    -0.190 N 
ATOM     19  C   UNL A   1      31.595  27.133  23.138  1.00  0.00     0.324 C 
ATOM     20  C   UNL A   1      32.133  29.007  24.421  1.00  0.00     0.319 C 
ATOM     21  O   UNL A   1      30.823  26.342  22.604  1.00  0.00    -0.245 OA
ATOM     22  S   UNL A   1      33.711  28.259  24.239  1.00  0.00    -0.022 SA
ATOM     23  N   UNL A   1      31.805  29.941  25.249  1.00  0.00    -0.235 N 
ATOM     24  H   UNL A   1      30.894  30.307  25.191  1.00  0.00     0.313 HD
BRANCH  18  25
ATOM     25  C   UNL A   1      29.897  28.822  23.200  1.00  0.00     0.243 C 
ATOM     26  C   UNL A   1      29.757  29.811  22.079  1.00  0.00     0.054 C 
ENDBRANCH  18  25
BRANCH  23  27
ATOM     27  C   UNL A   1      32.663  30.476  26.229  1.00  0.00     0.128 A 
ATOM     28  C   UNL A   1      32.404  31.781  26.671  1.00  0.00     0.076 A 
ATOM     29  C   UNL A   1      33.777  29.812  26.748  1.00  0.00     0.076 A 
ATOM     30  C   UNL A   1      33.201  32.391  27.644  1.00  0.00     0.088 A 
ATOM     31  C   UNL A   1      34.546  30.400  27.756  1.00  0.00     0.088 A 
ATOM     32  Cl  UNL A   1      32.825  34.005  28.128  1.00  0.00    -0.080 Cl
ATOM     33  C   UNL A   1      34.266  31.691  28.208  1.00  0.00     0.153 A 
ATOM     34  Cl  UNL A   1      35.817  29.485  28.485  1.00  0.00    -0.080 Cl
BRANCH  33  35
ATOM     35  O   UNL A   1      35.019  32.267  29.200  1.00  0.00    -0.505 OA
ATOM     36  H   UNL A   1      34.604  32.587  29.976  1.00  0.00     0.293 HD
ENDBRANCH  33  35
ENDBRANCH  23  27
ENDBRANCH  16  17
ENDBRANCH  13  16
ENDBRANCH   7  12
ENDBRANCH   4   6
ENDBRANCH   3   4
ENDBRANCH   2   3
ENDBRANCH   1   2
BRANCH   1  37
ATOM     37  O   UNL A   1      39.261  21.789  25.786  1.00  0.00    -0.374 OA
BRANCH  37  38
ATOM     38  C   UNL A   1      39.995  22.047  26.980  1.00  0.00     0.202 C 
BRANCH  38  39
ATOM     39  C   UNL A   1      40.708  23.398  27.109  1.00  0.00     0.261 C 
BRANCH  39  40
ATOM     40  O   UNL A   1      39.831  24.473  27.483  1.00  0.00    -0.460 OA
BRANCH  40  41
ATOM     41  C   UNL A   1      40.229  25.688  27.034  1.00  0.00     0.338 C 
ATOM     42  O   UNL A   1      40.572  25.973  25.893  1.00  0.00    -0.246 OA
BRANCH  41  43
ATOM     43  C   UNL A   1      40.059  26.715  28.079  1.00  0.00     0.060 A 
ATOM     44  C   UNL A   1      40.829  27.881  27.970  1.00  0.00     0.016 A 
ATOM     45  C   UNL A   1      39.248  26.506  29.194  1.00  0.00     0.016 A 
ATOM     46  C   UNL A   1      40.843  28.815  29.006  1.00  0.00     0.010 A 
ATOM     47  C   UNL A   1      39.266  27.444  30.232  1.00  0.00     0.010 A 
ATOM     48  C   UNL A   1      40.091  28.587  30.164  1.00  0.00    -0.014 A 
BRANCH  48  49
ATOM     49  C   UNL A   1      40.254  29.456  31.361  1.00  0.00     0.031 A 
ATOM     50  C   UNL A   1      41.270  29.077  32.405  1.00  0.00     0.074 A 
ATOM     51  C   UNL A   1      39.493  30.552  31.548  1.00  0.00     0.049 A 
ATOM     52  N   UNL A   1      41.494  29.621  33.572  1.00  0.00    -0.248 NA
ATOM     53  C   UNL A   1      42.169  27.957  32.078  1.00  0.00     0.031 C 
ATOM     54  C   UNL A   1      38.538  31.099  30.588  1.00  0.00     0.029 A 
ATOM     55  N   UNL A   1      39.343  31.356  32.652  1.00  0.00    -0.354 N 
ATOM     56  C   UNL A   1      42.584  28.941  34.102  1.00  0.00     0.074 A 
ATOM     57  C   UNL A   1      42.925  27.891  33.165  1.00  0.00     0.031 C 
ATOM     58  C   UNL A   1      37.791  32.036  31.192  1.00  0.00     0.029 A 
ATOM     59  C   UNL A   1      38.252  32.191  32.567  1.00  0.00     0.049 A 
ATOM     60  H   UNL A   1      39.954  31.338  33.424  1.00  0.00     0.167 HD
ATOM     61  C   UNL A   1      43.267  29.197  35.242  1.00  0.00     0.031 A 
ATOM     62  C   UNL A   1      37.665  32.965  33.499  1.00  0.00     0.031 A 
ATOM     63  C   UNL A   1      42.916  30.233  36.177  1.00  0.00     0.049 A 
ATOM     64  C   UNL A   1      38.323  33.115  34.841  1.00  0.00     0.074 A 
ATOM     65  C   UNL A   1      43.579  30.614  37.331  1.00  0.00     0.029 A 
ATOM     66  N   UNL A   1      41.796  31.043  36.074  1.00  0.00    -0.354 N 
ATOM     67  N   UNL A   1      39.395  32.516  35.299  1.00  0.00    -0.248 NA
ATOM     68  C   UNL A   1      37.729  34.089  35.767  1.00  0.00     0.031 C 
ATOM     69  C   UNL A   1      42.826  31.615  37.955  1.00  0.00     0.029 A 
ATOM     70  C   UNL A   1      41.726  31.897  37.162  1.00  0.00     0.049 A 
ATOM     71  H   UNL A   1      41.145  31.015  35.335  1.00  0.00     0.167 HD
ATOM     72  C   UNL A   1      39.651  33.097  36.536  1.00  0.00     0.074 A 
ATOM     73  C   UNL A   1      38.604  34.071  36.765  1.00  0.00     0.031 C 
ATOM     74  C   UNL A   1      40.682  32.865  37.384  1.00  0.00     0.031 A 
BRANCH  61  75
ATOM     75  C   UNL A   1      44.474  28.347  35.532  1.00  0.00    -0.014 A 
ATOM     76  C   UNL A   1      45.731  28.671  34.989  1.00  0.00     0.010 A 
ATOM     77  C   UNL A   1      44.365  27.240  36.394  1.00  0.00     0.010 A 
ATOM     78  C   UNL A   1      46.849  27.883  35.269  1.00  0.00     0.020 A 
ATOM     79  C   UNL A   1      45.487  26.464  36.697  1.00  0.00     0.020 A 
ATOM     80  C   UNL A   1      46.719  26.781  36.121  1.00  0.00     0.054 A 
BRANCH  80  81
ATOM     81  S   UNL A   1      48.192  25.790  36.489  1.00  0.00     0.124 S 
ATOM     82  O   UNL A   1      48.063  24.692  35.533  1.00  0.00    -0.237 OA
ATOM     83  O   UNL A   1      49.282  26.725  36.225  1.00  0.00    -0.237 OA
ATOM     84  O   UNL A   1      48.019  25.418  37.891  1.00  0.00    -0.744 OA
ENDBRANCH  80  81
ENDBRANCH  61  75
BRANCH  62  85
ATOM     85  C   UNL A   1      36.393  33.667  33.186  1.00  0.00    -0.014 A 
ATOM     86  C   UNL A   1      35.153  33.052  33.423  1.00  0.00     0.010 A 
ATOM     87  C   UNL A   1      36.421  34.969  32.651  1.00  0.00     0.010 A 
ATOM     88  C   UNL A   1      33.963  33.717  33.114  1.00  0.00     0.020 A 
ATOM     89  C   UNL A   1      35.233  35.645  32.356  1.00  0.00     0.020 A 
ATOM     90  C   UNL A   1      34.011  35.009  32.583  1.00  0.00     0.054 A 
BRANCH  90  91
ATOM     91  S   UNL A   1      32.449  35.866  32.233  1.00  0.00     0.124 S 
ATOM     92  O   UNL A   1      32.515  36.040  30.786  1.00  0.00    -0.237 OA
ATOM     93  O   UNL A   1      31.455  34.910  32.714  1.00  0.00    -0.237 OA
ATOM     94  O   UNL A   1      32.550  37.094  33.018  1.00  0.00    -0.744 OA
ENDBRANCH  90  91
ENDBRANCH  62  85
BRANCH  74  95
ATOM     95  C   UNL A   1      40.771  33.724  38.616  1.00  0.00    -0.014 A 
ATOM     96  C   UNL A   1      41.506  34.922  38.626  1.00  0.00     0.010 A 
ATOM     97  C   UNL A   1      40.066  33.341  39.773  1.00  0.00     0.010 A 
ATOM     98  C   UNL A   1      41.559  35.706  39.781  1.00  0.00     0.020 A 
ATOM     99  C   UNL A   1      40.093  34.137  40.919  1.00  0.00     0.020 A 
ATOM    100  C   UNL A   1      40.853  35.308  40.921  1.00  0.00     0.054 A 
BRANCH 100 101
ATOM    101  S   UNL A   1      40.902  36.365  42.395  1.00  0.00     0.124 S 
ATOM    102  O   UNL A   1      42.160  35.961  43.016  1.00  0.00    -0.237 OA
ATOM    103  O   UNL A   1      40.886  37.710  41.825  1.00  0.00    -0.237 OA
ATOM    104  O   UNL A   1      39.695  35.992  43.129  1.00  0.00    -0.744 OA
ENDBRANCH 100 101
ENDBRANCH  74  95
ENDBRANCH  48  49
ENDBRANCH  41  43
ENDBRANCH  40  41
ENDBRANCH  39  40
ENDBRANCH  38  39
ENDBRANCH  37  38
ENDBRANCH   1  37
TORSDOF 23
ENDMDL
MODEL 2
REMARK VINA RESULT:     -10.9      0.881      7.735
REMARK SMILES CCN1C(=O)[C@@H](CC(=O)Nc2cccc(C(=O)OCCOCCOC(=O)c3ccc(-c4c5nc(c(-c6ccc(S(=O)(=O)[O-])cc6)c6ccc([nH]6)c(-c6ccc(S(=O)(=O)[O-])cc6)c6nc(c(-c7ccc(S(=O)(=O)[O-])cc7)c7ccc4[nH]7)C=C6)C=C5)cc3)c2)S/C1=[NH+]\c1cc(Cl)c(O)c(Cl)c1
REMARK SMILES IDX 20 1 19 2 18 3 16 4 17 5 15 6 11 7 12 8 87 9 13 10 14 11
REMARK SMILES IDX 10 12 8 13 9 14 7 16 6 17 3 18 4 19 89 20 5 21 88 22 90 23
REMARK SMILES IDX 2 25 1 26 91 27 92 28 99 29 93 30 97 31 94 32 95 33 98 34
REMARK SMILES IDX 96 35 21 37 22 38 23 39 24 40 25 41 26 42 27 43 28 44 86 45
REMARK SMILES IDX 29 46 85 47 30 48 31 49 32 50 79 51 33 52 84 53 78 54 80 55
REMARK SMILES IDX 34 56 83 57 77 58 76 59 35 61 65 62 46 63 64 64 47 65 50 66
REMARK SMILES IDX 63 67 81 68 48 69 49 70 62 72 82 73 51 74 36 75 37 76 45 77
REMARK SMILES IDX 38 78 44 79 39 80 40 81 41 82 42 83 43 84 66 85 67 86 75 87
REMARK SMILES IDX 68 88 74 89 69 90 70 91 71 92 72 93 73 94 52 95 53 96 61 97
REMARK SMILES IDX 54 98 60 99 55 100 56 101 57 102 58 103 59 104
REMARK H PARENT 10 15 90 24 96 36 80 60 50 71
REMARK Flexibility Score: inf
ROOT
ATOM      1  C   UNL A   1      37.628  22.235  25.223  1.00  0.00     0.202 C 
ENDROOT
BRANCH   1   2
ATOM      2  C   UNL A   1      36.231  22.426  25.824  1.00  0.00     0.261 C 
BRANCH   2   3
ATOM      3  O   UNL A   1      35.482  21.198  25.865  1.00  0.00    -0.460 OA
BRANCH   3   4
ATOM      4  C   UNL A   1      34.150  21.334  26.077  1.00  0.00     0.338 C 
ATOM      5  O   UNL A   1      33.596  21.470  27.162  1.00  0.00    -0.246 OA
BRANCH   4   6
ATOM      6  C   UNL A   1      33.395  21.345  24.796  1.00  0.00     0.062 A 
ATOM      7  C   UNL A   1      32.719  22.458  22.755  1.00  0.00     0.042 A 
ATOM      8  C   UNL A   1      32.169  21.267  22.285  1.00  0.00     0.026 A 
ATOM      9  C   UNL A   1      33.186  22.514  24.062  1.00  0.00     0.041 A 
ATOM     10  C   UNL A   1      32.260  20.107  23.057  1.00  0.00     0.003 A 
ATOM     11  C   UNL A   1      32.919  20.135  24.287  1.00  0.00     0.016 A 
BRANCH   7  12
ATOM     12  N   UNL A   1      32.794  23.550  21.885  1.00  0.00    -0.326 N 
ATOM     13  C   UNL A   1      33.294  24.811  22.097  1.00  0.00     0.226 C 
ATOM     14  O   UNL A   1      33.280  25.604  21.149  1.00  0.00    -0.275 OA
ATOM     15  H   UNL A   1      32.433  23.391  20.982  1.00  0.00     0.169 HD
BRANCH  13  16
ATOM     16  C   UNL A   1      34.007  25.197  23.391  1.00  0.00     0.128 C 
BRANCH  16  17
ATOM     17  C   UNL A   1      33.209  26.021  24.381  1.00  0.00     0.183 C 
ATOM     18  N   UNL A   1      31.289  27.447  24.345  1.00  0.00    -0.190 N 
ATOM     19  C   UNL A   1      31.748  26.177  24.059  1.00  0.00     0.324 C 
ATOM     20  C   UNL A   1      32.184  28.278  24.976  1.00  0.00     0.319 C 
ATOM     21  O   UNL A   1      31.027  25.234  23.748  1.00  0.00    -0.245 OA
ATOM     22  S   UNL A   1      33.814  27.682  24.708  1.00  0.00    -0.022 SA
ATOM     23  N   UNL A   1      31.834  29.293  25.693  1.00  0.00    -0.235 N 
ATOM     24  H   UNL A   1      30.883  29.545  25.697  1.00  0.00     0.313 HD
BRANCH  18  25
ATOM     25  C   UNL A   1      29.870  27.664  24.087  1.00  0.00     0.243 C 
ATOM     26  C   UNL A   1      29.491  28.566  22.947  1.00  0.00     0.054 C 
ENDBRANCH  18  25
BRANCH  23  27
ATOM     27  C   UNL A   1      32.719  30.065  26.469  1.00  0.00     0.128 A 
ATOM     28  C   UNL A   1      33.916  29.459  26.878  1.00  0.00     0.076 A 
ATOM     29  C   UNL A   1      32.460  31.370  26.895  1.00  0.00     0.076 A 
ATOM     30  C   UNL A   1      34.855  30.152  27.648  1.00  0.00     0.088 A 
ATOM     31  C   UNL A   1      33.419  32.081  27.621  1.00  0.00     0.088 A 
ATOM     32  Cl  UNL A   1      36.300  29.334  28.122  1.00  0.00    -0.080 Cl
ATOM     33  C   UNL A   1      34.619  31.478  28.004  1.00  0.00     0.153 A 
ATOM     34  Cl  UNL A   1      33.130  33.743  27.992  1.00  0.00    -0.080 Cl
BRANCH  33  35
ATOM     35  O   UNL A   1      35.561  32.178  28.715  1.00  0.00    -0.505 OA
ATOM     36  H   UNL A   1      35.560  32.144  29.651  1.00  0.00     0.293 HD
ENDBRANCH  33  35
ENDBRANCH  23  27
ENDBRANCH  16  17
ENDBRANCH  13  16
ENDBRANCH   7  12
ENDBRANCH   4   6
ENDBRANCH   3   4
ENDBRANCH   2   3
ENDBRANCH   1   2
BRANCH   1  37
ATOM     37  O   UNL A   1      38.626  21.661  26.067  1.00  0.00    -0.374 OA
BRANCH  37  38
ATOM     38  C   UNL A   1      39.608  22.534  26.619  1.00  0.00     0.202 C 
BRANCH  38  39
ATOM     39  C   UNL A   1      39.304  24.037  26.643  1.00  0.00     0.261 C 
BRANCH  39  40
ATOM     40  O   UNL A   1      40.086  24.763  27.604  1.00  0.00    -0.460 OA
BRANCH  40  41
ATOM     41  C   UNL A   1      40.307  26.057  27.268  1.00  0.00     0.338 C 
ATOM     42  O   UNL A   1      40.560  26.493  26.151  1.00  0.00    -0.246 OA
BRANCH  41  43
ATOM     43  C   UNL A   1      40.056  26.948  28.416  1.00  0.00     0.060 A 
ATOM     44  C   UNL A   1      40.890  28.065  28.562  1.00  0.00     0.016 A 
ATOM     45  C   UNL A   1      39.101  26.649  29.387  1.00  0.00     0.016 A 
ATOM     46  C   UNL A   1      40.818  28.853  29.711  1.00  0.00     0.010 A 
ATOM     47  C   UNL A   1      39.033  27.441  30.540  1.00  0.00     0.010 A 
ATOM     48  C   UNL A   1      39.915  28.525  30.728  1.00  0.00    -0.014 A 
BRANCH  48  49
ATOM     49  C   UNL A   1      39.967  29.219  32.044  1.00  0.00     0.031 A 
ATOM     50  C   UNL A   1      39.042  30.381  32.292  1.00  0.00     0.074 A 
ATOM     51  C   UNL A   1      40.839  28.853  33.004  1.00  0.00     0.049 A 
ATOM     52  N   UNL A   1      39.000  31.197  33.313  1.00  0.00    -0.248 NA
ATOM     53  C   UNL A   1      38.015  30.641  31.269  1.00  0.00     0.031 C 
ATOM     54  C   UNL A   1      41.727  27.695  32.949  1.00  0.00     0.029 A 
ATOM     55  N   UNL A   1      41.183  29.473  34.179  1.00  0.00    -0.354 N 
ATOM     56  C   UNL A   1      37.919  32.037  33.078  1.00  0.00     0.074 A 
ATOM     57  C   UNL A   1      37.383  31.687  31.780  1.00  0.00     0.031 C 
ATOM     58  C   UNL A   1      42.618  27.773  33.950  1.00  0.00     0.029 A 
ATOM     59  C   UNL A   1      42.328  28.961  34.745  1.00  0.00     0.049 A 
ATOM     60  H   UNL A   1      40.662  30.208  34.579  1.00  0.00     0.167 HD
ATOM     61  C   UNL A   1      37.393  32.984  33.891  1.00  0.00     0.031 A 
ATOM     62  C   UNL A   1      43.083  29.415  35.764  1.00  0.00     0.031 A 
ATOM     63  C   UNL A   1      37.938  33.338  35.174  1.00  0.00     0.049 A 
ATOM     64  C   UNL A   1      42.595  30.587  36.565  1.00  0.00     0.074 A 
ATOM     65  C   UNL A   1      37.444  34.240  36.101  1.00  0.00     0.029 A 
ATOM     66  N   UNL A   1      39.108  32.819  35.706  1.00  0.00    -0.354 N 
ATOM     67  N   UNL A   1      41.531  31.328  36.370  1.00  0.00    -0.248 NA
ATOM     68  C   UNL A   1      43.373  30.947  37.758  1.00  0.00     0.031 C 
ATOM     69  C   UNL A   1      38.349  34.308  37.167  1.00  0.00     0.029 A 
ATOM     70  C   UNL A   1      39.375  33.408  36.930  1.00  0.00     0.049 A 
ATOM     71  H   UNL A   1      39.667  32.132  35.276  1.00  0.00     0.167 HD
ATOM     72  C   UNL A   1      41.467  32.190  37.459  1.00  0.00     0.074 A 
ATOM     73  C   UNL A   1      42.617  31.900  38.290  1.00  0.00     0.031 C 
ATOM     74  C   UNL A   1      40.520  33.114  37.754  1.00  0.00     0.031 A 
BRANCH  61  75
ATOM     75  C   UNL A   1      36.154  33.693  33.416  1.00  0.00    -0.014 A 
ATOM     76  C   UNL A   1      34.878  33.149  33.650  1.00  0.00     0.010 A 
ATOM     77  C   UNL A   1      36.260  34.939  32.771  1.00  0.00     0.010 A 
ATOM     78  C   UNL A   1      33.732  33.817  33.215  1.00  0.00     0.020 A 
ATOM     79  C   UNL A   1      35.114  35.623  32.357  1.00  0.00     0.020 A 
ATOM     80  C   UNL A   1      33.857  35.050  32.567  1.00  0.00     0.054 A 
BRANCH  80  81
ATOM     81  S   UNL A   1      32.351  35.908  32.035  1.00  0.00     0.124 S 
ATOM     82  O   UNL A   1      32.469  37.185  32.736  1.00  0.00    -0.237 OA
ATOM     83  O   UNL A   1      32.512  35.972  30.586  1.00  0.00    -0.237 OA
ATOM     84  O   UNL A   1      31.273  35.040  32.503  1.00  0.00    -0.744 OA
ENDBRANCH  80  81
ENDBRANCH  61  75
BRANCH  62  85
ATOM     85  C   UNL A   1      44.371  28.747  36.088  1.00  0.00    -0.014 A 
ATOM     86  C   UNL A   1      44.409  27.634  36.944  1.00  0.00     0.010 A 
ATOM     87  C   UNL A   1      45.571  29.223  35.528  1.00  0.00     0.010 A 
ATOM     88  C   UNL A   1      45.626  27.020  37.251  1.00  0.00     0.020 A 
ATOM     89  C   UNL A   1      46.789  28.601  35.819  1.00  0.00     0.020 A 
ATOM     90  C   UNL A   1      46.808  27.507  36.686  1.00  0.00     0.054 A 
BRANCH  90  91
ATOM     91  S   UNL A   1      48.369  26.663  37.067  1.00  0.00     0.124 S 
ATOM     92  O   UNL A   1      48.541  26.963  38.484  1.00  0.00    -0.237 OA
ATOM     93  O   UNL A   1      48.058  25.272  36.746  1.00  0.00    -0.237 OA
ATOM     94  O   UNL A   1      49.330  27.300  36.169  1.00  0.00    -0.744 OA
ENDBRANCH  90  91
ENDBRANCH  62  85
BRANCH  74  95
ATOM     95  C   UNL A   1      40.647  33.838  39.066  1.00  0.00    -0.014 A 
ATOM     96  C   UNL A   1      40.135  33.297  40.258  1.00  0.00     0.010 A 
ATOM     97  C   UNL A   1      41.333  35.067  39.109  1.00  0.00     0.010 A 
ATOM     98  C   UNL A   1      40.280  33.987  41.464  1.00  0.00     0.020 A 
ATOM     99  C   UNL A   1      41.505  35.745  40.317  1.00  0.00     0.020 A 
ATOM    100  C   UNL A   1      40.963  35.207  41.486  1.00  0.00     0.054 A 
BRANCH 100 101
ATOM    101  S   UNL A   1      41.175  36.064  43.071  1.00  0.00     0.124 S 
ATOM    102  O   UNL A   1      39.857  36.656  43.275  1.00  0.00    -0.237 OA
ATOM    103  O   UNL A   1      41.523  34.973  43.980  1.00  0.00    -0.237 OA
ATOM    104  O   UNL A   1      42.254  37.014  42.809  1.00  0.00    -0.744 OA
ENDBRANCH 100 101
ENDBRANCH  74  95
ENDBRANCH  48  49
ENDBRANCH  41  43
ENDBRANCH  40  41
ENDBRANCH  39  40
ENDBRANCH  38  39
ENDBRANCH  37  38
ENDBRANCH   1  37
TORSDOF 23
ENDMDL
MODEL 3
REMARK VINA RESULT:     -10.5      6.066      8.068
REMARK SMILES CCN1C(=O)[C@@H](CC(=O)Nc2cccc(C(=O)OCCOCCOC(=O)c3ccc(-c4c5nc(c(-c6ccc(S(=O)(=O)[O-])cc6)c6ccc([nH]6)c(-c6ccc(S(=O)(=O)[O-])cc6)c6nc(c(-c7ccc(S(=O)(=O)[O-])cc7)c7ccc4[nH]7)C=C6)C=C5)cc3)c2)S/C1=[NH+]\c1cc(Cl)c(O)c(Cl)c1
REMARK SMILES IDX 20 1 19 2 18 3 16 4 17 5 15 6 11 7 12 8 87 9 13 10 14 11
REMARK SMILES IDX 10 12 8 13 9 14 7 16 6 17 3 18 4 19 89 20 5 21 88 22 90 23
REMARK SMILES IDX 2 25 1 26 91 27 92 28 99 29 93 30 97 31 94 32 95 33 98 34
REMARK SMILES IDX 96 35 21 37 22 38 23 39 24 40 25 41 26 42 27 43 28 44 86 45
REMARK SMILES IDX 29 46 85 47 30 48 31 49 32 50 79 51 33 52 84 53 78 54 80 55
REMARK SMILES IDX 34 56 83 57 77 58 76 59 35 61 65 62 46 63 64 64 47 65 50 66
REMARK SMILES IDX 63 67 81 68 48 69 49 70 62 72 82 73 51 74 36 75 37 76 45 77
REMARK SMILES IDX 38 78 44 79 39 80 40 81 41 82 42 83 43 84 66 85 67 86 75 87
REMARK SMILES IDX 68 88 74 89 69 90 70 91 71 92 72 93 73 94 52 95 53 96 61 97
REMARK SMILES IDX 54 98 60 99 55 100 56 101 57 102 58 103 59 104
REMARK H PARENT 10 15 90 24 96 36 80 60 50 71
REMARK Flexibility Score: inf
ROOT
ATOM      1  C   UNL A   1      39.433  22.835  26.551  1.00  0.00     0.202 C 
ENDROOT
BRANCH   1   2
ATOM      2  C   UNL A   1      38.167  23.579  26.111  1.00  0.00     0.261 C 
BRANCH   2   3
ATOM      3  O   UNL A   1      36.988  22.762  26.219  1.00  0.00    -0.460 OA
BRANCH   3   4
ATOM      4  C   UNL A   1      36.269  22.622  25.078  1.00  0.00     0.338 C 
ATOM      5  O   UNL A   1      36.573  23.049  23.970  1.00  0.00    -0.246 OA
BRANCH   4   6
ATOM      6  C   UNL A   1      35.035  21.826  25.309  1.00  0.00     0.062 A 
ATOM      7  C   UNL A   1      32.790  21.621  26.192  1.00  0.00     0.042 A 
ATOM      8  C   UNL A   1      32.637  20.406  25.529  1.00  0.00     0.026 A 
ATOM      9  C   UNL A   1      34.036  22.234  26.195  1.00  0.00     0.041 A 
ATOM     10  C   UNL A   1      33.672  19.914  24.730  1.00  0.00     0.003 A 
ATOM     11  C   UNL A   1      34.848  20.650  24.578  1.00  0.00     0.016 A 
BRANCH   7  12
ATOM     12  N   UNL A   1      31.675  22.187  26.819  1.00  0.00    -0.326 N 
ATOM     13  C   UNL A   1      31.093  23.417  26.637  1.00  0.00     0.226 C 
ATOM     14  O   UNL A   1      30.080  23.680  27.294  1.00  0.00    -0.275 OA
ATOM     15  H   UNL A   1      31.241  21.617  27.495  1.00  0.00     0.169 HD
BRANCH  13  16
ATOM     16  C   UNL A   1      31.552  24.381  25.544  1.00  0.00     0.128 C 
BRANCH  16  17
ATOM     17  C   UNL A   1      31.267  25.851  25.778  1.00  0.00     0.183 C 
ATOM     18  N   UNL A   1      30.804  27.790  24.456  1.00  0.00    -0.190 N 
ATOM     19  C   UNL A   1      30.386  26.507  24.751  1.00  0.00     0.324 C 
ATOM     20  C   UNL A   1      31.837  28.273  25.223  1.00  0.00     0.319 C 
ATOM     21  O   UNL A   1      29.329  26.017  24.364  1.00  0.00    -0.245 OA
ATOM     22  S   UNL A   1      32.699  26.925  25.947  1.00  0.00    -0.022 SA
ATOM     23  N   UNL A   1      32.066  29.530  25.404  1.00  0.00    -0.235 N 
ATOM     24  H   UNL A   1      31.539  30.173  24.878  1.00  0.00     0.313 HD
BRANCH  18  25
ATOM     25  C   UNL A   1      29.977  28.502  23.488  1.00  0.00     0.243 C 
ATOM     26  C   UNL A   1      30.670  29.280  22.407  1.00  0.00     0.054 C 
ENDBRANCH  18  25
BRANCH  23  27
ATOM     27  C   UNL A   1      33.020  30.047  26.301  1.00  0.00     0.128 A 
ATOM     28  C   UNL A   1      32.778  31.319  26.839  1.00  0.00     0.076 A 
ATOM     29  C   UNL A   1      34.208  29.398  26.648  1.00  0.00     0.076 A 
ATOM     30  C   UNL A   1      33.669  31.908  27.741  1.00  0.00     0.088 A 
ATOM     31  C   UNL A   1      35.076  29.963  27.586  1.00  0.00     0.088 A 
ATOM     32  Cl  UNL A   1      33.306  33.482  28.351  1.00  0.00    -0.080 Cl
ATOM     33  C   UNL A   1      34.814  31.220  28.135  1.00  0.00     0.153 A 
ATOM     34  Cl  UNL A   1      36.452  29.060  28.108  1.00  0.00    -0.080 Cl
BRANCH  33  35
ATOM     35  O   UNL A   1      35.665  31.773  29.059  1.00  0.00    -0.505 OA
ATOM     36  H   UNL A   1      36.501  32.098  28.789  1.00  0.00     0.293 HD
ENDBRANCH  33  35
ENDBRANCH  23  27
ENDBRANCH  16  17
ENDBRANCH  13  16
ENDBRANCH   7  12
ENDBRANCH   4   6
ENDBRANCH   3   4
ENDBRANCH   2   3
ENDBRANCH   1   2
BRANCH   1  37
ATOM     37  O   UNL A   1      39.720  21.599  25.898  1.00  0.00    -0.374 OA
BRANCH  37  38
ATOM     38  C   UNL A   1      40.212  20.526  26.697  1.00  0.00     0.202 C 
BRANCH  38  39
ATOM     39  C   UNL A   1      41.083  19.463  26.016  1.00  0.00     0.261 C 
BRANCH  39  40
ATOM     40  O   UNL A   1      42.468  19.532  26.394  1.00  0.00    -0.460 OA
BRANCH  40  41
ATOM     41  C   UNL A   1      43.238  20.240  25.533  1.00  0.00     0.338 C 
ATOM     42  O   UNL A   1      43.732  19.836  24.487  1.00  0.00    -0.246 OA
BRANCH  41  43
ATOM     43  C   UNL A   1      43.305  21.658  25.932  1.00  0.00     0.060 A 
ATOM     44  C   UNL A   1      43.256  22.619  24.914  1.00  0.00     0.016 A 
ATOM     45  C   UNL A   1      43.516  22.042  27.256  1.00  0.00     0.016 A 
ATOM     46  C   UNL A   1      43.481  23.965  25.204  1.00  0.00     0.010 A 
ATOM     47  C   UNL A   1      43.744  23.393  27.543  1.00  0.00     0.010 A 
ATOM     48  C   UNL A   1      43.766  24.360  26.516  1.00  0.00    -0.014 A 
BRANCH  48  49
ATOM     49  C   UNL A   1      44.216  25.747  26.813  1.00  0.00     0.031 A 
ATOM     50  C   UNL A   1      45.669  26.096  26.634  1.00  0.00     0.074 A 
ATOM     51  C   UNL A   1      43.363  26.686  27.268  1.00  0.00     0.049 A 
ATOM     52  N   UNL A   1      46.295  27.201  26.943  1.00  0.00    -0.248 NA
ATOM     53  C   UNL A   1      46.522  25.078  25.998  1.00  0.00     0.031 C 
ATOM     54  C   UNL A   1      41.917  26.528  27.401  1.00  0.00     0.029 A 
ATOM     55  N   UNL A   1      43.605  27.935  27.784  1.00  0.00    -0.354 N 
ATOM     56  C   UNL A   1      47.602  27.030  26.503  1.00  0.00     0.074 A 
ATOM     57  C   UNL A   1      47.700  25.684  25.979  1.00  0.00     0.031 C 
ATOM     58  C   UNL A   1      41.423  27.559  28.105  1.00  0.00     0.029 A 
ATOM     59  C   UNL A   1      42.513  28.474  28.425  1.00  0.00     0.049 A 
ATOM     60  H   UNL A   1      44.470  28.398  27.703  1.00  0.00     0.167 HD
ATOM     61  C   UNL A   1      48.615  27.928  26.494  1.00  0.00     0.031 A 
ATOM     62  C   UNL A   1      42.405  29.561  29.213  1.00  0.00     0.031 A 
ATOM     63  C   UNL A   1      48.517  29.260  27.028  1.00  0.00     0.049 A 
ATOM     64  C   UNL A   1      43.588  30.475  29.357  1.00  0.00     0.074 A 
ATOM     65  C   UNL A   1      49.466  30.267  27.013  1.00  0.00     0.029 A 
ATOM     66  N   UNL A   1      47.408  29.766  27.689  1.00  0.00    -0.354 N 
ATOM     67  N   UNL A   1      44.798  30.332  28.874  1.00  0.00    -0.248 NA
ATOM     68  C   UNL A   1      43.375  31.725  30.098  1.00  0.00     0.031 C 
ATOM     69  C   UNL A   1      48.951  31.362  27.717  1.00  0.00     0.029 A 
ATOM     70  C   UNL A   1      47.661  31.057  28.120  1.00  0.00     0.049 A 
ATOM     71  H   UNL A   1      46.564  29.278  27.831  1.00  0.00     0.167 HD
ATOM     72  C   UNL A   1      45.470  31.509  29.185  1.00  0.00     0.074 A 
ATOM     73  C   UNL A   1      44.540  32.338  29.924  1.00  0.00     0.031 C 
ATOM     74  C   UNL A   1      46.731  31.878  28.854  1.00  0.00     0.031 A 
BRANCH  61  75
ATOM     75  C   UNL A   1      49.916  27.498  25.872  1.00  0.00    -0.014 A 
ATOM     76  C   UNL A   1      50.118  27.600  24.483  1.00  0.00     0.010 A 
ATOM     77  C   UNL A   1      50.964  27.031  26.685  1.00  0.00     0.010 A 
ATOM     78  C   UNL A   1      51.331  27.208  23.913  1.00  0.00     0.020 A 
ATOM     79  C   UNL A   1      52.188  26.661  26.121  1.00  0.00     0.020 A 
ATOM     80  C   UNL A   1      52.359  26.738  24.737  1.00  0.00     0.054 A 
BRANCH  80  81
ATOM     81  S   UNL A   1      53.933  26.260  23.973  1.00  0.00     0.124 S 
ATOM     82  O   UNL A   1      54.202  24.975  24.616  1.00  0.00    -0.237 OA
ATOM     83  O   UNL A   1      53.594  26.192  22.554  1.00  0.00    -0.237 OA
ATOM     84  O   UNL A   1      54.842  27.342  24.343  1.00  0.00    -0.744 OA
ENDBRANCH  80  81
ENDBRANCH  61  75
BRANCH  62  85
ATOM     85  C   UNL A   1      41.124  29.848  29.911  1.00  0.00    -0.014 A 
ATOM     86  C   UNL A   1      40.891  29.372  31.211  1.00  0.00     0.010 A 
ATOM     87  C   UNL A   1      40.130  30.612  29.271  1.00  0.00     0.010 A 
ATOM     88  C   UNL A   1      39.679  29.638  31.854  1.00  0.00     0.020 A 
ATOM     89  C   UNL A   1      38.923  30.895  29.917  1.00  0.00     0.020 A 
ATOM     90  C   UNL A   1      38.703  30.398  31.203  1.00  0.00     0.054 A 
BRANCH  90  91
ATOM     91  S   UNL A   1      37.156  30.765  32.078  1.00  0.00     0.124 S 
ATOM     92  O   UNL A   1      36.891  32.139  31.666  1.00  0.00    -0.237 OA
ATOM     93  O   UNL A   1      36.247  29.755  31.543  1.00  0.00    -0.237 OA
ATOM     94  O   UNL A   1      37.509  30.590  33.485  1.00  0.00    -0.744 OA
ENDBRANCH  90  91
ENDBRANCH  62  85
BRANCH  74  95
ATOM     95  C   UNL A   1      47.167  33.267  29.232  1.00  0.00    -0.014 A 
ATOM     96  C   UNL A   1      46.897  34.372  28.408  1.00  0.00     0.010 A 
ATOM     97  C   UNL A   1      47.823  33.471  30.461  1.00  0.00     0.010 A 
ATOM     98  C   UNL A   1      47.301  35.654  28.791  1.00  0.00     0.020 A 
ATOM     99  C   UNL A   1      48.203  34.753  30.861  1.00  0.00     0.020 A 
ATOM    100  C   UNL A   1      47.953  35.836  30.016  1.00  0.00     0.054 A 
BRANCH 100 101
ATOM    101  S   UNL A   1      48.431  37.514  30.512  1.00  0.00     0.124 S 
ATOM    102  O   UNL A   1      49.028  38.035  29.286  1.00  0.00    -0.237 OA
ATOM    103  O   UNL A   1      47.153  38.112  30.893  1.00  0.00    -0.237 OA
ATOM    104  O   UNL A   1      49.363  37.296  31.616  1.00  0.00    -0.744 OA
ENDBRANCH 100 101
ENDBRANCH  74  95
ENDBRANCH  48  49
ENDBRANCH  41  43
ENDBRANCH  40  41
ENDBRANCH  39  40
ENDBRANCH  38  39
ENDBRANCH  37  38
ENDBRANCH   1  37
TORSDOF 23
ENDMDL
