MODEL 1
REMARK VINA RESULT:     -10.3      0.000      0.000
REMARK SMILES O=C(OCCOCCOC(=O)[C@@H]1CCC(=O)N1C(=O)/C=C/c1ccccc1)c1ccc(-c2c3nc(c(-c4ccc(S(=O)(=O)[O-])cc4)c4ccc([nH]4)c(-c4ccc(S(=O)(=O)[O-])cc4)c4nc(c(-c5ccc(S(=O)(=O)[O-])cc5)c5ccc2[nH]5)C=C4)C=C3)cc1
REMARK SMILES IDX 6 1 5 2 4 3 3 4 2 5 1 6 28 7 29 8 87 9 30 10 86 11 31 12
REMARK SMILES IDX 32 13 33 14 80 15 34 16 85 17 79 18 81 19 35 20 84 21 78 22
REMARK SMILES IDX 77 23 36 25 66 26 47 27 65 28 48 29 51 30 64 31 82 32 49 33
REMARK SMILES IDX 50 34 63 36 83 37 52 38 37 39 38 40 46 41 39 42 45 43 40 44
REMARK SMILES IDX 41 45 42 46 43 47 44 48 67 49 68 50 76 51 69 52 75 53 70 54
REMARK SMILES IDX 71 55 72 56 73 57 74 58 53 59 54 60 62 61 55 62 61 63 56 64
REMARK SMILES IDX 57 65 58 66 59 67 60 68 7 69 8 70 9 71 10 72 11 73 12 74
REMARK SMILES IDX 13 75 17 76 14 77 15 78 16 79 18 80 19 81 20 82 21 83 22 84
REMARK SMILES IDX 23 85 27 86 24 87 26 88 25 89
REMARK H PARENT 81 24 51 35
REMARK Flexibility Score: inf
ROOT
ATOM      1  O   UNL A   1      37.160  21.302  24.675  1.00  0.00    -0.374 OA
ENDROOT
BRANCH   1   2
ATOM      2  C   UNL A   1      38.090  20.297  25.080  1.00  0.00     0.202 C 
BRANCH   2   3
ATOM      3  C   UNL A   1      39.227  20.782  25.976  1.00  0.00     0.261 C 
BRANCH   3   4
ATOM      4  O   UNL A   1      40.214  19.748  26.096  1.00  0.00    -0.460 OA
BRANCH   4   5
ATOM      5  C   UNL A   1      41.559  19.874  26.122  1.00  0.00     0.338 C 
ATOM      6  O   UNL A   1      42.249  18.914  25.783  1.00  0.00    -0.246 OA
BRANCH   5   7
ATOM      7  C   UNL A   1      42.254  21.135  26.509  1.00  0.00     0.060 A 
ATOM      8  C   UNL A   1      42.588  21.506  27.816  1.00  0.00     0.016 A 
ATOM      9  C   UNL A   1      42.678  21.957  25.455  1.00  0.00     0.016 A 
ATOM     10  C   UNL A   1      43.246  22.695  28.087  1.00  0.00     0.010 A 
ATOM     11  C   UNL A   1      43.371  23.138  25.713  1.00  0.00     0.010 A 
ATOM     12  C   UNL A   1      43.628  23.518  27.035  1.00  0.00    -0.014 A 
BRANCH  12  13
ATOM     13  C   UNL A   1      44.182  24.841  27.341  1.00  0.00     0.031 A 
ATOM     14  C   UNL A   1      43.239  25.892  27.831  1.00  0.00     0.074 A 
ATOM     15  C   UNL A   1      45.504  25.051  27.235  1.00  0.00     0.049 A 
ATOM     16  N   UNL A   1      43.451  27.161  28.035  1.00  0.00    -0.248 NA
ATOM     17  C   UNL A   1      41.867  25.447  28.135  1.00  0.00     0.031 C 
ATOM     18  C   UNL A   1      46.495  24.030  26.889  1.00  0.00     0.029 A 
ATOM     19  N   UNL A   1      46.238  26.191  27.408  1.00  0.00    -0.354 N 
ATOM     20  C   UNL A   1      42.230  27.678  28.448  1.00  0.00     0.074 A 
ATOM     21  C   UNL A   1      41.285  26.585  28.476  1.00  0.00     0.031 C 
ATOM     22  C   UNL A   1      47.713  24.596  26.865  1.00  0.00     0.029 A 
ATOM     23  C   UNL A   1      47.571  26.025  27.121  1.00  0.00     0.049 A 
ATOM     24  H   UNL A   1      45.851  27.045  27.708  1.00  0.00     0.167 HD
ATOM     25  C   UNL A   1      41.932  28.962  28.747  1.00  0.00     0.031 A 
ATOM     26  C   UNL A   1      48.549  26.944  27.026  1.00  0.00     0.031 A 
ATOM     27  C   UNL A   1      42.901  30.019  28.665  1.00  0.00     0.049 A 
ATOM     28  C   UNL A   1      48.184  28.381  27.279  1.00  0.00     0.074 A 
ATOM     29  C   UNL A   1      42.728  31.373  28.869  1.00  0.00     0.029 A 
ATOM     30  N   UNL A   1      44.240  29.823  28.342  1.00  0.00    -0.354 N 
ATOM     31  N   UNL A   1      47.013  28.883  27.603  1.00  0.00    -0.248 NA
ATOM     32  C   UNL A   1      49.254  29.375  27.148  1.00  0.00     0.031 C 
ATOM     33  C   UNL A   1      43.955  32.002  28.623  1.00  0.00     0.029 A 
ATOM     34  C   UNL A   1      44.905  31.033  28.326  1.00  0.00     0.049 A 
ATOM     35  H   UNL A   1      44.653  28.950  28.152  1.00  0.00     0.167 HD
ATOM     36  C   UNL A   1      47.207  30.250  27.735  1.00  0.00     0.074 A 
ATOM     37  C   UNL A   1      48.611  30.495  27.459  1.00  0.00     0.031 C 
ATOM     38  C   UNL A   1      46.311  31.218  28.056  1.00  0.00     0.031 A 
BRANCH  25  39
ATOM     39  C   UNL A   1      40.494  29.268  29.068  1.00  0.00    -0.014 A 
ATOM     40  C   UNL A   1      39.531  29.443  28.058  1.00  0.00     0.010 A 
ATOM     41  C   UNL A   1      40.120  29.465  30.410  1.00  0.00     0.010 A 
ATOM     42  C   UNL A   1      38.242  29.881  28.377  1.00  0.00     0.020 A 
ATOM     43  C   UNL A   1      38.825  29.877  30.736  1.00  0.00     0.020 A 
ATOM     44  C   UNL A   1      37.903  30.112  29.715  1.00  0.00     0.054 A 
BRANCH  44  45
ATOM     45  S   UNL A   1      36.245  30.737  30.103  1.00  0.00     0.124 S 
ATOM     46  O   UNL A   1      35.495  30.359  28.908  1.00  0.00    -0.237 OA
ATOM     47  O   UNL A   1      35.898  30.005  31.318  1.00  0.00    -0.237 OA
ATOM     48  O   UNL A   1      36.449  32.173  30.282  1.00  0.00    -0.744 OA
ENDBRANCH  44  45
ENDBRANCH  25  39
BRANCH  26  49
ATOM     49  C   UNL A   1      49.919  26.521  26.624  1.00  0.00    -0.014 A 
ATOM     50  C   UNL A   1      50.812  25.975  27.559  1.00  0.00     0.010 A 
ATOM     51  C   UNL A   1      50.307  26.588  25.271  1.00  0.00     0.010 A 
ATOM     52  C   UNL A   1      52.063  25.495  27.149  1.00  0.00     0.020 A 
ATOM     53  C   UNL A   1      51.544  26.087  24.853  1.00  0.00     0.020 A 
ATOM     54  C   UNL A   1      52.417  25.546  25.798  1.00  0.00     0.054 A 
BRANCH  54  55
ATOM     55  S   UNL A   1      54.004  24.833  25.277  1.00  0.00     0.124 S 
ATOM     56  O   UNL A   1      54.868  25.159  26.406  1.00  0.00    -0.237 OA
ATOM     57  O   UNL A   1      53.677  23.419  25.116  1.00  0.00    -0.237 OA
ATOM     58  O   UNL A   1      54.304  25.540  24.033  1.00  0.00    -0.744 OA
ENDBRANCH  54  55
ENDBRANCH  26  49
BRANCH  38  59
ATOM     59  C   UNL A   1      46.832  32.620  28.177  1.00  0.00    -0.014 A 
ATOM     60  C   UNL A   1      46.993  33.435  27.045  1.00  0.00     0.010 A 
ATOM     61  C   UNL A   1      47.038  33.160  29.459  1.00  0.00     0.010 A 
ATOM     62  C   UNL A   1      47.353  34.775  27.194  1.00  0.00     0.020 A 
ATOM     63  C   UNL A   1      47.374  34.505  29.613  1.00  0.00     0.020 A 
ATOM     64  C   UNL A   1      47.532  35.303  28.479  1.00  0.00     0.054 A 
BRANCH  64  65
ATOM     65  S   UNL A   1      47.896  37.071  28.652  1.00  0.00     0.124 S 
ATOM     66  O   UNL A   1      49.333  37.110  28.400  1.00  0.00    -0.237 OA
ATOM     67  O   UNL A   1      47.059  37.674  27.617  1.00  0.00    -0.237 OA
ATOM     68  O   UNL A   1      47.494  37.373  30.024  1.00  0.00    -0.744 OA
ENDBRANCH  64  65
ENDBRANCH  38  59
ENDBRANCH  12  13
ENDBRANCH   5   7
ENDBRANCH   4   5
ENDBRANCH   3   4
ENDBRANCH   2   3
ENDBRANCH   1   2
BRANCH   1  69
ATOM     69  C   UNL A   1      37.270  22.579  25.322  1.00  0.00     0.202 C 
BRANCH  69  70
ATOM     70  C   UNL A   1      36.580  23.649  24.462  1.00  0.00     0.261 C 
BRANCH  70  71
ATOM     71  O   UNL A   1      35.176  23.660  24.770  1.00  0.00    -0.462 OA
BRANCH  71  72
ATOM     72  C   UNL A   1      34.413  24.231  23.792  1.00  0.00     0.329 C 
ATOM     73  O   UNL A   1      34.560  24.027  22.593  1.00  0.00    -0.250 OA
BRANCH  72  74
ATOM     74  C   UNL A   1      33.190  24.934  24.393  1.00  0.00     0.204 C 
ATOM     75  C   UNL A   1      33.599  25.836  25.540  1.00  0.00     0.047 C 
ATOM     76  N   UNL A   1      32.219  23.996  24.923  1.00  0.00    -0.265 N 
ATOM     77  C   UNL A   1      32.496  25.671  26.554  1.00  0.00     0.103 C 
ATOM     78  C   UNL A   1      31.930  24.306  26.259  1.00  0.00     0.230 C 
ATOM     79  O   UNL A   1      31.312  23.658  27.079  1.00  0.00    -0.274 OA
BRANCH  76  80
ATOM     80  C   UNL A   1      31.367  23.345  24.039  1.00  0.00     0.253 C 
ATOM     81  O   UNL A   1      30.563  23.926  23.314  1.00  0.00    -0.269 OA
BRANCH  80  82
ATOM     82  C   UNL A   1      31.554  21.887  23.892  1.00  0.00     0.072 C 
ATOM     83  C   UNL A   1      32.681  21.286  24.293  1.00  0.00     0.014 C 
BRANCH  83  84
ATOM     84  C   UNL A   1      33.035  19.879  24.049  1.00  0.00    -0.025 A 
ATOM     85  C   UNL A   1      34.189  19.381  24.672  1.00  0.00     0.008 A 
ATOM     86  C   UNL A   1      32.321  19.031  23.194  1.00  0.00     0.008 A 
ATOM     87  C   UNL A   1      34.628  18.076  24.435  1.00  0.00     0.001 A 
ATOM     88  C   UNL A   1      32.761  17.726  22.953  1.00  0.00     0.001 A 
ATOM     89  C   UNL A   1      33.914  17.251  23.572  1.00  0.00     0.000 A 
ENDBRANCH  83  84
ENDBRANCH  80  82
ENDBRANCH  76  80
ENDBRANCH  72  74
ENDBRANCH  71  72
ENDBRANCH  70  71
ENDBRANCH  69  70
ENDBRANCH   1  69
TORSDOF 20
ENDMDL
MODEL 2
REMARK VINA RESULT:     -10.2      0.784      8.254
REMARK SMILES O=C(OCCOCCOC(=O)[C@@H]1CCC(=O)N1C(=O)/C=C/c1ccccc1)c1ccc(-c2c3nc(c(-c4ccc(S(=O)(=O)[O-])cc4)c4ccc([nH]4)c(-c4ccc(S(=O)(=O)[O-])cc4)c4nc(c(-c5ccc(S(=O)(=O)[O-])cc5)c5ccc2[nH]5)C=C4)C=C3)cc1
REMARK SMILES IDX 6 1 5 2 4 3 3 4 2 5 1 6 28 7 29 8 87 9 30 10 86 11 31 12
REMARK SMILES IDX 32 13 33 14 80 15 34 16 85 17 79 18 81 19 35 20 84 21 78 22
REMARK SMILES IDX 77 23 36 25 66 26 47 27 65 28 48 29 51 30 64 31 82 32 49 33
REMARK SMILES IDX 50 34 63 36 83 37 52 38 37 39 38 40 46 41 39 42 45 43 40 44
REMARK SMILES IDX 41 45 42 46 43 47 44 48 67 49 68 50 76 51 69 52 75 53 70 54
REMARK SMILES IDX 71 55 72 56 73 57 74 58 53 59 54 60 62 61 55 62 61 63 56 64
REMARK SMILES IDX 57 65 58 66 59 67 60 68 7 69 8 70 9 71 10 72 11 73 12 74
REMARK SMILES IDX 13 75 17 76 14 77 15 78 16 79 18 80 19 81 20 82 21 83 22 84
REMARK SMILES IDX 23 85 27 86 24 87 26 88 25 89
REMARK H PARENT 81 24 51 35
REMARK Flexibility Score: inf
ROOT
ATOM      1  O   UNL A   1      37.318  20.782  24.807  1.00  0.00    -0.374 OA
ENDROOT
BRANCH   1   2
ATOM      2  C   UNL A   1      38.351  19.814  24.993  1.00  0.00     0.202 C 
BRANCH   2   3
ATOM      3  C   UNL A   1      39.459  20.220  25.961  1.00  0.00     0.261 C 
BRANCH   3   4
ATOM      4  O   UNL A   1      40.549  19.293  25.855  1.00  0.00    -0.460 OA
BRANCH   4   5
ATOM      5  C   UNL A   1      41.874  19.548  25.913  1.00  0.00     0.338 C 
ATOM      6  O   UNL A   1      42.664  18.634  25.683  1.00  0.00    -0.246 OA
BRANCH   5   7
ATOM      7  C   UNL A   1      42.433  20.898  26.210  1.00  0.00     0.060 A 
ATOM      8  C   UNL A   1      42.707  21.397  27.488  1.00  0.00     0.016 A 
ATOM      9  C   UNL A   1      42.790  21.679  25.101  1.00  0.00     0.016 A 
ATOM     10  C   UNL A   1      43.238  22.663  27.674  1.00  0.00     0.010 A 
ATOM     11  C   UNL A   1      43.357  22.940  25.274  1.00  0.00     0.010 A 
ATOM     12  C   UNL A   1      43.553  23.441  26.566  1.00  0.00    -0.014 A 
BRANCH  12  13
ATOM     13  C   UNL A   1      43.966  24.832  26.777  1.00  0.00     0.031 A 
ATOM     14  C   UNL A   1      45.404  25.172  26.554  1.00  0.00     0.074 A 
ATOM     15  C   UNL A   1      43.048  25.758  27.098  1.00  0.00     0.049 A 
ATOM     16  N   UNL A   1      46.038  26.282  26.804  1.00  0.00    -0.248 NA
ATOM     17  C   UNL A   1      46.242  24.111  25.965  1.00  0.00     0.031 C 
ATOM     18  C   UNL A   1      41.607  25.517  27.201  1.00  0.00     0.029 A 
ATOM     19  N   UNL A   1      43.191  27.084  27.394  1.00  0.00    -0.354 N 
ATOM     20  C   UNL A   1      47.359  26.042  26.446  1.00  0.00     0.074 A 
ATOM     21  C   UNL A   1      47.433  24.686  25.952  1.00  0.00     0.031 C 
ATOM     22  C   UNL A   1      40.998  26.662  27.550  1.00  0.00     0.029 A 
ATOM     23  C   UNL A   1      42.013  27.687  27.762  1.00  0.00     0.049 A 
ATOM     24  H   UNL A   1      44.051  27.560  27.349  1.00  0.00     0.167 HD
ATOM     25  C   UNL A   1      48.412  26.881  26.553  1.00  0.00     0.031 A 
ATOM     26  C   UNL A   1      41.798  28.917  28.266  1.00  0.00     0.031 A 
ATOM     27  C   UNL A   1      48.291  28.209  27.088  1.00  0.00     0.049 A 
ATOM     28  C   UNL A   1      42.992  29.810  28.459  1.00  0.00     0.074 A 
ATOM     29  C   UNL A   1      49.279  29.145  27.322  1.00  0.00     0.029 A 
ATOM     30  N   UNL A   1      47.086  28.782  27.481  1.00  0.00    -0.354 N 
ATOM     31  N   UNL A   1      44.254  29.560  28.185  1.00  0.00    -0.248 NA
ATOM     32  C   UNL A   1      42.749  31.137  29.031  1.00  0.00     0.031 C 
ATOM     33  C   UNL A   1      48.674  30.267  27.900  1.00  0.00     0.029 A 
ATOM     34  C   UNL A   1      47.303  30.054  27.970  1.00  0.00     0.049 A 
ATOM     35  H   UNL A   1      46.206  28.343  27.420  1.00  0.00     0.167 HD
ATOM     36  C   UNL A   1      44.954  30.706  28.532  1.00  0.00     0.074 A 
ATOM     37  C   UNL A   1      43.973  31.652  29.033  1.00  0.00     0.031 C 
ATOM     38  C   UNL A   1      46.284  30.960  28.445  1.00  0.00     0.031 A 
BRANCH  25  39
ATOM     39  C   UNL A   1      49.762  26.326  26.186  1.00  0.00    -0.014 A 
ATOM     40  C   UNL A   1      50.522  25.568  27.095  1.00  0.00     0.010 A 
ATOM     41  C   UNL A   1      50.314  26.643  24.932  1.00  0.00     0.010 A 
ATOM     42  C   UNL A   1      51.836  25.201  26.786  1.00  0.00     0.020 A 
ATOM     43  C   UNL A   1      51.617  26.255  24.607  1.00  0.00     0.020 A 
ATOM     44  C   UNL A   1      52.380  25.563  25.548  1.00  0.00     0.054 A 
BRANCH  44  45
ATOM     45  S   UNL A   1      54.105  25.128  25.190  1.00  0.00     0.124 S 
ATOM     46  O   UNL A   1      54.374  25.929  23.999  1.00  0.00    -0.237 OA
ATOM     47  O   UNL A   1      54.803  25.552  26.401  1.00  0.00    -0.237 OA
ATOM     48  O   UNL A   1      54.061  23.684  24.974  1.00  0.00    -0.744 OA
ENDBRANCH  44  45
ENDBRANCH  25  39
BRANCH  26  49
ATOM     49  C   UNL A   1      40.421  29.319  28.661  1.00  0.00    -0.014 A 
ATOM     50  C   UNL A   1      39.471  29.695  27.699  1.00  0.00     0.010 A 
ATOM     51  C   UNL A   1      40.027  29.246  30.013  1.00  0.00     0.010 A 
ATOM     52  C   UNL A   1      38.153  29.980  28.076  1.00  0.00     0.020 A 
ATOM     53  C   UNL A   1      38.706  29.505  30.391  1.00  0.00     0.020 A 
ATOM     54  C   UNL A   1      37.777  29.875  29.418  1.00  0.00     0.054 A 
BRANCH  54  55
ATOM     55  S   UNL A   1      36.041  30.159  29.871  1.00  0.00     0.124 S 
ATOM     56  O   UNL A   1      35.330  29.473  28.798  1.00  0.00    -0.237 OA
ATOM     57  O   UNL A   1      35.953  29.537  31.189  1.00  0.00    -0.237 OA
ATOM     58  O   UNL A   1      35.922  31.616  29.870  1.00  0.00    -0.744 OA
ENDBRANCH  54  55
ENDBRANCH  26  49
BRANCH  38  59
ATOM     59  C   UNL A   1      46.749  32.328  28.853  1.00  0.00    -0.014 A 
ATOM     60  C   UNL A   1      46.840  33.372  27.919  1.00  0.00     0.010 A 
ATOM     61  C   UNL A   1      46.974  32.591  30.217  1.00  0.00     0.010 A 
ATOM     62  C   UNL A   1      47.148  34.665  28.345  1.00  0.00     0.020 A 
ATOM     63  C   UNL A   1      47.258  33.886  30.648  1.00  0.00     0.020 A 
ATOM     64  C   UNL A   1      47.346  34.915  29.708  1.00  0.00     0.054 A 
BRANCH  64  65
ATOM     65  S   UNL A   1      47.641  36.619  30.248  1.00  0.00     0.124 S 
ATOM     66  O   UNL A   1      46.728  37.371  29.392  1.00  0.00    -0.237 OA
ATOM     67  O   UNL A   1      47.282  36.575  31.664  1.00  0.00    -0.237 OA
ATOM     68  O   UNL A   1      49.062  36.827  29.978  1.00  0.00    -0.744 OA
ENDBRANCH  64  65
ENDBRANCH  38  59
ENDBRANCH  12  13
ENDBRANCH   5   7
ENDBRANCH   4   5
ENDBRANCH   3   4
ENDBRANCH   2   3
ENDBRANCH   1   2
BRANCH   1  69
ATOM     69  C   UNL A   1      37.383  21.958  25.628  1.00  0.00     0.202 C 
BRANCH  69  70
ATOM     70  C   UNL A   1      36.785  23.150  24.863  1.00  0.00     0.261 C 
BRANCH  70  71
ATOM     71  O   UNL A   1      35.351  23.065  24.917  1.00  0.00    -0.462 OA
BRANCH  71  72
ATOM     72  C   UNL A   1      34.734  23.650  23.848  1.00  0.00     0.329 C 
ATOM     73  O   UNL A   1      35.013  23.421  22.678  1.00  0.00    -0.250 OA
BRANCH  72  74
ATOM     74  C   UNL A   1      33.481  24.414  24.291  1.00  0.00     0.204 C 
ATOM     75  C   UNL A   1      33.856  25.633  25.111  1.00  0.00     0.047 C 
ATOM     76  N   UNL A   1      32.605  23.607  25.118  1.00  0.00    -0.265 N 
ATOM     77  C   UNL A   1      32.804  25.694  26.188  1.00  0.00     0.103 C 
ATOM     78  C   UNL A   1      32.338  24.268  26.325  1.00  0.00     0.230 C 
ATOM     79  O   UNL A   1      31.801  23.844  27.328  1.00  0.00    -0.274 OA
BRANCH  76  80
ATOM     80  C   UNL A   1      31.778  22.674  24.504  1.00  0.00     0.253 C 
ATOM     81  O   UNL A   1      30.967  22.956  23.625  1.00  0.00    -0.269 OA
BRANCH  80  82
ATOM     82  C   UNL A   1      32.002  21.257  24.856  1.00  0.00     0.072 C 
ATOM     83  C   UNL A   1      32.699  20.443  24.054  1.00  0.00     0.014 C 
BRANCH  83  84
ATOM     84  C   UNL A   1      32.844  18.989  24.225  1.00  0.00    -0.025 A 
ATOM     85  C   UNL A   1      32.635  18.460  25.507  1.00  0.00     0.008 A 
ATOM     86  C   UNL A   1      33.229  18.116  23.199  1.00  0.00     0.008 A 
ATOM     87  C   UNL A   1      32.820  17.100  25.764  1.00  0.00     0.001 A 
ATOM     88  C   UNL A   1      33.418  16.755  23.456  1.00  0.00     0.001 A 
ATOM     89  C   UNL A   1      33.216  16.249  24.737  1.00  0.00     0.000 A 
ENDBRANCH  83  84
ENDBRANCH  80  82
ENDBRANCH  76  80
ENDBRANCH  72  74
ENDBRANCH  71  72
ENDBRANCH  70  71
ENDBRANCH  69  70
ENDBRANCH   1  69
TORSDOF 20
ENDMDL
MODEL 3
REMARK VINA RESULT:     -10.1      2.106      3.873
REMARK SMILES O=C(OCCOCCOC(=O)[C@@H]1CCC(=O)N1C(=O)/C=C/c1ccccc1)c1ccc(-c2c3nc(c(-c4ccc(S(=O)(=O)[O-])cc4)c4ccc([nH]4)c(-c4ccc(S(=O)(=O)[O-])cc4)c4nc(c(-c5ccc(S(=O)(=O)[O-])cc5)c5ccc2[nH]5)C=C4)C=C3)cc1
REMARK SMILES IDX 6 1 5 2 4 3 3 4 2 5 1 6 28 7 29 8 87 9 30 10 86 11 31 12
REMARK SMILES IDX 32 13 33 14 80 15 34 16 85 17 79 18 81 19 35 20 84 21 78 22
REMARK SMILES IDX 77 23 36 25 66 26 47 27 65 28 48 29 51 30 64 31 82 32 49 33
REMARK SMILES IDX 50 34 63 36 83 37 52 38 37 39 38 40 46 41 39 42 45 43 40 44
REMARK SMILES IDX 41 45 42 46 43 47 44 48 67 49 68 50 76 51 69 52 75 53 70 54
REMARK SMILES IDX 71 55 72 56 73 57 74 58 53 59 54 60 62 61 55 62 61 63 56 64
REMARK SMILES IDX 57 65 58 66 59 67 60 68 7 69 8 70 9 71 10 72 11 73 12 74
REMARK SMILES IDX 13 75 17 76 14 77 15 78 16 79 18 80 19 81 20 82 21 83 22 84
REMARK SMILES IDX 23 85 27 86 24 87 26 88 25 89
REMARK H PARENT 81 24 51 35
REMARK Flexibility Score: inf
ROOT
ATOM      1  O   UNL A   1      36.294  21.168  25.493  1.00  0.00    -0.374 OA
ENDROOT
BRANCH   1   2
ATOM      2  C   UNL A   1      37.539  20.652  25.023  1.00  0.00     0.202 C 
BRANCH   2   3
ATOM      3  C   UNL A   1      38.781  21.228  25.699  1.00  0.00     0.261 C 
BRANCH   3   4
ATOM      4  O   UNL A   1      39.662  20.158  26.072  1.00  0.00    -0.460 OA
BRANCH   4   5
ATOM      5  C   UNL A   1      41.009  20.177  26.165  1.00  0.00     0.338 C 
ATOM      6  O   UNL A   1      41.634  19.151  25.901  1.00  0.00    -0.246 OA
BRANCH   5   7
ATOM      7  C   UNL A   1      41.785  21.393  26.539  1.00  0.00     0.060 A 
ATOM      8  C   UNL A   1      42.250  21.692  27.824  1.00  0.00     0.016 A 
ATOM      9  C   UNL A   1      42.145  22.247  25.486  1.00  0.00     0.016 A 
ATOM     10  C   UNL A   1      42.977  22.844  28.083  1.00  0.00     0.010 A 
ATOM     11  C   UNL A   1      42.905  23.390  25.728  1.00  0.00     0.010 A 
ATOM     12  C   UNL A   1      43.295  23.700  27.036  1.00  0.00    -0.014 A 
BRANCH  12  13
ATOM     13  C   UNL A   1      43.925  24.987  27.346  1.00  0.00     0.031 A 
ATOM     14  C   UNL A   1      43.070  26.052  27.952  1.00  0.00     0.074 A 
ATOM     15  C   UNL A   1      45.242  25.152  27.138  1.00  0.00     0.049 A 
ATOM     16  N   UNL A   1      43.350  27.302  28.186  1.00  0.00    -0.248 NA
ATOM     17  C   UNL A   1      41.710  25.647  28.352  1.00  0.00     0.031 C 
ATOM     18  C   UNL A   1      46.159  24.109  26.672  1.00  0.00     0.029 A 
ATOM     19  N   UNL A   1      46.034  26.254  27.293  1.00  0.00    -0.354 N 
ATOM     20  C   UNL A   1      42.189  27.848  28.719  1.00  0.00     0.074 A 
ATOM     21  C   UNL A   1      41.205  26.791  28.784  1.00  0.00     0.031 C 
ATOM     22  C   UNL A   1      47.392  24.629  26.568  1.00  0.00     0.029 A 
ATOM     23  C   UNL A   1      47.331  26.050  26.890  1.00  0.00     0.049 A 
ATOM     24  H   UNL A   1      45.708  27.109  27.656  1.00  0.00     0.167 HD
ATOM     25  C   UNL A   1      41.969  29.129  29.090  1.00  0.00     0.031 A 
ATOM     26  C   UNL A   1      48.336  26.935  26.749  1.00  0.00     0.031 A 
ATOM     27  C   UNL A   1      42.971  30.151  28.969  1.00  0.00     0.049 A 
ATOM     28  C   UNL A   1      48.052  28.373  27.086  1.00  0.00     0.074 A 
ATOM     29  C   UNL A   1      42.872  31.501  29.238  1.00  0.00     0.029 A 
ATOM     30  N   UNL A   1      44.271  29.918  28.528  1.00  0.00    -0.354 N 
ATOM     31  N   UNL A   1      46.932  28.904  27.525  1.00  0.00    -0.248 NA
ATOM     32  C   UNL A   1      49.147  29.330  26.904  1.00  0.00     0.031 C 
ATOM     33  C   UNL A   1      44.099  32.092  28.915  1.00  0.00     0.029 A 
ATOM     34  C   UNL A   1      44.981  31.101  28.502  1.00  0.00     0.049 A 
ATOM     35  H   UNL A   1      44.630  29.038  28.271  1.00  0.00     0.167 HD
ATOM     36  C   UNL A   1      47.192  30.257  27.693  1.00  0.00     0.074 A 
ATOM     37  C   UNL A   1      48.579  30.460  27.310  1.00  0.00     0.031 C 
ATOM     38  C   UNL A   1      46.367  31.243  28.124  1.00  0.00     0.031 A 
BRANCH  25  39
ATOM     39  C   UNL A   1      40.576  29.475  29.542  1.00  0.00    -0.014 A 
ATOM     40  C   UNL A   1      39.545  29.740  28.622  1.00  0.00     0.010 A 
ATOM     41  C   UNL A   1      40.319  29.618  30.917  1.00  0.00     0.010 A 
ATOM     42  C   UNL A   1      38.306  30.213  29.066  1.00  0.00     0.020 A 
ATOM     43  C   UNL A   1      39.073  30.065  31.367  1.00  0.00     0.020 A 
ATOM     44  C   UNL A   1      38.085  30.388  30.437  1.00  0.00     0.054 A 
BRANCH  44  45
ATOM     45  S   UNL A   1      36.491  31.059  30.987  1.00  0.00     0.124 S 
ATOM     46  O   UNL A   1      35.741  31.115  29.735  1.00  0.00    -0.237 OA
ATOM     47  O   UNL A   1      36.034  30.059  31.948  1.00  0.00    -0.237 OA
ATOM     48  O   UNL A   1      36.841  32.356  31.562  1.00  0.00    -0.744 OA
ENDBRANCH  44  45
ENDBRANCH  25  39
BRANCH  26  49
ATOM     49  C   UNL A   1      49.649  26.477  26.218  1.00  0.00    -0.014 A 
ATOM     50  C   UNL A   1      50.129  26.931  24.980  1.00  0.00     0.010 A 
ATOM     51  C   UNL A   1      50.470  25.639  27.000  1.00  0.00     0.010 A 
ATOM     52  C   UNL A   1      51.406  26.566  24.536  1.00  0.00     0.020 A 
ATOM     53  C   UNL A   1      51.756  25.293  26.573  1.00  0.00     0.020 A 
ATOM     54  C   UNL A   1      52.215  25.757  25.340  1.00  0.00     0.054 A 
BRANCH  54  55
ATOM     55  S   UNL A   1      53.901  25.373  24.787  1.00  0.00     0.124 S 
ATOM     56  O   UNL A   1      53.875  25.820  23.399  1.00  0.00    -0.237 OA
ATOM     57  O   UNL A   1      54.720  26.171  25.695  1.00  0.00    -0.237 OA
ATOM     58  O   UNL A   1      54.003  23.927  24.978  1.00  0.00    -0.744 OA
ENDBRANCH  54  55
ENDBRANCH  26  49
BRANCH  38  59
ATOM     59  C   UNL A   1      46.953  32.619  28.254  1.00  0.00    -0.014 A 
ATOM     60  C   UNL A   1      46.869  33.547  27.204  1.00  0.00     0.010 A 
ATOM     61  C   UNL A   1      47.480  33.018  29.496  1.00  0.00     0.010 A 
ATOM     62  C   UNL A   1      47.303  34.860  27.395  1.00  0.00     0.020 A 
ATOM     63  C   UNL A   1      47.893  34.335  29.697  1.00  0.00     0.020 A 
ATOM     64  C   UNL A   1      47.804  35.247  28.644  1.00  0.00     0.054 A 
BRANCH  64  65
ATOM     65  S   UNL A   1      48.264  36.981  28.899  1.00  0.00     0.124 S 
ATOM     66  O   UNL A   1      47.829  37.211  30.274  1.00  0.00    -0.237 OA
ATOM     67  O   UNL A   1      49.710  36.964  28.692  1.00  0.00    -0.237 OA
ATOM     68  O   UNL A   1      47.503  37.695  27.876  1.00  0.00    -0.744 OA
ENDBRANCH  64  65
ENDBRANCH  38  59
ENDBRANCH  12  13
ENDBRANCH   5   7
ENDBRANCH   4   5
ENDBRANCH   3   4
ENDBRANCH   2   3
ENDBRANCH   1   2
BRANCH   1  69
ATOM     69  C   UNL A   1      36.258  22.566  25.819  1.00  0.00     0.202 C 
BRANCH  69  70
ATOM     70  C   UNL A   1      35.604  23.343  24.665  1.00  0.00     0.261 C 
BRANCH  70  71
ATOM     71  O   UNL A   1      34.762  24.370  25.215  1.00  0.00    -0.462 OA
BRANCH  71  72
ATOM     72  C   UNL A   1      33.463  23.977  25.373  1.00  0.00     0.329 C 
ATOM     73  O   UNL A   1      33.004  23.506  26.407  1.00  0.00    -0.250 OA
BRANCH  72  74
ATOM     74  C   UNL A   1      32.602  24.448  24.195  1.00  0.00     0.204 C 
ATOM     75  C   UNL A   1      32.693  23.472  23.039  1.00  0.00     0.047 C 
ATOM     76  N   UNL A   1      33.020  25.739  23.687  1.00  0.00    -0.265 N 
ATOM     77  C   UNL A   1      32.709  24.349  21.813  1.00  0.00     0.103 C 
ATOM     78  C   UNL A   1      33.264  25.659  22.309  1.00  0.00     0.230 C 
ATOM     79  O   UNL A   1      33.790  26.471  21.575  1.00  0.00    -0.274 OA
BRANCH  76  80
ATOM     80  C   UNL A   1      32.641  26.885  24.377  1.00  0.00     0.253 C 
ATOM     81  O   UNL A   1      33.387  27.504  25.132  1.00  0.00    -0.269 OA
BRANCH  80  82
ATOM     82  C   UNL A   1      31.306  27.435  24.065  1.00  0.00     0.072 C 
ATOM     83  C   UNL A   1      31.155  28.698  23.647  1.00  0.00     0.014 C 
BRANCH  83  84
ATOM     84  C   UNL A   1      29.871  29.392  23.465  1.00  0.00    -0.025 A 
ATOM     85  C   UNL A   1      29.808  30.750  23.814  1.00  0.00     0.008 A 
ATOM     86  C   UNL A   1      28.701  28.766  23.016  1.00  0.00     0.008 A 
ATOM     87  C   UNL A   1      28.608  31.459  23.734  1.00  0.00     0.001 A 
ATOM     88  C   UNL A   1      27.498  29.473  22.939  1.00  0.00     0.001 A 
ATOM     89  C   UNL A   1      27.452  30.818  23.299  1.00  0.00     0.000 A 
ENDBRANCH  83  84
ENDBRANCH  80  82
ENDBRANCH  76  80
ENDBRANCH  72  74
ENDBRANCH  71  72
ENDBRANCH  70  71
ENDBRANCH  69  70
ENDBRANCH   1  69
TORSDOF 20
ENDMDL
