MODEL 1
REMARK VINA RESULT:      -8.1      0.000      0.000
REMARK SMILES Cc1cc(C(=O)N2CCC[C@@H]2C(C)C)sc1/C=C/C(=O)OCCOCCOC(=O)c1ccc(-c2c3nc(c(-c4ccc(S(=O)(=O)[O-])cc4)c4ccc([nH]4)c(-c4ccc(S(=O)(=O)[O-])cc4)c4nc(c(-c5ccc(S(=O)(=O)[O-])cc5)c5ccc2[nH]5)C=C4)C=C3)cc1
REMARK SMILES IDX 23 1 22 2 21 3 19 4 20 5 18 6 17 7 16 8 1 9 2 10 3 11 4 12
REMARK SMILES IDX 15 13 5 14 6 15 7 16 8 17 11 18 9 19 10 20 12 21 13 22 14 23
REMARK SMILES IDX 24 24 25 25 26 26 27 27 28 28 29 29 30 30 31 31 89 32 32 33
REMARK SMILES IDX 88 34 33 35 34 36 35 37 82 38 36 39 87 40 81 41 83 42 37 43
REMARK SMILES IDX 86 44 80 45 79 46 38 48 68 49 49 50 67 51 50 52 53 53 66 54
REMARK SMILES IDX 84 55 51 56 52 57 65 59 85 60 54 61 39 62 40 63 48 64 41 65
REMARK SMILES IDX 47 66 42 67 43 68 44 69 45 70 46 71 69 72 70 73 78 74 71 75
REMARK SMILES IDX 77 76 72 77 73 78 74 79 75 80 76 81 55 82 56 83 64 84 57 85
REMARK SMILES IDX 63 86 58 87 59 88 60 89 61 90 62 91
REMARK H PARENT 83 47 53 58
REMARK Flexibility Score: inf
ROOT
ATOM      1  C   UNL A   1      35.786  32.903  30.714  1.00  0.00     0.202 C 
ENDROOT
BRANCH   1   2
ATOM      2  C   UNL A   1      36.298  32.123  31.927  1.00  0.00     0.261 C 
BRANCH   2   3
ATOM      3  O   UNL A   1      37.134  32.947  32.757  1.00  0.00    -0.460 OA
BRANCH   3   4
ATOM      4  C   UNL A   1      37.356  32.470  34.002  1.00  0.00     0.330 C 
ATOM      5  O   UNL A   1      36.671  32.672  34.995  1.00  0.00    -0.247 OA
BRANCH   4   6
ATOM      6  C   UNL A   1      38.509  31.552  34.056  1.00  0.00     0.095 C 
ATOM      7  C   UNL A   1      39.453  31.497  35.010  1.00  0.00     0.027 C 
BRANCH   7   8
ATOM      8  C   UNL A   1      40.565  30.587  34.941  1.00  0.00     0.031 A 
ATOM      9  C   UNL A   1      42.101  31.491  36.807  1.00  0.00     0.046 C 
ATOM     10  C   UNL A   1      41.741  30.561  35.690  1.00  0.00    -0.032 A 
ATOM     11  C   UNL A   1      42.593  29.460  35.311  1.00  0.00     0.029 A 
ATOM     12  C   UNL A   1      42.066  28.669  34.312  1.00  0.00     0.093 A 
ATOM     13  S   UNL A   1      40.575  29.302  33.793  1.00  0.00    -0.130 S 
BRANCH  12  14
ATOM     14  C   UNL A   1      42.593  27.394  33.819  1.00  0.00     0.264 C 
ATOM     15  O   UNL A   1      43.242  27.302  32.777  1.00  0.00    -0.268 OA
BRANCH  14  16
ATOM     16  N   UNL A   1      42.449  26.297  34.659  1.00  0.00    -0.335 N 
ATOM     17  C   UNL A   1      41.220  26.101  35.403  1.00  0.00     0.120 C 
ATOM     18  C   UNL A   1      43.138  25.019  34.443  1.00  0.00     0.088 C 
ATOM     19  C   UNL A   1      41.566  24.959  36.325  1.00  0.00     0.024 C 
ATOM     20  C   UNL A   1      42.433  24.065  35.442  1.00  0.00     0.027 C 
BRANCH  18  21
ATOM     21  C   UNL A   1      44.682  25.102  34.638  1.00  0.00     0.005 C 
ATOM     22  C   UNL A   1      45.166  24.279  35.842  1.00  0.00     0.009 C 
ATOM     23  C   UNL A   1      45.456  24.603  33.408  1.00  0.00     0.009 C 
ENDBRANCH  18  21
ENDBRANCH  14  16
ENDBRANCH  12  14
ENDBRANCH   7   8
ENDBRANCH   4   6
ENDBRANCH   3   4
ENDBRANCH   2   3
ENDBRANCH   1   2
BRANCH   1  24
ATOM     24  O   UNL A   1      34.410  32.700  30.391  1.00  0.00    -0.374 OA
BRANCH  24  25
ATOM     25  C   UNL A   1      34.049  32.833  29.014  1.00  0.00     0.202 C 
BRANCH  25  26
ATOM     26  C   UNL A   1      34.971  32.124  28.014  1.00  0.00     0.261 C 
BRANCH  26  27
ATOM     27  O   UNL A   1      34.276  31.107  27.269  1.00  0.00    -0.460 OA
BRANCH  27  28
ATOM     28  C   UNL A   1      34.540  29.835  27.652  1.00  0.00     0.338 C 
ATOM     29  O   UNL A   1      33.826  28.853  27.490  1.00  0.00    -0.246 OA
BRANCH  28  30
ATOM     30  C   UNL A   1      35.925  29.735  28.150  1.00  0.00     0.060 A 
ATOM     31  C   UNL A   1      36.960  29.936  27.227  1.00  0.00     0.016 A 
ATOM     32  C   UNL A   1      36.213  29.395  29.474  1.00  0.00     0.016 A 
ATOM     33  C   UNL A   1      38.287  29.751  27.614  1.00  0.00     0.010 A 
ATOM     34  C   UNL A   1      37.545  29.204  29.858  1.00  0.00     0.010 A 
ATOM     35  C   UNL A   1      38.586  29.349  28.922  1.00  0.00    -0.014 A 
BRANCH  35  36
ATOM     36  C   UNL A   1      39.972  28.950  29.270  1.00  0.00     0.031 A 
ATOM     37  C   UNL A   1      40.857  29.930  29.993  1.00  0.00     0.074 A 
ATOM     38  C   UNL A   1      40.430  27.721  28.970  1.00  0.00     0.049 A 
ATOM     39  N   UNL A   1      42.101  29.798  30.371  1.00  0.00    -0.248 NA
ATOM     40  C   UNL A   1      40.258  31.231  30.331  1.00  0.00     0.031 C 
ATOM     41  C   UNL A   1      39.660  26.668  28.309  1.00  0.00     0.029 A 
ATOM     42  N   UNL A   1      41.662  27.154  29.183  1.00  0.00    -0.354 N 
ATOM     43  C   UNL A   1      42.438  30.997  30.987  1.00  0.00     0.074 A 
ATOM     44  C   UNL A   1      41.277  31.856  30.906  1.00  0.00     0.031 C 
ATOM     45  C   UNL A   1      40.440  25.583  28.163  1.00  0.00     0.029 A 
ATOM     46  C   UNL A   1      41.771  25.875  28.691  1.00  0.00     0.049 A 
ATOM     47  H   UNL A   1      42.397  27.619  29.643  1.00  0.00     0.167 HD
ATOM     48  C   UNL A   1      43.607  31.351  31.573  1.00  0.00     0.031 A 
ATOM     49  C   UNL A   1      42.830  25.042  28.654  1.00  0.00     0.031 A 
ATOM     50  C   UNL A   1      44.767  30.503  31.642  1.00  0.00     0.049 A 
ATOM     51  C   UNL A   1      44.142  25.482  29.250  1.00  0.00     0.074 A 
ATOM     52  C   UNL A   1      45.994  30.768  32.226  1.00  0.00     0.029 A 
ATOM     53  N   UNL A   1      44.849  29.228  31.103  1.00  0.00    -0.354 N 
ATOM     54  N   UNL A   1      44.436  26.612  29.848  1.00  0.00    -0.248 NA
ATOM     55  C   UNL A   1      45.259  24.532  29.171  1.00  0.00     0.031 C 
ATOM     56  C   UNL A   1      46.833  29.673  31.994  1.00  0.00     0.029 A 
ATOM     57  C   UNL A   1      46.112  28.703  31.317  1.00  0.00     0.049 A 
ATOM     58  H   UNL A   1      44.115  28.764  30.637  1.00  0.00     0.167 HD
ATOM     59  C   UNL A   1      45.766  26.496  30.241  1.00  0.00     0.074 A 
ATOM     60  C   UNL A   1      46.213  25.184  29.823  1.00  0.00     0.031 C 
ATOM     61  C   UNL A   1      46.544  27.395  30.893  1.00  0.00     0.031 A 
BRANCH  48  62
ATOM     62  C   UNL A   1      43.697  32.735  32.160  1.00  0.00    -0.014 A 
ATOM     63  C   UNL A   1      44.158  33.823  31.397  1.00  0.00     0.010 A 
ATOM     64  C   UNL A   1      43.286  32.956  33.487  1.00  0.00     0.010 A 
ATOM     65  C   UNL A   1      44.243  35.097  31.962  1.00  0.00     0.020 A 
ATOM     66  C   UNL A   1      43.344  34.235  34.047  1.00  0.00     0.020 A 
ATOM     67  C   UNL A   1      43.841  35.295  33.287  1.00  0.00     0.054 A 
BRANCH  67  68
ATOM     68  S   UNL A   1      43.947  36.963  33.991  1.00  0.00     0.124 S 
ATOM     69  O   UNL A   1      43.957  37.795  32.791  1.00  0.00    -0.237 OA
ATOM     70  O   UNL A   1      42.734  37.048  34.802  1.00  0.00    -0.237 OA
ATOM     71  O   UNL A   1      45.197  36.943  34.745  1.00  0.00    -0.744 OA
ENDBRANCH  67  68
ENDBRANCH  48  62
BRANCH  49  72
ATOM     72  C   UNL A   1      42.698  23.706  28.010  1.00  0.00    -0.014 A 
ATOM     73  C   UNL A   1      42.222  22.601  28.736  1.00  0.00     0.010 A 
ATOM     74  C   UNL A   1      43.046  23.536  26.658  1.00  0.00     0.010 A 
ATOM     75  C   UNL A   1      42.109  21.348  28.127  1.00  0.00     0.020 A 
ATOM     76  C   UNL A   1      42.909  22.292  26.036  1.00  0.00     0.020 A 
ATOM     77  C   UNL A   1      42.450  21.203  26.778  1.00  0.00     0.054 A 
BRANCH  77  78
ATOM     78  S   UNL A   1      42.239  19.582  25.989  1.00  0.00     0.124 S 
ATOM     79  O   UNL A   1      42.687  18.673  27.039  1.00  0.00    -0.237 OA
ATOM     80  O   UNL A   1      40.808  19.558  25.698  1.00  0.00    -0.237 OA
ATOM     81  O   UNL A   1      43.105  19.660  24.815  1.00  0.00    -0.744 OA
ENDBRANCH  77  78
ENDBRANCH  49  72
BRANCH  61  82
ATOM     82  C   UNL A   1      47.954  26.982  31.228  1.00  0.00    -0.014 A 
ATOM     83  C   UNL A   1      48.284  26.474  32.496  1.00  0.00     0.010 A 
ATOM     84  C   UNL A   1      48.950  27.050  30.236  1.00  0.00     0.010 A 
ATOM     85  C   UNL A   1      49.593  26.069  32.776  1.00  0.00     0.020 A 
ATOM     86  C   UNL A   1      50.253  26.621  30.504  1.00  0.00     0.020 A 
ATOM     87  C   UNL A   1      50.569  26.146  31.778  1.00  0.00     0.054 A 
BRANCH  87  88
ATOM     88  S   UNL A   1      52.250  25.574  32.151  1.00  0.00     0.124 S 
ATOM     89  O   UNL A   1      53.015  26.136  31.041  1.00  0.00    -0.237 OA
ATOM     90  O   UNL A   1      52.510  26.171  33.459  1.00  0.00    -0.237 OA
ATOM     91  O   UNL A   1      52.128  24.118  32.151  1.00  0.00    -0.744 OA
ENDBRANCH  87  88
ENDBRANCH  61  82
ENDBRANCH  35  36
ENDBRANCH  28  30
ENDBRANCH  27  28
ENDBRANCH  26  27
ENDBRANCH  25  26
ENDBRANCH  24  25
ENDBRANCH   1  24
TORSDOF 21
ENDMDL
MODEL 2
REMARK VINA RESULT:      -8.0      4.342      7.385
REMARK SMILES Cc1cc(C(=O)N2CCC[C@@H]2C(C)C)sc1/C=C/C(=O)OCCOCCOC(=O)c1ccc(-c2c3nc(c(-c4ccc(S(=O)(=O)[O-])cc4)c4ccc([nH]4)c(-c4ccc(S(=O)(=O)[O-])cc4)c4nc(c(-c5ccc(S(=O)(=O)[O-])cc5)c5ccc2[nH]5)C=C4)C=C3)cc1
REMARK SMILES IDX 23 1 22 2 21 3 19 4 20 5 18 6 17 7 16 8 1 9 2 10 3 11 4 12
REMARK SMILES IDX 15 13 5 14 6 15 7 16 8 17 11 18 9 19 10 20 12 21 13 22 14 23
REMARK SMILES IDX 24 24 25 25 26 26 27 27 28 28 29 29 30 30 31 31 89 32 32 33
REMARK SMILES IDX 88 34 33 35 34 36 35 37 82 38 36 39 87 40 81 41 83 42 37 43
REMARK SMILES IDX 86 44 80 45 79 46 38 48 68 49 49 50 67 51 50 52 53 53 66 54
REMARK SMILES IDX 84 55 51 56 52 57 65 59 85 60 54 61 39 62 40 63 48 64 41 65
REMARK SMILES IDX 47 66 42 67 43 68 44 69 45 70 46 71 69 72 70 73 78 74 71 75
REMARK SMILES IDX 77 76 72 77 73 78 74 79 75 80 76 81 55 82 56 83 64 84 57 85
REMARK SMILES IDX 63 86 58 87 59 88 60 89 61 90 62 91
REMARK H PARENT 83 47 53 58
REMARK Flexibility Score: inf
ROOT
ATOM      1  C   UNL A   1      35.304  32.939  28.006  1.00  0.00     0.202 C 
ENDROOT
BRANCH   1   2
ATOM      2  C   UNL A   1      33.871  32.404  28.058  1.00  0.00     0.261 C 
BRANCH   2   3
ATOM      3  O   UNL A   1      33.804  31.052  27.574  1.00  0.00    -0.460 OA
BRANCH   3   4
ATOM      4  C   UNL A   1      32.680  30.740  26.893  1.00  0.00     0.330 C 
ATOM      5  O   UNL A   1      31.718  31.470  26.696  1.00  0.00    -0.247 OA
BRANCH   4   6
ATOM      6  C   UNL A   1      32.743  29.397  26.287  1.00  0.00     0.095 C 
ATOM      7  C   UNL A   1      31.788  28.793  25.560  1.00  0.00     0.027 C 
BRANCH   7   8
ATOM      8  C   UNL A   1      31.939  27.457  25.051  1.00  0.00     0.031 A 
ATOM      9  C   UNL A   1      29.609  27.018  24.032  1.00  0.00     0.046 C 
ATOM     10  C   UNL A   1      31.012  26.645  24.398  1.00  0.00    -0.032 A 
ATOM     11  C   UNL A   1      31.580  25.369  24.034  1.00  0.00     0.029 A 
ATOM     12  C   UNL A   1      32.905  25.230  24.391  1.00  0.00     0.093 A 
ATOM     13  S   UNL A   1      33.433  26.616  25.224  1.00  0.00    -0.130 S 
BRANCH  12  14
ATOM     14  C   UNL A   1      33.813  24.139  24.026  1.00  0.00     0.264 C 
ATOM     15  O   UNL A   1      34.345  24.060  22.919  1.00  0.00    -0.268 OA
BRANCH  14  16
ATOM     16  N   UNL A   1      34.163  23.258  25.041  1.00  0.00    -0.335 N 
ATOM     17  C   UNL A   1      33.247  22.997  26.133  1.00  0.00     0.120 C 
ATOM     18  C   UNL A   1      35.081  22.129  24.849  1.00  0.00     0.088 C 
ATOM     19  C   UNL A   1      34.088  22.190  27.091  1.00  0.00     0.024 C 
ATOM     20  C   UNL A   1      34.911  21.309  26.154  1.00  0.00     0.027 C 
BRANCH  18  21
ATOM     21  C   UNL A   1      36.552  22.562  24.567  1.00  0.00     0.005 C 
ATOM     22  C   UNL A   1      36.894  23.919  25.201  1.00  0.00     0.009 C 
ATOM     23  C   UNL A   1      37.575  21.545  25.098  1.00  0.00     0.009 C 
ENDBRANCH  18  21
ENDBRANCH  14  16
ENDBRANCH  12  14
ENDBRANCH   7   8
ENDBRANCH   4   6
ENDBRANCH   3   4
ENDBRANCH   2   3
ENDBRANCH   1   2
BRANCH   1  24
ATOM     24  O   UNL A   1      35.604  33.979  28.937  1.00  0.00    -0.374 OA
BRANCH  24  25
ATOM     25  C   UNL A   1      35.304  33.716  30.310  1.00  0.00     0.202 C 
BRANCH  25  26
ATOM     26  C   UNL A   1      36.256  32.748  31.025  1.00  0.00     0.261 C 
BRANCH  26  27
ATOM     27  O   UNL A   1      36.099  31.396  30.557  1.00  0.00    -0.460 OA
BRANCH  27  28
ATOM     28  C   UNL A   1      36.773  30.462  31.269  1.00  0.00     0.338 C 
ATOM     29  O   UNL A   1      36.312  29.711  32.121  1.00  0.00    -0.246 OA
BRANCH  28  30
ATOM     30  C   UNL A   1      38.148  30.326  30.752  1.00  0.00     0.060 A 
ATOM     31  C   UNL A   1      38.307  30.173  29.369  1.00  0.00     0.016 A 
ATOM     32  C   UNL A   1      39.257  30.290  31.600  1.00  0.00     0.016 A 
ATOM     33  C   UNL A   1      39.571  29.935  28.832  1.00  0.00     0.010 A 
ATOM     34  C   UNL A   1      40.525  30.045  31.061  1.00  0.00     0.010 A 
ATOM     35  C   UNL A   1      40.683  29.834  29.678  1.00  0.00    -0.014 A 
BRANCH  35  36
ATOM     36  C   UNL A   1      41.984  29.374  29.131  1.00  0.00     0.031 A 
ATOM     37  C   UNL A   1      43.125  30.351  29.036  1.00  0.00     0.074 A 
ATOM     38  C   UNL A   1      42.155  28.097  28.747  1.00  0.00     0.049 A 
ATOM     39  N   UNL A   1      44.333  30.168  28.572  1.00  0.00    -0.248 NA
ATOM     40  C   UNL A   1      42.868  31.714  29.530  1.00  0.00     0.031 C 
ATOM     41  C   UNL A   1      41.142  27.045  28.826  1.00  0.00     0.029 A 
ATOM     42  N   UNL A   1      43.251  27.468  28.208  1.00  0.00    -0.354 N 
ATOM     43  C   UNL A   1      44.981  31.390  28.711  1.00  0.00     0.074 A 
ATOM     44  C   UNL A   1      44.022  32.315  29.276  1.00  0.00     0.031 C 
ATOM     45  C   UNL A   1      41.661  25.902  28.346  1.00  0.00     0.029 A 
ATOM     46  C   UNL A   1      43.030  26.147  27.898  1.00  0.00     0.049 A 
ATOM     47  H   UNL A   1      44.112  27.920  28.059  1.00  0.00     0.167 HD
ATOM     48  C   UNL A   1      46.260  31.714  28.402  1.00  0.00     0.031 A 
ATOM     49  C   UNL A   1      43.834  25.245  27.302  1.00  0.00     0.031 A 
ATOM     50  C   UNL A   1      47.209  30.799  27.828  1.00  0.00     0.049 A 
ATOM     51  C   UNL A   1      45.230  25.646  26.903  1.00  0.00     0.074 A 
ATOM     52  C   UNL A   1      48.532  31.029  27.491  1.00  0.00     0.029 A 
ATOM     53  N   UNL A   1      46.937  29.480  27.497  1.00  0.00    -0.354 N 
ATOM     54  N   UNL A   1      45.833  26.800  27.062  1.00  0.00    -0.248 NA
ATOM     55  C   UNL A   1      46.055  24.620  26.251  1.00  0.00     0.031 C 
ATOM     56  C   UNL A   1      49.043  29.865  26.908  1.00  0.00     0.029 A 
ATOM     57  C   UNL A   1      48.058  28.891  26.936  1.00  0.00     0.049 A 
ATOM     58  H   UNL A   1      46.073  29.028  27.641  1.00  0.00     0.167 HD
ATOM     59  C   UNL A   1      47.117  26.629  26.554  1.00  0.00     0.074 A 
ATOM     60  C   UNL A   1      47.207  25.259  26.094  1.00  0.00     0.031 C 
ATOM     61  C   UNL A   1      48.132  27.526  26.480  1.00  0.00     0.031 A 
BRANCH  48  62
ATOM     62  C   UNL A   1      46.695  33.134  28.652  1.00  0.00    -0.014 A 
ATOM     63  C   UNL A   1      46.432  34.152  27.719  1.00  0.00     0.010 A 
ATOM     64  C   UNL A   1      47.352  33.459  29.853  1.00  0.00     0.010 A 
ATOM     65  C   UNL A   1      46.852  35.462  27.964  1.00  0.00     0.020 A 
ATOM     66  C   UNL A   1      47.750  34.772  30.114  1.00  0.00     0.020 A 
ATOM     67  C   UNL A   1      47.514  35.763  29.159  1.00  0.00     0.054 A 
BRANCH  67  68
ATOM     68  S   UNL A   1      48.036  37.473  29.460  1.00  0.00     0.124 S 
ATOM     69  O   UNL A   1      48.124  37.508  30.918  1.00  0.00    -0.237 OA
ATOM     70  O   UNL A   1      49.313  37.550  28.753  1.00  0.00    -0.237 OA
ATOM     71  O   UNL A   1      46.958  38.272  28.883  1.00  0.00    -0.744 OA
ENDBRANCH  67  68
ENDBRANCH  48  62
BRANCH  49  72
ATOM     72  C   UNL A   1      43.330  23.871  27.029  1.00  0.00    -0.014 A 
ATOM     73  C   UNL A   1      42.852  23.520  25.755  1.00  0.00     0.010 A 
ATOM     74  C   UNL A   1      43.332  22.902  28.049  1.00  0.00     0.010 A 
ATOM     75  C   UNL A   1      42.372  22.230  25.510  1.00  0.00     0.020 A 
ATOM     76  C   UNL A   1      42.879  21.604  27.801  1.00  0.00     0.020 A 
ATOM     77  C   UNL A   1      42.393  21.279  26.534  1.00  0.00     0.054 A 
BRANCH  77  78
ATOM     78  S   UNL A   1      41.822  19.593  26.178  1.00  0.00     0.124 S 
ATOM     79  O   UNL A   1      42.791  19.149  25.182  1.00  0.00    -0.237 OA
ATOM     80  O   UNL A   1      41.915  18.947  27.485  1.00  0.00    -0.237 OA
ATOM     81  O   UNL A   1      40.461  19.791  25.685  1.00  0.00    -0.744 OA
ENDBRANCH  77  78
ENDBRANCH  49  72
BRANCH  61  82
ATOM     82  C   UNL A   1      49.442  27.049  25.910  1.00  0.00    -0.014 A 
ATOM     83  C   UNL A   1      49.833  27.381  24.601  1.00  0.00     0.010 A 
ATOM     84  C   UNL A   1      50.321  26.306  26.720  1.00  0.00     0.010 A 
ATOM     85  C   UNL A   1      51.067  26.952  24.102  1.00  0.00     0.020 A 
ATOM     86  C   UNL A   1      51.566  25.898  26.233  1.00  0.00     0.020 A 
ATOM     87  C   UNL A   1      51.925  26.212  24.921  1.00  0.00     0.054 A 
BRANCH  87  88
ATOM     88  S   UNL A   1      53.539  25.705  24.267  1.00  0.00     0.124 S 
ATOM     89  O   UNL A   1      54.443  26.643  24.928  1.00  0.00    -0.237 OA
ATOM     90  O   UNL A   1      53.643  24.316  24.707  1.00  0.00    -0.237 OA
ATOM     91  O   UNL A   1      53.400  25.885  22.824  1.00  0.00    -0.744 OA
ENDBRANCH  87  88
ENDBRANCH  61  82
ENDBRANCH  35  36
ENDBRANCH  28  30
ENDBRANCH  27  28
ENDBRANCH  26  27
ENDBRANCH  25  26
ENDBRANCH  24  25
ENDBRANCH   1  24
TORSDOF 21
ENDMDL
MODEL 3
REMARK VINA RESULT:      -7.4      5.060     11.296
REMARK SMILES Cc1cc(C(=O)N2CCC[C@@H]2C(C)C)sc1/C=C/C(=O)OCCOCCOC(=O)c1ccc(-c2c3nc(c(-c4ccc(S(=O)(=O)[O-])cc4)c4ccc([nH]4)c(-c4ccc(S(=O)(=O)[O-])cc4)c4nc(c(-c5ccc(S(=O)(=O)[O-])cc5)c5ccc2[nH]5)C=C4)C=C3)cc1
REMARK SMILES IDX 23 1 22 2 21 3 19 4 20 5 18 6 17 7 16 8 1 9 2 10 3 11 4 12
REMARK SMILES IDX 15 13 5 14 6 15 7 16 8 17 11 18 9 19 10 20 12 21 13 22 14 23
REMARK SMILES IDX 24 24 25 25 26 26 27 27 28 28 29 29 30 30 31 31 89 32 32 33
REMARK SMILES IDX 88 34 33 35 34 36 35 37 82 38 36 39 87 40 81 41 83 42 37 43
REMARK SMILES IDX 86 44 80 45 79 46 38 48 68 49 49 50 67 51 50 52 53 53 66 54
REMARK SMILES IDX 84 55 51 56 52 57 65 59 85 60 54 61 39 62 40 63 48 64 41 65
REMARK SMILES IDX 47 66 42 67 43 68 44 69 45 70 46 71 69 72 70 73 78 74 71 75
REMARK SMILES IDX 77 76 72 77 73 78 74 79 75 80 76 81 55 82 56 83 64 84 57 85
REMARK SMILES IDX 63 86 58 87 59 88 60 89 61 90 62 91
REMARK H PARENT 83 47 53 58
REMARK Flexibility Score: inf
ROOT
ATOM      1  C   UNL A   1      34.864  32.348  28.303  1.00  0.00     0.202 C 
ENDROOT
BRANCH   1   2
ATOM      2  C   UNL A   1      33.416  32.116  27.867  1.00  0.00     0.261 C 
BRANCH   2   3
ATOM      3  O   UNL A   1      33.261  30.828  27.249  1.00  0.00    -0.460 OA
BRANCH   3   4
ATOM      4  C   UNL A   1      32.088  30.637  26.606  1.00  0.00     0.330 C 
ATOM      5  O   UNL A   1      31.361  31.502  26.138  1.00  0.00    -0.247 OA
BRANCH   4   6
ATOM      6  C   UNL A   1      31.777  29.208  26.414  1.00  0.00     0.095 C 
ATOM      7  C   UNL A   1      31.508  28.588  25.253  1.00  0.00     0.027 C 
BRANCH   7   8
ATOM      8  C   UNL A   1      31.173  27.191  25.186  1.00  0.00     0.031 A 
ATOM      9  C   UNL A   1      29.766  27.092  23.024  1.00  0.00     0.046 C 
ATOM     10  C   UNL A   1      30.404  26.506  24.246  1.00  0.00    -0.032 A 
ATOM     11  C   UNL A   1      30.329  25.095  24.541  1.00  0.00     0.029 A 
ATOM     12  C   UNL A   1      31.036  24.726  25.666  1.00  0.00     0.093 A 
ATOM     13  S   UNL A   1      31.728  26.097  26.396  1.00  0.00    -0.130 S 
BRANCH  12  14
ATOM     14  C   UNL A   1      31.299  23.365  26.142  1.00  0.00     0.264 C 
ATOM     15  O   UNL A   1      30.428  22.658  26.649  1.00  0.00    -0.268 OA
BRANCH  14  16
ATOM     16  N   UNL A   1      32.557  22.845  25.867  1.00  0.00    -0.335 N 
ATOM     17  C   UNL A   1      33.738  23.419  26.482  1.00  0.00     0.120 C 
ATOM     18  C   UNL A   1      32.788  21.441  25.503  1.00  0.00     0.088 C 
ATOM     19  C   UNL A   1      34.864  22.723  25.758  1.00  0.00     0.024 C 
ATOM     20  C   UNL A   1      34.330  21.303  25.593  1.00  0.00     0.027 C 
BRANCH  18  21
ATOM     21  C   UNL A   1      32.204  21.054  24.110  1.00  0.00     0.005 C 
ATOM     22  C   UNL A   1      32.757  21.933  22.978  1.00  0.00     0.009 C 
ATOM     23  C   UNL A   1      32.500  19.594  23.735  1.00  0.00     0.009 C 
ENDBRANCH  18  21
ENDBRANCH  14  16
ENDBRANCH  12  14
ENDBRANCH   7   8
ENDBRANCH   4   6
ENDBRANCH   3   4
ENDBRANCH   2   3
ENDBRANCH   1   2
BRANCH   1  24
ATOM     24  O   UNL A   1      35.203  33.700  28.613  1.00  0.00    -0.374 OA
BRANCH  24  25
ATOM     25  C   UNL A   1      34.242  34.698  28.257  1.00  0.00     0.202 C 
BRANCH  25  26
ATOM     26  C   UNL A   1      33.688  35.532  29.420  1.00  0.00     0.261 C 
BRANCH  26  27
ATOM     27  O   UNL A   1      32.913  34.733  30.333  1.00  0.00    -0.460 OA
BRANCH  27  28
ATOM     28  C   UNL A   1      33.253  34.861  31.637  1.00  0.00     0.338 C 
ATOM     29  O   UNL A   1      32.530  35.229  32.555  1.00  0.00    -0.246 OA
BRANCH  28  30
ATOM     30  C   UNL A   1      34.605  34.313  31.863  1.00  0.00     0.060 A 
ATOM     31  C   UNL A   1      34.708  32.947  32.154  1.00  0.00     0.016 A 
ATOM     32  C   UNL A   1      35.743  35.122  31.849  1.00  0.00     0.016 A 
ATOM     33  C   UNL A   1      35.946  32.393  32.480  1.00  0.00     0.010 A 
ATOM     34  C   UNL A   1      36.983  34.566  32.182  1.00  0.00     0.010 A 
ATOM     35  C   UNL A   1      37.085  33.207  32.531  1.00  0.00    -0.014 A 
BRANCH  35  36
ATOM     36  C   UNL A   1      38.352  32.664  33.080  1.00  0.00     0.031 A 
ATOM     37  C   UNL A   1      39.210  31.784  32.210  1.00  0.00     0.074 A 
ATOM     38  C   UNL A   1      38.748  32.970  34.329  1.00  0.00     0.049 A 
ATOM     39  N   UNL A   1      40.338  31.189  32.495  1.00  0.00    -0.248 NA
ATOM     40  C   UNL A   1      38.729  31.546  30.840  1.00  0.00     0.031 C 
ATOM     41  C   UNL A   1      38.028  33.842  35.256  1.00  0.00     0.029 A 
ATOM     42  N   UNL A   1      39.858  32.574  35.033  1.00  0.00    -0.354 N 
ATOM     43  C   UNL A   1      40.703  30.500  31.343  1.00  0.00     0.074 A 
ATOM     44  C   UNL A   1      39.660  30.727  30.367  1.00  0.00     0.031 C 
ATOM     45  C   UNL A   1      38.712  33.911  36.411  1.00  0.00     0.029 A 
ATOM     46  C   UNL A   1      39.899  33.064  36.317  1.00  0.00     0.049 A 
ATOM     47  H   UNL A   1      40.558  31.995  34.655  1.00  0.00     0.167 HD
ATOM     48  C   UNL A   1      41.807  29.749  31.117  1.00  0.00     0.031 A 
ATOM     49  C   UNL A   1      40.784  32.839  37.309  1.00  0.00     0.031 A 
ATOM     50  C   UNL A   1      42.837  29.511  32.092  1.00  0.00     0.049 A 
ATOM     51  C   UNL A   1      41.969  31.945  37.057  1.00  0.00     0.074 A 
ATOM     52  C   UNL A   1      44.001  28.774  31.953  1.00  0.00     0.029 A 
ATOM     53  N   UNL A   1      42.825  29.996  33.391  1.00  0.00    -0.354 N 
ATOM     54  N   UNL A   1      42.309  31.319  35.955  1.00  0.00    -0.248 NA
ATOM     55  C   UNL A   1      42.892  31.733  38.180  1.00  0.00     0.031 C 
ATOM     56  C   UNL A   1      44.666  28.772  33.184  1.00  0.00     0.029 A 
ATOM     57  C   UNL A   1      43.947  29.555  34.073  1.00  0.00     0.049 A 
ATOM     58  H   UNL A   1      42.122  30.571  33.772  1.00  0.00     0.167 HD
ATOM     59  C   UNL A   1      43.501  30.662  36.245  1.00  0.00     0.074 A 
ATOM     60  C   UNL A   1      43.827  30.976  37.621  1.00  0.00     0.031 C 
ATOM     61  C   UNL A   1      44.258  29.873  35.443  1.00  0.00     0.031 A 
BRANCH  48  62
ATOM     62  C   UNL A   1      41.941  29.103  29.763  1.00  0.00    -0.014 A 
ATOM     63  C   UNL A   1      41.373  27.843  29.497  1.00  0.00     0.010 A 
ATOM     64  C   UNL A   1      42.618  29.780  28.733  1.00  0.00     0.010 A 
ATOM     65  C   UNL A   1      41.516  27.256  28.238  1.00  0.00     0.020 A 
ATOM     66  C   UNL A   1      42.739  29.207  27.464  1.00  0.00     0.020 A 
ATOM     67  C   UNL A   1      42.203  27.939  27.229  1.00  0.00     0.054 A 
BRANCH  67  68
ATOM     68  S   UNL A   1      42.361  27.161  25.599  1.00  0.00     0.124 S 
ATOM     69  O   UNL A   1      43.645  26.475  25.718  1.00  0.00    -0.237 OA
ATOM     70  O   UNL A   1      41.188  26.291  25.543  1.00  0.00    -0.237 OA
ATOM     71  O   UNL A   1      42.342  28.289  24.672  1.00  0.00    -0.744 OA
ENDBRANCH  67  68
ENDBRANCH  48  62
BRANCH  49  72
ATOM     72  C   UNL A   1      40.570  33.461  38.645  1.00  0.00    -0.014 A 
ATOM     73  C   UNL A   1      39.922  32.754  39.672  1.00  0.00     0.010 A 
ATOM     74  C   UNL A   1      41.023  34.769  38.896  1.00  0.00     0.010 A 
ATOM     75  C   UNL A   1      39.719  33.348  40.921  1.00  0.00     0.020 A 
ATOM     76  C   UNL A   1      40.846  35.357  40.150  1.00  0.00     0.020 A 
ATOM     77  C   UNL A   1      40.185  34.645  41.154  1.00  0.00     0.054 A 
BRANCH  77  78
ATOM     78  S   UNL A   1      39.965  35.376  42.800  1.00  0.00     0.124 S 
ATOM     79  O   UNL A   1      40.170  34.224  43.672  1.00  0.00    -0.237 OA
ATOM     80  O   UNL A   1      41.012  36.393  42.836  1.00  0.00    -0.237 OA
ATOM     81  O   UNL A   1      38.601  35.898  42.761  1.00  0.00    -0.744 OA
ENDBRANCH  77  78
ENDBRANCH  49  72
BRANCH  61  82
ATOM     82  C   UNL A   1      45.534  29.318  36.018  1.00  0.00    -0.014 A 
ATOM     83  C   UNL A   1      45.587  28.023  36.563  1.00  0.00     0.010 A 
ATOM     84  C   UNL A   1      46.713  30.084  35.958  1.00  0.00     0.010 A 
ATOM     85  C   UNL A   1      46.790  27.516  37.064  1.00  0.00     0.020 A 
ATOM     86  C   UNL A   1      47.923  29.571  36.434  1.00  0.00     0.020 A 
ATOM     87  C   UNL A   1      47.950  28.294  36.997  1.00  0.00     0.054 A 
BRANCH  87  88
ATOM     88  S   UNL A   1      49.508  27.598  37.614  1.00  0.00     0.124 S 
ATOM     89  O   UNL A   1      49.035  26.538  38.502  1.00  0.00    -0.237 OA
ATOM     90  O   UNL A   1      50.165  27.146  36.390  1.00  0.00    -0.237 OA
ATOM     91  O   UNL A   1      50.153  28.727  38.280  1.00  0.00    -0.744 OA
ENDBRANCH  87  88
ENDBRANCH  61  82
ENDBRANCH  35  36
ENDBRANCH  28  30
ENDBRANCH  27  28
ENDBRANCH  26  27
ENDBRANCH  25  26
ENDBRANCH  24  25
ENDBRANCH   1  24
TORSDOF 21
ENDMDL
