MODEL 1
REMARK VINA RESULT:     -10.7      0.000      0.000
REMARK SMILES C[C@H]1[C@@H](C(=O)OCCOCCOC(=O)c2ccc(-c3c4nc(c(-c5ccc(S(=O)(=O)[O-])cc5)c5ccc([nH]5)c(-c5ccc(S(=O)(=O)[O-])cc5)c5nc(c(-c6ccc(S(=O)(=O)[O-])cc6)c6ccc3[nH]6)C=C5)C=C4)cc2)CCN1S(=O)(=O)c1c[nH]c2ncccc12
REMARK SMILES IDX 10 1 9 2 8 3 7 4 6 5 4 6 5 7 3 8 1 9 2 10 77 11 75 12 76 13
REMARK SMILES IDX 78 14 79 15 80 16 81 17 82 18 89 19 83 20 84 21 88 22 85 24
REMARK SMILES IDX 87 25 86 26 11 27 12 28 13 29 14 30 15 31 16 32 74 33 17 34
REMARK SMILES IDX 73 35 18 36 19 37 20 38 67 39 21 40 72 41 66 42 68 43 22 44
REMARK SMILES IDX 71 45 65 46 64 47 23 49 53 50 34 51 52 52 35 53 38 54 51 55
REMARK SMILES IDX 69 56 36 57 37 58 50 60 70 61 39 62 24 63 25 64 33 65 26 66
REMARK SMILES IDX 32 67 27 68 28 69 29 70 30 71 31 72 54 73 55 74 63 75 56 76
REMARK SMILES IDX 62 77 57 78 58 79 59 80 60 81 61 82 40 83 41 84 49 85 42 86
REMARK SMILES IDX 48 87 43 88 44 89 45 90 46 91 47 92
REMARK H PARENT 83 23 68 48 38 59
REMARK Flexibility Score: inf
ROOT
ATOM      1  C   UNL A   1      33.968  30.733  27.285  1.00  0.00     0.202 C 
ENDROOT
BRANCH   1   2
ATOM      2  O   UNL A   1      33.379  29.560  26.726  1.00  0.00    -0.374 OA
BRANCH   2   3
ATOM      3  C   UNL A   1      32.854  29.683  25.400  1.00  0.00     0.202 C 
BRANCH   3   4
ATOM      4  C   UNL A   1      31.514  28.979  25.171  1.00  0.00     0.261 C 
BRANCH   4   5
ATOM      5  O   UNL A   1      31.191  28.987  23.764  1.00  0.00    -0.463 OA
BRANCH   5   6
ATOM      6  C   UNL A   1      30.960  27.793  23.181  1.00  0.00     0.310 C 
ATOM      7  O   UNL A   1      30.739  27.639  21.986  1.00  0.00    -0.252 OA
BRANCH   6   8
ATOM      8  C   UNL A   1      31.056  26.612  24.131  1.00  0.00     0.118 C 
ATOM      9  C   UNL A   1      33.559  25.971  23.445  1.00  0.00     0.027 C 
ATOM     10  C   UNL A   1      32.347  25.800  24.356  1.00  0.00     0.084 C 
ATOM     11  N   UNL A   1      31.955  24.353  24.279  1.00  0.00    -0.194 NA
ATOM     12  C   UNL A   1      29.971  25.581  23.800  1.00  0.00     0.034 C 
ATOM     13  C   UNL A   1      30.691  24.278  23.519  1.00  0.00     0.104 C 
BRANCH  11  14
ATOM     14  S   UNL A   1      31.959  23.454  25.724  1.00  0.00     0.245 S 
ATOM     15  O   UNL A   1      32.226  24.376  26.807  1.00  0.00    -0.207 OA
ATOM     16  O   UNL A   1      30.775  22.621  25.723  1.00  0.00    -0.207 OA
BRANCH  14  17
ATOM     17  C   UNL A   1      33.301  22.360  25.747  1.00  0.00     0.109 A 
ATOM     18  C   UNL A   1      33.208  20.977  25.702  1.00  0.00     0.106 A 
ATOM     19  C   UNL A   1      34.690  22.695  25.730  1.00  0.00     0.039 A 
ATOM     20  N   UNL A   1      34.477  20.466  25.696  1.00  0.00    -0.345 N 
ATOM     21  C   UNL A   1      35.382  21.486  25.677  1.00  0.00     0.138 A 
ATOM     22  C   UNL A   1      35.477  23.863  25.726  1.00  0.00     0.015 A 
ATOM     23  H   UNL A   1      34.702  19.507  25.703  1.00  0.00     0.168 HD
ATOM     24  N   UNL A   1      36.711  21.295  25.606  1.00  0.00    -0.239 NA
ATOM     25  C   UNL A   1      36.864  23.723  25.650  1.00  0.00     0.021 A 
ATOM     26  C   UNL A   1      37.411  22.450  25.590  1.00  0.00     0.113 A 
ENDBRANCH  14  17
ENDBRANCH  11  14
ENDBRANCH   6   8
ENDBRANCH   5   6
ENDBRANCH   4   5
ENDBRANCH   3   4
ENDBRANCH   2   3
ENDBRANCH   1   2
BRANCH   1  27
ATOM     27  C   UNL A   1      33.030  31.927  27.488  1.00  0.00     0.261 C 
BRANCH  27  28
ATOM     28  O   UNL A   1      33.731  33.169  27.325  1.00  0.00    -0.460 OA
BRANCH  28  29
ATOM     29  C   UNL A   1      33.585  34.018  28.370  1.00  0.00     0.338 C 
ATOM     30  O   UNL A   1      32.638  34.754  28.587  1.00  0.00    -0.246 OA
BRANCH  29  31
ATOM     31  C   UNL A   1      34.669  33.812  29.350  1.00  0.00     0.060 A 
ATOM     32  C   UNL A   1      35.951  34.210  28.954  1.00  0.00     0.016 A 
ATOM     33  C   UNL A   1      34.468  33.188  30.585  1.00  0.00     0.016 A 
ATOM     34  C   UNL A   1      37.050  33.890  29.740  1.00  0.00     0.010 A 
ATOM     35  C   UNL A   1      35.576  32.875  31.380  1.00  0.00     0.010 A 
ATOM     36  C   UNL A   1      36.875  33.168  30.927  1.00  0.00    -0.014 A 
BRANCH  36  37
ATOM     37  C   UNL A   1      38.071  32.565  31.564  1.00  0.00     0.031 A 
ATOM     38  C   UNL A   1      38.511  33.078  32.912  1.00  0.00     0.074 A 
ATOM     39  C   UNL A   1      38.685  31.508  31.004  1.00  0.00     0.049 A 
ATOM     40  N   UNL A   1      39.459  32.634  33.697  1.00  0.00    -0.248 NA
ATOM     41  C   UNL A   1      37.786  34.242  33.446  1.00  0.00     0.031 C 
ATOM     42  C   UNL A   1      38.320  30.900  29.724  1.00  0.00     0.029 A 
ATOM     43  N   UNL A   1      39.731  30.744  31.453  1.00  0.00    -0.354 N 
ATOM     44  C   UNL A   1      39.444  33.464  34.813  1.00  0.00     0.074 A 
ATOM     45  C   UNL A   1      38.424  34.464  34.586  1.00  0.00     0.031 C 
ATOM     46  C   UNL A   1      39.122  29.845  29.500  1.00  0.00     0.029 A 
ATOM     47  C   UNL A   1      40.070  29.719  30.604  1.00  0.00     0.049 A 
ATOM     48  H   UNL A   1      40.196  30.915  32.305  1.00  0.00     0.167 HD
ATOM     49  C   UNL A   1      40.200  33.393  35.934  1.00  0.00     0.031 A 
ATOM     50  C   UNL A   1      41.036  28.786  30.707  1.00  0.00     0.031 A 
ATOM     51  C   UNL A   1      41.219  32.400  36.152  1.00  0.00     0.049 A 
ATOM     52  C   UNL A   1      41.902  28.760  31.939  1.00  0.00     0.074 A 
ATOM     53  C   UNL A   1      42.033  32.232  37.258  1.00  0.00     0.029 A 
ATOM     54  N   UNL A   1      41.566  31.411  35.244  1.00  0.00    -0.354 N 
ATOM     55  N   UNL A   1      41.857  29.535  32.997  1.00  0.00    -0.248 NA
ATOM     56  C   UNL A   1      42.938  27.721  31.996  1.00  0.00     0.031 C 
ATOM     57  C   UNL A   1      42.915  31.179  36.992  1.00  0.00     0.029 A 
ATOM     58  C   UNL A   1      42.601  30.645  35.752  1.00  0.00     0.049 A 
ATOM     59  H   UNL A   1      41.140  31.273  34.368  1.00  0.00     0.167 HD
ATOM     60  C   UNL A   1      42.838  29.058  33.860  1.00  0.00     0.074 A 
ATOM     61  C   UNL A   1      43.446  27.916  33.206  1.00  0.00     0.031 C 
ATOM     62  C   UNL A   1      43.201  29.518  35.083  1.00  0.00     0.031 A 
BRANCH  49  63
ATOM     63  C   UNL A   1      39.975  34.440  36.995  1.00  0.00    -0.014 A 
ATOM     64  C   UNL A   1      40.583  35.707  36.916  1.00  0.00     0.010 A 
ATOM     65  C   UNL A   1      39.118  34.162  38.075  1.00  0.00     0.010 A 
ATOM     66  C   UNL A   1      40.366  36.660  37.915  1.00  0.00     0.020 A 
ATOM     67  C   UNL A   1      38.875  35.122  39.060  1.00  0.00     0.020 A 
ATOM     68  C   UNL A   1      39.515  36.361  38.983  1.00  0.00     0.054 A 
BRANCH  68  69
ATOM     69  S   UNL A   1      39.234  37.624  40.254  1.00  0.00     0.124 S 
ATOM     70  O   UNL A   1      38.810  36.815  41.394  1.00  0.00    -0.237 OA
ATOM     71  O   UNL A   1      40.549  38.247  40.381  1.00  0.00    -0.237 OA
ATOM     72  O   UNL A   1      38.198  38.475  39.675  1.00  0.00    -0.744 OA
ENDBRANCH  68  69
ENDBRANCH  49  63
BRANCH  50  73
ATOM     73  C   UNL A   1      41.236  27.801  29.608  1.00  0.00    -0.014 A 
ATOM     74  C   UNL A   1      42.329  27.908  28.728  1.00  0.00     0.010 A 
ATOM     75  C   UNL A   1      40.326  26.742  29.438  1.00  0.00     0.010 A 
ATOM     76  C   UNL A   1      42.497  26.985  27.692  1.00  0.00     0.020 A 
ATOM     77  C   UNL A   1      40.507  25.800  28.423  1.00  0.00     0.020 A 
ATOM     78  C   UNL A   1      41.585  25.934  27.548  1.00  0.00     0.054 A 
BRANCH  78  79
ATOM     79  S   UNL A   1      41.851  24.717  26.229  1.00  0.00     0.124 S 
ATOM     80  O   UNL A   1      41.766  25.544  25.030  1.00  0.00    -0.237 OA
ATOM     81  O   UNL A   1      43.178  24.194  26.547  1.00  0.00    -0.237 OA
ATOM     82  O   UNL A   1      40.755  23.768  26.414  1.00  0.00    -0.744 OA
ENDBRANCH  78  79
ENDBRANCH  50  73
BRANCH  62  83
ATOM     83  C   UNL A   1      44.283  28.761  35.811  1.00  0.00    -0.014 A 
ATOM     84  C   UNL A   1      45.641  29.105  35.672  1.00  0.00     0.010 A 
ATOM     85  C   UNL A   1      43.930  27.706  36.671  1.00  0.00     0.010 A 
ATOM     86  C   UNL A   1      46.626  28.371  36.337  1.00  0.00     0.020 A 
ATOM     87  C   UNL A   1      44.909  26.991  37.365  1.00  0.00     0.020 A 
ATOM     88  C   UNL A   1      46.254  27.315  37.176  1.00  0.00     0.054 A 
BRANCH  88  89
ATOM     89  S   UNL A   1      47.551  26.383  38.035  1.00  0.00     0.124 S 
ATOM     90  O   UNL A   1      48.321  25.837  36.920  1.00  0.00    -0.237 OA
ATOM     91  O   UNL A   1      48.224  27.417  38.817  1.00  0.00    -0.237 OA
ATOM     92  O   UNL A   1      46.809  25.400  38.820  1.00  0.00    -0.744 OA
ENDBRANCH  88  89
ENDBRANCH  62  83
ENDBRANCH  36  37
ENDBRANCH  29  31
ENDBRANCH  28  29
ENDBRANCH  27  28
ENDBRANCH   1  27
TORSDOF 19
ENDMDL
MODEL 2
REMARK VINA RESULT:     -10.5      2.168      8.819
REMARK SMILES C[C@H]1[C@@H](C(=O)OCCOCCOC(=O)c2ccc(-c3c4nc(c(-c5ccc(S(=O)(=O)[O-])cc5)c5ccc([nH]5)c(-c5ccc(S(=O)(=O)[O-])cc5)c5nc(c(-c6ccc(S(=O)(=O)[O-])cc6)c6ccc3[nH]6)C=C5)C=C4)cc2)CCN1S(=O)(=O)c1c[nH]c2ncccc12
REMARK SMILES IDX 10 1 9 2 8 3 7 4 6 5 4 6 5 7 3 8 1 9 2 10 77 11 75 12 76 13
REMARK SMILES IDX 78 14 79 15 80 16 81 17 82 18 89 19 83 20 84 21 88 22 85 24
REMARK SMILES IDX 87 25 86 26 11 27 12 28 13 29 14 30 15 31 16 32 74 33 17 34
REMARK SMILES IDX 73 35 18 36 19 37 20 38 67 39 21 40 72 41 66 42 68 43 22 44
REMARK SMILES IDX 71 45 65 46 64 47 23 49 53 50 34 51 52 52 35 53 38 54 51 55
REMARK SMILES IDX 69 56 36 57 37 58 50 60 70 61 39 62 24 63 25 64 33 65 26 66
REMARK SMILES IDX 32 67 27 68 28 69 29 70 30 71 31 72 54 73 55 74 63 75 56 76
REMARK SMILES IDX 62 77 57 78 58 79 59 80 60 81 61 82 40 83 41 84 49 85 42 86
REMARK SMILES IDX 48 87 43 88 44 89 45 90 46 91 47 92
REMARK H PARENT 83 23 68 48 38 59
REMARK Flexibility Score: inf
ROOT
ATOM      1  C   UNL A   1      42.503  22.328  25.788  1.00  0.00     0.202 C 
ENDROOT
BRANCH   1   2
ATOM      2  O   UNL A   1      41.638  21.987  26.869  1.00  0.00    -0.374 OA
BRANCH   2   3
ATOM      3  C   UNL A   1      40.575  21.076  26.571  1.00  0.00     0.202 C 
BRANCH   3   4
ATOM      4  C   UNL A   1      39.470  21.646  25.677  1.00  0.00     0.261 C 
BRANCH   4   5
ATOM      5  O   UNL A   1      38.399  22.164  26.493  1.00  0.00    -0.463 OA
BRANCH   5   6
ATOM      6  C   UNL A   1      37.743  23.247  26.029  1.00  0.00     0.310 C 
ATOM      7  O   UNL A   1      38.266  24.337  25.827  1.00  0.00    -0.252 OA
BRANCH   6   8
ATOM      8  C   UNL A   1      36.280  22.995  25.711  1.00  0.00     0.118 C 
ATOM      9  C   UNL A   1      36.667  22.695  23.083  1.00  0.00     0.027 C 
ATOM     10  C   UNL A   1      35.765  22.606  24.310  1.00  0.00     0.084 C 
ATOM     11  N   UNL A   1      34.581  23.486  24.036  1.00  0.00    -0.194 NA
ATOM     12  C   UNL A   1      35.432  24.196  26.144  1.00  0.00     0.034 C 
ATOM     13  C   UNL A   1      34.703  24.674  24.906  1.00  0.00     0.104 C 
BRANCH  11  14
ATOM     14  S   UNL A   1      33.039  22.765  24.045  1.00  0.00     0.245 S 
ATOM     15  O   UNL A   1      32.171  23.610  24.836  1.00  0.00    -0.207 OA
ATOM     16  O   UNL A   1      32.710  22.423  22.677  1.00  0.00    -0.207 OA
BRANCH  14  17
ATOM     17  C   UNL A   1      33.084  21.264  24.906  1.00  0.00     0.109 A 
ATOM     18  C   UNL A   1      33.234  21.132  26.279  1.00  0.00     0.106 A 
ATOM     19  C   UNL A   1      32.892  19.953  24.370  1.00  0.00     0.039 A 
ATOM     20  N   UNL A   1      33.178  19.800  26.586  1.00  0.00    -0.345 N 
ATOM     21  C   UNL A   1      32.938  19.078  25.454  1.00  0.00     0.138 A 
ATOM     22  C   UNL A   1      32.658  19.371  23.110  1.00  0.00     0.015 A 
ATOM     23  H   UNL A   1      33.293  19.421  27.488  1.00  0.00     0.168 HD
ATOM     24  N   UNL A   1      32.769  17.744  25.449  1.00  0.00    -0.239 NA
ATOM     25  C   UNL A   1      32.472  17.987  23.047  1.00  0.00     0.021 A 
ATOM     26  C   UNL A   1      32.534  17.245  24.217  1.00  0.00     0.113 A 
ENDBRANCH  14  17
ENDBRANCH  11  14
ENDBRANCH   6   8
ENDBRANCH   5   6
ENDBRANCH   4   5
ENDBRANCH   3   4
ENDBRANCH   2   3
ENDBRANCH   1   2
BRANCH   1  27
ATOM     27  C   UNL A   1      42.899  23.804  25.681  1.00  0.00     0.261 C 
BRANCH  27  28
ATOM     28  O   UNL A   1      41.759  24.659  25.849  1.00  0.00    -0.460 OA
BRANCH  28  29
ATOM     29  C   UNL A   1      42.055  25.979  25.783  1.00  0.00     0.338 C 
ATOM     30  O   UNL A   1      42.139  26.660  24.774  1.00  0.00    -0.246 OA
BRANCH  29  31
ATOM     31  C   UNL A   1      42.093  26.563  27.138  1.00  0.00     0.060 A 
ATOM     32  C   UNL A   1      41.139  26.092  28.047  1.00  0.00     0.016 A 
ATOM     33  C   UNL A   1      42.975  27.586  27.498  1.00  0.00     0.016 A 
ATOM     34  C   UNL A   1      40.991  26.713  29.280  1.00  0.00     0.010 A 
ATOM     35  C   UNL A   1      42.831  28.205  28.745  1.00  0.00     0.010 A 
ATOM     36  C   UNL A   1      41.795  27.811  29.612  1.00  0.00    -0.014 A 
BRANCH  36  37
ATOM     37  C   UNL A   1      41.399  28.643  30.773  1.00  0.00     0.031 A 
ATOM     38  C   UNL A   1      42.232  28.581  32.028  1.00  0.00     0.074 A 
ATOM     39  C   UNL A   1      40.385  29.521  30.672  1.00  0.00     0.049 A 
ATOM     40  N   UNL A   1      42.135  29.291  33.122  1.00  0.00    -0.248 NA
ATOM     41  C   UNL A   1      43.319  27.588  32.053  1.00  0.00     0.031 C 
ATOM     42  C   UNL A   1      39.537  29.699  29.494  1.00  0.00     0.029 A 
ATOM     43  N   UNL A   1      39.912  30.443  31.570  1.00  0.00    -0.354 N 
ATOM     44  C   UNL A   1      43.144  28.831  33.962  1.00  0.00     0.074 A 
ATOM     45  C   UNL A   1      43.813  27.752  33.271  1.00  0.00     0.031 C 
ATOM     46  C   UNL A   1      38.656  30.685  29.736  1.00  0.00     0.029 A 
ATOM     47  C   UNL A   1      38.860  31.187  31.093  1.00  0.00     0.049 A 
ATOM     48  H   UNL A   1      40.289  30.560  32.472  1.00  0.00     0.167 HD
ATOM     49  C   UNL A   1      43.493  29.276  35.193  1.00  0.00     0.031 A 
ATOM     50  C   UNL A   1      38.144  32.163  31.685  1.00  0.00     0.031 A 
ATOM     51  C   UNL A   1      42.818  30.346  35.879  1.00  0.00     0.049 A 
ATOM     52  C   UNL A   1      38.516  32.603  33.076  1.00  0.00     0.074 A 
ATOM     53  C   UNL A   1      43.101  30.881  37.124  1.00  0.00     0.029 A 
ATOM     54  N   UNL A   1      41.726  31.039  35.383  1.00  0.00    -0.354 N 
ATOM     55  N   UNL A   1      39.490  32.176  33.846  1.00  0.00    -0.248 NA
ATOM     56  C   UNL A   1      37.702  33.672  33.671  1.00  0.00     0.031 C 
ATOM     57  C   UNL A   1      42.138  31.858  37.405  1.00  0.00     0.029 A 
ATOM     58  C   UNL A   1      41.303  31.980  36.306  1.00  0.00     0.049 A 
ATOM     59  H   UNL A   1      41.311  30.886  34.504  1.00  0.00     0.167 HD
ATOM     60  C   UNL A   1      39.424  32.944  35.003  1.00  0.00     0.074 A 
ATOM     61  C   UNL A   1      38.327  33.874  34.823  1.00  0.00     0.031 C 
ATOM     62  C   UNL A   1      40.202  32.891  36.114  1.00  0.00     0.031 A 
BRANCH  49  63
ATOM     63  C   UNL A   1      44.635  28.580  35.888  1.00  0.00    -0.014 A 
ATOM     64  C   UNL A   1      45.960  29.038  35.761  1.00  0.00     0.010 A 
ATOM     65  C   UNL A   1      44.375  27.466  36.706  1.00  0.00     0.010 A 
ATOM     66  C   UNL A   1      47.004  28.372  36.409  1.00  0.00     0.020 A 
ATOM     67  C   UNL A   1      45.413  26.815  37.379  1.00  0.00     0.020 A 
ATOM     68  C   UNL A   1      46.725  27.263  37.212  1.00  0.00     0.054 A 
BRANCH  68  69
ATOM     69  S   UNL A   1      48.097  26.431  38.058  1.00  0.00     0.124 S 
ATOM     70  O   UNL A   1      48.976  26.091  36.942  1.00  0.00    -0.237 OA
ATOM     71  O   UNL A   1      48.595  27.470  38.956  1.00  0.00    -0.237 OA
ATOM     72  O   UNL A   1      47.460  25.294  38.718  1.00  0.00    -0.744 OA
ENDBRANCH  68  69
ENDBRANCH  49  63
BRANCH  50  73
ATOM     73  C   UNL A   1      37.002  32.787  30.962  1.00  0.00    -0.014 A 
ATOM     74  C   UNL A   1      35.687  32.319  31.143  1.00  0.00     0.010 A 
ATOM     75  C   UNL A   1      37.227  33.863  30.085  1.00  0.00     0.010 A 
ATOM     76  C   UNL A   1      34.625  32.905  30.447  1.00  0.00     0.020 A 
ATOM     77  C   UNL A   1      36.165  34.471  29.411  1.00  0.00     0.020 A 
ATOM     78  C   UNL A   1      34.872  33.980  29.588  1.00  0.00     0.054 A 
BRANCH  78  79
ATOM     79  S   UNL A   1      33.473  34.759  28.735  1.00  0.00     0.124 S 
ATOM     80  O   UNL A   1      34.080  35.974  28.201  1.00  0.00    -0.237 OA
ATOM     81  O   UNL A   1      33.104  33.747  27.747  1.00  0.00    -0.237 OA
ATOM     82  O   UNL A   1      32.494  34.964  29.800  1.00  0.00    -0.744 OA
ENDBRANCH  78  79
ENDBRANCH  50  73
BRANCH  62  83
ATOM     83  C   UNL A   1      39.916  33.891  37.206  1.00  0.00    -0.014 A 
ATOM     84  C   UNL A   1      39.204  33.530  38.364  1.00  0.00     0.010 A 
ATOM     85  C   UNL A   1      40.395  35.207  37.079  1.00  0.00     0.010 A 
ATOM     86  C   UNL A   1      38.930  34.482  39.350  1.00  0.00     0.020 A 
ATOM     87  C   UNL A   1      40.152  36.154  38.077  1.00  0.00     0.020 A 
ATOM     88  C   UNL A   1      39.402  35.791  39.197  1.00  0.00     0.054 A 
BRANCH  88  89
ATOM     89  S   UNL A   1      39.040  37.006  40.493  1.00  0.00     0.124 S 
ATOM     90  O   UNL A   1      38.452  38.101  39.726  1.00  0.00    -0.237 OA
ATOM     91  O   UNL A   1      38.118  36.281  41.363  1.00  0.00    -0.237 OA
ATOM     92  O   UNL A   1      40.348  37.287  41.079  1.00  0.00    -0.744 OA
ENDBRANCH  88  89
ENDBRANCH  62  83
ENDBRANCH  36  37
ENDBRANCH  29  31
ENDBRANCH  28  29
ENDBRANCH  27  28
ENDBRANCH   1  27
TORSDOF 19
ENDMDL
MODEL 3
REMARK VINA RESULT:     -10.5      5.845      7.725
REMARK SMILES C[C@H]1[C@@H](C(=O)OCCOCCOC(=O)c2ccc(-c3c4nc(c(-c5ccc(S(=O)(=O)[O-])cc5)c5ccc([nH]5)c(-c5ccc(S(=O)(=O)[O-])cc5)c5nc(c(-c6ccc(S(=O)(=O)[O-])cc6)c6ccc3[nH]6)C=C5)C=C4)cc2)CCN1S(=O)(=O)c1c[nH]c2ncccc12
REMARK SMILES IDX 10 1 9 2 8 3 7 4 6 5 4 6 5 7 3 8 1 9 2 10 77 11 75 12 76 13
REMARK SMILES IDX 78 14 79 15 80 16 81 17 82 18 89 19 83 20 84 21 88 22 85 24
REMARK SMILES IDX 87 25 86 26 11 27 12 28 13 29 14 30 15 31 16 32 74 33 17 34
REMARK SMILES IDX 73 35 18 36 19 37 20 38 67 39 21 40 72 41 66 42 68 43 22 44
REMARK SMILES IDX 71 45 65 46 64 47 23 49 53 50 34 51 52 52 35 53 38 54 51 55
REMARK SMILES IDX 69 56 36 57 37 58 50 60 70 61 39 62 24 63 25 64 33 65 26 66
REMARK SMILES IDX 32 67 27 68 28 69 29 70 30 71 31 72 54 73 55 74 63 75 56 76
REMARK SMILES IDX 62 77 57 78 58 79 59 80 60 81 61 82 40 83 41 84 49 85 42 86
REMARK SMILES IDX 48 87 43 88 44 89 45 90 46 91 47 92
REMARK H PARENT 83 23 68 48 38 59
REMARK Flexibility Score: inf
ROOT
ATOM      1  C   UNL A   1      34.063  30.711  27.657  1.00  0.00     0.202 C 
ENDROOT
BRANCH   1   2
ATOM      2  O   UNL A   1      32.814  30.117  27.310  1.00  0.00    -0.374 OA
BRANCH   2   3
ATOM      3  C   UNL A   1      32.250  30.509  26.054  1.00  0.00     0.202 C 
BRANCH   3   4
ATOM      4  C   UNL A   1      32.192  29.400  25.000  1.00  0.00     0.261 C 
BRANCH   4   5
ATOM      5  O   UNL A   1      31.274  28.370  25.423  1.00  0.00    -0.463 OA
BRANCH   5   6
ATOM      6  C   UNL A   1      31.006  27.387  24.539  1.00  0.00     0.310 C 
ATOM      7  O   UNL A   1      30.667  27.577  23.377  1.00  0.00    -0.252 OA
BRANCH   6   8
ATOM      8  C   UNL A   1      31.217  25.988  25.088  1.00  0.00     0.118 C 
ATOM      9  C   UNL A   1      33.881  26.062  24.884  1.00  0.00     0.027 C 
ATOM     10  C   UNL A   1      32.606  25.383  25.373  1.00  0.00     0.084 C 
ATOM     11  N   UNL A   1      32.599  24.006  24.775  1.00  0.00    -0.194 NA
ATOM     12  C   UNL A   1      30.492  24.962  24.208  1.00  0.00     0.034 C 
ATOM     13  C   UNL A   1      31.546  23.980  23.740  1.00  0.00     0.104 C 
BRANCH  11  14
ATOM     14  S   UNL A   1      32.565  22.680  25.842  1.00  0.00     0.245 S 
ATOM     15  O   UNL A   1      32.726  23.200  27.184  1.00  0.00    -0.207 OA
ATOM     16  O   UNL A   1      31.425  21.862  25.486  1.00  0.00    -0.207 OA
BRANCH  14  17
ATOM     17  C   UNL A   1      33.956  21.678  25.598  1.00  0.00     0.109 A 
ATOM     18  C   UNL A   1      33.925  20.339  25.237  1.00  0.00     0.106 A 
ATOM     19  C   UNL A   1      35.327  22.076  25.642  1.00  0.00     0.039 A 
ATOM     20  N   UNL A   1      35.215  19.906  25.099  1.00  0.00    -0.345 N 
ATOM     21  C   UNL A   1      36.073  20.947  25.305  1.00  0.00     0.138 A 
ATOM     22  C   UNL A   1      36.060  23.251  25.897  1.00  0.00     0.015 A 
ATOM     23  H   UNL A   1      35.484  18.984  24.883  1.00  0.00     0.168 HD
ATOM     24  N   UNL A   1      37.407  20.844  25.176  1.00  0.00    -0.239 NA
ATOM     25  C   UNL A   1      37.451  23.201  25.775  1.00  0.00     0.021 A 
ATOM     26  C   UNL A   1      38.053  22.004  25.418  1.00  0.00     0.113 A 
ENDBRANCH  14  17
ENDBRANCH  11  14
ENDBRANCH   6   8
ENDBRANCH   5   6
ENDBRANCH   4   5
ENDBRANCH   3   4
ENDBRANCH   2   3
ENDBRANCH   1   2
BRANCH   1  27
ATOM     27  C   UNL A   1      35.193  29.741  28.018  1.00  0.00     0.261 C 
BRANCH  27  28
ATOM     28  O   UNL A   1      36.246  30.413  28.726  1.00  0.00    -0.460 OA
BRANCH  28  29
ATOM     29  C   UNL A   1      36.885  29.627  29.625  1.00  0.00     0.338 C 
ATOM     30  O   UNL A   1      36.454  29.248  30.701  1.00  0.00    -0.246 OA
BRANCH  29  31
ATOM     31  C   UNL A   1      38.147  29.119  29.053  1.00  0.00     0.060 A 
ATOM     32  C   UNL A   1      39.014  28.466  29.937  1.00  0.00     0.016 A 
ATOM     33  C   UNL A   1      38.515  29.331  27.721  1.00  0.00     0.016 A 
ATOM     34  C   UNL A   1      40.292  28.118  29.523  1.00  0.00     0.010 A 
ATOM     35  C   UNL A   1      39.802  28.971  27.303  1.00  0.00     0.010 A 
ATOM     36  C   UNL A   1      40.714  28.423  28.222  1.00  0.00    -0.014 A 
BRANCH  36  37
ATOM     37  C   UNL A   1      42.164  28.340  27.919  1.00  0.00     0.031 A 
ATOM     38  C   UNL A   1      43.053  29.495  28.306  1.00  0.00     0.074 A 
ATOM     39  C   UNL A   1      42.694  27.214  27.411  1.00  0.00     0.049 A 
ATOM     40  N   UNL A   1      44.354  29.598  28.233  1.00  0.00    -0.248 NA
ATOM     41  C   UNL A   1      42.386  30.690  28.850  1.00  0.00     0.031 C 
ATOM     42  C   UNL A   1      41.937  26.018  27.038  1.00  0.00     0.029 A 
ATOM     43  N   UNL A   1      43.997  26.884  27.143  1.00  0.00    -0.354 N 
ATOM     44  C   UNL A   1      44.661  30.864  28.718  1.00  0.00     0.074 A 
ATOM     45  C   UNL A   1      43.409  31.510  29.042  1.00  0.00     0.031 C 
ATOM     46  C   UNL A   1      42.794  25.078  26.604  1.00  0.00     0.029 A 
ATOM     47  C   UNL A   1      44.153  25.614  26.644  1.00  0.00     0.049 A 
ATOM     48  H   UNL A   1      44.751  27.500  27.294  1.00  0.00     0.167 HD
ATOM     49  C   UNL A   1      45.877  31.435  28.894  1.00  0.00     0.031 A 
ATOM     50  C   UNL A   1      45.267  24.959  26.262  1.00  0.00     0.031 A 
ATOM     51  C   UNL A   1      47.120  30.791  28.563  1.00  0.00     0.049 A 
ATOM     52  C   UNL A   1      46.604  25.635  26.415  1.00  0.00     0.074 A 
ATOM     53  C   UNL A   1      48.407  31.277  28.713  1.00  0.00     0.029 A 
ATOM     54  N   UNL A   1      47.232  29.524  28.011  1.00  0.00    -0.354 N 
ATOM     55  N   UNL A   1      46.878  26.823  26.901  1.00  0.00    -0.248 NA
ATOM     56  C   UNL A   1      47.783  24.872  25.984  1.00  0.00     0.031 C 
ATOM     57  C   UNL A   1      49.293  30.327  28.194  1.00  0.00     0.029 A 
ATOM     58  C   UNL A   1      48.564  29.220  27.788  1.00  0.00     0.049 A 
ATOM     59  H   UNL A   1      46.476  28.928  27.807  1.00  0.00     0.167 HD
ATOM     60  C   UNL A   1      48.264  26.938  26.862  1.00  0.00     0.074 A 
ATOM     61  C   UNL A   1      48.770  25.691  26.322  1.00  0.00     0.031 C 
ATOM     62  C   UNL A   1      49.049  27.978  27.241  1.00  0.00     0.031 A 
BRANCH  49  63
ATOM     63  C   UNL A   1      45.915  32.841  29.437  1.00  0.00    -0.014 A 
ATOM     64  C   UNL A   1      45.853  33.959  28.584  1.00  0.00     0.010 A 
ATOM     65  C   UNL A   1      45.986  33.047  30.827  1.00  0.00     0.010 A 
ATOM     66  C   UNL A   1      45.898  35.254  29.110  1.00  0.00     0.020 A 
ATOM     67  C   UNL A   1      46.001  34.340  31.358  1.00  0.00     0.020 A 
ATOM     68  C   UNL A   1      45.974  35.436  30.494  1.00  0.00     0.054 A 
BRANCH  68  69
ATOM     69  S   UNL A   1      46.009  37.127  31.149  1.00  0.00     0.124 S 
ATOM     70  O   UNL A   1      47.043  37.030  32.178  1.00  0.00    -0.237 OA
ATOM     71  O   UNL A   1      46.365  37.918  29.974  1.00  0.00    -0.237 OA
ATOM     72  O   UNL A   1      44.652  37.334  31.649  1.00  0.00    -0.744 OA
ENDBRANCH  68  69
ENDBRANCH  49  63
BRANCH  50  73
ATOM     73  C   UNL A   1      45.162  23.585  25.696  1.00  0.00    -0.014 A 
ATOM     74  C   UNL A   1      45.008  23.381  24.313  1.00  0.00     0.010 A 
ATOM     75  C   UNL A   1      45.218  22.467  26.548  1.00  0.00     0.010 A 
ATOM     76  C   UNL A   1      44.896  22.087  23.796  1.00  0.00     0.020 A 
ATOM     77  C   UNL A   1      45.138  21.171  26.032  1.00  0.00     0.020 A 
ATOM     78  C   UNL A   1      44.965  20.990  24.660  1.00  0.00     0.054 A 
BRANCH  78  79
ATOM     79  S   UNL A   1      44.871  19.317  23.963  1.00  0.00     0.124 S 
ATOM     80  O   UNL A   1      43.945  18.658  24.878  1.00  0.00    -0.237 OA
ATOM     81  O   UNL A   1      44.362  19.567  22.616  1.00  0.00    -0.237 OA
ATOM     82  O   UNL A   1      46.252  18.845  24.020  1.00  0.00    -0.744 OA
ENDBRANCH  78  79
ENDBRANCH  50  73
BRANCH  62  83
ATOM     83  C   UNL A   1      50.541  27.796  27.120  1.00  0.00    -0.014 A 
ATOM     84  C   UNL A   1      51.237  28.186  25.962  1.00  0.00     0.010 A 
ATOM     85  C   UNL A   1      51.259  27.250  28.199  1.00  0.00     0.010 A 
ATOM     86  C   UNL A   1      52.616  27.983  25.864  1.00  0.00     0.020 A 
ATOM     87  C   UNL A   1      52.643  27.077  28.119  1.00  0.00     0.020 A 
ATOM     88  C   UNL A   1      53.310  27.424  26.943  1.00  0.00     0.054 A 
BRANCH  88  89
ATOM     89  S   UNL A   1      55.100  27.178  26.796  1.00  0.00     0.124 S 
ATOM     90  O   UNL A   1      55.376  27.736  25.475  1.00  0.00    -0.237 OA
ATOM     91  O   UNL A   1      55.623  27.944  27.925  1.00  0.00    -0.237 OA
ATOM     92  O   UNL A   1      55.261  25.730  26.906  1.00  0.00    -0.744 OA
ENDBRANCH  88  89
ENDBRANCH  62  83
ENDBRANCH  36  37
ENDBRANCH  29  31
ENDBRANCH  28  29
ENDBRANCH  27  28
ENDBRANCH   1  27
TORSDOF 19
ENDMDL
