MODEL 1
REMARK VINA RESULT:     -10.9      0.000      0.000
REMARK SMILES Cc1coc2c(C)c3oc(=O)c(CC(=O)NCC(=O)N[C@H](C(=O)OCCOCCOC(=O)c4ccc(-c5c6nc(c(-c7ccc(S(=O)(=O)[O-])cc7)c7ccc([nH]7)c(-c7ccc(S(=O)(=O)[O-])cc7)c7nc(c(-c8ccc(S(=O)(=O)[O-])cc8)c8ccc5[nH]8)C=C7)C=C6)cc4)C(C)C)c(C)c3cc12
REMARK SMILES IDX 26 1 25 2 24 3 22 4 23 5 21 6 20 7 18 8 19 9 17 11 16 12
REMARK SMILES IDX 14 13 15 14 13 16 12 17 1 18 2 19 3 20 100 21 4 22 5 23
REMARK SMILES IDX 99 24 6 25 98 26 7 27 8 28 96 29 9 30 97 31 10 32 11 33
REMARK SMILES IDX 93 34 94 35 95 36 27 37 28 38 29 39 30 40 31 41 32 42 33 43
REMARK SMILES IDX 34 44 92 45 35 46 91 47 36 48 37 49 38 50 85 51 39 52 90 53
REMARK SMILES IDX 84 54 86 55 40 56 89 57 83 58 82 59 41 61 71 62 52 63 70 64
REMARK SMILES IDX 53 65 56 66 69 67 87 68 54 69 55 70 68 72 88 73 57 74 42 75
REMARK SMILES IDX 43 76 51 77 44 78 50 79 45 80 46 81 47 82 48 83 49 84 72 85
REMARK SMILES IDX 73 86 81 87 74 88 80 89 75 90 76 91 77 92 78 93 79 94 58 95
REMARK SMILES IDX 59 96 67 97 60 98 66 99 61 100 62 101 63 102 64 103 65 104
REMARK H PARENT 20 10 16 15 86 60 56 71
REMARK Flexibility Score: inf
ROOT
ATOM      1  C   UNL A   1      31.709  30.687  26.850  1.00  0.00     0.202 C 
ENDROOT
BRANCH   1   2
ATOM      2  C   UNL A   1      31.803  29.934  25.518  1.00  0.00     0.261 C 
BRANCH   2   3
ATOM      3  O   UNL A   1      31.963  28.529  25.797  1.00  0.00    -0.462 OA
BRANCH   3   4
ATOM      4  C   UNL A   1      32.900  27.810  25.139  1.00  0.00     0.328 C 
ATOM      5  O   UNL A   1      34.082  28.126  25.064  1.00  0.00    -0.250 OA
BRANCH   4   6
ATOM      6  C   UNL A   1      32.316  26.469  24.579  1.00  0.00     0.194 C 
BRANCH   6   7
ATOM      7  N   UNL A   1      31.047  26.278  25.329  1.00  0.00    -0.341 N 
ATOM      8  C   UNL A   1      30.390  25.225  25.880  1.00  0.00     0.240 C 
ATOM      9  O   UNL A   1      29.269  25.470  26.343  1.00  0.00    -0.273 OA
ATOM     10  H   UNL A   1      30.564  27.124  25.459  1.00  0.00     0.164 HD
BRANCH   8  11
ATOM     11  C   UNL A   1      30.964  23.798  25.978  1.00  0.00     0.216 C 
BRANCH  11  12
ATOM     12  N   UNL A   1      31.359  23.157  24.737  1.00  0.00    -0.347 N 
ATOM     13  C   UNL A   1      32.322  22.238  24.448  1.00  0.00     0.225 C 
ATOM     14  O   UNL A   1      32.453  21.928  23.259  1.00  0.00    -0.275 OA
ATOM     15  H   UNL A   1      30.832  23.440  23.956  1.00  0.00     0.164 HD
BRANCH  13  16
ATOM     16  C   UNL A   1      33.214  21.569  25.505  1.00  0.00     0.143 C 
BRANCH  16  17
ATOM     17  C   UNL A   1      34.720  21.814  25.485  1.00  0.00     0.051 A 
ATOM     18  C   UNL A   1      39.891  25.801  28.299  1.00  0.00     0.048 C 
ATOM     19  C   UNL A   1      40.007  24.522  27.554  1.00  0.00    -0.005 A 
ATOM     20  C   UNL A   1      41.115  23.697  27.589  1.00  0.00     0.199 A 
ATOM     21  C   UNL A   1      39.020  23.820  26.773  1.00  0.00     0.024 A 
ATOM     22  O   UNL A   1      40.854  22.514  26.993  1.00  0.00    -0.464 OA
ATOM     23  C   UNL A   1      39.573  22.567  26.542  1.00  0.00     0.140 A 
ATOM     24  C   UNL A   1      37.679  24.043  26.339  1.00  0.00     0.024 A 
ATOM     25  C   UNL A   1      38.892  21.485  25.988  1.00  0.00     0.036 A 
ATOM     26  C   UNL A   1      36.890  22.968  25.843  1.00  0.00     0.022 A 
ATOM     27  C   UNL A   1      39.519  20.128  25.919  1.00  0.00     0.052 C 
ATOM     28  C   UNL A   1      37.547  21.744  25.653  1.00  0.00     0.145 A 
ATOM     29  C   UNL A   1      35.383  22.974  25.741  1.00  0.00    -0.029 A 
ATOM     30  O   UNL A   1      36.837  20.632  25.163  1.00  0.00    -0.422 OA
ATOM     31  C   UNL A   1      34.629  24.253  26.042  1.00  0.00     0.046 C 
ATOM     32  C   UNL A   1      35.471  20.620  25.012  1.00  0.00     0.340 A 
ATOM     33  O   UNL A   1      34.910  19.629  24.557  1.00  0.00    -0.246 OA
ENDBRANCH  16  17
ENDBRANCH  13  16
ENDBRANCH  11  12
ENDBRANCH   8  11
ENDBRANCH   6   7
BRANCH   6  34
ATOM     34  C   UNL A   1      32.035  26.541  23.042  1.00  0.00     0.017 C 
ATOM     35  C   UNL A   1      32.990  25.767  22.130  1.00  0.00     0.010 C 
ATOM     36  C   UNL A   1      30.632  26.123  22.667  1.00  0.00     0.010 C 
ENDBRANCH   6  34
ENDBRANCH   4   6
ENDBRANCH   3   4
ENDBRANCH   2   3
ENDBRANCH   1   2
BRANCH   1  37
ATOM     37  O   UNL A   1      31.696  32.111  26.732  1.00  0.00    -0.374 OA
BRANCH  37  38
ATOM     38  C   UNL A   1      32.260  32.866  27.796  1.00  0.00     0.202 C 
BRANCH  38  39
ATOM     39  C   UNL A   1      33.751  33.184  27.684  1.00  0.00     0.261 C 
BRANCH  39  40
ATOM     40  O   UNL A   1      34.584  32.304  28.437  1.00  0.00    -0.460 OA
BRANCH  40  41
ATOM     41  C   UNL A   1      35.118  31.256  27.772  1.00  0.00     0.338 C 
ATOM     42  O   UNL A   1      34.675  30.718  26.784  1.00  0.00    -0.246 OA
BRANCH  41  43
ATOM     43  C   UNL A   1      36.267  30.768  28.558  1.00  0.00     0.060 A 
ATOM     44  C   UNL A   1      37.236  31.701  28.919  1.00  0.00     0.016 A 
ATOM     45  C   UNL A   1      36.494  29.390  28.703  1.00  0.00     0.016 A 
ATOM     46  C   UNL A   1      38.502  31.240  29.221  1.00  0.00     0.010 A 
ATOM     47  C   UNL A   1      37.732  28.928  29.062  1.00  0.00     0.010 A 
ATOM     48  C   UNL A   1      38.746  29.860  29.197  1.00  0.00    -0.014 A 
BRANCH  48  49
ATOM     49  C   UNL A   1      40.100  29.384  29.373  1.00  0.00     0.031 A 
ATOM     50  C   UNL A   1      40.400  29.085  30.786  1.00  0.00     0.074 A 
ATOM     51  C   UNL A   1      40.924  29.160  28.329  1.00  0.00     0.049 A 
ATOM     52  N   UNL A   1      41.125  29.788  31.589  1.00  0.00    -0.248 NA
ATOM     53  C   UNL A   1      39.616  28.027  31.450  1.00  0.00     0.031 C 
ATOM     54  C   UNL A   1      40.609  29.188  26.895  1.00  0.00     0.029 A 
ATOM     55  N   UNL A   1      42.220  28.757  28.336  1.00  0.00    -0.354 N 
ATOM     56  C   UNL A   1      41.103  29.100  32.793  1.00  0.00     0.074 A 
ATOM     57  C   UNL A   1      39.991  28.187  32.719  1.00  0.00     0.031 C 
ATOM     58  C   UNL A   1      41.605  28.587  26.203  1.00  0.00     0.029 A 
ATOM     59  C   UNL A   1      42.687  28.267  27.119  1.00  0.00     0.049 A 
ATOM     60  H   UNL A   1      42.786  28.808  29.139  1.00  0.00     0.167 HD
ATOM     61  C   UNL A   1      42.185  29.107  33.617  1.00  0.00     0.031 A 
ATOM     62  C   UNL A   1      43.856  27.605  26.909  1.00  0.00     0.031 A 
ATOM     63  C   UNL A   1      43.100  30.167  33.275  1.00  0.00     0.049 A 
ATOM     64  C   UNL A   1      44.739  27.939  28.055  1.00  0.00     0.074 A 
ATOM     65  C   UNL A   1      43.024  31.543  33.239  1.00  0.00     0.029 A 
ATOM     66  N   UNL A   1      44.176  29.815  32.493  1.00  0.00    -0.354 N 
ATOM     67  N   UNL A   1      45.187  29.143  28.284  1.00  0.00    -0.248 NA
ATOM     68  C   UNL A   1      44.721  27.050  29.207  1.00  0.00     0.031 C 
ATOM     69  C   UNL A   1      43.786  31.927  32.098  1.00  0.00     0.029 A 
ATOM     70  C   UNL A   1      44.351  30.780  31.536  1.00  0.00     0.049 A 
ATOM     71  H   UNL A   1      44.728  29.008  32.603  1.00  0.00     0.167 HD
ATOM     72  C   UNL A   1      45.093  29.300  29.661  1.00  0.00     0.074 A 
ATOM     73  C   UNL A   1      44.886  27.950  30.182  1.00  0.00     0.031 C 
ATOM     74  C   UNL A   1      44.904  30.533  30.217  1.00  0.00     0.031 A 
BRANCH  61  75
ATOM     75  C   UNL A   1      42.618  27.892  34.395  1.00  0.00    -0.014 A 
ATOM     76  C   UNL A   1      42.744  27.998  35.794  1.00  0.00     0.010 A 
ATOM     77  C   UNL A   1      43.169  26.744  33.787  1.00  0.00     0.010 A 
ATOM     78  C   UNL A   1      43.435  27.031  36.533  1.00  0.00     0.020 A 
ATOM     79  C   UNL A   1      43.821  25.753  34.519  1.00  0.00     0.020 A 
ATOM     80  C   UNL A   1      43.974  25.917  35.886  1.00  0.00     0.054 A 
BRANCH  80  81
ATOM     81  S   UNL A   1      44.927  24.714  36.840  1.00  0.00     0.124 S 
ATOM     82  O   UNL A   1      44.528  25.029  38.207  1.00  0.00    -0.237 OA
ATOM     83  O   UNL A   1      44.434  23.446  36.309  1.00  0.00    -0.237 OA
ATOM     84  O   UNL A   1      46.313  25.029  36.500  1.00  0.00    -0.744 OA
ENDBRANCH  80  81
ENDBRANCH  61  75
BRANCH  62  85
ATOM     85  C   UNL A   1      44.108  26.433  26.021  1.00  0.00    -0.014 A 
ATOM     86  C   UNL A   1      45.379  25.822  25.964  1.00  0.00     0.010 A 
ATOM     87  C   UNL A   1      43.029  25.728  25.451  1.00  0.00     0.010 A 
ATOM     88  C   UNL A   1      45.547  24.532  25.425  1.00  0.00     0.020 A 
ATOM     89  C   UNL A   1      43.188  24.445  24.907  1.00  0.00     0.020 A 
ATOM     90  C   UNL A   1      44.443  23.840  24.921  1.00  0.00     0.054 A 
BRANCH  90  91
ATOM     91  S   UNL A   1      44.629  22.107  24.395  1.00  0.00     0.124 S 
ATOM     92  O   UNL A   1      43.527  21.448  25.090  1.00  0.00    -0.237 OA
ATOM     93  O   UNL A   1      44.493  22.202  22.944  1.00  0.00    -0.237 OA
ATOM     94  O   UNL A   1      45.965  21.744  24.866  1.00  0.00    -0.744 OA
ENDBRANCH  90  91
ENDBRANCH  62  85
BRANCH  74  95
ATOM     95  C   UNL A   1      45.081  31.758  29.344  1.00  0.00    -0.014 A 
ATOM     96  C   UNL A   1      46.319  32.175  28.814  1.00  0.00     0.010 A 
ATOM     97  C   UNL A   1      43.909  32.378  28.877  1.00  0.00     0.010 A 
ATOM     98  C   UNL A   1      46.375  33.180  27.832  1.00  0.00     0.020 A 
ATOM     99  C   UNL A   1      43.957  33.364  27.890  1.00  0.00     0.020 A 
ATOM    100  C   UNL A   1      45.188  33.758  27.367  1.00  0.00     0.054 A 
BRANCH 100 101
ATOM    101  S   UNL A   1      45.249  34.980  26.024  1.00  0.00     0.124 S 
ATOM    102  O   UNL A   1      46.468  35.726  26.324  1.00  0.00    -0.237 OA
ATOM    103  O   UNL A   1      45.302  34.142  24.827  1.00  0.00    -0.237 OA
ATOM    104  O   UNL A   1      44.007  35.736  26.184  1.00  0.00    -0.744 OA
ENDBRANCH 100 101
ENDBRANCH  74  95
ENDBRANCH  48  49
ENDBRANCH  41  43
ENDBRANCH  40  41
ENDBRANCH  39  40
ENDBRANCH  38  39
ENDBRANCH  37  38
ENDBRANCH   1  37
TORSDOF 23
ENDMDL
MODEL 2
REMARK VINA RESULT:     -10.6      2.930      9.258
REMARK SMILES Cc1coc2c(C)c3oc(=O)c(CC(=O)NCC(=O)N[C@H](C(=O)OCCOCCOC(=O)c4ccc(-c5c6nc(c(-c7ccc(S(=O)(=O)[O-])cc7)c7ccc([nH]7)c(-c7ccc(S(=O)(=O)[O-])cc7)c7nc(c(-c8ccc(S(=O)(=O)[O-])cc8)c8ccc5[nH]8)C=C7)C=C6)cc4)C(C)C)c(C)c3cc12
REMARK SMILES IDX 26 1 25 2 24 3 22 4 23 5 21 6 20 7 18 8 19 9 17 11 16 12
REMARK SMILES IDX 14 13 15 14 13 16 12 17 1 18 2 19 3 20 100 21 4 22 5 23
REMARK SMILES IDX 99 24 6 25 98 26 7 27 8 28 96 29 9 30 97 31 10 32 11 33
REMARK SMILES IDX 93 34 94 35 95 36 27 37 28 38 29 39 30 40 31 41 32 42 33 43
REMARK SMILES IDX 34 44 92 45 35 46 91 47 36 48 37 49 38 50 85 51 39 52 90 53
REMARK SMILES IDX 84 54 86 55 40 56 89 57 83 58 82 59 41 61 71 62 52 63 70 64
REMARK SMILES IDX 53 65 56 66 69 67 87 68 54 69 55 70 68 72 88 73 57 74 42 75
REMARK SMILES IDX 43 76 51 77 44 78 50 79 45 80 46 81 47 82 48 83 49 84 72 85
REMARK SMILES IDX 73 86 81 87 74 88 80 89 75 90 76 91 77 92 78 93 79 94 58 95
REMARK SMILES IDX 59 96 67 97 60 98 66 99 61 100 62 101 63 102 64 103 65 104
REMARK H PARENT 20 10 16 15 86 60 56 71
REMARK Flexibility Score: inf
ROOT
ATOM      1  C   UNL A   1      36.970  22.508  24.851  1.00  0.00     0.202 C 
ENDROOT
BRANCH   1   2
ATOM      2  C   UNL A   1      35.699  23.030  24.171  1.00  0.00     0.261 C 
BRANCH   2   3
ATOM      3  O   UNL A   1      34.958  21.904  23.659  1.00  0.00    -0.462 OA
BRANCH   3   4
ATOM      4  C   UNL A   1      33.614  21.858  23.798  1.00  0.00     0.328 C 
ATOM      5  O   UNL A   1      32.829  22.504  23.113  1.00  0.00    -0.250 OA
BRANCH   4   6
ATOM      6  C   UNL A   1      33.177  20.797  24.864  1.00  0.00     0.194 C 
BRANCH   6   7
ATOM      7  N   UNL A   1      31.822  21.238  25.288  1.00  0.00    -0.341 N 
ATOM      8  C   UNL A   1      31.318  22.035  26.265  1.00  0.00     0.240 C 
ATOM      9  O   UNL A   1      30.084  22.066  26.355  1.00  0.00    -0.273 OA
ATOM     10  H   UNL A   1      31.115  20.857  24.720  1.00  0.00     0.164 HD
BRANCH   8  11
ATOM     11  C   UNL A   1      32.177  22.894  27.215  1.00  0.00     0.216 C 
BRANCH  11  12
ATOM     12  N   UNL A   1      33.079  23.853  26.605  1.00  0.00    -0.347 N 
ATOM     13  C   UNL A   1      32.906  25.143  26.203  1.00  0.00     0.225 C 
ATOM     14  O   UNL A   1      33.871  25.685  25.654  1.00  0.00    -0.275 OA
ATOM     15  H   UNL A   1      33.987  23.507  26.455  1.00  0.00     0.164 HD
BRANCH  13  16
ATOM     16  C   UNL A   1      31.611  25.942  26.413  1.00  0.00     0.143 C 
BRANCH  16  17
ATOM     17  C   UNL A   1      31.457  27.313  25.761  1.00  0.00     0.051 A 
ATOM     18  C   UNL A   1      27.802  30.910  20.835  1.00  0.00     0.048 C 
ATOM     19  C   UNL A   1      28.637  31.440  21.942  1.00  0.00    -0.005 A 
ATOM     20  C   UNL A   1      28.558  32.732  22.427  1.00  0.00     0.199 A 
ATOM     21  C   UNL A   1      29.571  30.755  22.799  1.00  0.00     0.024 A 
ATOM     22  O   UNL A   1      29.277  32.864  23.563  1.00  0.00    -0.464 OA
ATOM     23  C   UNL A   1      29.850  31.658  23.817  1.00  0.00     0.140 A 
ATOM     24  C   UNL A   1      30.118  29.442  22.909  1.00  0.00     0.024 A 
ATOM     25  C   UNL A   1      30.559  31.357  24.977  1.00  0.00     0.036 A 
ATOM     26  C   UNL A   1      30.782  29.032  24.099  1.00  0.00     0.022 A 
ATOM     27  C   UNL A   1      30.679  32.347  26.092  1.00  0.00     0.052 C 
ATOM     28  C   UNL A   1      31.007  30.022  25.065  1.00  0.00     0.145 A 
ATOM     29  C   UNL A   1      31.036  27.597  24.498  1.00  0.00    -0.029 A 
ATOM     30  O   UNL A   1      31.659  29.697  26.269  1.00  0.00    -0.422 OA
ATOM     31  C   UNL A   1      30.707  26.489  23.519  1.00  0.00     0.046 C 
ATOM     32  C   UNL A   1      31.949  28.406  26.641  1.00  0.00     0.340 A 
ATOM     33  O   UNL A   1      32.542  28.187  27.692  1.00  0.00    -0.246 OA
ENDBRANCH  16  17
ENDBRANCH  13  16
ENDBRANCH  11  12
ENDBRANCH   8  11
ENDBRANCH   6   7
BRANCH   6  34
ATOM     34  C   UNL A   1      33.119  19.351  24.272  1.00  0.00     0.017 C 
ATOM     35  C   UNL A   1      32.731  18.226  25.236  1.00  0.00     0.010 C 
ATOM     36  C   UNL A   1      32.215  19.230  23.067  1.00  0.00     0.010 C 
ENDBRANCH   6  34
ENDBRANCH   4   6
ENDBRANCH   3   4
ENDBRANCH   2   3
ENDBRANCH   1   2
BRANCH   1  37
ATOM     37  O   UNL A   1      36.799  21.295  25.585  1.00  0.00    -0.374 OA
BRANCH  37  38
ATOM     38  C   UNL A   1      37.147  20.078  24.939  1.00  0.00     0.202 C 
BRANCH  38  39
ATOM     39  C   UNL A   1      38.460  19.430  25.377  1.00  0.00     0.261 C 
BRANCH  39  40
ATOM     40  O   UNL A   1      39.517  20.363  25.595  1.00  0.00    -0.460 OA
BRANCH  40  41
ATOM     41  C   UNL A   1      40.742  19.846  25.838  1.00  0.00     0.338 C 
ATOM     42  O   UNL A   1      41.140  18.744  25.541  1.00  0.00    -0.246 OA
BRANCH  41  43
ATOM     43  C   UNL A   1      41.472  20.810  26.683  1.00  0.00     0.060 A 
ATOM     44  C   UNL A   1      41.029  20.975  27.993  1.00  0.00     0.016 A 
ATOM     45  C   UNL A   1      42.396  21.699  26.110  1.00  0.00     0.016 A 
ATOM     46  C   UNL A   1      41.350  22.149  28.645  1.00  0.00     0.010 A 
ATOM     47  C   UNL A   1      42.767  22.835  26.778  1.00  0.00     0.010 A 
ATOM     48  C   UNL A   1      42.142  23.098  27.985  1.00  0.00    -0.014 A 
BRANCH  48  49
ATOM     49  C   UNL A   1      42.361  24.384  28.608  1.00  0.00     0.031 A 
ATOM     50  C   UNL A   1      41.315  25.359  28.245  1.00  0.00     0.074 A 
ATOM     51  C   UNL A   1      43.362  24.594  29.488  1.00  0.00     0.049 A 
ATOM     52  N   UNL A   1      41.430  26.349  27.427  1.00  0.00    -0.248 NA
ATOM     53  C   UNL A   1      39.927  25.061  28.643  1.00  0.00     0.031 C 
ATOM     54  C   UNL A   1      44.273  23.611  30.086  1.00  0.00     0.029 A 
ATOM     55  N   UNL A   1      43.717  25.743  30.118  1.00  0.00    -0.354 N 
ATOM     56  C   UNL A   1      40.185  26.960  27.420  1.00  0.00     0.074 A 
ATOM     57  C   UNL A   1      39.261  26.006  27.978  1.00  0.00     0.031 C 
ATOM     58  C   UNL A   1      44.895  24.164  31.154  1.00  0.00     0.029 A 
ATOM     59  C   UNL A   1      44.543  25.572  31.225  1.00  0.00     0.049 A 
ATOM     60  H   UNL A   1      43.415  26.629  29.813  1.00  0.00     0.167 HD
ATOM     61  C   UNL A   1      40.073  28.306  27.261  1.00  0.00     0.031 A 
ATOM     62  C   UNL A   1      44.861  26.517  32.151  1.00  0.00     0.031 A 
ATOM     63  C   UNL A   1      41.288  28.877  26.736  1.00  0.00     0.049 A 
ATOM     64  C   UNL A   1      44.601  27.832  31.513  1.00  0.00     0.074 A 
ATOM     65  C   UNL A   1      42.011  28.722  25.572  1.00  0.00     0.029 A 
ATOM     66  N   UNL A   1      42.143  29.442  27.654  1.00  0.00    -0.354 N 
ATOM     67  N   UNL A   1      45.274  28.272  30.485  1.00  0.00    -0.248 NA
ATOM     68  C   UNL A   1      43.290  28.431  31.704  1.00  0.00     0.031 C 
ATOM     69  C   UNL A   1      43.377  28.800  25.970  1.00  0.00     0.029 A 
ATOM     70  C   UNL A   1      43.424  29.070  27.340  1.00  0.00     0.049 A 
ATOM     71  H   UNL A   1      41.879  30.016  28.408  1.00  0.00     0.167 HD
ATOM     72  C   UNL A   1      44.322  28.863  29.666  1.00  0.00     0.074 A 
ATOM     73  C   UNL A   1      43.136  29.011  30.509  1.00  0.00     0.031 C 
ATOM     74  C   UNL A   1      44.491  28.911  28.311  1.00  0.00     0.031 A 
BRANCH  61  75
ATOM     75  C   UNL A   1      39.057  29.129  28.009  1.00  0.00    -0.014 A 
ATOM     76  C   UNL A   1      37.979  29.684  27.293  1.00  0.00     0.010 A 
ATOM     77  C   UNL A   1      39.269  29.607  29.321  1.00  0.00     0.010 A 
ATOM     78  C   UNL A   1      37.192  30.702  27.844  1.00  0.00     0.020 A 
ATOM     79  C   UNL A   1      38.464  30.589  29.895  1.00  0.00     0.020 A 
ATOM     80  C   UNL A   1      37.446  31.151  29.141  1.00  0.00     0.054 A 
BRANCH  80  81
ATOM     81  S   UNL A   1      36.471  32.516  29.813  1.00  0.00     0.124 S 
ATOM     82  O   UNL A   1      36.375  33.411  28.666  1.00  0.00    -0.237 OA
ATOM     83  O   UNL A   1      35.235  31.843  30.202  1.00  0.00    -0.237 OA
ATOM     84  O   UNL A   1      37.286  33.002  30.925  1.00  0.00    -0.744 OA
ENDBRANCH  80  81
ENDBRANCH  61  75
BRANCH  62  85
ATOM     85  C   UNL A   1      44.992  26.356  33.628  1.00  0.00    -0.014 A 
ATOM     86  C   UNL A   1      45.820  27.214  34.383  1.00  0.00     0.010 A 
ATOM     87  C   UNL A   1      44.079  25.551  34.340  1.00  0.00     0.010 A 
ATOM     88  C   UNL A   1      45.687  27.314  35.782  1.00  0.00     0.020 A 
ATOM     89  C   UNL A   1      43.945  25.641  35.733  1.00  0.00     0.020 A 
ATOM     90  C   UNL A   1      44.731  26.543  36.447  1.00  0.00     0.054 A 
BRANCH  90  91
ATOM     91  S   UNL A   1      44.438  26.806  38.224  1.00  0.00     0.124 S 
ATOM     92  O   UNL A   1      45.456  25.958  38.838  1.00  0.00    -0.237 OA
ATOM     93  O   UNL A   1      44.643  28.244  38.369  1.00  0.00    -0.237 OA
ATOM     94  O   UNL A   1      43.059  26.357  38.416  1.00  0.00    -0.744 OA
ENDBRANCH  90  91
ENDBRANCH  62  85
BRANCH  74  95
ATOM     95  C   UNL A   1      45.850  28.570  27.737  1.00  0.00    -0.014 A 
ATOM     96  C   UNL A   1      46.208  27.288  27.269  1.00  0.00     0.010 A 
ATOM     97  C   UNL A   1      46.714  29.646  27.470  1.00  0.00     0.010 A 
ATOM     98  C   UNL A   1      47.396  27.099  26.542  1.00  0.00     0.020 A 
ATOM     99  C   UNL A   1      47.887  29.467  26.734  1.00  0.00     0.020 A 
ATOM    100  C   UNL A   1      48.222  28.195  26.269  1.00  0.00     0.054 A 
BRANCH 100 101
ATOM    101  S   UNL A   1      49.703  27.972  25.241  1.00  0.00     0.124 S 
ATOM    102  O   UNL A   1      50.281  26.741  25.774  1.00  0.00    -0.237 OA
ATOM    103  O   UNL A   1      49.149  27.875  23.892  1.00  0.00    -0.237 OA
ATOM    104  O   UNL A   1      50.487  29.182  25.492  1.00  0.00    -0.744 OA
ENDBRANCH 100 101
ENDBRANCH  74  95
ENDBRANCH  48  49
ENDBRANCH  41  43
ENDBRANCH  40  41
ENDBRANCH  39  40
ENDBRANCH  38  39
ENDBRANCH  37  38
ENDBRANCH   1  37
TORSDOF 23
ENDMDL
MODEL 3
REMARK VINA RESULT:     -10.1      1.570      2.034
REMARK SMILES Cc1coc2c(C)c3oc(=O)c(CC(=O)NCC(=O)N[C@H](C(=O)OCCOCCOC(=O)c4ccc(-c5c6nc(c(-c7ccc(S(=O)(=O)[O-])cc7)c7ccc([nH]7)c(-c7ccc(S(=O)(=O)[O-])cc7)c7nc(c(-c8ccc(S(=O)(=O)[O-])cc8)c8ccc5[nH]8)C=C7)C=C6)cc4)C(C)C)c(C)c3cc12
REMARK SMILES IDX 26 1 25 2 24 3 22 4 23 5 21 6 20 7 18 8 19 9 17 11 16 12
REMARK SMILES IDX 14 13 15 14 13 16 12 17 1 18 2 19 3 20 100 21 4 22 5 23
REMARK SMILES IDX 99 24 6 25 98 26 7 27 8 28 96 29 9 30 97 31 10 32 11 33
REMARK SMILES IDX 93 34 94 35 95 36 27 37 28 38 29 39 30 40 31 41 32 42 33 43
REMARK SMILES IDX 34 44 92 45 35 46 91 47 36 48 37 49 38 50 85 51 39 52 90 53
REMARK SMILES IDX 84 54 86 55 40 56 89 57 83 58 82 59 41 61 71 62 52 63 70 64
REMARK SMILES IDX 53 65 56 66 69 67 87 68 54 69 55 70 68 72 88 73 57 74 42 75
REMARK SMILES IDX 43 76 51 77 44 78 50 79 45 80 46 81 47 82 48 83 49 84 72 85
REMARK SMILES IDX 73 86 81 87 74 88 80 89 75 90 76 91 77 92 78 93 79 94 58 95
REMARK SMILES IDX 59 96 67 97 60 98 66 99 61 100 62 101 63 102 64 103 65 104
REMARK H PARENT 20 10 16 15 86 60 56 71
REMARK Flexibility Score: inf
ROOT
ATOM      1  C   UNL A   1      34.114  28.972  26.122  1.00  0.00     0.202 C 
ENDROOT
BRANCH   1   2
ATOM      2  C   UNL A   1      33.332  27.658  26.026  1.00  0.00     0.261 C 
BRANCH   2   3
ATOM      3  O   UNL A   1      32.096  27.910  25.327  1.00  0.00    -0.462 OA
BRANCH   3   4
ATOM      4  C   UNL A   1      31.892  27.382  24.099  1.00  0.00     0.328 C 
ATOM      5  O   UNL A   1      32.786  26.955  23.377  1.00  0.00    -0.250 OA
BRANCH   4   6
ATOM      6  C   UNL A   1      30.367  27.279  23.758  1.00  0.00     0.194 C 
BRANCH   6   7
ATOM      7  N   UNL A   1      29.737  26.817  25.022  1.00  0.00    -0.341 N 
ATOM      8  C   UNL A   1      29.757  25.678  25.761  1.00  0.00     0.240 C 
ATOM      9  O   UNL A   1      28.987  25.648  26.729  1.00  0.00    -0.273 OA
ATOM     10  H   UNL A   1      29.163  27.508  25.423  1.00  0.00     0.164 HD
BRANCH   8  11
ATOM     11  C   UNL A   1      30.679  24.475  25.479  1.00  0.00     0.216 C 
BRANCH  11  12
ATOM     12  N   UNL A   1      31.177  23.740  26.626  1.00  0.00    -0.347 N 
ATOM     13  C   UNL A   1      31.929  22.608  26.732  1.00  0.00     0.225 C 
ATOM     14  O   UNL A   1      32.142  22.190  27.875  1.00  0.00    -0.275 OA
ATOM     15  H   UNL A   1      30.925  24.133  27.492  1.00  0.00     0.164 HD
BRANCH  13  16
ATOM     16  C   UNL A   1      32.527  21.861  25.531  1.00  0.00     0.143 C 
BRANCH  16  17
ATOM     17  C   UNL A   1      34.042  21.810  25.354  1.00  0.00     0.051 A 
ATOM     18  C   UNL A   1      40.161  24.563  27.708  1.00  0.00     0.048 C 
ATOM     19  C   UNL A   1      39.944  23.327  26.914  1.00  0.00    -0.005 A 
ATOM     20  C   UNL A   1      40.864  22.302  26.801  1.00  0.00     0.199 A 
ATOM     21  C   UNL A   1      38.763  22.872  26.224  1.00  0.00     0.024 A 
ATOM     22  O   UNL A   1      40.314  21.226  26.199  1.00  0.00    -0.464 OA
ATOM     23  C   UNL A   1      39.030  21.550  25.894  1.00  0.00     0.140 A 
ATOM     24  C   UNL A   1      37.456  23.374  25.949  1.00  0.00     0.024 A 
ATOM     25  C   UNL A   1      38.095  20.652  25.384  1.00  0.00     0.036 A 
ATOM     26  C   UNL A   1      36.424  22.500  25.508  1.00  0.00     0.022 A 
ATOM     27  C   UNL A   1      38.429  19.204  25.203  1.00  0.00     0.052 C 
ATOM     28  C   UNL A   1      36.801  21.184  25.208  1.00  0.00     0.145 A 
ATOM     29  C   UNL A   1      34.945  22.804  25.573  1.00  0.00    -0.029 A 
ATOM     30  O   UNL A   1      35.838  20.259  24.763  1.00  0.00    -0.422 OA
ATOM     31  C   UNL A   1      34.494  24.187  25.995  1.00  0.00     0.046 C 
ATOM     32  C   UNL A   1      34.490  20.520  24.763  1.00  0.00     0.340 A 
ATOM     33  O   UNL A   1      33.700  19.682  24.340  1.00  0.00    -0.246 OA
ENDBRANCH  16  17
ENDBRANCH  13  16
ENDBRANCH  11  12
ENDBRANCH   8  11
ENDBRANCH   6   7
BRANCH   6  34
ATOM     34  C   UNL A   1      29.764  28.654  23.319  1.00  0.00     0.017 C 
ATOM     35  C   UNL A   1      30.497  29.402  22.202  1.00  0.00     0.010 C 
ATOM     36  C   UNL A   1      28.311  28.572  22.914  1.00  0.00     0.010 C 
ENDBRANCH   6  34
ENDBRANCH   4   6
ENDBRANCH   3   4
ENDBRANCH   2   3
ENDBRANCH   1   2
BRANCH   1  37
ATOM     37  O   UNL A   1      33.310  30.131  26.354  1.00  0.00    -0.374 OA
BRANCH  37  38
ATOM     38  C   UNL A   1      33.551  30.874  27.541  1.00  0.00     0.202 C 
BRANCH  38  39
ATOM     39  C   UNL A   1      34.795  31.762  27.542  1.00  0.00     0.261 C 
BRANCH  39  40
ATOM     40  O   UNL A   1      35.911  31.187  28.218  1.00  0.00    -0.460 OA
BRANCH  40  41
ATOM     41  C   UNL A   1      36.001  31.418  29.547  1.00  0.00     0.338 C 
ATOM     42  O   UNL A   1      35.331  32.184  30.200  1.00  0.00    -0.246 OA
BRANCH  41  43
ATOM     43  C   UNL A   1      37.180  30.687  30.048  1.00  0.00     0.060 A 
ATOM     44  C   UNL A   1      38.216  31.443  30.594  1.00  0.00     0.016 A 
ATOM     45  C   UNL A   1      37.352  29.327  29.749  1.00  0.00     0.016 A 
ATOM     46  C   UNL A   1      39.477  30.883  30.634  1.00  0.00     0.010 A 
ATOM     47  C   UNL A   1      38.590  28.749  29.846  1.00  0.00     0.010 A 
ATOM     48  C   UNL A   1      39.654  29.572  30.172  1.00  0.00    -0.014 A 
BRANCH  48  49
ATOM     49  C   UNL A   1      40.994  29.035  30.082  1.00  0.00     0.031 A 
ATOM     50  C   UNL A   1      41.662  28.996  31.396  1.00  0.00     0.074 A 
ATOM     51  C   UNL A   1      41.495  28.548  28.928  1.00  0.00     0.049 A 
ATOM     52  N   UNL A   1      42.594  29.782  31.814  1.00  0.00    -0.248 NA
ATOM     53  C   UNL A   1      41.066  28.152  32.449  1.00  0.00     0.031 C 
ATOM     54  C   UNL A   1      40.801  28.321  27.655  1.00  0.00     0.029 A 
ATOM     55  N   UNL A   1      42.735  28.054  28.678  1.00  0.00    -0.354 N 
ATOM     56  C   UNL A   1      42.887  29.347  33.099  1.00  0.00     0.074 A 
ATOM     57  C   UNL A   1      41.777  28.527  33.512  1.00  0.00     0.031 C 
ATOM     58  C   UNL A   1      41.556  27.520  26.866  1.00  0.00     0.029 A 
ATOM     59  C   UNL A   1      42.839  27.302  27.512  1.00  0.00     0.049 A 
ATOM     60  H   UNL A   1      43.500  28.217  29.275  1.00  0.00     0.167 HD
ATOM     61  C   UNL A   1      44.153  29.430  33.588  1.00  0.00     0.031 A 
ATOM     62  C   UNL A   1      43.892  26.522  27.145  1.00  0.00     0.031 A 
ATOM     63  C   UNL A   1      44.963  30.327  32.805  1.00  0.00     0.049 A 
ATOM     64  C   UNL A   1      45.062  27.003  27.922  1.00  0.00     0.074 A 
ATOM     65  C   UNL A   1      44.911  31.672  32.503  1.00  0.00     0.029 A 
ATOM     66  N   UNL A   1      45.776  29.747  31.858  1.00  0.00    -0.354 N 
ATOM     67  N   UNL A   1      45.582  28.190  27.768  1.00  0.00    -0.248 NA
ATOM     68  C   UNL A   1      45.339  26.360  29.197  1.00  0.00     0.031 C 
ATOM     69  C   UNL A   1      45.340  31.765  31.148  1.00  0.00     0.029 A 
ATOM     70  C   UNL A   1      45.704  30.490  30.709  1.00  0.00     0.049 A 
ATOM     71  H   UNL A   1      46.319  28.936  31.986  1.00  0.00     0.167 HD
ATOM     72  C   UNL A   1      45.872  28.619  29.057  1.00  0.00     0.074 A 
ATOM     73  C   UNL A   1      45.785  27.417  29.885  1.00  0.00     0.031 C 
ATOM     74  C   UNL A   1      45.870  29.948  29.373  1.00  0.00     0.031 A 
BRANCH  61  75
ATOM     75  C   UNL A   1      44.755  28.360  34.462  1.00  0.00    -0.014 A 
ATOM     76  C   UNL A   1      45.324  28.736  35.693  1.00  0.00     0.010 A 
ATOM     77  C   UNL A   1      45.032  27.054  34.001  1.00  0.00     0.010 A 
ATOM     78  C   UNL A   1      46.169  27.869  36.395  1.00  0.00     0.020 A 
ATOM     79  C   UNL A   1      45.836  26.167  34.713  1.00  0.00     0.020 A 
ATOM     80  C   UNL A   1      46.423  26.591  35.894  1.00  0.00     0.054 A 
BRANCH  80  81
ATOM     81  S   UNL A   1      47.574  25.508  36.771  1.00  0.00     0.124 S 
ATOM     82  O   UNL A   1      48.643  25.348  35.792  1.00  0.00    -0.237 OA
ATOM     83  O   UNL A   1      47.903  26.306  37.950  1.00  0.00    -0.237 OA
ATOM     84  O   UNL A   1      46.780  24.311  37.038  1.00  0.00    -0.744 OA
ENDBRANCH  80  81
ENDBRANCH  61  75
BRANCH  62  85
ATOM     85  C   UNL A   1      43.865  25.183  26.486  1.00  0.00    -0.014 A 
ATOM     86  C   UNL A   1      44.248  25.028  25.137  1.00  0.00     0.010 A 
ATOM     87  C   UNL A   1      43.748  24.012  27.262  1.00  0.00     0.010 A 
ATOM     88  C   UNL A   1      44.569  23.762  24.609  1.00  0.00     0.020 A 
ATOM     89  C   UNL A   1      44.062  22.747  26.742  1.00  0.00     0.020 A 
ATOM     90  C   UNL A   1      44.498  22.630  25.424  1.00  0.00     0.054 A 
BRANCH  90  91
ATOM     91  S   UNL A   1      45.087  21.027  24.794  1.00  0.00     0.124 S 
ATOM     92  O   UNL A   1      46.533  21.138  24.960  1.00  0.00    -0.237 OA
ATOM     93  O   UNL A   1      44.421  20.076  25.680  1.00  0.00    -0.237 OA
ATOM     94  O   UNL A   1      44.621  21.008  23.408  1.00  0.00    -0.744 OA
ENDBRANCH  90  91
ENDBRANCH  62  85
BRANCH  74  95
ATOM     95  C   UNL A   1      45.828  30.962  28.249  1.00  0.00    -0.014 A 
ATOM     96  C   UNL A   1      44.637  31.475  27.694  1.00  0.00     0.010 A 
ATOM     97  C   UNL A   1      47.047  31.567  27.895  1.00  0.00     0.010 A 
ATOM     98  C   UNL A   1      44.671  32.574  26.819  1.00  0.00     0.020 A 
ATOM     99  C   UNL A   1      47.085  32.670  27.040  1.00  0.00     0.020 A 
ATOM    100  C   UNL A   1      45.898  33.173  26.508  1.00  0.00     0.054 A 
BRANCH 100 101
ATOM    101  S   UNL A   1      45.935  34.658  25.463  1.00  0.00     0.124 S 
ATOM    102  O   UNL A   1      47.344  34.752  25.091  1.00  0.00    -0.237 OA
ATOM    103  O   UNL A   1      45.019  34.312  24.377  1.00  0.00    -0.237 OA
ATOM    104  O   UNL A   1      45.457  35.720  26.348  1.00  0.00    -0.744 OA
ENDBRANCH 100 101
ENDBRANCH  74  95
ENDBRANCH  48  49
ENDBRANCH  41  43
ENDBRANCH  40  41
ENDBRANCH  39  40
ENDBRANCH  38  39
ENDBRANCH  37  38
ENDBRANCH   1  37
TORSDOF 23
ENDMDL
