MODEL 1
REMARK VINA RESULT:      -9.5      0.000      0.000
REMARK SMILES COc1ccc(-n2c(SCc3cn(-c4ccc(C(=O)OCCOCCOC(=O)c5ccc(-c6c7nc(c(-c8ccc(S(=O)(=O)[O-])cc8)c8ccc([nH]8)c(-c8ccc(S(=O)(=O)[O-])cc8)c8nc(c(-c9ccc(S(=O)(=O)[O-])cc9)c9ccc6[nH]9)C=C8)C=C7)cc5)cc4)nn3)nc3ccccc3c2=O)cc1
REMARK SMILES IDX 21 1 20 2 18 3 19 4 17 5 14 6 15 7 90 8 16 9 89 10 13 11
REMARK SMILES IDX 11 12 12 13 92 14 91 15 10 16 9 17 8 18 7 19 100 20 93 21
REMARK SMILES IDX 99 22 101 23 94 24 98 25 95 26 97 27 96 28 6 29 3 30 4 31
REMARK SMILES IDX 103 32 5 33 102 34 2 35 1 36 22 37 23 38 24 39 25 40 26 41
REMARK SMILES IDX 27 42 28 43 29 44 30 45 88 46 31 47 87 48 32 49 33 50 34 51
REMARK SMILES IDX 81 52 35 53 86 54 80 55 82 56 36 57 85 58 79 59 78 60 37 62
REMARK SMILES IDX 67 63 48 64 66 65 49 66 52 67 65 68 83 69 50 70 51 71 64 73
REMARK SMILES IDX 84 74 53 75 38 76 39 77 47 78 40 79 46 80 41 81 42 82 43 83
REMARK SMILES IDX 44 84 45 85 68 86 69 87 77 88 70 89 76 90 71 91 72 92 73 93
REMARK SMILES IDX 74 94 75 95 54 96 55 97 63 98 56 99 62 100 57 101 58 102
REMARK SMILES IDX 59 103 60 104 61 105
REMARK H PARENT 82 61 52 72
REMARK Flexibility Score: inf
ROOT
ATOM      1  C   UNL A   1      40.086  30.506  29.491  1.00  0.00     0.261 C 
ENDROOT
BRANCH   1   2
ATOM      2  O   UNL A   1      40.126  29.086  29.306  1.00  0.00    -0.460 OA
BRANCH   2   3
ATOM      3  C   UNL A   1      39.782  28.687  28.063  1.00  0.00     0.338 C 
ATOM      4  O   UNL A   1      39.528  29.392  27.091  1.00  0.00    -0.246 OA
BRANCH   3   5
ATOM      5  C   UNL A   1      39.959  27.236  27.953  1.00  0.00     0.060 A 
ATOM      6  C   UNL A   1      40.052  24.523  27.504  1.00  0.00     0.066 A 
ATOM      7  C   UNL A   1      40.558  25.374  26.524  1.00  0.00     0.029 A 
ATOM      8  C   UNL A   1      39.601  25.010  28.747  1.00  0.00     0.029 A 
ATOM      9  C   UNL A   1      40.463  26.740  26.739  1.00  0.00     0.018 A 
ATOM     10  C   UNL A   1      39.584  26.379  28.986  1.00  0.00     0.018 A 
BRANCH   6  11
ATOM     11  N   UNL A   1      39.679  23.233  27.097  1.00  0.00    -0.220 N 
ATOM     12  C   UNL A   1      38.618  21.763  25.891  1.00  0.00     0.093 A 
ATOM     13  C   UNL A   1      38.481  22.988  26.486  1.00  0.00     0.141 A 
ATOM     14  N   UNL A   1      39.870  21.283  26.175  1.00  0.00    -0.134 NA
ATOM     15  N   UNL A   1      40.534  22.221  26.843  1.00  0.00    -0.062 NA
BRANCH  12  16
ATOM     16  C   UNL A   1      37.697  20.996  25.033  1.00  0.00     0.138 C 
BRANCH  16  17
ATOM     17  S   UNL A   1      36.485  21.939  24.124  1.00  0.00    -0.081 SA
BRANCH  17  18
ATOM     18  C   UNL A   1      34.951  21.827  24.998  1.00  0.00     0.176 A 
ATOM     19  N   UNL A   1      34.009  20.938  24.504  1.00  0.00    -0.255 N 
ATOM     20  C   UNL A   1      32.800  21.467  24.075  1.00  0.00     0.266 A 
ATOM     21  N   UNL A   1      34.607  22.933  25.585  1.00  0.00    -0.223 NA
ATOM     22  C   UNL A   1      32.835  22.942  23.923  1.00  0.00     0.066 A 
ATOM     23  O   UNL A   1      31.776  20.851  23.803  1.00  0.00    -0.268 OA
ATOM     24  C   UNL A   1      33.659  23.633  24.819  1.00  0.00     0.079 A 
ATOM     25  C   UNL A   1      32.296  23.586  22.812  1.00  0.00     0.016 A 
ATOM     26  C   UNL A   1      33.831  25.009  24.688  1.00  0.00     0.029 A 
ATOM     27  C   UNL A   1      32.581  24.941  22.617  1.00  0.00     0.001 A 
ATOM     28  C   UNL A   1      33.314  25.658  23.569  1.00  0.00     0.002 A 
BRANCH  19  29
ATOM     29  C   UNL A   1      34.102  19.575  24.899  1.00  0.00     0.052 A 
ATOM     30  C   UNL A   1      33.661  16.821  24.966  1.00  0.00     0.119 A 
ATOM     31  C   UNL A   1      34.775  17.319  24.296  1.00  0.00     0.048 A 
ATOM     32  C   UNL A   1      32.881  17.671  25.747  1.00  0.00     0.048 A 
ATOM     33  C   UNL A   1      34.993  18.702  24.250  1.00  0.00     0.030 A 
ATOM     34  C   UNL A   1      33.109  19.050  25.726  1.00  0.00     0.030 A 
BRANCH  30  35
ATOM     35  O   UNL A   1      33.397  15.484  24.872  1.00  0.00    -0.497 OA
ATOM     36  C   UNL A   1      32.163  15.109  25.497  1.00  0.00     0.278 C 
ENDBRANCH  30  35
ENDBRANCH  19  29
ENDBRANCH  17  18
ENDBRANCH  16  17
ENDBRANCH  12  16
ENDBRANCH   6  11
ENDBRANCH   3   5
ENDBRANCH   2   3
ENDBRANCH   1   2
BRANCH   1  37
ATOM     37  C   UNL A   1      38.819  30.967  30.213  1.00  0.00     0.202 C 
BRANCH  37  38
ATOM     38  O   UNL A   1      38.543  30.491  31.531  1.00  0.00    -0.374 OA
BRANCH  38  39
ATOM     39  C   UNL A   1      38.508  31.384  32.642  1.00  0.00     0.202 C 
BRANCH  39  40
ATOM     40  C   UNL A   1      39.027  30.928  34.001  1.00  0.00     0.261 C 
BRANCH  40  41
ATOM     41  O   UNL A   1      40.300  30.322  33.871  1.00  0.00    -0.460 OA
BRANCH  41  42
ATOM     42  C   UNL A   1      40.560  29.387  34.806  1.00  0.00     0.338 C 
ATOM     43  O   UNL A   1      40.395  29.487  36.021  1.00  0.00    -0.246 OA
BRANCH  42  44
ATOM     44  C   UNL A   1      41.152  28.216  34.147  1.00  0.00     0.060 A 
ATOM     45  C   UNL A   1      42.409  27.876  34.643  1.00  0.00     0.016 A 
ATOM     46  C   UNL A   1      40.752  27.933  32.833  1.00  0.00     0.016 A 
ATOM     47  C   UNL A   1      43.402  27.683  33.721  1.00  0.00     0.010 A 
ATOM     48  C   UNL A   1      41.748  27.771  31.910  1.00  0.00     0.010 A 
ATOM     49  C   UNL A   1      43.063  27.787  32.371  1.00  0.00    -0.014 A 
BRANCH  49  50
ATOM     50  C   UNL A   1      44.138  27.967  31.430  1.00  0.00     0.031 A 
ATOM     51  C   UNL A   1      44.000  29.194  30.636  1.00  0.00     0.074 A 
ATOM     52  C   UNL A   1      45.200  27.144  31.403  1.00  0.00     0.049 A 
ATOM     53  N   UNL A   1      43.659  29.304  29.397  1.00  0.00    -0.248 NA
ATOM     54  C   UNL A   1      44.037  30.461  31.381  1.00  0.00     0.031 C 
ATOM     55  C   UNL A   1      45.576  26.102  32.364  1.00  0.00     0.029 A 
ATOM     56  N   UNL A   1      46.255  27.174  30.553  1.00  0.00    -0.354 N 
ATOM     57  C   UNL A   1      43.647  30.669  29.158  1.00  0.00     0.074 A 
ATOM     58  C   UNL A   1      43.620  31.311  30.448  1.00  0.00     0.031 C 
ATOM     59  C   UNL A   1      46.880  25.789  32.182  1.00  0.00     0.029 A 
ATOM     60  C   UNL A   1      47.379  26.513  31.023  1.00  0.00     0.049 A 
ATOM     61  H   UNL A   1      46.226  27.626  29.679  1.00  0.00     0.167 HD
ATOM     62  C   UNL A   1      43.981  31.194  27.950  1.00  0.00     0.031 A 
ATOM     63  C   UNL A   1      48.641  26.666  30.548  1.00  0.00     0.031 A 
ATOM     64  C   UNL A   1      44.005  30.201  26.910  1.00  0.00     0.049 A 
ATOM     65  C   UNL A   1      48.532  27.287  29.199  1.00  0.00     0.074 A 
ATOM     66  C   UNL A   1      43.071  29.346  26.362  1.00  0.00     0.029 A 
ATOM     67  N   UNL A   1      45.238  29.702  26.554  1.00  0.00    -0.354 N 
ATOM     68  N   UNL A   1      47.987  26.691  28.174  1.00  0.00    -0.248 NA
ATOM     69  C   UNL A   1      48.604  28.739  29.099  1.00  0.00     0.031 C 
ATOM     70  C   UNL A   1      43.783  28.142  26.085  1.00  0.00     0.029 A 
ATOM     71  C   UNL A   1      45.120  28.338  26.442  1.00  0.00     0.049 A 
ATOM     72  H   UNL A   1      46.056  30.228  26.406  1.00  0.00     0.167 HD
ATOM     73  C   UNL A   1      47.286  27.685  27.503  1.00  0.00     0.074 A 
ATOM     74  C   UNL A   1      47.788  28.940  28.058  1.00  0.00     0.031 C 
ATOM     75  C   UNL A   1      46.169  27.393  26.772  1.00  0.00     0.031 A 
BRANCH  62  76
ATOM     76  C   UNL A   1      44.686  32.517  27.828  1.00  0.00    -0.014 A 
ATOM     77  C   UNL A   1      44.261  33.438  26.857  1.00  0.00     0.010 A 
ATOM     78  C   UNL A   1      45.915  32.782  28.475  1.00  0.00     0.010 A 
ATOM     79  C   UNL A   1      45.050  34.547  26.527  1.00  0.00     0.020 A 
ATOM     80  C   UNL A   1      46.678  33.910  28.196  1.00  0.00     0.020 A 
ATOM     81  C   UNL A   1      46.258  34.768  27.194  1.00  0.00     0.054 A 
BRANCH  81  82
ATOM     82  S   UNL A   1      47.324  36.135  26.686  1.00  0.00     0.124 S 
ATOM     83  O   UNL A   1      48.638  35.498  26.678  1.00  0.00    -0.237 OA
ATOM     84  O   UNL A   1      46.778  36.486  25.379  1.00  0.00    -0.237 OA
ATOM     85  O   UNL A   1      47.120  37.135  27.732  1.00  0.00    -0.744 OA
ENDBRANCH  81  82
ENDBRANCH  62  76
BRANCH  63  86
ATOM     86  C   UNL A   1      49.892  26.679  31.348  1.00  0.00    -0.014 A 
ATOM     87  C   UNL A   1      50.063  27.567  32.425  1.00  0.00     0.010 A 
ATOM     88  C   UNL A   1      50.826  25.629  31.211  1.00  0.00     0.010 A 
ATOM     89  C   UNL A   1      51.102  27.381  33.356  1.00  0.00     0.020 A 
ATOM     90  C   UNL A   1      51.867  25.444  32.127  1.00  0.00     0.020 A 
ATOM     91  C   UNL A   1      51.987  26.310  33.209  1.00  0.00     0.054 A 
BRANCH  91  92
ATOM     92  S   UNL A   1      53.225  25.982  34.500  1.00  0.00     0.124 S 
ATOM     93  O   UNL A   1      54.481  26.165  33.779  1.00  0.00    -0.237 OA
ATOM     94  O   UNL A   1      52.916  26.997  35.501  1.00  0.00    -0.237 OA
ATOM     95  O   UNL A   1      52.941  24.607  34.908  1.00  0.00    -0.744 OA
ENDBRANCH  91  92
ENDBRANCH  63  86
BRANCH  75  96
ATOM     96  C   UNL A   1      45.860  25.935  26.504  1.00  0.00    -0.014 A 
ATOM     97  C   UNL A   1      44.953  25.186  27.281  1.00  0.00     0.010 A 
ATOM     98  C   UNL A   1      46.375  25.356  25.332  1.00  0.00     0.010 A 
ATOM     99  C   UNL A   1      44.585  23.886  26.903  1.00  0.00     0.020 A 
ATOM    100  C   UNL A   1      46.000  24.067  24.942  1.00  0.00     0.020 A 
ATOM    101  C   UNL A   1      45.111  23.335  25.731  1.00  0.00     0.054 A 
BRANCH 101 102
ATOM    102  S   UNL A   1      44.580  21.679  25.208  1.00  0.00     0.124 S 
ATOM    103  O   UNL A   1      44.158  21.902  23.828  1.00  0.00    -0.237 OA
ATOM    104  O   UNL A   1      45.792  20.880  25.374  1.00  0.00    -0.237 OA
ATOM    105  O   UNL A   1      43.501  21.350  26.139  1.00  0.00    -0.744 OA
ENDBRANCH 101 102
ENDBRANCH  75  96
ENDBRANCH  49  50
ENDBRANCH  42  44
ENDBRANCH  41  42
ENDBRANCH  40  41
ENDBRANCH  39  40
ENDBRANCH  38  39
ENDBRANCH  37  38
ENDBRANCH   1  37
TORSDOF 23
ENDMDL
MODEL 2
REMARK VINA RESULT:      -9.4      3.889      8.866
REMARK SMILES COc1ccc(-n2c(SCc3cn(-c4ccc(C(=O)OCCOCCOC(=O)c5ccc(-c6c7nc(c(-c8ccc(S(=O)(=O)[O-])cc8)c8ccc([nH]8)c(-c8ccc(S(=O)(=O)[O-])cc8)c8nc(c(-c9ccc(S(=O)(=O)[O-])cc9)c9ccc6[nH]9)C=C8)C=C7)cc5)cc4)nn3)nc3ccccc3c2=O)cc1
REMARK SMILES IDX 21 1 20 2 18 3 19 4 17 5 14 6 15 7 90 8 16 9 89 10 13 11
REMARK SMILES IDX 11 12 12 13 92 14 91 15 10 16 9 17 8 18 7 19 100 20 93 21
REMARK SMILES IDX 99 22 101 23 94 24 98 25 95 26 97 27 96 28 6 29 3 30 4 31
REMARK SMILES IDX 103 32 5 33 102 34 2 35 1 36 22 37 23 38 24 39 25 40 26 41
REMARK SMILES IDX 27 42 28 43 29 44 30 45 88 46 31 47 87 48 32 49 33 50 34 51
REMARK SMILES IDX 81 52 35 53 86 54 80 55 82 56 36 57 85 58 79 59 78 60 37 62
REMARK SMILES IDX 67 63 48 64 66 65 49 66 52 67 65 68 83 69 50 70 51 71 64 73
REMARK SMILES IDX 84 74 53 75 38 76 39 77 47 78 40 79 46 80 41 81 42 82 43 83
REMARK SMILES IDX 44 84 45 85 68 86 69 87 77 88 70 89 76 90 71 91 72 92 73 93
REMARK SMILES IDX 74 94 75 95 54 96 55 97 63 98 56 99 62 100 57 101 58 102
REMARK SMILES IDX 59 103 60 104 61 105
REMARK H PARENT 82 61 52 72
REMARK Flexibility Score: inf
ROOT
ATOM      1  C   UNL A   1      34.640  32.736  30.795  1.00  0.00     0.261 C 
ENDROOT
BRANCH   1   2
ATOM      2  O   UNL A   1      34.654  32.429  29.396  1.00  0.00    -0.460 OA
BRANCH   2   3
ATOM      3  C   UNL A   1      35.447  31.387  29.072  1.00  0.00     0.338 C 
ATOM      4  O   UNL A   1      36.467  31.013  29.644  1.00  0.00    -0.246 OA
BRANCH   3   5
ATOM      5  C   UNL A   1      34.799  30.590  28.026  1.00  0.00     0.060 A 
ATOM      6  C   UNL A   1      33.310  29.088  26.266  1.00  0.00     0.066 A 
ATOM      7  C   UNL A   1      32.961  30.422  26.458  1.00  0.00     0.029 A 
ATOM      8  C   UNL A   1      34.459  28.530  26.861  1.00  0.00     0.029 A 
ATOM      9  C   UNL A   1      33.686  31.157  27.382  1.00  0.00     0.018 A 
ATOM     10  C   UNL A   1      35.230  29.298  27.725  1.00  0.00     0.018 A 
BRANCH   6  11
ATOM     11  N   UNL A   1      32.317  28.235  25.762  1.00  0.00    -0.220 N 
ATOM     12  C   UNL A   1      31.047  26.466  25.737  1.00  0.00     0.093 A 
ATOM     13  C   UNL A   1      32.314  26.894  26.031  1.00  0.00     0.141 A 
ATOM     14  N   UNL A   1      30.327  27.535  25.274  1.00  0.00    -0.134 NA
ATOM     15  N   UNL A   1      31.087  28.621  25.369  1.00  0.00    -0.062 NA
BRANCH  12  16
ATOM     16  C   UNL A   1      30.415  25.142  25.885  1.00  0.00     0.138 C 
BRANCH  16  17
ATOM     17  S   UNL A   1      31.518  23.747  26.038  1.00  0.00    -0.081 SA
BRANCH  17  18
ATOM     18  C   UNL A   1      31.752  23.067  24.421  1.00  0.00     0.176 A 
ATOM     19  N   UNL A   1      33.017  22.587  24.119  1.00  0.00    -0.255 N 
ATOM     20  C   UNL A   1      33.697  23.204  23.078  1.00  0.00     0.266 A 
ATOM     21  N   UNL A   1      30.987  23.601  23.518  1.00  0.00    -0.223 NA
ATOM     22  C   UNL A   1      33.082  24.489  22.666  1.00  0.00     0.066 A 
ATOM     23  O   UNL A   1      34.717  22.812  22.524  1.00  0.00    -0.268 OA
ATOM     24  C   UNL A   1      31.689  24.567  22.777  1.00  0.00     0.079 A 
ATOM     25  C   UNL A   1      33.841  25.633  22.429  1.00  0.00     0.016 A 
ATOM     26  C   UNL A   1      31.035  25.767  22.507  1.00  0.00     0.029 A 
ATOM     27  C   UNL A   1      33.184  26.858  22.287  1.00  0.00     0.001 A 
ATOM     28  C   UNL A   1      31.786  26.920  22.289  1.00  0.00     0.002 A 
BRANCH  19  29
ATOM     29  C   UNL A   1      33.339  21.257  24.506  1.00  0.00     0.052 A 
ATOM     30  C   UNL A   1      34.249  18.624  24.360  1.00  0.00     0.119 A 
ATOM     31  C   UNL A   1      35.085  19.609  24.877  1.00  0.00     0.048 A 
ATOM     32  C   UNL A   1      32.914  18.916  24.091  1.00  0.00     0.048 A 
ATOM     33  C   UNL A   1      34.636  20.934  24.941  1.00  0.00     0.030 A 
ATOM     34  C   UNL A   1      32.452  20.232  24.177  1.00  0.00     0.030 A 
BRANCH  30  35
ATOM     35  O   UNL A   1      34.765  17.372  24.178  1.00  0.00    -0.497 OA
ATOM     36  C   UNL A   1      33.800  16.433  23.682  1.00  0.00     0.278 C 
ENDBRANCH  30  35
ENDBRANCH  19  29
ENDBRANCH  17  18
ENDBRANCH  16  17
ENDBRANCH  12  16
ENDBRANCH   6  11
ENDBRANCH   3   5
ENDBRANCH   2   3
ENDBRANCH   1   2
BRANCH   1  37
ATOM     37  C   UNL A   1      35.121  34.158  31.088  1.00  0.00     0.202 C 
BRANCH  37  38
ATOM     38  O   UNL A   1      35.871  34.421  32.275  1.00  0.00    -0.374 OA
BRANCH  38  39
ATOM     39  C   UNL A   1      37.294  34.483  32.245  1.00  0.00     0.202 C 
BRANCH  39  40
ATOM     40  C   UNL A   1      38.104  33.229  31.935  1.00  0.00     0.261 C 
BRANCH  40  41
ATOM     41  O   UNL A   1      38.128  32.362  33.053  1.00  0.00    -0.460 OA
BRANCH  41  42
ATOM     42  C   UNL A   1      39.342  32.241  33.626  1.00  0.00     0.338 C 
ATOM     43  O   UNL A   1      40.259  33.060  33.603  1.00  0.00    -0.246 OA
BRANCH  42  44
ATOM     44  C   UNL A   1      39.437  30.914  34.247  1.00  0.00     0.060 A 
ATOM     45  C   UNL A   1      40.335  30.861  35.312  1.00  0.00     0.016 A 
ATOM     46  C   UNL A   1      39.132  29.797  33.455  1.00  0.00     0.016 A 
ATOM     47  C   UNL A   1      41.253  29.847  35.292  1.00  0.00     0.010 A 
ATOM     48  C   UNL A   1      40.067  28.800  33.417  1.00  0.00     0.010 A 
ATOM     49  C   UNL A   1      41.178  28.925  34.248  1.00  0.00    -0.014 A 
BRANCH  49  50
ATOM     50  C   UNL A   1      42.336  28.105  34.004  1.00  0.00     0.031 A 
ATOM     51  C   UNL A   1      42.844  27.460  35.221  1.00  0.00     0.074 A 
ATOM     52  C   UNL A   1      42.794  27.876  32.760  1.00  0.00     0.049 A 
ATOM     53  N   UNL A   1      43.905  27.757  35.893  1.00  0.00    -0.248 NA
ATOM     54  C   UNL A   1      41.938  26.511  35.884  1.00  0.00     0.031 C 
ATOM     55  C   UNL A   1      42.161  28.206  31.478  1.00  0.00     0.029 A 
ATOM     56  N   UNL A   1      43.884  27.162  32.391  1.00  0.00    -0.354 N 
ATOM     57  C   UNL A   1      43.899  26.874  36.961  1.00  0.00     0.074 A 
ATOM     58  C   UNL A   1      42.564  26.338  37.045  1.00  0.00     0.031 C 
ATOM     59  C   UNL A   1      42.746  27.474  30.502  1.00  0.00     0.029 A 
ATOM     60  C   UNL A   1      43.860  26.732  31.074  1.00  0.00     0.049 A 
ATOM     61  H   UNL A   1      44.627  26.965  33.006  1.00  0.00     0.167 HD
ATOM     62  C   UNL A   1      45.047  26.393  37.507  1.00  0.00     0.031 A 
ATOM     63  C   UNL A   1      44.633  25.747  30.551  1.00  0.00     0.031 A 
ATOM     64  C   UNL A   1      46.203  27.141  37.095  1.00  0.00     0.049 A 
ATOM     65  C   UNL A   1      45.775  25.541  31.484  1.00  0.00     0.074 A 
ATOM     66  C   UNL A   1      46.607  28.454  37.223  1.00  0.00     0.029 A 
ATOM     67  N   UNL A   1      46.965  26.603  36.081  1.00  0.00    -0.354 N 
ATOM     68  N   UNL A   1      46.695  26.440  31.705  1.00  0.00    -0.248 NA
ATOM     69  C   UNL A   1      45.647  24.525  32.520  1.00  0.00     0.031 C 
ATOM     70  C   UNL A   1      47.267  28.763  35.997  1.00  0.00     0.029 A 
ATOM     71  C   UNL A   1      47.267  27.614  35.203  1.00  0.00     0.049 A 
ATOM     72  H   UNL A   1      47.243  25.662  36.001  1.00  0.00     0.167 HD
ATOM     73  C   UNL A   1      46.970  26.355  33.064  1.00  0.00     0.074 A 
ATOM     74  C   UNL A   1      46.373  25.091  33.491  1.00  0.00     0.031 C 
ATOM     75  C   UNL A   1      47.402  27.443  33.770  1.00  0.00     0.031 A 
BRANCH  62  76
ATOM     76  C   UNL A   1      45.136  24.999  38.065  1.00  0.00    -0.014 A 
ATOM     77  C   UNL A   1      45.354  24.820  39.441  1.00  0.00     0.010 A 
ATOM     78  C   UNL A   1      45.259  23.859  37.238  1.00  0.00     0.010 A 
ATOM     79  C   UNL A   1      45.714  23.567  39.953  1.00  0.00     0.020 A 
ATOM     80  C   UNL A   1      45.561  22.599  37.743  1.00  0.00     0.020 A 
ATOM     81  C   UNL A   1      45.824  22.468  39.096  1.00  0.00     0.054 A 
BRANCH  81  82
ATOM     82  S   UNL A   1      46.400  20.883  39.742  1.00  0.00     0.124 S 
ATOM     83  O   UNL A   1      47.797  21.177  40.049  1.00  0.00    -0.237 OA
ATOM     84  O   UNL A   1      45.523  20.680  40.892  1.00  0.00    -0.237 OA
ATOM     85  O   UNL A   1      46.184  19.960  38.629  1.00  0.00    -0.744 OA
ENDBRANCH  81  82
ENDBRANCH  62  76
BRANCH  63  86
ATOM     86  C   UNL A   1      44.219  24.741  29.541  1.00  0.00    -0.014 A 
ATOM     87  C   UNL A   1      43.713  23.485  29.923  1.00  0.00     0.010 A 
ATOM     88  C   UNL A   1      44.080  25.118  28.187  1.00  0.00     0.010 A 
ATOM     89  C   UNL A   1      43.052  22.660  28.994  1.00  0.00     0.020 A 
ATOM     90  C   UNL A   1      43.431  24.299  27.257  1.00  0.00     0.020 A 
ATOM     91  C   UNL A   1      42.900  23.082  27.670  1.00  0.00     0.054 A 
BRANCH  91  92
ATOM     92  S   UNL A   1      41.907  22.088  26.517  1.00  0.00     0.124 S 
ATOM     93  O   UNL A   1      42.737  22.083  25.316  1.00  0.00    -0.237 OA
ATOM     94  O   UNL A   1      41.795  20.811  27.214  1.00  0.00    -0.237 OA
ATOM     95  O   UNL A   1      40.657  22.839  26.403  1.00  0.00    -0.744 OA
ENDBRANCH  91  92
ENDBRANCH  63  86
BRANCH  75  96
ATOM     96  C   UNL A   1      47.814  28.673  32.989  1.00  0.00    -0.014 A 
ATOM     97  C   UNL A   1      49.024  28.758  32.269  1.00  0.00     0.010 A 
ATOM     98  C   UNL A   1      46.875  29.708  32.842  1.00  0.00     0.010 A 
ATOM     99  C   UNL A   1      49.291  29.857  31.438  1.00  0.00     0.020 A 
ATOM    100  C   UNL A   1      47.128  30.797  32.004  1.00  0.00     0.020 A 
ATOM    101  C   UNL A   1      48.337  30.871  31.310  1.00  0.00     0.054 A 
BRANCH 101 102
ATOM    102  S   UNL A   1      48.657  32.257  30.181  1.00  0.00     0.124 S 
ATOM    103  O   UNL A   1      49.090  31.580  28.962  1.00  0.00    -0.237 OA
ATOM    104  O   UNL A   1      47.357  32.921  30.104  1.00  0.00    -0.237 OA
ATOM    105  O   UNL A   1      49.696  33.028  30.863  1.00  0.00    -0.744 OA
ENDBRANCH 101 102
ENDBRANCH  75  96
ENDBRANCH  49  50
ENDBRANCH  42  44
ENDBRANCH  41  42
ENDBRANCH  40  41
ENDBRANCH  39  40
ENDBRANCH  38  39
ENDBRANCH  37  38
ENDBRANCH   1  37
TORSDOF 23
ENDMDL
MODEL 3
REMARK VINA RESULT:      -9.1      8.098     16.820
REMARK SMILES COc1ccc(-n2c(SCc3cn(-c4ccc(C(=O)OCCOCCOC(=O)c5ccc(-c6c7nc(c(-c8ccc(S(=O)(=O)[O-])cc8)c8ccc([nH]8)c(-c8ccc(S(=O)(=O)[O-])cc8)c8nc(c(-c9ccc(S(=O)(=O)[O-])cc9)c9ccc6[nH]9)C=C8)C=C7)cc5)cc4)nn3)nc3ccccc3c2=O)cc1
REMARK SMILES IDX 21 1 20 2 18 3 19 4 17 5 14 6 15 7 90 8 16 9 89 10 13 11
REMARK SMILES IDX 11 12 12 13 92 14 91 15 10 16 9 17 8 18 7 19 100 20 93 21
REMARK SMILES IDX 99 22 101 23 94 24 98 25 95 26 97 27 96 28 6 29 3 30 4 31
REMARK SMILES IDX 103 32 5 33 102 34 2 35 1 36 22 37 23 38 24 39 25 40 26 41
REMARK SMILES IDX 27 42 28 43 29 44 30 45 88 46 31 47 87 48 32 49 33 50 34 51
REMARK SMILES IDX 81 52 35 53 86 54 80 55 82 56 36 57 85 58 79 59 78 60 37 62
REMARK SMILES IDX 67 63 48 64 66 65 49 66 52 67 65 68 83 69 50 70 51 71 64 73
REMARK SMILES IDX 84 74 53 75 38 76 39 77 47 78 40 79 46 80 41 81 42 82 43 83
REMARK SMILES IDX 44 84 45 85 68 86 69 87 77 88 70 89 76 90 71 91 72 92 73 93
REMARK SMILES IDX 74 94 75 95 54 96 55 97 63 98 56 99 62 100 57 101 58 102
REMARK SMILES IDX 59 103 60 104 61 105
REMARK H PARENT 82 61 52 72
REMARK Flexibility Score: inf
ROOT
ATOM      1  C   UNL A   1      44.654  41.485  35.622  1.00  0.00     0.261 C 
ENDROOT
BRANCH   1   2
ATOM      2  O   UNL A   1      44.152  42.823  35.722  1.00  0.00    -0.460 OA
BRANCH   2   3
ATOM      3  C   UNL A   1      43.009  43.031  35.035  1.00  0.00     0.338 C 
ATOM      4  O   UNL A   1      41.882  43.208  35.487  1.00  0.00    -0.246 OA
BRANCH   3   5
ATOM      5  C   UNL A   1      43.325  43.236  33.617  1.00  0.00     0.060 A 
ATOM      6  C   UNL A   1      44.082  43.322  30.974  1.00  0.00     0.066 A 
ATOM      7  C   UNL A   1      43.121  42.390  31.357  1.00  0.00     0.029 A 
ATOM      8  C   UNL A   1      44.586  44.281  31.876  1.00  0.00     0.029 A 
ATOM      9  C   UNL A   1      42.782  42.322  32.699  1.00  0.00     0.018 A 
ATOM     10  C   UNL A   1      44.179  44.257  33.205  1.00  0.00     0.018 A 
BRANCH   6  11
ATOM     11  N   UNL A   1      44.784  43.064  29.786  1.00  0.00    -0.220 N 
ATOM     12  C   UNL A   1      45.680  43.559  27.865  1.00  0.00     0.093 A 
ATOM     13  C   UNL A   1      44.596  43.816  28.661  1.00  0.00     0.141 A 
ATOM     14  N   UNL A   1      46.476  42.646  28.503  1.00  0.00    -0.134 NA
ATOM     15  N   UNL A   1      45.961  42.412  29.706  1.00  0.00    -0.062 NA
BRANCH  12  16
ATOM     16  C   UNL A   1      46.076  44.120  26.561  1.00  0.00     0.138 C 
BRANCH  16  17
ATOM     17  S   UNL A   1      47.028  43.054  25.491  1.00  0.00    -0.081 SA
BRANCH  17  18
ATOM     18  C   UNL A   1      45.892  42.037  24.595  1.00  0.00     0.176 A 
ATOM     19  N   UNL A   1      44.652  42.585  24.305  1.00  0.00    -0.255 N 
ATOM     20  C   UNL A   1      43.538  41.956  24.845  1.00  0.00     0.266 A 
ATOM     21  N   UNL A   1      46.044  40.767  24.820  1.00  0.00    -0.223 NA
ATOM     22  C   UNL A   1      43.882  40.981  25.908  1.00  0.00     0.066 A 
ATOM     23  O   UNL A   1      42.364  42.149  24.551  1.00  0.00    -0.268 OA
ATOM     24  C   UNL A   1      45.099  40.307  25.753  1.00  0.00     0.079 A 
ATOM     25  C   UNL A   1      43.182  40.917  27.110  1.00  0.00     0.016 A 
ATOM     26  C   UNL A   1      45.551  39.446  26.751  1.00  0.00     0.029 A 
ATOM     27  C   UNL A   1      43.710  40.152  28.154  1.00  0.00     0.001 A 
ATOM     28  C   UNL A   1      44.869  39.391  27.964  1.00  0.00     0.002 A 
BRANCH  19  29
ATOM     29  C   UNL A   1      44.533  43.394  23.142  1.00  0.00     0.052 A 
ATOM     30  C   UNL A   1      45.237  45.014  20.982  1.00  0.00     0.119 A 
ATOM     31  C   UNL A   1      45.031  43.653  20.778  1.00  0.00     0.048 A 
ATOM     32  C   UNL A   1      44.917  45.590  22.210  1.00  0.00     0.048 A 
ATOM     33  C   UNL A   1      44.688  42.835  21.862  1.00  0.00     0.030 A 
ATOM     34  C   UNL A   1      44.550  44.781  23.289  1.00  0.00     0.030 A 
BRANCH  30  35
ATOM     35  O   UNL A   1      45.709  45.758  19.938  1.00  0.00    -0.497 OA
ATOM     36  C   UNL A   1      46.307  44.962  18.906  1.00  0.00     0.278 C 
ENDBRANCH  30  35
ENDBRANCH  19  29
ENDBRANCH  17  18
ENDBRANCH  16  17
ENDBRANCH  12  16
ENDBRANCH   6  11
ENDBRANCH   3   5
ENDBRANCH   2   3
ENDBRANCH   1   2
BRANCH   1  37
ATOM     37  C   UNL A   1      46.068  41.432  35.042  1.00  0.00     0.202 C 
BRANCH  37  38
ATOM     38  O   UNL A   1      46.269  41.664  33.647  1.00  0.00    -0.374 OA
BRANCH  38  39
ATOM     39  C   UNL A   1      46.712  40.618  32.785  1.00  0.00     0.202 C 
BRANCH  39  40
ATOM     40  C   UNL A   1      46.001  39.270  32.800  1.00  0.00     0.261 C 
BRANCH  40  41
ATOM     41  O   UNL A   1      44.677  39.398  32.317  1.00  0.00    -0.460 OA
BRANCH  41  42
ATOM     42  C   UNL A   1      43.776  38.650  32.984  1.00  0.00     0.338 C 
ATOM     43  O   UNL A   1      42.864  39.054  33.704  1.00  0.00    -0.246 OA
BRANCH  42  44
ATOM     44  C   UNL A   1      44.095  37.233  32.773  1.00  0.00     0.060 A 
ATOM     45  C   UNL A   1      43.414  36.664  31.697  1.00  0.00     0.016 A 
ATOM     46  C   UNL A   1      44.524  36.486  33.879  1.00  0.00     0.016 A 
ATOM     47  C   UNL A   1      42.768  35.481  31.934  1.00  0.00     0.010 A 
ATOM     48  C   UNL A   1      43.856  35.319  34.128  1.00  0.00     0.010 A 
ATOM     49  C   UNL A   1      42.891  34.919  33.205  1.00  0.00    -0.014 A 
BRANCH  49  50
ATOM     50  C   UNL A   1      41.935  33.909  33.579  1.00  0.00     0.031 A 
ATOM     51  C   UNL A   1      42.437  32.545  33.372  1.00  0.00     0.074 A 
ATOM     52  C   UNL A   1      40.770  34.222  34.172  1.00  0.00     0.049 A 
ATOM     53  N   UNL A   1      42.102  31.708  32.450  1.00  0.00    -0.248 NA
ATOM     54  C   UNL A   1      43.612  32.155  34.164  1.00  0.00     0.031 C 
ATOM     55  C   UNL A   1      40.335  35.516  34.710  1.00  0.00     0.029 A 
ATOM     56  N   UNL A   1      39.771  33.385  34.540  1.00  0.00    -0.354 N 
ATOM     57  C   UNL A   1      42.892  30.594  32.686  1.00  0.00     0.074 A 
ATOM     58  C   UNL A   1      43.958  31.023  33.556  1.00  0.00     0.031 C 
ATOM     59  C   UNL A   1      39.292  35.312  35.547  1.00  0.00     0.029 A 
ATOM     60  C   UNL A   1      38.919  33.907  35.500  1.00  0.00     0.049 A 
ATOM     61  H   UNL A   1      39.660  32.484  34.159  1.00  0.00     0.167 HD
ATOM     62  C   UNL A   1      42.459  29.332  32.426  1.00  0.00     0.031 A 
ATOM     63  C   UNL A   1      38.064  33.189  36.271  1.00  0.00     0.031 A 
ATOM     64  C   UNL A   1      41.285  29.318  31.595  1.00  0.00     0.049 A 
ATOM     65  C   UNL A   1      37.880  31.866  35.612  1.00  0.00     0.074 A 
ATOM     66  C   UNL A   1      40.992  29.759  30.321  1.00  0.00     0.029 A 
ATOM     67  N   UNL A   1      40.075  29.143  32.229  1.00  0.00    -0.354 N 
ATOM     68  N   UNL A   1      37.302  31.715  34.452  1.00  0.00    -0.248 NA
ATOM     69  C   UNL A   1      38.746  30.767  36.015  1.00  0.00     0.031 C 
ATOM     70  C   UNL A   1      39.655  30.251  30.394  1.00  0.00     0.029 A 
ATOM     71  C   UNL A   1      39.190  30.048  31.697  1.00  0.00     0.049 A 
ATOM     72  H   UNL A   1      39.880  28.487  32.936  1.00  0.00     0.167 HD
ATOM     73  C   UNL A   1      38.033  30.726  33.805  1.00  0.00     0.074 A 
ATOM     74  C   UNL A   1      38.842  30.109  34.854  1.00  0.00     0.031 C 
ATOM     75  C   UNL A   1      38.126  30.692  32.442  1.00  0.00     0.031 A 
BRANCH  62  76
ATOM     76  C   UNL A   1      42.866  28.163  33.279  1.00  0.00    -0.014 A 
ATOM     77  C   UNL A   1      43.632  27.131  32.713  1.00  0.00     0.010 A 
ATOM     78  C   UNL A   1      42.309  27.927  34.556  1.00  0.00     0.010 A 
ATOM     79  C   UNL A   1      43.796  25.911  33.382  1.00  0.00     0.020 A 
ATOM     80  C   UNL A   1      42.512  26.741  35.253  1.00  0.00     0.020 A 
ATOM     81  C   UNL A   1      43.225  25.724  34.643  1.00  0.00     0.054 A 
BRANCH  81  82
ATOM     82  S   UNL A   1      43.344  24.112  35.450  1.00  0.00     0.124 S 
ATOM     83  O   UNL A   1      43.951  24.465  36.730  1.00  0.00    -0.237 OA
ATOM     84  O   UNL A   1      41.948  23.687  35.502  1.00  0.00    -0.237 OA
ATOM     85  O   UNL A   1      44.194  23.339  34.546  1.00  0.00    -0.744 OA
ENDBRANCH  81  82
ENDBRANCH  62  76
BRANCH  63  86
ATOM     86  C   UNL A   1      37.744  33.434  37.701  1.00  0.00    -0.014 A 
ATOM     87  C   UNL A   1      36.694  32.753  38.342  1.00  0.00     0.010 A 
ATOM     88  C   UNL A   1      38.647  34.156  38.510  1.00  0.00     0.010 A 
ATOM     89  C   UNL A   1      36.581  32.758  39.745  1.00  0.00     0.020 A 
ATOM     90  C   UNL A   1      38.535  34.173  39.905  1.00  0.00     0.020 A 
ATOM     91  C   UNL A   1      37.513  33.455  40.518  1.00  0.00     0.054 A 
BRANCH  91  92
ATOM     92  S   UNL A   1      37.458  33.325  42.330  1.00  0.00     0.124 S 
ATOM     93  O   UNL A   1      36.790  32.042  42.529  1.00  0.00    -0.237 OA
ATOM     94  O   UNL A   1      38.870  33.368  42.695  1.00  0.00    -0.237 OA
ATOM     95  O   UNL A   1      36.681  34.496  42.736  1.00  0.00    -0.744 OA
ENDBRANCH  91  92
ENDBRANCH  63  86
BRANCH  75  96
ATOM     96  C   UNL A   1      37.213  31.602  31.647  1.00  0.00    -0.014 A 
ATOM     97  C   UNL A   1      35.933  31.209  31.203  1.00  0.00     0.010 A 
ATOM     98  C   UNL A   1      37.592  32.945  31.492  1.00  0.00     0.010 A 
ATOM     99  C   UNL A   1      35.065  32.134  30.605  1.00  0.00     0.020 A 
ATOM    100  C   UNL A   1      36.725  33.875  30.911  1.00  0.00     0.020 A 
ATOM    101  C   UNL A   1      35.468  33.466  30.465  1.00  0.00     0.054 A 
BRANCH 101 102
ATOM    102  S   UNL A   1      34.315  34.675  29.753  1.00  0.00     0.124 S 
ATOM    103  O   UNL A   1      35.137  35.346  28.750  1.00  0.00    -0.237 OA
ATOM    104  O   UNL A   1      33.243  33.832  29.226  1.00  0.00    -0.237 OA
ATOM    105  O   UNL A   1      33.932  35.505  30.895  1.00  0.00    -0.744 OA
ENDBRANCH 101 102
ENDBRANCH  75  96
ENDBRANCH  49  50
ENDBRANCH  42  44
ENDBRANCH  41  42
ENDBRANCH  40  41
ENDBRANCH  39  40
ENDBRANCH  38  39
ENDBRANCH  37  38
ENDBRANCH   1  37
TORSDOF 23
ENDMDL
