MODEL 1
REMARK VINA RESULT:     -11.1      0.000      0.000
REMARK SMILES CN1C(=O)[C@@H]2CC=CC[C@]2(C(=O)OCCOCCOC(=O)c2ccc(-c3c4nc(c(-c5ccc(S(=O)(=O)[O-])cc5)c5ccc([nH]5)c(-c5ccc(S(=O)(=O)[O-])cc5)c5nc(c(-c6ccc(S(=O)(=O)[O-])cc6)c6ccc3[nH]6)C=C5)C=C4)cc2)[C@H]1c1ccccc1
REMARK SMILES IDX 17 1 16 2 15 3 14 4 13 5 11 6 12 7 10 8 1 9 2 10 3 11 82 12
REMARK SMILES IDX 4 13 5 14 6 15 9 16 7 17 8 18 83 19 84 20 88 21 85 22 87 23
REMARK SMILES IDX 86 24 18 25 19 26 20 27 21 28 22 29 23 30 81 31 24 32 80 33
REMARK SMILES IDX 25 34 26 35 27 36 74 37 28 38 79 39 73 40 75 41 29 42 78 43
REMARK SMILES IDX 72 44 71 45 30 47 60 48 41 49 59 50 42 51 45 52 58 53 76 54
REMARK SMILES IDX 43 55 44 56 57 58 77 59 46 60 31 61 32 62 40 63 33 64 39 65
REMARK SMILES IDX 34 66 35 67 36 68 37 69 38 70 61 71 62 72 70 73 63 74 69 75
REMARK SMILES IDX 64 76 65 77 66 78 67 79 68 80 47 81 48 82 56 83 49 84 55 85
REMARK SMILES IDX 50 86 51 87 52 88 53 89 54 90
REMARK H PARENT 75 46 45 57
REMARK Flexibility Score: inf
ROOT
ATOM      1  C   UNL A   1      33.222  29.582  25.822  1.00  0.00     0.202 C 
ENDROOT
BRANCH   1   2
ATOM      2  O   UNL A   1      32.195  29.495  24.829  1.00  0.00    -0.374 OA
BRANCH   2   3
ATOM      3  C   UNL A   1      32.540  28.867  23.589  1.00  0.00     0.202 C 
BRANCH   3   4
ATOM      4  C   UNL A   1      34.008  28.399  23.656  1.00  0.00     0.261 C 
BRANCH   4   5
ATOM      5  O   UNL A   1      33.959  27.001  23.988  1.00  0.00    -0.463 OA
BRANCH   5   6
ATOM      6  C   UNL A   1      33.437  26.036  23.156  1.00  0.00     0.315 C 
ATOM      7  O   UNL A   1      33.862  25.725  22.056  1.00  0.00    -0.251 OA
BRANCH   6   8
ATOM      8  C   UNL A   1      32.384  25.276  23.992  1.00  0.00     0.108 C 
ATOM      9  C   UNL A   1      32.562  21.908  25.749  1.00  0.00     0.147 C 
ATOM     10  N   UNL A   1      32.427  23.301  25.365  1.00  0.00    -0.337 N 
ATOM     11  C   UNL A   1      31.955  24.298  26.183  1.00  0.00     0.227 C 
ATOM     12  C   UNL A   1      32.967  23.808  24.133  1.00  0.00     0.133 C 
ATOM     13  O   UNL A   1      31.565  24.133  27.330  1.00  0.00    -0.275 OA
ATOM     14  C   UNL A   1      32.032  25.646  25.457  1.00  0.00     0.102 C 
ATOM     15  C   UNL A   1      30.702  26.377  25.758  1.00  0.00     0.041 C 
ATOM     16  C   UNL A   1      31.178  25.479  23.047  1.00  0.00     0.049 C 
ATOM     17  C   UNL A   1      29.587  26.155  24.790  1.00  0.00    -0.030 C 
ATOM     18  C   UNL A   1      29.807  25.714  23.555  1.00  0.00    -0.030 C 
BRANCH  12  19
ATOM     19  C   UNL A   1      34.509  23.752  24.203  1.00  0.00    -0.024 A 
ATOM     20  C   UNL A   1      35.254  23.051  23.237  1.00  0.00     0.006 A 
ATOM     21  C   UNL A   1      35.178  24.234  25.340  1.00  0.00     0.006 A 
ATOM     22  C   UNL A   1      36.580  22.699  23.477  1.00  0.00     0.000 A 
ATOM     23  C   UNL A   1      36.515  23.898  25.566  1.00  0.00     0.000 A 
ATOM     24  C   UNL A   1      37.202  23.099  24.654  1.00  0.00     0.000 A 
ENDBRANCH  12  19
ENDBRANCH   6   8
ENDBRANCH   5   6
ENDBRANCH   4   5
ENDBRANCH   3   4
ENDBRANCH   2   3
ENDBRANCH   1   2
BRANCH   1  25
ATOM     25  C   UNL A   1      33.121  30.782  26.795  1.00  0.00     0.261 C 
BRANCH  25  26
ATOM     26  O   UNL A   1      33.626  30.488  28.099  1.00  0.00    -0.460 OA
BRANCH  26  27
ATOM     27  C   UNL A   1      34.701  31.245  28.409  1.00  0.00     0.338 C 
ATOM     28  O   UNL A   1      34.705  32.414  28.746  1.00  0.00    -0.246 OA
BRANCH  27  29
ATOM     29  C   UNL A   1      35.882  30.386  28.457  1.00  0.00     0.060 A 
ATOM     30  C   UNL A   1      36.159  29.756  29.671  1.00  0.00     0.016 A 
ATOM     31  C   UNL A   1      36.758  30.312  27.372  1.00  0.00     0.016 A 
ATOM     32  C   UNL A   1      37.383  29.130  29.844  1.00  0.00     0.010 A 
ATOM     33  C   UNL A   1      37.983  29.674  27.545  1.00  0.00     0.010 A 
ATOM     34  C   UNL A   1      38.322  29.146  28.804  1.00  0.00    -0.014 A 
BRANCH  34  35
ATOM     35  C   UNL A   1      39.726  28.810  29.121  1.00  0.00     0.031 A 
ATOM     36  C   UNL A   1      40.542  29.804  29.906  1.00  0.00     0.074 A 
ATOM     37  C   UNL A   1      40.228  27.611  28.786  1.00  0.00     0.049 A 
ATOM     38  N   UNL A   1      41.768  29.701  30.345  1.00  0.00    -0.248 NA
ATOM     39  C   UNL A   1      39.889  31.082  30.240  1.00  0.00     0.031 C 
ATOM     40  C   UNL A   1      39.505  26.564  28.064  1.00  0.00     0.029 A 
ATOM     41  N   UNL A   1      41.462  27.069  29.025  1.00  0.00    -0.354 N 
ATOM     42  C   UNL A   1      42.035  30.900  30.998  1.00  0.00     0.074 A 
ATOM     43  C   UNL A   1      40.860  31.730  30.863  1.00  0.00     0.031 C 
ATOM     44  C   UNL A   1      40.310  25.497  27.928  1.00  0.00     0.029 A 
ATOM     45  C   UNL A   1      41.609  25.798  28.526  1.00  0.00     0.049 A 
ATOM     46  H   UNL A   1      42.176  27.544  29.509  1.00  0.00     0.167 HD
ATOM     47  C   UNL A   1      43.155  31.270  31.662  1.00  0.00     0.031 A 
ATOM     48  C   UNL A   1      42.675  24.978  28.547  1.00  0.00     0.031 A 
ATOM     49  C   UNL A   1      44.322  30.437  31.782  1.00  0.00     0.049 A 
ATOM     50  C   UNL A   1      43.929  25.432  29.246  1.00  0.00     0.074 A 
ATOM     51  C   UNL A   1      45.509  30.705  32.439  1.00  0.00     0.029 A 
ATOM     52  N   UNL A   1      44.447  29.171  31.228  1.00  0.00    -0.354 N 
ATOM     53  N   UNL A   1      44.160  26.561  29.877  1.00  0.00    -0.248 NA
ATOM     54  C   UNL A   1      45.056  24.493  29.254  1.00  0.00     0.031 C 
ATOM     55  C   UNL A   1      46.373  29.626  32.232  1.00  0.00     0.029 A 
ATOM     56  C   UNL A   1      45.699  28.654  31.509  1.00  0.00     0.049 A 
ATOM     57  H   UNL A   1      43.747  28.708  30.712  1.00  0.00     0.167 HD
ATOM     58  C   UNL A   1      45.450  26.451  30.387  1.00  0.00     0.074 A 
ATOM     59  C   UNL A   1      45.938  25.141  30.003  1.00  0.00     0.031 C 
ATOM     60  C   UNL A   1      46.165  27.349  31.112  1.00  0.00     0.031 A 
BRANCH  47  61
ATOM     61  C   UNL A   1      43.180  32.647  32.276  1.00  0.00    -0.014 A 
ATOM     62  C   UNL A   1      43.607  33.769  31.542  1.00  0.00     0.010 A 
ATOM     63  C   UNL A   1      42.747  32.823  33.602  1.00  0.00     0.010 A 
ATOM     64  C   UNL A   1      43.636  35.034  32.137  1.00  0.00     0.020 A 
ATOM     65  C   UNL A   1      42.745  34.090  34.190  1.00  0.00     0.020 A 
ATOM     66  C   UNL A   1      43.207  35.186  33.459  1.00  0.00     0.054 A 
BRANCH  66  67
ATOM     67  S   UNL A   1      43.234  36.843  34.197  1.00  0.00     0.124 S 
ATOM     68  O   UNL A   1      44.404  36.765  35.068  1.00  0.00    -0.237 OA
ATOM     69  O   UNL A   1      43.375  37.710  33.031  1.00  0.00    -0.237 OA
ATOM     70  O   UNL A   1      41.950  36.936  34.888  1.00  0.00    -0.744 OA
ENDBRANCH  66  67
ENDBRANCH  47  61
BRANCH  48  71
ATOM     71  C   UNL A   1      42.599  23.647  27.886  1.00  0.00    -0.014 A 
ATOM     72  C   UNL A   1      42.966  23.487  26.538  1.00  0.00     0.010 A 
ATOM     73  C   UNL A   1      42.164  22.523  28.613  1.00  0.00     0.010 A 
ATOM     74  C   UNL A   1      42.877  22.235  25.924  1.00  0.00     0.020 A 
ATOM     75  C   UNL A   1      42.104  21.264  28.012  1.00  0.00     0.020 A 
ATOM     76  C   UNL A   1      42.448  21.130  26.667  1.00  0.00     0.054 A 
BRANCH  76  77
ATOM     77  S   UNL A   1      42.387  19.506  25.861  1.00  0.00     0.124 S 
ATOM     78  O   UNL A   1      41.004  19.446  25.402  1.00  0.00    -0.237 OA
ATOM     79  O   UNL A   1      43.398  19.637  24.815  1.00  0.00    -0.237 OA
ATOM     80  O   UNL A   1      42.732  18.578  26.938  1.00  0.00    -0.744 OA
ENDBRANCH  76  77
ENDBRANCH  48  71
BRANCH  60  81
ATOM     81  C   UNL A   1      47.533  26.921  31.578  1.00  0.00    -0.014 A 
ATOM     82  C   UNL A   1      47.711  26.178  32.758  1.00  0.00     0.010 A 
ATOM     83  C   UNL A   1      48.658  27.250  30.799  1.00  0.00     0.010 A 
ATOM     84  C   UNL A   1      48.994  25.820  33.179  1.00  0.00     0.020 A 
ATOM     85  C   UNL A   1      49.939  26.863  31.198  1.00  0.00     0.020 A 
ATOM     86  C   UNL A   1      50.101  26.170  32.399  1.00  0.00     0.054 A 
BRANCH  86  87
ATOM     87  S   UNL A   1      51.755  25.688  32.962  1.00  0.00     0.124 S 
ATOM     88  O   UNL A   1      52.183  24.780  31.901  1.00  0.00    -0.237 OA
ATOM     89  O   UNL A   1      52.460  26.965  33.020  1.00  0.00    -0.237 OA
ATOM     90  O   UNL A   1      51.510  25.058  34.259  1.00  0.00    -0.744 OA
ENDBRANCH  86  87
ENDBRANCH  60  81
ENDBRANCH  34  35
ENDBRANCH  27  29
ENDBRANCH  26  27
ENDBRANCH  25  26
ENDBRANCH   1  25
TORSDOF 18
ENDMDL
MODEL 2
REMARK VINA RESULT:     -10.9      0.950      8.171
REMARK SMILES CN1C(=O)[C@@H]2CC=CC[C@]2(C(=O)OCCOCCOC(=O)c2ccc(-c3c4nc(c(-c5ccc(S(=O)(=O)[O-])cc5)c5ccc([nH]5)c(-c5ccc(S(=O)(=O)[O-])cc5)c5nc(c(-c6ccc(S(=O)(=O)[O-])cc6)c6ccc3[nH]6)C=C5)C=C4)cc2)[C@H]1c1ccccc1
REMARK SMILES IDX 17 1 16 2 15 3 14 4 13 5 11 6 12 7 10 8 1 9 2 10 3 11 82 12
REMARK SMILES IDX 4 13 5 14 6 15 9 16 7 17 8 18 83 19 84 20 88 21 85 22 87 23
REMARK SMILES IDX 86 24 18 25 19 26 20 27 21 28 22 29 23 30 81 31 24 32 80 33
REMARK SMILES IDX 25 34 26 35 27 36 74 37 28 38 79 39 73 40 75 41 29 42 78 43
REMARK SMILES IDX 72 44 71 45 30 47 60 48 41 49 59 50 42 51 45 52 58 53 76 54
REMARK SMILES IDX 43 55 44 56 57 58 77 59 46 60 31 61 32 62 40 63 33 64 39 65
REMARK SMILES IDX 34 66 35 67 36 68 37 69 38 70 61 71 62 72 70 73 63 74 69 75
REMARK SMILES IDX 64 76 65 77 66 78 67 79 68 80 47 81 48 82 56 83 49 84 55 85
REMARK SMILES IDX 50 86 51 87 52 88 53 89 54 90
REMARK H PARENT 75 46 45 57
REMARK Flexibility Score: inf
ROOT
ATOM      1  C   UNL A   1      32.062  30.152  26.286  1.00  0.00     0.202 C 
ENDROOT
BRANCH   1   2
ATOM      2  O   UNL A   1      32.614  29.017  25.611  1.00  0.00    -0.374 OA
BRANCH   2   3
ATOM      3  C   UNL A   1      32.682  29.079  24.182  1.00  0.00     0.202 C 
BRANCH   3   4
ATOM      4  C   UNL A   1      33.986  28.403  23.712  1.00  0.00     0.261 C 
BRANCH   4   5
ATOM      5  O   UNL A   1      33.879  27.026  24.113  1.00  0.00    -0.463 OA
BRANCH   5   6
ATOM      6  C   UNL A   1      33.424  26.023  23.288  1.00  0.00     0.315 C 
ATOM      7  O   UNL A   1      33.897  25.705  22.210  1.00  0.00    -0.251 OA
BRANCH   6   8
ATOM      8  C   UNL A   1      32.374  25.241  24.106  1.00  0.00     0.108 C 
ATOM      9  C   UNL A   1      32.558  21.825  25.769  1.00  0.00     0.147 C 
ATOM     10  N   UNL A   1      32.422  23.229  25.425  1.00  0.00    -0.337 N 
ATOM     11  C   UNL A   1      31.953  24.202  26.272  1.00  0.00     0.227 C 
ATOM     12  C   UNL A   1      32.957  23.769  24.205  1.00  0.00     0.133 C 
ATOM     13  O   UNL A   1      31.567  24.006  27.415  1.00  0.00    -0.275 OA
ATOM     14  C   UNL A   1      32.027  25.570  25.583  1.00  0.00     0.102 C 
ATOM     15  C   UNL A   1      30.699  26.292  25.908  1.00  0.00     0.041 C 
ATOM     16  C   UNL A   1      31.164  25.470  23.172  1.00  0.00     0.049 C 
ATOM     17  C   UNL A   1      29.580  26.097  24.939  1.00  0.00    -0.030 C 
ATOM     18  C   UNL A   1      29.795  25.691  23.692  1.00  0.00    -0.030 C 
BRANCH  12  19
ATOM     19  C   UNL A   1      34.500  23.711  24.267  1.00  0.00    -0.024 A 
ATOM     20  C   UNL A   1      35.239  23.018  23.292  1.00  0.00     0.006 A 
ATOM     21  C   UNL A   1      35.174  24.184  25.405  1.00  0.00     0.006 A 
ATOM     22  C   UNL A   1      36.566  22.662  23.522  1.00  0.00     0.000 A 
ATOM     23  C   UNL A   1      36.512  23.844  25.622  1.00  0.00     0.000 A 
ATOM     24  C   UNL A   1      37.194  23.052  24.700  1.00  0.00     0.000 A 
ENDBRANCH  12  19
ENDBRANCH   6   8
ENDBRANCH   5   6
ENDBRANCH   4   5
ENDBRANCH   3   4
ENDBRANCH   2   3
ENDBRANCH   1   2
BRANCH   1  25
ATOM     25  C   UNL A   1      33.013  30.889  27.260  1.00  0.00     0.261 C 
BRANCH  25  26
ATOM     26  O   UNL A   1      34.330  30.335  27.281  1.00  0.00    -0.460 OA
BRANCH  26  27
ATOM     27  C   UNL A   1      35.067  30.821  28.303  1.00  0.00     0.338 C 
ATOM     28  O   UNL A   1      34.732  31.655  29.121  1.00  0.00    -0.246 OA
BRANCH  27  29
ATOM     29  C   UNL A   1      36.304  30.046  28.400  1.00  0.00     0.060 A 
ATOM     30  C   UNL A   1      36.614  29.501  29.646  1.00  0.00     0.016 A 
ATOM     31  C   UNL A   1      37.189  29.974  27.323  1.00  0.00     0.016 A 
ATOM     32  C   UNL A   1      37.876  28.968  29.855  1.00  0.00     0.010 A 
ATOM     33  C   UNL A   1      38.453  29.430  27.532  1.00  0.00     0.010 A 
ATOM     34  C   UNL A   1      38.819  28.992  28.818  1.00  0.00    -0.014 A 
BRANCH  34  35
ATOM     35  C   UNL A   1      40.240  28.768  29.156  1.00  0.00     0.031 A 
ATOM     36  C   UNL A   1      40.866  27.448  28.790  1.00  0.00     0.074 A 
ATOM     37  C   UNL A   1      40.970  29.755  29.700  1.00  0.00     0.049 A 
ATOM     38  N   UNL A   1      42.103  27.053  28.936  1.00  0.00    -0.248 NA
ATOM     39  C   UNL A   1      39.981  26.441  28.179  1.00  0.00     0.031 C 
ATOM     40  C   UNL A   1      40.467  31.084  30.051  1.00  0.00     0.029 A 
ATOM     41  N   UNL A   1      42.296  29.794  30.037  1.00  0.00    -0.354 N 
ATOM     42  C   UNL A   1      42.141  25.752  28.444  1.00  0.00     0.074 A 
ATOM     43  C   UNL A   1      40.799  25.411  28.033  1.00  0.00     0.031 C 
ATOM     44  C   UNL A   1      41.480  31.813  30.548  1.00  0.00     0.029 A 
ATOM     45  C   UNL A   1      42.690  30.994  30.575  1.00  0.00     0.049 A 
ATOM     46  H   UNL A   1      42.908  29.034  29.907  1.00  0.00     0.167 HD
ATOM     47  C   UNL A   1      43.205  24.922  28.332  1.00  0.00     0.031 A 
ATOM     48  C   UNL A   1      43.892  31.381  31.040  1.00  0.00     0.031 A 
ATOM     49  C   UNL A   1      44.536  25.271  28.752  1.00  0.00     0.049 A 
ATOM     50  C   UNL A   1      45.049  30.421  30.953  1.00  0.00     0.074 A 
ATOM     51  C   UNL A   1      45.690  24.513  28.678  1.00  0.00     0.029 A 
ATOM     52  N   UNL A   1      44.888  26.483  29.329  1.00  0.00    -0.354 N 
ATOM     53  N   UNL A   1      45.075  29.202  30.467  1.00  0.00    -0.248 NA
ATOM     54  C   UNL A   1      46.341  30.899  31.460  1.00  0.00     0.031 C 
ATOM     55  C   UNL A   1      46.728  25.243  29.265  1.00  0.00     0.029 A 
ATOM     56  C   UNL A   1      46.237  26.486  29.636  1.00  0.00     0.049 A 
ATOM     57  H   UNL A   1      44.269  27.231  29.494  1.00  0.00     0.167 HD
ATOM     58  C   UNL A   1      46.397  28.780  30.577  1.00  0.00     0.074 A 
ATOM     59  C   UNL A   1      47.137  29.881  31.162  1.00  0.00     0.031 C 
ATOM     60  C   UNL A   1      46.951  27.592  30.223  1.00  0.00     0.031 A 
BRANCH  47  61
ATOM     61  C   UNL A   1      42.960  23.547  27.766  1.00  0.00    -0.014 A 
ATOM     62  C   UNL A   1      42.320  22.546  28.519  1.00  0.00     0.010 A 
ATOM     63  C   UNL A   1      43.358  23.259  26.447  1.00  0.00     0.010 A 
ATOM     64  C   UNL A   1      42.118  21.272  27.978  1.00  0.00     0.020 A 
ATOM     65  C   UNL A   1      43.129  21.997  25.892  1.00  0.00     0.020 A 
ATOM     66  C   UNL A   1      42.526  21.006  26.668  1.00  0.00     0.054 A 
BRANCH  66  67
ATOM     67  S   UNL A   1      42.229  19.352  25.984  1.00  0.00     0.124 S 
ATOM     68  O   UNL A   1      40.781  19.363  25.787  1.00  0.00    -0.237 OA
ATOM     69  O   UNL A   1      43.029  19.362  24.763  1.00  0.00    -0.237 OA
ATOM     70  O   UNL A   1      42.706  18.452  27.032  1.00  0.00    -0.744 OA
ENDBRANCH  66  67
ENDBRANCH  47  61
BRANCH  48  71
ATOM     71  C   UNL A   1      44.058  32.739  31.625  1.00  0.00    -0.014 A 
ATOM     72  C   UNL A   1      44.377  33.842  30.813  1.00  0.00     0.010 A 
ATOM     73  C   UNL A   1      43.889  32.935  33.008  1.00  0.00     0.010 A 
ATOM     74  C   UNL A   1      44.545  35.110  31.375  1.00  0.00     0.020 A 
ATOM     75  C   UNL A   1      44.025  34.207  33.569  1.00  0.00     0.020 A 
ATOM     76  C   UNL A   1      44.365  35.285  32.752  1.00  0.00     0.054 A 
BRANCH  76  77
ATOM     77  S   UNL A   1      44.541  36.949  33.452  1.00  0.00     0.124 S 
ATOM     78  O   UNL A   1      43.838  36.820  34.723  1.00  0.00    -0.237 OA
ATOM     79  O   UNL A   1      45.991  37.100  33.540  1.00  0.00    -0.237 OA
ATOM     80  O   UNL A   1      43.892  37.806  32.460  1.00  0.00    -0.744 OA
ENDBRANCH  76  77
ENDBRANCH  48  71
BRANCH  60  81
ATOM     81  C   UNL A   1      48.438  27.444  30.413  1.00  0.00    -0.014 A 
ATOM     82  C   UNL A   1      48.979  26.854  31.568  1.00  0.00     0.010 A 
ATOM     83  C   UNL A   1      49.308  27.882  29.396  1.00  0.00     0.010 A 
ATOM     84  C   UNL A   1      50.364  26.755  31.728  1.00  0.00     0.020 A 
ATOM     85  C   UNL A   1      50.691  27.753  29.537  1.00  0.00     0.020 A 
ATOM     86  C   UNL A   1      51.211  27.211  30.713  1.00  0.00     0.054 A 
BRANCH  86  87
ATOM     87  S   UNL A   1      53.004  27.066  30.940  1.00  0.00     0.124 S 
ATOM     88  O   UNL A   1      53.297  28.224  31.780  1.00  0.00    -0.237 OA
ATOM     89  O   UNL A   1      53.141  25.766  31.590  1.00  0.00    -0.237 OA
ATOM     90  O   UNL A   1      53.533  27.134  29.579  1.00  0.00    -0.744 OA
ENDBRANCH  86  87
ENDBRANCH  60  81
ENDBRANCH  34  35
ENDBRANCH  27  29
ENDBRANCH  26  27
ENDBRANCH  25  26
ENDBRANCH   1  25
TORSDOF 18
ENDMDL
MODEL 3
REMARK VINA RESULT:     -10.7      2.958      3.494
REMARK SMILES CN1C(=O)[C@@H]2CC=CC[C@]2(C(=O)OCCOCCOC(=O)c2ccc(-c3c4nc(c(-c5ccc(S(=O)(=O)[O-])cc5)c5ccc([nH]5)c(-c5ccc(S(=O)(=O)[O-])cc5)c5nc(c(-c6ccc(S(=O)(=O)[O-])cc6)c6ccc3[nH]6)C=C5)C=C4)cc2)[C@H]1c1ccccc1
REMARK SMILES IDX 17 1 16 2 15 3 14 4 13 5 11 6 12 7 10 8 1 9 2 10 3 11 82 12
REMARK SMILES IDX 4 13 5 14 6 15 9 16 7 17 8 18 83 19 84 20 88 21 85 22 87 23
REMARK SMILES IDX 86 24 18 25 19 26 20 27 21 28 22 29 23 30 81 31 24 32 80 33
REMARK SMILES IDX 25 34 26 35 27 36 74 37 28 38 79 39 73 40 75 41 29 42 78 43
REMARK SMILES IDX 72 44 71 45 30 47 60 48 41 49 59 50 42 51 45 52 58 53 76 54
REMARK SMILES IDX 43 55 44 56 57 58 77 59 46 60 31 61 32 62 40 63 33 64 39 65
REMARK SMILES IDX 34 66 35 67 36 68 37 69 38 70 61 71 62 72 70 73 63 74 69 75
REMARK SMILES IDX 64 76 65 77 66 78 67 79 68 80 47 81 48 82 56 83 49 84 55 85
REMARK SMILES IDX 50 86 51 87 52 88 53 89 54 90
REMARK H PARENT 75 46 45 57
REMARK Flexibility Score: inf
ROOT
ATOM      1  C   UNL A   1      31.722  29.485  26.097  1.00  0.00     0.202 C 
ENDROOT
BRANCH   1   2
ATOM      2  O   UNL A   1      32.045  29.845  24.750  1.00  0.00    -0.374 OA
BRANCH   2   3
ATOM      3  C   UNL A   1      32.264  28.774  23.825  1.00  0.00     0.202 C 
BRANCH   3   4
ATOM      4  C   UNL A   1      33.762  28.409  23.826  1.00  0.00     0.261 C 
BRANCH   4   5
ATOM      5  O   UNL A   1      33.825  27.012  24.161  1.00  0.00    -0.463 OA
BRANCH   5   6
ATOM      6  C   UNL A   1      33.431  26.004  23.313  1.00  0.00     0.315 C 
ATOM      7  O   UNL A   1      33.951  25.711  22.249  1.00  0.00    -0.251 OA
BRANCH   6   8
ATOM      8  C   UNL A   1      32.379  25.180  24.087  1.00  0.00     0.108 C 
ATOM      9  C   UNL A   1      32.599  21.736  25.684  1.00  0.00     0.147 C 
ATOM     10  N   UNL A   1      32.439  23.143  25.365  1.00  0.00    -0.337 N 
ATOM     11  C   UNL A   1      31.926  24.087  26.219  1.00  0.00     0.227 C 
ATOM     12  C   UNL A   1      32.993  23.721  24.171  1.00  0.00     0.133 C 
ATOM     13  O   UNL A   1      31.515  23.858  27.347  1.00  0.00    -0.275 OA
ATOM     14  C   UNL A   1      31.986  25.471  25.560  1.00  0.00     0.102 C 
ATOM     15  C   UNL A   1      30.634  26.156  25.865  1.00  0.00     0.041 C 
ATOM     16  C   UNL A   1      31.189  25.401  23.126  1.00  0.00     0.049 C 
ATOM     17  C   UNL A   1      29.545  25.956  24.862  1.00  0.00    -0.030 C 
ATOM     18  C   UNL A   1      29.802  25.581  23.613  1.00  0.00    -0.030 C 
BRANCH  12  19
ATOM     19  C   UNL A   1      34.534  23.697  24.273  1.00  0.00    -0.024 A 
ATOM     20  C   UNL A   1      35.309  22.944  23.371  1.00  0.00     0.006 A 
ATOM     21  C   UNL A   1      35.173  24.268  25.386  1.00  0.00     0.006 A 
ATOM     22  C   UNL A   1      36.636  22.632  23.659  1.00  0.00     0.000 A 
ATOM     23  C   UNL A   1      36.510  23.971  25.659  1.00  0.00     0.000 A 
ATOM     24  C   UNL A   1      37.228  23.123  24.817  1.00  0.00     0.000 A 
ENDBRANCH  12  19
ENDBRANCH   6   8
ENDBRANCH   5   6
ENDBRANCH   4   5
ENDBRANCH   3   4
ENDBRANCH   2   3
ENDBRANCH   1   2
BRANCH   1  25
ATOM     25  C   UNL A   1      32.857  29.659  27.135  1.00  0.00     0.261 C 
BRANCH  25  26
ATOM     26  O   UNL A   1      33.878  30.560  26.701  1.00  0.00    -0.460 OA
BRANCH  26  27
ATOM     27  C   UNL A   1      34.423  31.242  27.732  1.00  0.00     0.338 C 
ATOM     28  O   UNL A   1      33.864  32.030  28.470  1.00  0.00    -0.246 OA
BRANCH  27  29
ATOM     29  C   UNL A   1      35.782  30.749  27.955  1.00  0.00     0.060 A 
ATOM     30  C   UNL A   1      35.939  29.369  28.091  1.00  0.00     0.016 A 
ATOM     31  C   UNL A   1      36.841  31.635  28.153  1.00  0.00     0.016 A 
ATOM     32  C   UNL A   1      37.152  28.869  28.539  1.00  0.00     0.010 A 
ATOM     33  C   UNL A   1      38.061  31.130  28.594  1.00  0.00     0.010 A 
ATOM     34  C   UNL A   1      38.192  29.754  28.854  1.00  0.00    -0.014 A 
BRANCH  34  35
ATOM     35  C   UNL A   1      39.321  29.251  29.664  1.00  0.00     0.031 A 
ATOM     36  C   UNL A   1      39.416  29.674  31.107  1.00  0.00     0.074 A 
ATOM     37  C   UNL A   1      40.190  28.370  29.142  1.00  0.00     0.049 A 
ATOM     38  N   UNL A   1      40.281  29.315  32.017  1.00  0.00    -0.248 NA
ATOM     39  C   UNL A   1      38.400  30.629  31.586  1.00  0.00     0.031 C 
ATOM     40  C   UNL A   1      40.158  27.864  27.769  1.00  0.00     0.029 A 
ATOM     41  N   UNL A   1      41.259  27.734  29.713  1.00  0.00    -0.354 N 
ATOM     42  C   UNL A   1      39.920  30.005  33.170  1.00  0.00     0.074 A 
ATOM     43  C   UNL A   1      38.785  30.832  32.835  1.00  0.00     0.031 C 
ATOM     44  C   UNL A   1      41.160  26.984  27.608  1.00  0.00     0.029 A 
ATOM     45  C   UNL A   1      41.917  26.889  28.854  1.00  0.00     0.049 A 
ATOM     46  H   UNL A   1      41.529  27.869  30.650  1.00  0.00     0.167 HD
ATOM     47  C   UNL A   1      40.478  29.941  34.402  1.00  0.00     0.031 A 
ATOM     48  C   UNL A   1      43.011  26.132  29.055  1.00  0.00     0.031 A 
ATOM     49  C   UNL A   1      41.615  29.118  34.721  1.00  0.00     0.049 A 
ATOM     50  C   UNL A   1      43.647  26.119  30.420  1.00  0.00     0.074 A 
ATOM     51  C   UNL A   1      42.258  28.969  35.936  1.00  0.00     0.029 A 
ATOM     52  N   UNL A   1      42.279  28.306  33.813  1.00  0.00    -0.354 N 
ATOM     53  N   UNL A   1      43.283  26.760  31.506  1.00  0.00    -0.248 NA
ATOM     54  C   UNL A   1      44.827  25.264  30.589  1.00  0.00     0.031 C 
ATOM     55  C   UNL A   1      43.347  28.113  35.750  1.00  0.00     0.029 A 
ATOM     56  C   UNL A   1      43.339  27.670  34.436  1.00  0.00     0.049 A 
ATOM     57  H   UNL A   1      42.033  28.198  32.866  1.00  0.00     0.167 HD
ATOM     58  C   UNL A   1      44.171  26.356  32.498  1.00  0.00     0.074 A 
ATOM     59  C   UNL A   1      45.077  25.406  31.883  1.00  0.00     0.031 C 
ATOM     60  C   UNL A   1      44.231  26.732  33.801  1.00  0.00     0.031 A 
BRANCH  47  61
ATOM     61  C   UNL A   1      39.888  30.813  35.481  1.00  0.00    -0.014 A 
ATOM     62  C   UNL A   1      40.515  32.005  35.887  1.00  0.00     0.010 A 
ATOM     63  C   UNL A   1      38.672  30.443  36.084  1.00  0.00     0.010 A 
ATOM     64  C   UNL A   1      39.957  32.790  36.901  1.00  0.00     0.020 A 
ATOM     65  C   UNL A   1      38.094  31.240  37.075  1.00  0.00     0.020 A 
ATOM     66  C   UNL A   1      38.750  32.400  37.490  1.00  0.00     0.054 A 
BRANCH  66  67
ATOM     67  S   UNL A   1      38.037  33.450  38.786  1.00  0.00     0.124 S 
ATOM     68  O   UNL A   1      38.623  32.875  39.995  1.00  0.00    -0.237 OA
ATOM     69  O   UNL A   1      38.523  34.779  38.424  1.00  0.00    -0.237 OA
ATOM     70  O   UNL A   1      36.597  33.254  38.640  1.00  0.00    -0.744 OA
ENDBRANCH  66  67
ENDBRANCH  47  61
BRANCH  48  71
ATOM     71  C   UNL A   1      43.570  25.326  27.936  1.00  0.00    -0.014 A 
ATOM     72  C   UNL A   1      44.418  25.909  26.977  1.00  0.00     0.010 A 
ATOM     73  C   UNL A   1      43.258  23.957  27.829  1.00  0.00     0.010 A 
ATOM     74  C   UNL A   1      44.925  25.146  25.922  1.00  0.00     0.020 A 
ATOM     75  C   UNL A   1      43.789  23.184  26.794  1.00  0.00     0.020 A 
ATOM     76  C   UNL A   1      44.609  23.786  25.840  1.00  0.00     0.054 A 
BRANCH  76  77
ATOM     77  S   UNL A   1      45.318  22.805  24.489  1.00  0.00     0.124 S 
ATOM     78  O   UNL A   1      45.887  21.669  25.204  1.00  0.00    -0.237 OA
ATOM     79  O   UNL A   1      44.147  22.514  23.664  1.00  0.00    -0.237 OA
ATOM     80  O   UNL A   1      46.288  23.714  23.880  1.00  0.00    -0.744 OA
ENDBRANCH  76  77
ENDBRANCH  48  71
BRANCH  60  81
ATOM     81  C   UNL A   1      45.281  26.075  34.659  1.00  0.00    -0.014 A 
ATOM     82  C   UNL A   1      45.034  24.864  35.329  1.00  0.00     0.010 A 
ATOM     83  C   UNL A   1      46.550  26.673  34.770  1.00  0.00     0.010 A 
ATOM     84  C   UNL A   1      46.019  24.292  36.139  1.00  0.00     0.020 A 
ATOM     85  C   UNL A   1      47.549  26.086  35.550  1.00  0.00     0.020 A 
ATOM     86  C   UNL A   1      47.268  24.911  36.249  1.00  0.00     0.054 A 
BRANCH  86  87
ATOM     87  S   UNL A   1      48.532  24.146  37.300  1.00  0.00     0.124 S 
ATOM     88  O   UNL A   1      48.093  22.754  37.337  1.00  0.00    -0.237 OA
ATOM     89  O   UNL A   1      49.763  24.397  36.556  1.00  0.00    -0.237 OA
ATOM     90  O   UNL A   1      48.416  24.870  38.564  1.00  0.00    -0.744 OA
ENDBRANCH  86  87
ENDBRANCH  60  81
ENDBRANCH  34  35
ENDBRANCH  27  29
ENDBRANCH  26  27
ENDBRANCH  25  26
ENDBRANCH   1  25
TORSDOF 18
ENDMDL
