MODEL 1
REMARK VINA RESULT:      -9.9      0.000      0.000
REMARK SMILES O=C(OCCOCCOC(=O)[C@@H]1C[N@@H+](CCOc2ccc(F)cc2)C[C@H]1C1CC1)c1ccc(-c2c3nc(c(-c4ccc(S(=O)(=O)[O-])cc4)c4ccc([nH]4)c(-c4ccc(S(=O)(=O)[O-])cc4)c4nc(c(-c5ccc(S(=O)(=O)[O-])cc5)c5ccc2[nH]5)C=C4)C=C3)cc1
REMARK SMILES IDX 7 1 6 2 5 3 4 4 3 5 2 6 1 7 30 8 31 9 89 10 32 11 88 12
REMARK SMILES IDX 33 13 34 14 35 15 82 16 36 17 87 18 81 19 83 20 37 21 86 22
REMARK SMILES IDX 80 23 79 24 38 26 68 27 49 28 67 29 50 30 53 31 66 32 84 33
REMARK SMILES IDX 51 34 52 35 65 37 85 38 54 39 39 40 40 41 48 42 41 43 47 44
REMARK SMILES IDX 42 45 43 46 44 47 45 48 46 49 69 50 70 51 78 52 71 53 77 54
REMARK SMILES IDX 72 55 73 56 74 57 75 58 76 59 55 60 56 61 64 62 57 63 63 64
REMARK SMILES IDX 58 65 59 66 60 67 61 68 62 69 8 70 9 71 10 72 11 73 12 74
REMARK SMILES IDX 13 75 26 76 14 77 25 78 27 80 28 81 29 82 15 83 16 84 17 85
REMARK SMILES IDX 18 86 19 87 24 88 20 89 23 90 21 91 22 92
REMARK H PARENT 83 25 53 36 14 79
REMARK Flexibility Score: inf
ROOT
ATOM      1  C   UNL A   1      37.517  23.574  25.349  1.00  0.00     0.202 C 
ENDROOT
BRANCH   1   2
ATOM      2  O   UNL A   1      38.337  22.574  25.967  1.00  0.00    -0.374 OA
BRANCH   2   3
ATOM      3  C   UNL A   1      39.389  23.047  26.816  1.00  0.00     0.202 C 
BRANCH   3   4
ATOM      4  C   UNL A   1      40.835  22.987  26.312  1.00  0.00     0.261 C 
BRANCH   4   5
ATOM      5  O   UNL A   1      41.584  24.132  26.728  1.00  0.00    -0.460 OA
BRANCH   5   6
ATOM      6  C   UNL A   1      41.191  25.425  26.630  1.00  0.00     0.338 C 
ATOM      7  O   UNL A   1      40.934  25.885  25.521  1.00  0.00    -0.246 OA
BRANCH   6   8
ATOM      8  C   UNL A   1      41.053  26.316  27.819  1.00  0.00     0.060 A 
ATOM      9  C   UNL A   1      41.901  27.385  28.121  1.00  0.00     0.016 A 
ATOM     10  C   UNL A   1      39.936  26.105  28.638  1.00  0.00     0.016 A 
ATOM     11  C   UNL A   1      41.710  28.179  29.229  1.00  0.00     0.010 A 
ATOM     12  C   UNL A   1      39.702  26.931  29.736  1.00  0.00     0.010 A 
ATOM     13  C   UNL A   1      40.601  27.962  30.028  1.00  0.00    -0.014 A 
BRANCH  13  14
ATOM     14  C   UNL A   1      40.470  28.804  31.215  1.00  0.00     0.031 A 
ATOM     15  C   UNL A   1      39.385  29.823  31.224  1.00  0.00     0.074 A 
ATOM     16  C   UNL A   1      41.243  28.538  32.283  1.00  0.00     0.049 A 
ATOM     17  N   UNL A   1      39.156  30.763  32.093  1.00  0.00    -0.248 NA
ATOM     18  C   UNL A   1      38.416  29.774  30.112  1.00  0.00     0.031 C 
ATOM     19  C   UNL A   1      42.203  27.429  32.379  1.00  0.00     0.029 A 
ATOM     20  N   UNL A   1      41.333  29.159  33.495  1.00  0.00    -0.354 N 
ATOM     21  C   UNL A   1      38.061  31.459  31.602  1.00  0.00     0.074 A 
ATOM     22  C   UNL A   1      37.641  30.813  30.381  1.00  0.00     0.031 C 
ATOM     23  C   UNL A   1      42.787  27.457  33.586  1.00  0.00     0.029 A 
ATOM     24  C   UNL A   1      42.316  28.634  34.302  1.00  0.00     0.049 A 
ATOM     25  H   UNL A   1      40.754  29.908  33.765  1.00  0.00     0.167 HD
ATOM     26  C   UNL A   1      37.499  32.567  32.127  1.00  0.00     0.031 A 
ATOM     27  C   UNL A   1      42.821  29.114  35.452  1.00  0.00     0.031 A 
ATOM     28  C   UNL A   1      37.972  33.164  33.344  1.00  0.00     0.049 A 
ATOM     29  C   UNL A   1      42.248  30.412  35.954  1.00  0.00     0.074 A 
ATOM     30  C   UNL A   1      37.531  34.310  33.973  1.00  0.00     0.029 A 
ATOM     31  N   UNL A   1      39.011  32.651  34.110  1.00  0.00    -0.354 N 
ATOM     32  N   UNL A   1      41.244  31.108  35.467  1.00  0.00    -0.248 NA
ATOM     33  C   UNL A   1      42.886  31.009  37.131  1.00  0.00     0.031 C 
ATOM     34  C   UNL A   1      38.349  34.525  35.086  1.00  0.00     0.029 A 
ATOM     35  C   UNL A   1      39.258  33.479  35.185  1.00  0.00     0.049 A 
ATOM     36  H   UNL A   1      39.500  31.818  33.915  1.00  0.00     0.167 HD
ATOM     37  C   UNL A   1      41.131  32.227  36.277  1.00  0.00     0.074 A 
ATOM     38  C   UNL A   1      42.146  32.096  37.306  1.00  0.00     0.031 C 
ATOM     39  C   UNL A   1      40.282  33.281  36.181  1.00  0.00     0.031 A 
BRANCH  26  40
ATOM     40  C   UNL A   1      36.419  33.245  31.335  1.00  0.00    -0.014 A 
ATOM     41  C   UNL A   1      35.088  33.297  31.779  1.00  0.00     0.010 A 
ATOM     42  C   UNL A   1      36.761  33.857  30.114  1.00  0.00     0.010 A 
ATOM     43  C   UNL A   1      34.114  33.941  31.009  1.00  0.00     0.020 A 
ATOM     44  C   UNL A   1      35.796  34.518  29.352  1.00  0.00     0.020 A 
ATOM     45  C   UNL A   1      34.476  34.551  29.802  1.00  0.00     0.054 A 
BRANCH  45  46
ATOM     46  S   UNL A   1      33.203  35.425  28.849  1.00  0.00     0.124 S 
ATOM     47  O   UNL A   1      34.005  36.354  28.057  1.00  0.00    -0.237 OA
ATOM     48  O   UNL A   1      32.570  34.344  28.099  1.00  0.00    -0.237 OA
ATOM     49  O   UNL A   1      32.365  36.044  29.873  1.00  0.00    -0.744 OA
ENDBRANCH  45  46
ENDBRANCH  26  40
BRANCH  27  50
ATOM     50  C   UNL A   1      43.991  28.461  36.103  1.00  0.00    -0.014 A 
ATOM     51  C   UNL A   1      43.832  27.342  36.936  1.00  0.00     0.010 A 
ATOM     52  C   UNL A   1      45.288  28.984  35.912  1.00  0.00     0.010 A 
ATOM     53  C   UNL A   1      44.936  26.783  37.592  1.00  0.00     0.020 A 
ATOM     54  C   UNL A   1      46.396  28.408  36.537  1.00  0.00     0.020 A 
ATOM     55  C   UNL A   1      46.209  27.325  37.394  1.00  0.00     0.054 A 
BRANCH  55  56
ATOM     56  S   UNL A   1      47.625  26.594  38.263  1.00  0.00     0.124 S 
ATOM     57  O   UNL A   1      48.432  27.771  38.569  1.00  0.00    -0.237 OA
ATOM     58  O   UNL A   1      46.992  25.945  39.409  1.00  0.00    -0.237 OA
ATOM     59  O   UNL A   1      48.198  25.680  37.276  1.00  0.00    -0.744 OA
ENDBRANCH  55  56
ENDBRANCH  27  50
BRANCH  39  60
ATOM     60  C   UNL A   1      40.415  34.350  37.223  1.00  0.00    -0.014 A 
ATOM     61  C   UNL A   1      41.264  35.450  37.015  1.00  0.00     0.010 A 
ATOM     62  C   UNL A   1      39.605  34.298  38.370  1.00  0.00     0.010 A 
ATOM     63  C   UNL A   1      41.304  36.484  37.948  1.00  0.00     0.020 A 
ATOM     64  C   UNL A   1      39.621  35.346  39.289  1.00  0.00     0.020 A 
ATOM     65  C   UNL A   1      40.476  36.429  39.075  1.00  0.00     0.054 A 
BRANCH  65  66
ATOM     66  S   UNL A   1      40.481  37.829  40.223  1.00  0.00     0.124 S 
ATOM     67  O   UNL A   1      41.604  38.621  39.729  1.00  0.00    -0.237 OA
ATOM     68  O   UNL A   1      39.159  38.416  40.018  1.00  0.00    -0.237 OA
ATOM     69  O   UNL A   1      40.684  37.206  41.529  1.00  0.00    -0.744 OA
ENDBRANCH  65  66
ENDBRANCH  39  60
ENDBRANCH  13  14
ENDBRANCH   6   8
ENDBRANCH   5   6
ENDBRANCH   4   5
ENDBRANCH   3   4
ENDBRANCH   2   3
ENDBRANCH   1   2
BRANCH   1  70
ATOM     70  C   UNL A   1      36.143  23.628  26.007  1.00  0.00     0.261 C 
BRANCH  70  71
ATOM     71  O   UNL A   1      35.313  24.422  25.147  1.00  0.00    -0.463 OA
BRANCH  71  72
ATOM     72  C   UNL A   1      34.048  24.584  25.599  1.00  0.00     0.315 C 
ATOM     73  O   UNL A   1      33.502  23.842  26.401  1.00  0.00    -0.252 OA
BRANCH  72  74
ATOM     74  C   UNL A   1      33.407  25.851  25.082  1.00  0.00     0.163 C 
ATOM     75  C   UNL A   1      32.497  26.600  26.044  1.00  0.00     0.278 C 
ATOM     76  C   UNL A   1      32.486  25.500  23.908  1.00  0.00     0.067 C 
ATOM     77  N   UNL A   1      31.584  27.371  25.182  1.00  0.00    -0.331 N 
ATOM     78  C   UNL A   1      31.274  26.441  24.098  1.00  0.00     0.267 C 
ATOM     79  H   UNL A   1      30.741  27.668  25.674  1.00  0.00     0.348 HD
BRANCH  76  80
ATOM     80  C   UNL A   1      33.096  25.615  22.538  1.00  0.00    -0.001 C 
ATOM     81  C   UNL A   1      33.067  24.509  21.505  1.00  0.00     0.004 C 
ATOM     82  C   UNL A   1      32.264  25.755  21.288  1.00  0.00     0.004 C 
ENDBRANCH  76  80
BRANCH  77  83
ATOM     83  C   UNL A   1      32.099  28.696  24.764  1.00  0.00     0.304 C 
BRANCH  83  84
ATOM     84  C   UNL A   1      31.176  29.919  24.493  1.00  0.00     0.290 C 
BRANCH  84  85
ATOM     85  O   UNL A   1      29.842  29.525  24.107  1.00  0.00    -0.488 OA
BRANCH  85  86
ATOM     86  C   UNL A   1      29.181  30.423  23.313  1.00  0.00     0.119 A 
ATOM     87  C   UNL A   1      28.823  29.981  22.035  1.00  0.00     0.049 A 
ATOM     88  C   UNL A   1      28.895  31.734  23.704  1.00  0.00     0.049 A 
ATOM     89  C   UNL A   1      28.337  30.887  21.092  1.00  0.00     0.043 A 
ATOM     90  C   UNL A   1      28.380  32.637  22.763  1.00  0.00     0.043 A 
ATOM     91  C   UNL A   1      28.142  32.213  21.459  1.00  0.00     0.123 A 
ATOM     92  F   UNL A   1      27.758  33.102  20.533  1.00  0.00    -0.207 F 
ENDBRANCH  85  86
ENDBRANCH  84  85
ENDBRANCH  83  84
ENDBRANCH  77  83
ENDBRANCH  72  74
ENDBRANCH  71  72
ENDBRANCH  70  71
ENDBRANCH   1  70
TORSDOF 22
ENDMDL
MODEL 2
REMARK VINA RESULT:      -9.9      5.631     12.641
REMARK SMILES O=C(OCCOCCOC(=O)[C@@H]1C[N@@H+](CCOc2ccc(F)cc2)C[C@H]1C1CC1)c1ccc(-c2c3nc(c(-c4ccc(S(=O)(=O)[O-])cc4)c4ccc([nH]4)c(-c4ccc(S(=O)(=O)[O-])cc4)c4nc(c(-c5ccc(S(=O)(=O)[O-])cc5)c5ccc2[nH]5)C=C4)C=C3)cc1
REMARK SMILES IDX 7 1 6 2 5 3 4 4 3 5 2 6 1 7 30 8 31 9 89 10 32 11 88 12
REMARK SMILES IDX 33 13 34 14 35 15 82 16 36 17 87 18 81 19 83 20 37 21 86 22
REMARK SMILES IDX 80 23 79 24 38 26 68 27 49 28 67 29 50 30 53 31 66 32 84 33
REMARK SMILES IDX 51 34 52 35 65 37 85 38 54 39 39 40 40 41 48 42 41 43 47 44
REMARK SMILES IDX 42 45 43 46 44 47 45 48 46 49 69 50 70 51 78 52 71 53 77 54
REMARK SMILES IDX 72 55 73 56 74 57 75 58 76 59 55 60 56 61 64 62 57 63 63 64
REMARK SMILES IDX 58 65 59 66 60 67 61 68 62 69 8 70 9 71 10 72 11 73 12 74
REMARK SMILES IDX 13 75 26 76 14 77 25 78 27 80 28 81 29 82 15 83 16 84 17 85
REMARK SMILES IDX 18 86 19 87 24 88 20 89 23 90 21 91 22 92
REMARK H PARENT 83 25 53 36 14 79
REMARK Flexibility Score: inf
ROOT
ATOM      1  C   UNL A   1      34.585  32.769  32.009  1.00  0.00     0.202 C 
ENDROOT
BRANCH   1   2
ATOM      2  O   UNL A   1      34.006  33.399  30.858  1.00  0.00    -0.374 OA
BRANCH   2   3
ATOM      3  C   UNL A   1      34.912  33.772  29.813  1.00  0.00     0.202 C 
BRANCH   3   4
ATOM      4  C   UNL A   1      34.911  32.968  28.507  1.00  0.00     0.261 C 
BRANCH   4   5
ATOM      5  O   UNL A   1      34.254  31.709  28.666  1.00  0.00    -0.460 OA
BRANCH   5   6
ATOM      6  C   UNL A   1      34.744  30.498  28.310  1.00  0.00     0.338 C 
ATOM      7  O   UNL A   1      33.991  29.689  27.772  1.00  0.00    -0.246 OA
BRANCH   6   8
ATOM      8  C   UNL A   1      36.164  30.104  28.539  1.00  0.00     0.060 A 
ATOM      9  C   UNL A   1      36.689  29.675  29.761  1.00  0.00     0.016 A 
ATOM     10  C   UNL A   1      37.003  30.088  27.416  1.00  0.00     0.016 A 
ATOM     11  C   UNL A   1      38.010  29.313  29.903  1.00  0.00     0.010 A 
ATOM     12  C   UNL A   1      38.329  29.677  27.533  1.00  0.00     0.010 A 
ATOM     13  C   UNL A   1      38.826  29.298  28.785  1.00  0.00    -0.014 A 
BRANCH  13  14
ATOM     14  C   UNL A   1      40.229  28.949  28.999  1.00  0.00     0.031 A 
ATOM     15  C   UNL A   1      41.120  29.991  29.580  1.00  0.00     0.074 A 
ATOM     16  C   UNL A   1      40.617  27.679  28.787  1.00  0.00     0.049 A 
ATOM     17  N   UNL A   1      42.410  29.965  29.737  1.00  0.00    -0.248 NA
ATOM     18  C   UNL A   1      40.473  31.227  30.062  1.00  0.00     0.031 C 
ATOM     19  C   UNL A   1      39.731  26.578  28.383  1.00  0.00     0.029 A 
ATOM     20  N   UNL A   1      41.844  27.092  28.897  1.00  0.00    -0.354 N 
ATOM     21  C   UNL A   1      42.741  31.202  30.272  1.00  0.00     0.074 A 
ATOM     22  C   UNL A   1      41.516  31.943  30.454  1.00  0.00     0.031 C 
ATOM     23  C   UNL A   1      40.450  25.452  28.275  1.00  0.00     0.029 A 
ATOM     24  C   UNL A   1      41.852  25.774  28.505  1.00  0.00     0.049 A 
ATOM     25  H   UNL A   1      42.644  27.565  29.223  1.00  0.00     0.167 HD
ATOM     26  C   UNL A   1      43.978  31.668  30.540  1.00  0.00     0.031 A 
ATOM     27  C   UNL A   1      42.896  24.956  28.285  1.00  0.00     0.031 A 
ATOM     28  C   UNL A   1      45.158  30.878  30.329  1.00  0.00     0.049 A 
ATOM     29  C   UNL A   1      44.268  25.541  28.487  1.00  0.00     0.074 A 
ATOM     30  C   UNL A   1      46.479  31.231  30.514  1.00  0.00     0.029 A 
ATOM     31  N   UNL A   1      45.145  29.567  29.870  1.00  0.00    -0.354 N 
ATOM     32  N   UNL A   1      44.594  26.730  28.944  1.00  0.00    -0.248 NA
ATOM     33  C   UNL A   1      45.410  24.699  28.118  1.00  0.00     0.031 C 
ATOM     34  C   UNL A   1      47.268  30.152  30.103  1.00  0.00     0.029 A 
ATOM     35  C   UNL A   1      46.436  29.106  29.723  1.00  0.00     0.049 A 
ATOM     36  H   UNL A   1      44.333  29.042  29.678  1.00  0.00     0.167 HD
ATOM     37  C   UNL A   1      45.979  26.780  28.916  1.00  0.00     0.074 A 
ATOM     38  C   UNL A   1      46.429  25.489  28.431  1.00  0.00     0.031 C 
ATOM     39  C   UNL A   1      46.813  27.799  29.242  1.00  0.00     0.031 A 
BRANCH  26  40
ATOM     40  C   UNL A   1      44.107  33.101  30.966  1.00  0.00    -0.014 A 
ATOM     41  C   UNL A   1      44.160  33.477  32.318  1.00  0.00     0.010 A 
ATOM     42  C   UNL A   1      44.189  34.095  29.973  1.00  0.00     0.010 A 
ATOM     43  C   UNL A   1      44.282  34.825  32.670  1.00  0.00     0.020 A 
ATOM     44  C   UNL A   1      44.331  35.440  30.319  1.00  0.00     0.020 A 
ATOM     45  C   UNL A   1      44.371  35.798  31.667  1.00  0.00     0.054 A 
BRANCH  45  46
ATOM     46  S   UNL A   1      44.583  37.533  32.150  1.00  0.00     0.124 S 
ATOM     47  O   UNL A   1      44.614  38.206  30.854  1.00  0.00    -0.237 OA
ATOM     48  O   UNL A   1      43.393  37.785  32.959  1.00  0.00    -0.237 OA
ATOM     49  O   UNL A   1      45.845  37.539  32.885  1.00  0.00    -0.744 OA
ENDBRANCH  45  46
ENDBRANCH  26  40
BRANCH  27  50
ATOM     50  C   UNL A   1      42.692  23.591  27.723  1.00  0.00    -0.014 A 
ATOM     51  C   UNL A   1      42.568  22.469  28.559  1.00  0.00     0.010 A 
ATOM     52  C   UNL A   1      42.650  23.402  26.326  1.00  0.00     0.010 A 
ATOM     53  C   UNL A   1      42.445  21.187  28.012  1.00  0.00     0.020 A 
ATOM     54  C   UNL A   1      42.491  22.128  25.775  1.00  0.00     0.020 A 
ATOM     55  C   UNL A   1      42.414  21.024  26.623  1.00  0.00     0.054 A 
BRANCH  55  56
ATOM     56  S   UNL A   1      42.265  19.352  25.934  1.00  0.00     0.124 S 
ATOM     57  O   UNL A   1      40.836  19.267  25.654  1.00  0.00    -0.237 OA
ATOM     58  O   UNL A   1      43.137  19.414  24.762  1.00  0.00    -0.237 OA
ATOM     59  O   UNL A   1      42.745  18.492  27.014  1.00  0.00    -0.744 OA
ENDBRANCH  55  56
ENDBRANCH  27  50
BRANCH  39  60
ATOM     60  C   UNL A   1      48.282  27.540  29.097  1.00  0.00    -0.014 A 
ATOM     61  C   UNL A   1      48.944  27.833  27.893  1.00  0.00     0.010 A 
ATOM     62  C   UNL A   1      49.016  27.095  30.209  1.00  0.00     0.010 A 
ATOM     63  C   UNL A   1      50.326  27.678  27.804  1.00  0.00     0.020 A 
ATOM     64  C   UNL A   1      50.402  26.969  30.131  1.00  0.00     0.020 A 
ATOM     65  C   UNL A   1      51.047  27.255  28.926  1.00  0.00     0.054 A 
BRANCH  65  66
ATOM     66  S   UNL A   1      52.851  27.152  28.809  1.00  0.00     0.124 S 
ATOM     67  O   UNL A   1      53.076  27.386  27.385  1.00  0.00    -0.237 OA
ATOM     68  O   UNL A   1      53.292  28.222  29.700  1.00  0.00    -0.237 OA
ATOM     69  O   UNL A   1      53.151  25.799  29.273  1.00  0.00    -0.744 OA
ENDBRANCH  65  66
ENDBRANCH  39  60
ENDBRANCH  13  14
ENDBRANCH   6   8
ENDBRANCH   5   6
ENDBRANCH   4   5
ENDBRANCH   3   4
ENDBRANCH   2   3
ENDBRANCH   1   2
BRANCH   1  70
ATOM     70  C   UNL A   1      35.789  33.559  32.507  1.00  0.00     0.261 C 
BRANCH  70  71
ATOM     71  O   UNL A   1      36.644  32.618  33.174  1.00  0.00    -0.463 OA
BRANCH  71  72
ATOM     72  C   UNL A   1      37.784  32.337  32.501  1.00  0.00     0.315 C 
ATOM     73  O   UNL A   1      37.991  32.646  31.337  1.00  0.00    -0.252 OA
BRANCH  72  74
ATOM     74  C   UNL A   1      38.827  31.684  33.378  1.00  0.00     0.163 C 
ATOM     75  C   UNL A   1      38.784  30.166  33.479  1.00  0.00     0.278 C 
ATOM     76  C   UNL A   1      38.624  32.152  34.824  1.00  0.00     0.067 C 
ATOM     77  N   UNL A   1      39.430  29.852  34.765  1.00  0.00    -0.331 N 
ATOM     78  C   UNL A   1      38.920  30.887  35.663  1.00  0.00     0.267 C 
ATOM     79  H   UNL A   1      39.197  28.917  35.100  1.00  0.00     0.348 HD
BRANCH  76  80
ATOM     80  C   UNL A   1      39.448  33.334  35.253  1.00  0.00    -0.001 C 
ATOM     81  C   UNL A   1      38.935  34.758  35.273  1.00  0.00     0.004 C 
ATOM     82  C   UNL A   1      39.222  34.050  36.561  1.00  0.00     0.004 C 
ENDBRANCH  76  80
BRANCH  77  83
ATOM     83  C   UNL A   1      40.905  29.727  34.702  1.00  0.00     0.304 C 
BRANCH  83  84
ATOM     84  C   UNL A   1      41.764  29.207  35.890  1.00  0.00     0.290 C 
BRANCH  84  85
ATOM     85  O   UNL A   1      41.130  28.118  36.593  1.00  0.00    -0.488 OA
BRANCH  85  86
ATOM     86  C   UNL A   1      41.592  26.871  36.267  1.00  0.00     0.119 A 
ATOM     87  C   UNL A   1      42.632  26.817  35.332  1.00  0.00     0.049 A 
ATOM     88  C   UNL A   1      41.055  25.690  36.784  1.00  0.00     0.049 A 
ATOM     89  C   UNL A   1      43.020  25.591  34.790  1.00  0.00     0.043 A 
ATOM     90  C   UNL A   1      41.466  24.457  36.258  1.00  0.00     0.043 A 
ATOM     91  C   UNL A   1      42.417  24.424  35.241  1.00  0.00     0.123 A 
ATOM     92  F   UNL A   1      42.726  23.257  34.661  1.00  0.00    -0.207 F 
ENDBRANCH  85  86
ENDBRANCH  84  85
ENDBRANCH  83  84
ENDBRANCH  77  83
ENDBRANCH  72  74
ENDBRANCH  71  72
ENDBRANCH  70  71
ENDBRANCH   1  70
TORSDOF 22
ENDMDL
MODEL 3
REMARK VINA RESULT:      -9.8      7.063     12.301
REMARK SMILES O=C(OCCOCCOC(=O)[C@@H]1C[N@@H+](CCOc2ccc(F)cc2)C[C@H]1C1CC1)c1ccc(-c2c3nc(c(-c4ccc(S(=O)(=O)[O-])cc4)c4ccc([nH]4)c(-c4ccc(S(=O)(=O)[O-])cc4)c4nc(c(-c5ccc(S(=O)(=O)[O-])cc5)c5ccc2[nH]5)C=C4)C=C3)cc1
REMARK SMILES IDX 7 1 6 2 5 3 4 4 3 5 2 6 1 7 30 8 31 9 89 10 32 11 88 12
REMARK SMILES IDX 33 13 34 14 35 15 82 16 36 17 87 18 81 19 83 20 37 21 86 22
REMARK SMILES IDX 80 23 79 24 38 26 68 27 49 28 67 29 50 30 53 31 66 32 84 33
REMARK SMILES IDX 51 34 52 35 65 37 85 38 54 39 39 40 40 41 48 42 41 43 47 44
REMARK SMILES IDX 42 45 43 46 44 47 45 48 46 49 69 50 70 51 78 52 71 53 77 54
REMARK SMILES IDX 72 55 73 56 74 57 75 58 76 59 55 60 56 61 64 62 57 63 63 64
REMARK SMILES IDX 58 65 59 66 60 67 61 68 62 69 8 70 9 71 10 72 11 73 12 74
REMARK SMILES IDX 13 75 26 76 14 77 25 78 27 80 28 81 29 82 15 83 16 84 17 85
REMARK SMILES IDX 18 86 19 87 24 88 20 89 23 90 21 91 22 92
REMARK H PARENT 83 25 53 36 14 79
REMARK Flexibility Score: inf
ROOT
ATOM      1  C   UNL A   1      32.715  29.642  27.035  1.00  0.00     0.202 C 
ENDROOT
BRANCH   1   2
ATOM      2  O   UNL A   1      33.415  30.485  27.959  1.00  0.00    -0.374 OA
BRANCH   2   3
ATOM      3  C   UNL A   1      34.374  31.388  27.396  1.00  0.00     0.202 C 
BRANCH   3   4
ATOM      4  C   UNL A   1      35.818  31.354  27.910  1.00  0.00     0.261 C 
BRANCH   4   5
ATOM      5  O   UNL A   1      36.375  30.040  27.823  1.00  0.00    -0.460 OA
BRANCH   5   6
ATOM      6  C   UNL A   1      37.203  29.458  28.722  1.00  0.00     0.338 C 
ATOM      7  O   UNL A   1      36.740  29.075  29.794  1.00  0.00    -0.246 OA
BRANCH   6   8
ATOM      8  C   UNL A   1      38.659  29.257  28.465  1.00  0.00     0.060 A 
ATOM      9  C   UNL A   1      39.270  29.347  27.211  1.00  0.00     0.016 A 
ATOM     10  C   UNL A   1      39.474  29.047  29.585  1.00  0.00     0.016 A 
ATOM     11  C   UNL A   1      40.624  29.163  27.042  1.00  0.00     0.010 A 
ATOM     12  C   UNL A   1      40.853  28.909  29.437  1.00  0.00     0.010 A 
ATOM     13  C   UNL A   1      41.418  28.960  28.158  1.00  0.00    -0.014 A 
BRANCH  13  14
ATOM     14  C   UNL A   1      42.841  28.727  27.919  1.00  0.00     0.031 A 
ATOM     15  C   UNL A   1      43.785  29.835  28.231  1.00  0.00     0.074 A 
ATOM     16  C   UNL A   1      43.241  27.495  27.556  1.00  0.00     0.049 A 
ATOM     17  N   UNL A   1      45.059  29.915  27.982  1.00  0.00    -0.248 NA
ATOM     18  C   UNL A   1      43.226  31.009  28.928  1.00  0.00     0.031 C 
ATOM     19  C   UNL A   1      42.360  26.327  27.409  1.00  0.00     0.029 A 
ATOM     20  N   UNL A   1      44.483  27.012  27.264  1.00  0.00    -0.354 N 
ATOM     21  C   UNL A   1      45.442  31.171  28.429  1.00  0.00     0.074 A 
ATOM     22  C   UNL A   1      44.280  31.807  29.003  1.00  0.00     0.031 C 
ATOM     23  C   UNL A   1      43.096  25.265  27.049  1.00  0.00     0.029 A 
ATOM     24  C   UNL A   1      44.471  25.701  26.847  1.00  0.00     0.049 A 
ATOM     25  H   UNL A   1      45.306  27.547  27.344  1.00  0.00     0.167 HD
ATOM     26  C   UNL A   1      46.662  31.738  28.319  1.00  0.00     0.031 A 
ATOM     27  C   UNL A   1      45.456  24.975  26.289  1.00  0.00     0.031 A 
ATOM     28  C   UNL A   1      47.775  31.050  27.729  1.00  0.00     0.049 A 
ATOM     29  C   UNL A   1      46.774  25.670  26.078  1.00  0.00     0.074 A 
ATOM     30  C   UNL A   1      49.058  31.510  27.510  1.00  0.00     0.029 A 
ATOM     31  N   UNL A   1      47.722  29.745  27.254  1.00  0.00    -0.354 N 
ATOM     32  N   UNL A   1      47.132  26.879  26.451  1.00  0.00    -0.248 NA
ATOM     33  C   UNL A   1      47.807  24.929  25.348  1.00  0.00     0.031 C 
ATOM     34  C   UNL A   1      49.762  30.503  26.842  1.00  0.00     0.029 A 
ATOM     35  C   UNL A   1      48.936  29.394  26.702  1.00  0.00     0.049 A 
ATOM     36  H   UNL A   1      46.934  29.157  27.305  1.00  0.00     0.167 HD
ATOM     37  C   UNL A   1      48.432  27.045  26.000  1.00  0.00     0.074 A 
ATOM     38  C   UNL A   1      48.808  25.799  25.358  1.00  0.00     0.031 C 
ATOM     39  C   UNL A   1      49.246  28.127  26.087  1.00  0.00     0.031 A 
BRANCH  26  40
ATOM     40  C   UNL A   1      46.805  33.173  28.731  1.00  0.00    -0.014 A 
ATOM     41  C   UNL A   1      46.244  34.223  27.986  1.00  0.00     0.010 A 
ATOM     42  C   UNL A   1      47.515  33.470  29.909  1.00  0.00     0.010 A 
ATOM     43  C   UNL A   1      46.401  35.548  28.408  1.00  0.00     0.020 A 
ATOM     44  C   UNL A   1      47.658  34.788  30.345  1.00  0.00     0.020 A 
ATOM     45  C   UNL A   1      47.104  35.821  29.588  1.00  0.00     0.054 A 
BRANCH  45  46
ATOM     46  S   UNL A   1      47.247  37.542  30.141  1.00  0.00     0.124 S 
ATOM     47  O   UNL A   1      48.680  37.788  29.995  1.00  0.00    -0.237 OA
ATOM     48  O   UNL A   1      46.390  38.252  29.195  1.00  0.00    -0.237 OA
ATOM     49  O   UNL A   1      46.759  37.508  31.517  1.00  0.00    -0.744 OA
ENDBRANCH  45  46
ENDBRANCH  26  40
BRANCH  27  50
ATOM     50  C   UNL A   1      45.194  23.602  25.773  1.00  0.00    -0.014 A 
ATOM     51  C   UNL A   1      45.601  22.464  26.489  1.00  0.00     0.010 A 
ATOM     52  C   UNL A   1      44.551  23.425  24.530  1.00  0.00     0.010 A 
ATOM     53  C   UNL A   1      45.406  21.183  25.957  1.00  0.00     0.020 A 
ATOM     54  C   UNL A   1      44.323  22.149  24.011  1.00  0.00     0.020 A 
ATOM     55  C   UNL A   1      44.775  21.035  24.718  1.00  0.00     0.054 A 
BRANCH  55  56
ATOM     56  S   UNL A   1      44.542  19.368  24.040  1.00  0.00     0.124 S 
ATOM     57  O   UNL A   1      43.273  18.972  24.640  1.00  0.00    -0.237 OA
ATOM     58  O   UNL A   1      44.513  19.613  22.600  1.00  0.00    -0.237 OA
ATOM     59  O   UNL A   1      45.716  18.638  24.516  1.00  0.00    -0.744 OA
ENDBRANCH  55  56
ENDBRANCH  27  50
BRANCH  39  60
ATOM     60  C   UNL A   1      50.613  27.992  25.488  1.00  0.00    -0.014 A 
ATOM     61  C   UNL A   1      51.719  27.678  26.296  1.00  0.00     0.010 A 
ATOM     62  C   UNL A   1      50.767  28.080  24.094  1.00  0.00     0.010 A 
ATOM     63  C   UNL A   1      52.966  27.460  25.714  1.00  0.00     0.020 A 
ATOM     64  C   UNL A   1      52.006  27.832  23.508  1.00  0.00     0.020 A 
ATOM     65  C   UNL A   1      53.099  27.531  24.322  1.00  0.00     0.054 A 
BRANCH  65  66
ATOM     66  S   UNL A   1      54.710  27.152  23.586  1.00  0.00     0.124 S 
ATOM     67  O   UNL A   1      55.439  28.401  23.795  1.00  0.00    -0.237 OA
ATOM     68  O   UNL A   1      55.167  26.016  24.382  1.00  0.00    -0.237 OA
ATOM     69  O   UNL A   1      54.390  26.843  22.194  1.00  0.00    -0.744 OA
ENDBRANCH  65  66
ENDBRANCH  39  60
ENDBRANCH  13  14
ENDBRANCH   6   8
ENDBRANCH   5   6
ENDBRANCH   4   5
ENDBRANCH   3   4
ENDBRANCH   2   3
ENDBRANCH   1   2
BRANCH   1  70
ATOM     70  C   UNL A   1      33.546  29.411  25.779  1.00  0.00     0.261 C 
BRANCH  70  71
ATOM     71  O   UNL A   1      33.968  28.039  25.819  1.00  0.00    -0.463 OA
BRANCH  71  72
ATOM     72  C   UNL A   1      33.817  27.382  24.646  1.00  0.00     0.315 C 
ATOM     73  O   UNL A   1      33.902  27.907  23.546  1.00  0.00    -0.252 OA
BRANCH  72  74
ATOM     74  C   UNL A   1      33.633  25.894  24.835  1.00  0.00     0.163 C 
ATOM     75  C   UNL A   1      34.739  24.995  24.304  1.00  0.00     0.278 C 
ATOM     76  C   UNL A   1      32.391  25.444  24.058  1.00  0.00     0.067 C 
ATOM     77  N   UNL A   1      34.089  23.695  24.062  1.00  0.00    -0.331 N 
ATOM     78  C   UNL A   1      32.796  24.063  23.488  1.00  0.00     0.267 C 
ATOM     79  H   UNL A   1      34.625  23.103  23.427  1.00  0.00     0.348 HD
BRANCH  76  80
ATOM     80  C   UNL A   1      31.109  25.391  24.842  1.00  0.00    -0.001 C 
ATOM     81  C   UNL A   1      30.251  26.601  25.141  1.00  0.00     0.004 C 
ATOM     82  C   UNL A   1      29.755  25.550  24.197  1.00  0.00     0.004 C 
ENDBRANCH  76  80
BRANCH  77  83
ATOM     83  C   UNL A   1      34.037  22.800  25.242  1.00  0.00     0.304 C 
BRANCH  83  84
ATOM     84  C   UNL A   1      35.212  21.867  25.652  1.00  0.00     0.290 C 
BRANCH  84  85
ATOM     85  O   UNL A   1      36.382  22.061  24.828  1.00  0.00    -0.488 OA
BRANCH  85  86
ATOM     86  C   UNL A   1      37.488  22.518  25.493  1.00  0.00     0.119 A 
ATOM     87  C   UNL A   1      38.532  21.603  25.668  1.00  0.00     0.049 A 
ATOM     88  C   UNL A   1      37.593  23.808  26.019  1.00  0.00     0.049 A 
ATOM     89  C   UNL A   1      39.601  21.917  26.509  1.00  0.00     0.043 A 
ATOM     90  C   UNL A   1      38.683  24.131  26.840  1.00  0.00     0.043 A 
ATOM     91  C   UNL A   1      39.655  23.170  27.105  1.00  0.00     0.123 A 
ATOM     92  F   UNL A   1      40.633  23.441  27.979  1.00  0.00    -0.207 F 
ENDBRANCH  85  86
ENDBRANCH  84  85
ENDBRANCH  83  84
ENDBRANCH  77  83
ENDBRANCH  72  74
ENDBRANCH  71  72
ENDBRANCH  70  71
ENDBRANCH   1  70
TORSDOF 22
ENDMDL
