MODEL 1
REMARK VINA RESULT:     -11.7      0.000      0.000
REMARK SMILES C=CCn1nc(C(=O)OCCOCCOC(=O)c2ccc(-c3c4nc(c(-c5ccc(S(=O)(=O)[O-])cc5)c5ccc([nH]5)c(-c5ccc(S(=O)(=O)[O-])cc5)c5nc(c(-c6ccc(S(=O)(=O)[O-])cc6)c6ccc3[nH]6)C=C5)C=C4)cc2)c2c1CC[C@@H]([NH+]1CCC(C(C)(C)O)CC1)C2
REMARK SMILES IDX 12 1 11 2 10 3 9 4 7 5 8 6 6 7 4 8 5 9 79 10 78 11 80 12
REMARK SMILES IDX 93 13 81 14 82 15 3 16 2 17 1 18 83 19 84 20 92 21 85 23
REMARK SMILES IDX 91 24 86 25 87 26 88 27 89 28 90 29 13 31 14 32 15 33 16 34
REMARK SMILES IDX 17 35 18 36 19 37 77 38 20 39 76 40 21 41 22 42 23 43 70 44
REMARK SMILES IDX 24 45 75 46 69 47 71 48 25 49 74 50 68 51 67 52 26 54 56 55
REMARK SMILES IDX 37 56 55 57 38 58 41 59 54 60 72 61 39 62 40 63 53 65 73 66
REMARK SMILES IDX 42 67 27 68 28 69 36 70 29 71 35 72 30 73 31 74 32 75 33 76
REMARK SMILES IDX 34 77 57 78 58 79 66 80 59 81 65 82 60 83 61 84 62 85 63 86
REMARK SMILES IDX 64 87 43 88 44 89 52 90 45 91 51 92 46 93 47 94 48 95 49 96
REMARK SMILES IDX 50 97
REMARK H PARENT 83 22 90 30 71 53 41 64
REMARK Flexibility Score: inf
ROOT
ATOM      1  O   UNL A   1      41.540  20.328  25.985  1.00  0.00    -0.374 OA
ENDROOT
BRANCH   1   2
ATOM      2  C   UNL A   1      40.220  20.560  26.478  1.00  0.00     0.202 C 
BRANCH   2   3
ATOM      3  C   UNL A   1      39.630  21.937  26.179  1.00  0.00     0.261 C 
BRANCH   3   4
ATOM      4  O   UNL A   1      38.378  21.810  25.498  1.00  0.00    -0.458 OA
BRANCH   4   5
ATOM      5  C   UNL A   1      37.432  22.755  25.797  1.00  0.00     0.359 C 
ATOM      6  O   UNL A   1      37.677  23.848  26.272  1.00  0.00    -0.244 OA
BRANCH   5   7
ATOM      7  C   UNL A   1      36.086  22.287  25.421  1.00  0.00     0.174 A 
ATOM      8  N   UNL A   1      34.482  20.954  24.972  1.00  0.00    -0.265 N 
ATOM      9  N   UNL A   1      35.712  20.990  25.535  1.00  0.00    -0.165 NA
ATOM     10  C   UNL A   1      34.233  22.104  24.284  1.00  0.00     0.043 A 
ATOM     11  C   UNL A   1      35.012  23.054  24.897  1.00  0.00     0.014 A 
ATOM     12  C   UNL A   1      33.302  22.344  23.169  1.00  0.00     0.062 C 
ATOM     13  C   UNL A   1      34.772  24.519  24.741  1.00  0.00     0.105 C 
ATOM     14  C   UNL A   1      33.204  23.854  22.877  1.00  0.00     0.072 C 
ATOM     15  C   UNL A   1      33.372  24.810  24.090  1.00  0.00     0.189 C 
BRANCH   8  16
ATOM     16  C   UNL A   1      33.616  19.788  25.149  1.00  0.00     0.171 C 
BRANCH  16  17
ATOM     17  C   UNL A   1      34.103  18.572  24.392  1.00  0.00    -0.011 C 
ATOM     18  C   UNL A   1      33.450  17.406  24.282  1.00  0.00     0.006 C 
ENDBRANCH  16  17
ENDBRANCH   8  16
BRANCH  15  19
ATOM     19  N   UNL A   1      32.277  24.997  25.071  1.00  0.00    -0.332 N 
ATOM     20  C   UNL A   1      30.895  25.122  24.642  1.00  0.00     0.262 C 
ATOM     21  C   UNL A   1      32.528  25.945  26.154  1.00  0.00     0.262 C 
ATOM     22  H   UNL A   1      32.340  24.038  25.412  1.00  0.00     0.348 HD
ATOM     23  C   UNL A   1      30.450  26.523  24.215  1.00  0.00     0.068 C 
ATOM     24  C   UNL A   1      32.357  27.407  25.760  1.00  0.00     0.068 C 
ATOM     25  C   UNL A   1      31.099  27.741  24.921  1.00  0.00     0.031 C 
BRANCH  25  26
ATOM     26  C   UNL A   1      31.351  28.987  23.981  1.00  0.00     0.062 C 
ATOM     27  C   UNL A   1      32.724  28.985  23.297  1.00  0.00     0.042 C 
ATOM     28  C   UNL A   1      30.251  29.096  22.916  1.00  0.00     0.042 C 
BRANCH  26  29
ATOM     29  O   UNL A   1      31.286  30.202  24.737  1.00  0.00    -0.390 OA
ATOM     30  H   UNL A   1      31.279  30.960  24.130  1.00  0.00     0.211 HD
ENDBRANCH  26  29
ENDBRANCH  25  26
ENDBRANCH  15  19
ENDBRANCH   5   7
ENDBRANCH   4   5
ENDBRANCH   3   4
ENDBRANCH   2   3
ENDBRANCH   1   2
BRANCH   1  31
ATOM     31  C   UNL A   1      42.090  19.017  26.092  1.00  0.00     0.202 C 
BRANCH  31  32
ATOM     32  C   UNL A   1      43.467  18.791  25.498  1.00  0.00     0.261 C 
BRANCH  32  33
ATOM     33  O   UNL A   1      44.299  19.930  25.672  1.00  0.00    -0.460 OA
BRANCH  33  34
ATOM     34  C   UNL A   1      44.584  20.597  24.532  1.00  0.00     0.338 C 
ATOM     35  O   UNL A   1      44.846  20.117  23.444  1.00  0.00    -0.246 OA
BRANCH  34  36
ATOM     36  C   UNL A   1      44.725  22.017  24.871  1.00  0.00     0.060 A 
ATOM     37  C   UNL A   1      45.455  22.307  26.023  1.00  0.00     0.016 A 
ATOM     38  C   UNL A   1      43.912  22.976  24.243  1.00  0.00     0.016 A 
ATOM     39  C   UNL A   1      45.195  23.492  26.672  1.00  0.00     0.010 A 
ATOM     40  C   UNL A   1      43.644  24.152  24.900  1.00  0.00     0.010 A 
ATOM     41  C   UNL A   1      44.223  24.354  26.148  1.00  0.00    -0.014 A 
BRANCH  41  42
ATOM     42  C   UNL A   1      43.924  25.562  26.880  1.00  0.00     0.031 A 
ATOM     43  C   UNL A   1      44.928  26.616  26.638  1.00  0.00     0.074 A 
ATOM     44  C   UNL A   1      42.828  25.729  27.643  1.00  0.00     0.049 A 
ATOM     45  N   UNL A   1      45.873  26.971  27.440  1.00  0.00    -0.248 NA
ATOM     46  C   UNL A   1      45.036  27.179  25.283  1.00  0.00     0.031 C 
ATOM     47  C   UNL A   1      41.650  24.869  27.770  1.00  0.00     0.029 A 
ATOM     48  N   UNL A   1      42.510  26.792  28.426  1.00  0.00    -0.354 N 
ATOM     49  C   UNL A   1      46.566  27.971  26.776  1.00  0.00     0.074 A 
ATOM     50  C   UNL A   1      46.142  27.915  25.399  1.00  0.00     0.031 C 
ATOM     51  C   UNL A   1      40.660  25.560  28.388  1.00  0.00     0.029 A 
ATOM     52  C   UNL A   1      41.182  26.843  28.827  1.00  0.00     0.049 A 
ATOM     53  H   UNL A   1      43.170  27.472  28.689  1.00  0.00     0.167 HD
ATOM     54  C   UNL A   1      47.236  28.934  27.464  1.00  0.00     0.031 A 
ATOM     55  C   UNL A   1      40.566  27.896  29.429  1.00  0.00     0.031 A 
ATOM     56  C   UNL A   1      47.390  28.586  28.853  1.00  0.00     0.049 A 
ATOM     57  C   UNL A   1      41.635  28.727  30.043  1.00  0.00     0.074 A 
ATOM     58  C   UNL A   1      48.023  27.564  29.532  1.00  0.00     0.029 A 
ATOM     59  N   UNL A   1      46.475  29.121  29.729  1.00  0.00    -0.354 N 
ATOM     60  N   UNL A   1      42.368  28.316  31.039  1.00  0.00    -0.248 NA
ATOM     61  C   UNL A   1      42.214  29.799  29.246  1.00  0.00     0.031 C 
ATOM     62  C   UNL A   1      47.146  27.237  30.606  1.00  0.00     0.029 A 
ATOM     63  C   UNL A   1      46.066  28.123  30.576  1.00  0.00     0.049 A 
ATOM     64  H   UNL A   1      46.167  30.057  29.747  1.00  0.00     0.167 HD
ATOM     65  C   UNL A   1      43.653  28.739  30.733  1.00  0.00     0.074 A 
ATOM     66  C   UNL A   1      43.482  29.724  29.665  1.00  0.00     0.031 C 
ATOM     67  C   UNL A   1      44.748  28.049  31.173  1.00  0.00     0.031 A 
BRANCH  54  68
ATOM     68  C   UNL A   1      47.369  30.347  26.973  1.00  0.00    -0.014 A 
ATOM     69  C   UNL A   1      48.627  30.973  27.040  1.00  0.00     0.010 A 
ATOM     70  C   UNL A   1      46.252  31.167  26.704  1.00  0.00     0.010 A 
ATOM     71  C   UNL A   1      48.752  32.359  26.892  1.00  0.00     0.020 A 
ATOM     72  C   UNL A   1      46.371  32.542  26.512  1.00  0.00     0.020 A 
ATOM     73  C   UNL A   1      47.620  33.134  26.636  1.00  0.00     0.054 A 
BRANCH  73  74
ATOM     74  S   UNL A   1      47.785  34.930  26.519  1.00  0.00     0.124 S 
ATOM     75  O   UNL A   1      48.729  35.075  25.415  1.00  0.00    -0.237 OA
ATOM     76  O   UNL A   1      46.413  35.346  26.240  1.00  0.00    -0.237 OA
ATOM     77  O   UNL A   1      48.294  35.314  27.833  1.00  0.00    -0.744 OA
ENDBRANCH  73  74
ENDBRANCH  54  68
BRANCH  55  78
ATOM     78  C   UNL A   1      39.190  28.413  29.200  1.00  0.00    -0.014 A 
ATOM     79  C   UNL A   1      38.328  28.700  30.279  1.00  0.00     0.010 A 
ATOM     80  C   UNL A   1      38.831  28.912  27.932  1.00  0.00     0.010 A 
ATOM     81  C   UNL A   1      37.190  29.512  30.106  1.00  0.00     0.020 A 
ATOM     82  C   UNL A   1      37.699  29.718  27.752  1.00  0.00     0.020 A 
ATOM     83  C   UNL A   1      36.896  30.035  28.845  1.00  0.00     0.054 A 
BRANCH  83  84
ATOM     84  S   UNL A   1      35.541  31.236  28.660  1.00  0.00     0.124 S 
ATOM     85  O   UNL A   1      34.542  30.469  27.922  1.00  0.00    -0.237 OA
ATOM     86  O   UNL A   1      35.201  31.549  30.046  1.00  0.00    -0.237 OA
ATOM     87  O   UNL A   1      36.153  32.335  27.915  1.00  0.00    -0.744 OA
ENDBRANCH  83  84
ENDBRANCH  55  78
BRANCH  67  88
ATOM     88  C   UNL A   1      44.548  26.982  32.227  1.00  0.00    -0.014 A 
ATOM     89  C   UNL A   1      44.294  27.248  33.589  1.00  0.00     0.010 A 
ATOM     90  C   UNL A   1      44.471  25.651  31.782  1.00  0.00     0.010 A 
ATOM     91  C   UNL A   1      44.002  26.202  34.481  1.00  0.00     0.020 A 
ATOM     92  C   UNL A   1      44.163  24.611  32.659  1.00  0.00     0.020 A 
ATOM     93  C   UNL A   1      43.942  24.888  34.007  1.00  0.00     0.054 A 
BRANCH  93  94
ATOM     94  S   UNL A   1      43.538  23.537  35.152  1.00  0.00     0.124 S 
ATOM     95  O   UNL A   1      44.309  23.889  36.342  1.00  0.00    -0.237 OA
ATOM     96  O   UNL A   1      42.088  23.645  35.286  1.00  0.00    -0.237 OA
ATOM     97  O   UNL A   1      43.999  22.338  34.451  1.00  0.00    -0.744 OA
ENDBRANCH  93  94
ENDBRANCH  67  88
ENDBRANCH  41  42
ENDBRANCH  34  36
ENDBRANCH  33  34
ENDBRANCH  32  33
ENDBRANCH  31  32
ENDBRANCH   1  31
TORSDOF 22
ENDMDL
MODEL 2
REMARK VINA RESULT:     -11.4      3.226     10.218
REMARK SMILES C=CCn1nc(C(=O)OCCOCCOC(=O)c2ccc(-c3c4nc(c(-c5ccc(S(=O)(=O)[O-])cc5)c5ccc([nH]5)c(-c5ccc(S(=O)(=O)[O-])cc5)c5nc(c(-c6ccc(S(=O)(=O)[O-])cc6)c6ccc3[nH]6)C=C5)C=C4)cc2)c2c1CC[C@@H]([NH+]1CCC(C(C)(C)O)CC1)C2
REMARK SMILES IDX 12 1 11 2 10 3 9 4 7 5 8 6 6 7 4 8 5 9 79 10 78 11 80 12
REMARK SMILES IDX 93 13 81 14 82 15 3 16 2 17 1 18 83 19 84 20 92 21 85 23
REMARK SMILES IDX 91 24 86 25 87 26 88 27 89 28 90 29 13 31 14 32 15 33 16 34
REMARK SMILES IDX 17 35 18 36 19 37 77 38 20 39 76 40 21 41 22 42 23 43 70 44
REMARK SMILES IDX 24 45 75 46 69 47 71 48 25 49 74 50 68 51 67 52 26 54 56 55
REMARK SMILES IDX 37 56 55 57 38 58 41 59 54 60 72 61 39 62 40 63 53 65 73 66
REMARK SMILES IDX 42 67 27 68 28 69 36 70 29 71 35 72 30 73 31 74 32 75 33 76
REMARK SMILES IDX 34 77 57 78 58 79 66 80 59 81 65 82 60 83 61 84 62 85 63 86
REMARK SMILES IDX 64 87 43 88 44 89 52 90 45 91 51 92 46 93 47 94 48 95 49 96
REMARK SMILES IDX 50 97
REMARK H PARENT 83 22 90 30 71 53 41 64
REMARK Flexibility Score: inf
ROOT
ATOM      1  O   UNL A   1      34.895  34.048  27.514  1.00  0.00    -0.374 OA
ENDROOT
BRANCH   1   2
ATOM      2  C   UNL A   1      35.590  32.898  27.999  1.00  0.00     0.202 C 
BRANCH   2   3
ATOM      3  C   UNL A   1      34.724  31.677  28.305  1.00  0.00     0.261 C 
BRANCH   3   4
ATOM      4  O   UNL A   1      34.223  31.102  27.095  1.00  0.00    -0.458 OA
BRANCH   4   5
ATOM      5  C   UNL A   1      34.316  29.739  26.992  1.00  0.00     0.359 C 
ATOM      6  O   UNL A   1      35.165  29.064  27.545  1.00  0.00    -0.244 OA
BRANCH   5   7
ATOM      7  C   UNL A   1      33.224  29.198  26.163  1.00  0.00     0.174 A 
ATOM      8  N   UNL A   1      31.400  29.115  25.059  1.00  0.00    -0.265 N 
ATOM      9  N   UNL A   1      32.271  29.990  25.615  1.00  0.00    -0.165 NA
ATOM     10  C   UNL A   1      31.647  27.848  25.495  1.00  0.00     0.043 A 
ATOM     11  C   UNL A   1      32.981  27.842  25.821  1.00  0.00     0.014 A 
ATOM     12  C   UNL A   1      30.740  26.689  25.563  1.00  0.00     0.062 C 
ATOM     13  C   UNL A   1      33.772  26.585  25.964  1.00  0.00     0.105 C 
ATOM     14  C   UNL A   1      31.535  25.415  25.908  1.00  0.00     0.072 C 
ATOM     15  C   UNL A   1      32.998  25.344  25.388  1.00  0.00     0.189 C 
BRANCH   8  16
ATOM     16  C   UNL A   1      30.377  29.578  24.123  1.00  0.00     0.171 C 
BRANCH  16  17
ATOM     17  C   UNL A   1      30.641  29.142  22.699  1.00  0.00    -0.011 C 
ATOM     18  C   UNL A   1      30.500  27.896  22.223  1.00  0.00     0.006 C 
ENDBRANCH  16  17
ENDBRANCH   8  16
BRANCH  15  19
ATOM     19  N   UNL A   1      33.289  25.059  23.963  1.00  0.00    -0.332 N 
ATOM     20  C   UNL A   1      32.263  24.542  23.074  1.00  0.00     0.262 C 
ATOM     21  C   UNL A   1      34.551  24.382  23.679  1.00  0.00     0.262 C 
ATOM     22  H   UNL A   1      33.348  26.047  23.718  1.00  0.00     0.348 HD
ATOM     23  C   UNL A   1      32.053  23.026  23.104  1.00  0.00     0.068 C 
ATOM     24  C   UNL A   1      34.526  22.878  23.924  1.00  0.00     0.068 C 
ATOM     25  C   UNL A   1      33.283  22.125  23.388  1.00  0.00     0.031 C 
BRANCH  25  26
ATOM     26  C   UNL A   1      32.970  20.843  24.258  1.00  0.00     0.062 C 
ATOM     27  C   UNL A   1      34.214  20.180  24.863  1.00  0.00     0.042 C 
ATOM     28  C   UNL A   1      31.974  21.175  25.378  1.00  0.00     0.042 C 
BRANCH  26  29
ATOM     29  O   UNL A   1      32.337  19.839  23.456  1.00  0.00    -0.390 OA
ATOM     30  H   UNL A   1      33.015  19.293  23.027  1.00  0.00     0.211 HD
ENDBRANCH  26  29
ENDBRANCH  25  26
ENDBRANCH  15  19
ENDBRANCH   5   7
ENDBRANCH   4   5
ENDBRANCH   3   4
ENDBRANCH   2   3
ENDBRANCH   1   2
BRANCH   1  31
ATOM     31  C   UNL A   1      34.587  35.098  28.428  1.00  0.00     0.202 C 
BRANCH  31  32
ATOM     32  C   UNL A   1      33.336  34.941  29.271  1.00  0.00     0.261 C 
BRANCH  32  33
ATOM     33  O   UNL A   1      33.568  34.092  30.387  1.00  0.00    -0.460 OA
BRANCH  33  34
ATOM     34  C   UNL A   1      34.225  34.680  31.412  1.00  0.00     0.338 C 
ATOM     35  O   UNL A   1      34.099  35.825  31.808  1.00  0.00    -0.246 OA
BRANCH  34  36
ATOM     36  C   UNL A   1      35.279  33.759  31.852  1.00  0.00     0.060 A 
ATOM     37  C   UNL A   1      36.567  34.288  31.928  1.00  0.00     0.016 A 
ATOM     38  C   UNL A   1      35.038  32.375  31.885  1.00  0.00     0.016 A 
ATOM     39  C   UNL A   1      37.629  33.421  31.811  1.00  0.00     0.010 A 
ATOM     40  C   UNL A   1      36.099  31.514  31.755  1.00  0.00     0.010 A 
ATOM     41  C   UNL A   1      37.374  32.055  31.632  1.00  0.00    -0.014 A 
BRANCH  41  42
ATOM     42  C   UNL A   1      38.503  31.173  31.450  1.00  0.00     0.031 A 
ATOM     43  C   UNL A   1      39.232  30.945  32.713  1.00  0.00     0.074 A 
ATOM     44  C   UNL A   1      38.816  30.581  30.283  1.00  0.00     0.049 A 
ATOM     45  N   UNL A   1      40.354  31.480  33.056  1.00  0.00    -0.248 NA
ATOM     46  C   UNL A   1      38.543  30.229  33.798  1.00  0.00     0.031 C 
ATOM     47  C   UNL A   1      38.049  30.528  29.038  1.00  0.00     0.029 A 
ATOM     48  N   UNL A   1      39.898  29.810  30.003  1.00  0.00    -0.354 N 
ATOM     49  C   UNL A   1      40.629  30.985  34.321  1.00  0.00     0.074 A 
ATOM     50  C   UNL A   1      39.405  30.395  34.802  1.00  0.00     0.031 C 
ATOM     51  C   UNL A   1      38.576  29.574  28.231  1.00  0.00     0.029 A 
ATOM     52  C   UNL A   1      39.794  29.063  28.838  1.00  0.00     0.049 A 
ATOM     53  H   UNL A   1      40.694  29.783  30.581  1.00  0.00     0.167 HD
ATOM     54  C   UNL A   1      41.909  30.870  34.765  1.00  0.00     0.031 A 
ATOM     55  C   UNL A   1      40.633  28.066  28.445  1.00  0.00     0.031 A 
ATOM     56  C   UNL A   1      42.830  31.598  33.930  1.00  0.00     0.049 A 
ATOM     57  C   UNL A   1      41.916  28.274  29.168  1.00  0.00     0.074 A 
ATOM     58  C   UNL A   1      42.993  32.927  33.597  1.00  0.00     0.029 A 
ATOM     59  N   UNL A   1      43.494  30.875  32.967  1.00  0.00    -0.354 N 
ATOM     60  N   UNL A   1      42.692  29.298  28.954  1.00  0.00    -0.248 NA
ATOM     61  C   UNL A   1      42.090  27.621  30.458  1.00  0.00     0.031 C 
ATOM     62  C   UNL A   1      43.344  32.919  32.216  1.00  0.00     0.029 A 
ATOM     63  C   UNL A   1      43.454  31.591  31.798  1.00  0.00     0.049 A 
ATOM     64  H   UNL A   1      43.923  29.996  33.093  1.00  0.00     0.167 HD
ATOM     65  C   UNL A   1      43.117  29.693  30.214  1.00  0.00     0.074 A 
ATOM     66  C   UNL A   1      42.788  28.570  31.093  1.00  0.00     0.031 C 
ATOM     67  C   UNL A   1      43.434  30.996  30.478  1.00  0.00     0.031 A 
BRANCH  54  68
ATOM     68  C   UNL A   1      42.358  29.773  35.687  1.00  0.00    -0.014 A 
ATOM     69  C   UNL A   1      43.474  29.996  36.513  1.00  0.00     0.010 A 
ATOM     70  C   UNL A   1      41.893  28.445  35.572  1.00  0.00     0.010 A 
ATOM     71  C   UNL A   1      44.121  28.933  37.155  1.00  0.00     0.020 A 
ATOM     72  C   UNL A   1      42.503  27.386  36.240  1.00  0.00     0.020 A 
ATOM     73  C   UNL A   1      43.633  27.634  37.007  1.00  0.00     0.054 A 
BRANCH  73  74
ATOM     74  S   UNL A   1      44.519  26.262  37.781  1.00  0.00     0.124 S 
ATOM     75  O   UNL A   1      44.168  26.432  39.188  1.00  0.00    -0.237 OA
ATOM     76  O   UNL A   1      43.933  25.103  37.114  1.00  0.00    -0.237 OA
ATOM     77  O   UNL A   1      45.917  26.526  37.449  1.00  0.00    -0.744 OA
ENDBRANCH  73  74
ENDBRANCH  54  68
BRANCH  55  78
ATOM     78  C   UNL A   1      40.290  26.776  27.792  1.00  0.00    -0.014 A 
ATOM     79  C   UNL A   1      41.036  26.288  26.699  1.00  0.00     0.010 A 
ATOM     80  C   UNL A   1      39.417  25.874  28.435  1.00  0.00     0.010 A 
ATOM     81  C   UNL A   1      40.961  24.936  26.310  1.00  0.00     0.020 A 
ATOM     82  C   UNL A   1      39.336  24.529  28.053  1.00  0.00     0.020 A 
ATOM     83  C   UNL A   1      40.126  24.059  27.007  1.00  0.00     0.054 A 
BRANCH  83  84
ATOM     84  S   UNL A   1      40.174  22.279  26.631  1.00  0.00     0.124 S 
ATOM     85  O   UNL A   1      38.859  22.048  26.041  1.00  0.00    -0.237 OA
ATOM     86  O   UNL A   1      41.306  22.176  25.713  1.00  0.00    -0.237 OA
ATOM     87  O   UNL A   1      40.386  21.657  27.937  1.00  0.00    -0.744 OA
ENDBRANCH  83  84
ENDBRANCH  55  78
BRANCH  67  88
ATOM     88  C   UNL A   1      43.584  31.948  29.311  1.00  0.00    -0.014 A 
ATOM     89  C   UNL A   1      43.085  33.267  29.293  1.00  0.00     0.010 A 
ATOM     90  C   UNL A   1      44.395  31.527  28.243  1.00  0.00     0.010 A 
ATOM     91  C   UNL A   1      43.368  34.126  28.217  1.00  0.00     0.020 A 
ATOM     92  C   UNL A   1      44.696  32.380  27.181  1.00  0.00     0.020 A 
ATOM     93  C   UNL A   1      44.171  33.673  27.166  1.00  0.00     0.054 A 
BRANCH  93  94
ATOM     94  S   UNL A   1      44.563  34.788  25.787  1.00  0.00     0.124 S 
ATOM     95  O   UNL A   1      43.389  34.653  24.928  1.00  0.00    -0.237 OA
ATOM     96  O   UNL A   1      44.715  36.082  26.447  1.00  0.00    -0.237 OA
ATOM     97  O   UNL A   1      45.799  34.236  25.233  1.00  0.00    -0.744 OA
ENDBRANCH  93  94
ENDBRANCH  67  88
ENDBRANCH  41  42
ENDBRANCH  34  36
ENDBRANCH  33  34
ENDBRANCH  32  33
ENDBRANCH  31  32
ENDBRANCH   1  31
TORSDOF 22
ENDMDL
MODEL 3
REMARK VINA RESULT:     -10.9      4.983     11.253
REMARK SMILES C=CCn1nc(C(=O)OCCOCCOC(=O)c2ccc(-c3c4nc(c(-c5ccc(S(=O)(=O)[O-])cc5)c5ccc([nH]5)c(-c5ccc(S(=O)(=O)[O-])cc5)c5nc(c(-c6ccc(S(=O)(=O)[O-])cc6)c6ccc3[nH]6)C=C5)C=C4)cc2)c2c1CC[C@@H]([NH+]1CCC(C(C)(C)O)CC1)C2
REMARK SMILES IDX 12 1 11 2 10 3 9 4 7 5 8 6 6 7 4 8 5 9 79 10 78 11 80 12
REMARK SMILES IDX 93 13 81 14 82 15 3 16 2 17 1 18 83 19 84 20 92 21 85 23
REMARK SMILES IDX 91 24 86 25 87 26 88 27 89 28 90 29 13 31 14 32 15 33 16 34
REMARK SMILES IDX 17 35 18 36 19 37 77 38 20 39 76 40 21 41 22 42 23 43 70 44
REMARK SMILES IDX 24 45 75 46 69 47 71 48 25 49 74 50 68 51 67 52 26 54 56 55
REMARK SMILES IDX 37 56 55 57 38 58 41 59 54 60 72 61 39 62 40 63 53 65 73 66
REMARK SMILES IDX 42 67 27 68 28 69 36 70 29 71 35 72 30 73 31 74 32 75 33 76
REMARK SMILES IDX 34 77 57 78 58 79 66 80 59 81 65 82 60 83 61 84 62 85 63 86
REMARK SMILES IDX 64 87 43 88 44 89 52 90 45 91 51 92 46 93 47 94 48 95 49 96
REMARK SMILES IDX 50 97
REMARK H PARENT 83 22 90 30 71 53 41 64
REMARK Flexibility Score: inf
ROOT
ATOM      1  O   UNL A   1      34.060  33.074  29.522  1.00  0.00    -0.374 OA
ENDROOT
BRANCH   1   2
ATOM      2  C   UNL A   1      34.407  31.947  28.716  1.00  0.00     0.202 C 
BRANCH   2   3
ATOM      3  C   UNL A   1      33.529  31.710  27.490  1.00  0.00     0.261 C 
BRANCH   3   4
ATOM      4  O   UNL A   1      32.956  30.400  27.528  1.00  0.00    -0.458 OA
BRANCH   4   5
ATOM      5  C   UNL A   1      33.549  29.459  26.728  1.00  0.00     0.359 C 
ATOM      6  O   UNL A   1      34.689  29.057  26.868  1.00  0.00    -0.244 OA
BRANCH   5   7
ATOM      7  C   UNL A   1      32.606  28.967  25.707  1.00  0.00     0.174 A 
ATOM      8  N   UNL A   1      31.050  28.977  24.248  1.00  0.00    -0.265 N 
ATOM      9  N   UNL A   1      31.866  29.805  24.942  1.00  0.00    -0.165 NA
ATOM     10  C   UNL A   1      31.082  27.719  24.771  1.00  0.00     0.043 A 
ATOM     11  C   UNL A   1      32.314  27.620  25.371  1.00  0.00     0.014 A 
ATOM     12  C   UNL A   1      30.077  26.646  24.688  1.00  0.00     0.062 C 
ATOM     13  C   UNL A   1      32.937  26.310  25.723  1.00  0.00     0.105 C 
ATOM     14  C   UNL A   1      30.660  25.330  25.239  1.00  0.00     0.072 C 
ATOM     15  C   UNL A   1      32.186  25.109  25.042  1.00  0.00     0.189 C 
BRANCH   8  16
ATOM     16  C   UNL A   1      30.290  29.472  23.101  1.00  0.00     0.171 C 
BRANCH  16  17
ATOM     17  C   UNL A   1      29.120  30.344  23.502  1.00  0.00    -0.011 C 
ATOM     18  C   UNL A   1      27.879  30.268  22.998  1.00  0.00     0.006 C 
ENDBRANCH  16  17
ENDBRANCH   8  16
BRANCH  15  19
ATOM     19  N   UNL A   1      32.737  24.723  23.722  1.00  0.00    -0.332 N 
ATOM     20  C   UNL A   1      32.221  23.574  22.998  1.00  0.00     0.262 C 
ATOM     21  C   UNL A   1      34.191  24.757  23.588  1.00  0.00     0.262 C 
ATOM     22  H   UNL A   1      32.314  25.521  23.247  1.00  0.00     0.348 HD
ATOM     23  C   UNL A   1      32.807  22.216  23.390  1.00  0.00     0.068 C 
ATOM     24  C   UNL A   1      34.905  23.550  24.184  1.00  0.00     0.068 C 
ATOM     25  C   UNL A   1      34.284  22.168  23.862  1.00  0.00     0.031 C 
BRANCH  25  26
ATOM     26  C   UNL A   1      34.570  21.127  25.017  1.00  0.00     0.062 C 
ATOM     27  C   UNL A   1      34.001  19.728  24.751  1.00  0.00     0.042 C 
ATOM     28  C   UNL A   1      36.077  21.020  25.290  1.00  0.00     0.042 C 
BRANCH  26  29
ATOM     29  O   UNL A   1      33.980  21.570  26.244  1.00  0.00    -0.390 OA
ATOM     30  H   UNL A   1      33.775  20.801  26.800  1.00  0.00     0.211 HD
ENDBRANCH  26  29
ENDBRANCH  25  26
ENDBRANCH  15  19
ENDBRANCH   5   7
ENDBRANCH   4   5
ENDBRANCH   3   4
ENDBRANCH   2   3
ENDBRANCH   1   2
BRANCH   1  31
ATOM     31  C   UNL A   1      34.006  34.361  28.912  1.00  0.00     0.202 C 
BRANCH  31  32
ATOM     32  C   UNL A   1      33.282  35.460  29.667  1.00  0.00     0.261 C 
BRANCH  32  33
ATOM     33  O   UNL A   1      32.627  34.948  30.820  1.00  0.00    -0.460 OA
BRANCH  33  34
ATOM     34  C   UNL A   1      32.888  35.625  31.960  1.00  0.00     0.338 C 
ATOM     35  O   UNL A   1      32.403  36.685  32.315  1.00  0.00    -0.246 OA
BRANCH  34  36
ATOM     36  C   UNL A   1      34.019  34.966  32.622  1.00  0.00     0.060 A 
ATOM     37  C   UNL A   1      35.167  35.737  32.793  1.00  0.00     0.016 A 
ATOM     38  C   UNL A   1      34.028  33.569  32.777  1.00  0.00     0.016 A 
ATOM     39  C   UNL A   1      36.374  35.084  32.901  1.00  0.00     0.010 A 
ATOM     40  C   UNL A   1      35.235  32.920  32.870  1.00  0.00     0.010 A 
ATOM     41  C   UNL A   1      36.396  33.684  32.843  1.00  0.00    -0.014 A 
BRANCH  41  42
ATOM     42  C   UNL A   1      37.680  33.025  32.896  1.00  0.00     0.031 A 
ATOM     43  C   UNL A   1      38.300  33.133  34.230  1.00  0.00     0.074 A 
ATOM     44  C   UNL A   1      38.217  32.340  31.870  1.00  0.00     0.049 A 
ATOM     45  N   UNL A   1      39.263  33.923  34.565  1.00  0.00    -0.248 NA
ATOM     46  C   UNL A   1      37.642  32.464  35.363  1.00  0.00     0.031 C 
ATOM     47  C   UNL A   1      37.609  31.954  30.596  1.00  0.00     0.029 A 
ATOM     48  N   UNL A   1      39.444  31.763  31.804  1.00  0.00    -0.354 N 
ATOM     49  C   UNL A   1      39.487  33.684  35.911  1.00  0.00     0.074 A 
ATOM     50  C   UNL A   1      38.347  32.943  36.389  1.00  0.00     0.031 C 
ATOM     51  C   UNL A   1      38.383  31.013  30.000  1.00  0.00     0.029 A 
ATOM     52  C   UNL A   1      39.603  30.846  30.774  1.00  0.00     0.049 A 
ATOM     53  H   UNL A   1      40.166  31.978  32.438  1.00  0.00     0.167 HD
ATOM     54  C   UNL A   1      40.712  33.889  36.464  1.00  0.00     0.031 A 
ATOM     55  C   UNL A   1      40.646  29.987  30.617  1.00  0.00     0.031 A 
ATOM     56  C   UNL A   1      41.569  34.652  35.593  1.00  0.00     0.049 A 
ATOM     57  C   UNL A   1      41.785  30.546  31.391  1.00  0.00     0.074 A 
ATOM     58  C   UNL A   1      41.522  35.923  35.058  1.00  0.00     0.029 A 
ATOM     59  N   UNL A   1      42.452  33.939  34.816  1.00  0.00    -0.354 N 
ATOM     60  N   UNL A   1      42.380  31.660  31.069  1.00  0.00    -0.248 NA
ATOM     61  C   UNL A   1      41.937  30.139  32.780  1.00  0.00     0.031 C 
ATOM     62  C   UNL A   1      42.013  35.781  33.728  1.00  0.00     0.029 A 
ATOM     63  C   UNL A   1      42.406  34.453  33.545  1.00  0.00     0.049 A 
ATOM     64  H   UNL A   1      43.017  33.190  35.118  1.00  0.00     0.167 HD
ATOM     65  C   UNL A   1      42.591  32.312  32.276  1.00  0.00     0.074 A 
ATOM     66  C   UNL A   1      42.380  31.289  33.300  1.00  0.00     0.031 C 
ATOM     67  C   UNL A   1      42.635  33.677  32.344  1.00  0.00     0.031 A 
BRANCH  54  68
ATOM     68  C   UNL A   1      41.253  33.050  37.587  1.00  0.00    -0.014 A 
ATOM     69  C   UNL A   1      40.760  33.258  38.887  1.00  0.00     0.010 A 
ATOM     70  C   UNL A   1      42.416  32.262  37.453  1.00  0.00     0.010 A 
ATOM     71  C   UNL A   1      41.427  32.739  40.003  1.00  0.00     0.020 A 
ATOM     72  C   UNL A   1      43.064  31.705  38.554  1.00  0.00     0.020 A 
ATOM     73  C   UNL A   1      42.579  31.972  39.827  1.00  0.00     0.054 A 
BRANCH  73  74
ATOM     74  S   UNL A   1      43.472  31.369  41.278  1.00  0.00     0.124 S 
ATOM     75  O   UNL A   1      44.381  30.391  40.688  1.00  0.00    -0.237 OA
ATOM     76  O   UNL A   1      44.093  32.589  41.785  1.00  0.00    -0.237 OA
ATOM     77  O   UNL A   1      42.418  30.814  42.123  1.00  0.00    -0.744 OA
ENDBRANCH  73  74
ENDBRANCH  54  68
BRANCH  55  78
ATOM     78  C   UNL A   1      40.614  28.572  30.161  1.00  0.00    -0.014 A 
ATOM     79  C   UNL A   1      39.400  27.860  30.069  1.00  0.00     0.010 A 
ATOM     80  C   UNL A   1      41.742  28.014  29.526  1.00  0.00     0.010 A 
ATOM     81  C   UNL A   1      39.305  26.675  29.315  1.00  0.00     0.020 A 
ATOM     82  C   UNL A   1      41.656  26.834  28.775  1.00  0.00     0.020 A 
ATOM     83  C   UNL A   1      40.432  26.182  28.652  1.00  0.00     0.054 A 
BRANCH  83  84
ATOM     84  S   UNL A   1      40.266  24.763  27.524  1.00  0.00     0.124 S 
ATOM     85  O   UNL A   1      38.846  24.794  27.188  1.00  0.00    -0.237 OA
ATOM     86  O   UNL A   1      41.181  25.109  26.439  1.00  0.00    -0.237 OA
ATOM     87  O   UNL A   1      40.686  23.624  28.340  1.00  0.00    -0.744 OA
ENDBRANCH  83  84
ENDBRANCH  55  78
BRANCH  67  88
ATOM     88  C   UNL A   1      42.733  34.456  31.050  1.00  0.00    -0.014 A 
ATOM     89  C   UNL A   1      43.947  34.799  30.419  1.00  0.00     0.010 A 
ATOM     90  C   UNL A   1      41.530  34.724  30.374  1.00  0.00     0.010 A 
ATOM     91  C   UNL A   1      43.948  35.422  29.158  1.00  0.00     0.020 A 
ATOM     92  C   UNL A   1      41.526  35.325  29.115  1.00  0.00     0.020 A 
ATOM     93  C   UNL A   1      42.734  35.682  28.517  1.00  0.00     0.054 A 
BRANCH  93  94
ATOM     94  S   UNL A   1      42.732  36.462  26.876  1.00  0.00     0.124 S 
ATOM     95  O   UNL A   1      41.476  37.208  26.881  1.00  0.00    -0.237 OA
ATOM     96  O   UNL A   1      43.947  37.273  26.899  1.00  0.00    -0.237 OA
ATOM     97  O   UNL A   1      42.773  35.328  25.953  1.00  0.00    -0.744 OA
ENDBRANCH  93  94
ENDBRANCH  67  88
ENDBRANCH  41  42
ENDBRANCH  34  36
ENDBRANCH  33  34
ENDBRANCH  32  33
ENDBRANCH  31  32
ENDBRANCH   1  31
TORSDOF 22
ENDMDL
