MODEL 1
REMARK VINA RESULT:     -12.3      0.000      0.000
REMARK SMILES Cc1ccccc1-c1c(Cl)ccc2c1C=C(C(=O)OCCOCCOC(=O)c1ccc(-c3c4nc(c(-c5ccc(S(=O)(=O)[O-])cc5)c5ccc([nH]5)c(-c5ccc(S(=O)(=O)[O-])cc5)c5nc(c(-c6ccc(S(=O)(=O)[O-])cc6)c6ccc3[nH]6)C=C5)C=C4)cc1)[C@@H](C(F)(F)F)O2
REMARK SMILES IDX 23 1 22 2 21 3 20 4 19 5 17 6 18 7 16 8 8 9 9 10 14 11 10 12
REMARK SMILES IDX 11 13 13 14 15 15 12 16 93 17 88 18 7 19 1 20 2 21 3 22 4 23
REMARK SMILES IDX 6 24 5 25 89 26 90 27 91 28 92 29 24 30 25 31 26 32 27 33
REMARK SMILES IDX 28 34 29 35 87 36 30 37 86 38 31 39 32 40 33 41 80 42 34 43
REMARK SMILES IDX 85 44 79 45 81 46 35 47 84 48 78 49 77 50 36 52 66 53 47 54
REMARK SMILES IDX 65 55 48 56 51 57 64 58 82 59 49 60 50 61 63 63 83 64 52 65
REMARK SMILES IDX 37 66 38 67 46 68 39 69 45 70 40 71 41 72 42 73 43 74 44 75
REMARK SMILES IDX 67 76 68 77 76 78 69 79 75 80 70 81 71 82 72 83 73 84 74 85
REMARK SMILES IDX 53 86 54 87 62 88 55 89 61 90 56 91 57 92 58 93 59 94 60 95
REMARK H PARENT 81 51 51 62
REMARK Flexibility Score: inf
ROOT
ATOM      1  C   UNL A   1      39.889  21.346  26.105  1.00  0.00     0.202 C 
ENDROOT
BRANCH   1   2
ATOM      2  O   UNL A   1      38.535  20.921  26.155  1.00  0.00    -0.374 OA
BRANCH   2   3
ATOM      3  C   UNL A   1      37.946  20.621  24.883  1.00  0.00     0.202 C 
BRANCH   3   4
ATOM      4  C   UNL A   1      36.439  20.694  25.043  1.00  0.00     0.261 C 
BRANCH   4   5
ATOM      5  O   UNL A   1      36.043  21.910  25.719  1.00  0.00    -0.460 OA
BRANCH   5   6
ATOM      6  C   UNL A   1      35.567  22.860  24.884  1.00  0.00     0.338 C 
ATOM      7  O   UNL A   1      36.219  23.653  24.219  1.00  0.00    -0.246 OA
BRANCH   6   8
ATOM      8  C   UNL A   1      34.089  22.871  24.814  1.00  0.00     0.087 C 
ATOM      9  C   UNL A   1      32.933  26.260  23.962  1.00  0.00     0.012 A 
ATOM     10  C   UNL A   1      32.827  26.927  22.709  1.00  0.00     0.049 A 
ATOM     11  C   UNL A   1      33.102  24.843  23.929  1.00  0.00     0.027 A 
ATOM     12  Cl  UNL A   1      32.723  28.657  22.584  1.00  0.00    -0.084 Cl
ATOM     13  C   UNL A   1      32.819  26.231  21.494  1.00  0.00     0.025 A 
ATOM     14  C   UNL A   1      33.056  24.162  22.686  1.00  0.00     0.128 A 
ATOM     15  C   UNL A   1      33.549  24.065  25.110  1.00  0.00     0.028 C 
ATOM     16  C   UNL A   1      32.909  24.849  21.486  1.00  0.00     0.049 A 
ATOM     17  O   UNL A   1      33.194  22.807  22.528  1.00  0.00    -0.475 OA
ATOM     18  C   UNL A   1      33.565  22.039  23.685  1.00  0.00     0.316 C 
BRANCH   9  19
ATOM     19  C   UNL A   1      32.774  27.037  25.232  1.00  0.00    -0.013 A 
ATOM     20  C   UNL A   1      30.335  26.357  25.737  1.00  0.00     0.045 C 
ATOM     21  C   UNL A   1      31.611  27.086  26.036  1.00  0.00    -0.043 A 
ATOM     22  C   UNL A   1      31.606  27.845  27.226  1.00  0.00     0.004 A 
ATOM     23  C   UNL A   1      32.742  28.519  27.659  1.00  0.00     0.000 A 
ATOM     24  C   UNL A   1      33.904  27.751  25.696  1.00  0.00     0.009 A 
ATOM     25  C   UNL A   1      33.899  28.463  26.897  1.00  0.00     0.001 A 
ENDBRANCH   9  19
BRANCH  18  26
ATOM     26  C   UNL A   1      32.391  21.179  24.164  1.00  0.00     0.430 C 
ATOM     27  F   UNL A   1      31.919  20.384  23.174  1.00  0.00    -0.167 F 
ATOM     28  F   UNL A   1      32.761  20.352  25.176  1.00  0.00    -0.167 F 
ATOM     29  F   UNL A   1      31.350  21.916  24.618  1.00  0.00    -0.167 F 
ENDBRANCH  18  26
ENDBRANCH   6   8
ENDBRANCH   5   6
ENDBRANCH   4   5
ENDBRANCH   3   4
ENDBRANCH   2   3
ENDBRANCH   1   2
BRANCH   1  30
ATOM     30  C   UNL A   1      40.288  22.372  27.174  1.00  0.00     0.261 C 
BRANCH  30  31
ATOM     31  O   UNL A   1      40.173  23.718  26.678  1.00  0.00    -0.460 OA
BRANCH  31  32
ATOM     32  C   UNL A   1      39.071  24.389  27.113  1.00  0.00     0.338 C 
ATOM     33  O   UNL A   1      37.936  23.944  27.045  1.00  0.00    -0.246 OA
BRANCH  32  34
ATOM     34  C   UNL A   1      39.462  25.663  27.763  1.00  0.00     0.060 A 
ATOM     35  C   UNL A   1      39.054  25.965  29.070  1.00  0.00     0.016 A 
ATOM     36  C   UNL A   1      40.168  26.606  27.016  1.00  0.00     0.016 A 
ATOM     37  C   UNL A   1      39.292  27.241  29.602  1.00  0.00     0.010 A 
ATOM     38  C   UNL A   1      40.332  27.879  27.513  1.00  0.00     0.010 A 
ATOM     39  C   UNL A   1      39.911  28.206  28.808  1.00  0.00    -0.014 A 
BRANCH  39  40
ATOM     40  C   UNL A   1      40.146  29.602  29.167  1.00  0.00     0.031 A 
ATOM     41  C   UNL A   1      39.060  30.606  29.029  1.00  0.00     0.074 A 
ATOM     42  C   UNL A   1      41.225  29.920  29.913  1.00  0.00     0.049 A 
ATOM     43  N   UNL A   1      39.211  31.875  29.211  1.00  0.00    -0.248 NA
ATOM     44  C   UNL A   1      37.696  30.262  28.639  1.00  0.00     0.031 C 
ATOM     45  C   UNL A   1      41.363  31.060  30.806  1.00  0.00     0.029 A 
ATOM     46  N   UNL A   1      42.496  29.361  29.871  1.00  0.00    -0.354 N 
ATOM     47  C   UNL A   1      37.960  32.421  29.373  1.00  0.00     0.074 A 
ATOM     48  C   UNL A   1      37.058  31.413  28.870  1.00  0.00     0.031 C 
ATOM     49  C   UNL A   1      42.664  31.302  31.002  1.00  0.00     0.029 A 
ATOM     50  C   UNL A   1      43.412  30.364  30.184  1.00  0.00     0.049 A 
ATOM     51  H   UNL A   1      42.710  28.424  29.658  1.00  0.00     0.167 HD
ATOM     52  C   UNL A   1      37.832  33.589  30.072  1.00  0.00     0.031 A 
ATOM     53  C   UNL A   1      44.466  30.658  29.379  1.00  0.00     0.031 A 
ATOM     54  C   UNL A   1      39.146  34.155  30.421  1.00  0.00     0.049 A 
ATOM     55  C   UNL A   1      44.363  32.098  28.983  1.00  0.00     0.074 A 
ATOM     56  C   UNL A   1      39.827  34.296  31.618  1.00  0.00     0.029 A 
ATOM     57  N   UNL A   1      40.075  34.429  29.412  1.00  0.00    -0.354 N 
ATOM     58  N   UNL A   1      43.211  32.708  28.878  1.00  0.00    -0.248 NA
ATOM     59  C   UNL A   1      45.503  32.999  28.863  1.00  0.00     0.031 C 
ATOM     60  C   UNL A   1      41.191  34.565  31.319  1.00  0.00     0.029 A 
ATOM     61  C   UNL A   1      41.337  34.620  29.941  1.00  0.00     0.049 A 
ATOM     62  H   UNL A   1      39.858  34.478  28.452  1.00  0.00     0.167 HD
ATOM     63  C   UNL A   1      43.437  34.051  28.880  1.00  0.00     0.074 A 
ATOM     64  C   UNL A   1      44.883  34.189  28.775  1.00  0.00     0.031 C 
ATOM     65  C   UNL A   1      42.471  34.985  29.103  1.00  0.00     0.031 A 
BRANCH  52  66
ATOM     66  C   UNL A   1      36.524  34.083  30.679  1.00  0.00    -0.014 A 
ATOM     67  C   UNL A   1      35.389  34.281  29.861  1.00  0.00     0.010 A 
ATOM     68  C   UNL A   1      36.349  34.417  32.036  1.00  0.00     0.010 A 
ATOM     69  C   UNL A   1      34.188  34.828  30.352  1.00  0.00     0.020 A 
ATOM     70  C   UNL A   1      35.165  34.980  32.541  1.00  0.00     0.020 A 
ATOM     71  C   UNL A   1      34.088  35.188  31.693  1.00  0.00     0.054 A 
BRANCH  71  72
ATOM     72  S   UNL A   1      32.546  35.904  32.320  1.00  0.00     0.124 S 
ATOM     73  O   UNL A   1      31.959  36.489  31.118  1.00  0.00    -0.237 OA
ATOM     74  O   UNL A   1      31.852  34.738  32.858  1.00  0.00    -0.237 OA
ATOM     75  O   UNL A   1      32.993  36.872  33.321  1.00  0.00    -0.744 OA
ENDBRANCH  71  72
ENDBRANCH  52  66
BRANCH  53  76
ATOM     76  C   UNL A   1      44.997  29.478  28.640  1.00  0.00    -0.014 A 
ATOM     77  C   UNL A   1      44.791  29.494  27.239  1.00  0.00     0.010 A 
ATOM     78  C   UNL A   1      46.073  28.727  29.147  1.00  0.00     0.010 A 
ATOM     79  C   UNL A   1      45.733  28.940  26.366  1.00  0.00     0.020 A 
ATOM     80  C   UNL A   1      47.021  28.166  28.270  1.00  0.00     0.020 A 
ATOM     81  C   UNL A   1      46.875  28.332  26.888  1.00  0.00     0.054 A 
BRANCH  81  82
ATOM     82  S   UNL A   1      48.269  28.019  25.756  1.00  0.00     0.124 S 
ATOM     83  O   UNL A   1      49.233  29.037  26.159  1.00  0.00    -0.237 OA
ATOM     84  O   UNL A   1      48.636  26.640  26.084  1.00  0.00    -0.237 OA
ATOM     85  O   UNL A   1      47.682  28.190  24.431  1.00  0.00    -0.744 OA
ENDBRANCH  81  82
ENDBRANCH  53  76
BRANCH  65  86
ATOM     86  C   UNL A   1      42.605  36.401  28.637  1.00  0.00    -0.014 A 
ATOM     87  C   UNL A   1      43.442  37.319  29.294  1.00  0.00     0.010 A 
ATOM     88  C   UNL A   1      42.057  36.782  27.395  1.00  0.00     0.010 A 
ATOM     89  C   UNL A   1      43.686  38.583  28.759  1.00  0.00     0.020 A 
ATOM     90  C   UNL A   1      42.329  38.028  26.831  1.00  0.00     0.020 A 
ATOM     91  C   UNL A   1      43.131  38.928  27.527  1.00  0.00     0.054 A 
BRANCH  91  92
ATOM     92  S   UNL A   1      43.544  40.528  26.801  1.00  0.00     0.124 S 
ATOM     93  O   UNL A   1      44.543  40.154  25.804  1.00  0.00    -0.237 OA
ATOM     94  O   UNL A   1      42.262  40.982  26.263  1.00  0.00    -0.237 OA
ATOM     95  O   UNL A   1      44.044  41.302  27.934  1.00  0.00    -0.744 OA
ENDBRANCH  91  92
ENDBRANCH  65  86
ENDBRANCH  39  40
ENDBRANCH  32  34
ENDBRANCH  31  32
ENDBRANCH  30  31
ENDBRANCH   1  30
TORSDOF 19
ENDMDL
MODEL 2
REMARK VINA RESULT:     -12.1      1.549      2.109
REMARK SMILES Cc1ccccc1-c1c(Cl)ccc2c1C=C(C(=O)OCCOCCOC(=O)c1ccc(-c3c4nc(c(-c5ccc(S(=O)(=O)[O-])cc5)c5ccc([nH]5)c(-c5ccc(S(=O)(=O)[O-])cc5)c5nc(c(-c6ccc(S(=O)(=O)[O-])cc6)c6ccc3[nH]6)C=C5)C=C4)cc1)[C@@H](C(F)(F)F)O2
REMARK SMILES IDX 23 1 22 2 21 3 20 4 19 5 17 6 18 7 16 8 8 9 9 10 14 11 10 12
REMARK SMILES IDX 11 13 13 14 15 15 12 16 93 17 88 18 7 19 1 20 2 21 3 22 4 23
REMARK SMILES IDX 6 24 5 25 89 26 90 27 91 28 92 29 24 30 25 31 26 32 27 33
REMARK SMILES IDX 28 34 29 35 87 36 30 37 86 38 31 39 32 40 33 41 80 42 34 43
REMARK SMILES IDX 85 44 79 45 81 46 35 47 84 48 78 49 77 50 36 52 66 53 47 54
REMARK SMILES IDX 65 55 48 56 51 57 64 58 82 59 49 60 50 61 63 63 83 64 52 65
REMARK SMILES IDX 37 66 38 67 46 68 39 69 45 70 40 71 41 72 42 73 43 74 44 75
REMARK SMILES IDX 67 76 68 77 76 78 69 79 75 80 70 81 71 82 72 83 73 84 74 85
REMARK SMILES IDX 53 86 54 87 62 88 55 89 61 90 56 91 57 92 58 93 59 94 60 95
REMARK H PARENT 81 51 51 62
REMARK Flexibility Score: inf
ROOT
ATOM      1  C   UNL A   1      39.684  21.373  25.817  1.00  0.00     0.202 C 
ENDROOT
BRANCH   1   2
ATOM      2  O   UNL A   1      38.345  20.904  25.768  1.00  0.00    -0.374 OA
BRANCH   2   3
ATOM      3  C   UNL A   1      37.685  21.083  24.509  1.00  0.00     0.202 C 
BRANCH   3   4
ATOM      4  C   UNL A   1      36.359  21.770  24.775  1.00  0.00     0.261 C 
BRANCH   4   5
ATOM      5  O   UNL A   1      36.212  22.958  23.964  1.00  0.00    -0.460 OA
BRANCH   5   6
ATOM      6  C   UNL A   1      34.948  23.164  23.532  1.00  0.00     0.338 C 
ATOM      7  O   UNL A   1      34.588  23.403  22.388  1.00  0.00    -0.246 OA
BRANCH   6   8
ATOM      8  C   UNL A   1      33.949  23.061  24.618  1.00  0.00     0.087 C 
ATOM      9  C   UNL A   1      31.807  26.054  24.594  1.00  0.00     0.012 A 
ATOM     10  C   UNL A   1      30.667  26.384  23.809  1.00  0.00     0.049 A 
ATOM     11  C   UNL A   1      32.216  24.686  24.598  1.00  0.00     0.027 A 
ATOM     12  Cl  UNL A   1      30.111  28.020  23.620  1.00  0.00    -0.084 Cl
ATOM     13  C   UNL A   1      29.930  25.412  23.122  1.00  0.00     0.025 A 
ATOM     14  C   UNL A   1      31.431  23.720  23.922  1.00  0.00     0.128 A 
ATOM     15  C   UNL A   1      33.547  24.253  25.090  1.00  0.00     0.028 C 
ATOM     16  C   UNL A   1      30.299  24.080  23.199  1.00  0.00     0.049 A 
ATOM     17  O   UNL A   1      31.714  22.379  23.864  1.00  0.00    -0.475 OA
ATOM     18  C   UNL A   1      32.977  21.945  24.396  1.00  0.00     0.316 C 
BRANCH   9  19
ATOM     19  C   UNL A   1      32.459  27.107  25.436  1.00  0.00    -0.013 A 
ATOM     20  C   UNL A   1      34.027  28.064  23.621  1.00  0.00     0.045 C 
ATOM     21  C   UNL A   1      33.456  28.015  25.008  1.00  0.00    -0.043 A 
ATOM     22  C   UNL A   1      33.969  28.976  25.905  1.00  0.00     0.004 A 
ATOM     23  C   UNL A   1      33.484  29.085  27.203  1.00  0.00     0.000 A 
ATOM     24  C   UNL A   1      32.004  27.237  26.770  1.00  0.00     0.009 A 
ATOM     25  C   UNL A   1      32.490  28.221  27.634  1.00  0.00     0.001 A 
ENDBRANCH   9  19
BRANCH  18  26
ATOM     26  C   UNL A   1      32.775  21.154  25.693  1.00  0.00     0.430 C 
ATOM     27  F   UNL A   1      31.739  21.641  26.418  1.00  0.00    -0.167 F 
ATOM     28  F   UNL A   1      32.486  19.851  25.442  1.00  0.00    -0.167 F 
ATOM     29  F   UNL A   1      33.866  21.169  26.494  1.00  0.00    -0.167 F 
ENDBRANCH  18  26
ENDBRANCH   6   8
ENDBRANCH   5   6
ENDBRANCH   4   5
ENDBRANCH   3   4
ENDBRANCH   2   3
ENDBRANCH   1   2
BRANCH   1  30
ATOM     30  C   UNL A   1      40.010  22.290  27.004  1.00  0.00     0.261 C 
BRANCH  30  31
ATOM     31  O   UNL A   1      40.082  23.669  26.597  1.00  0.00    -0.460 OA
BRANCH  31  32
ATOM     32  C   UNL A   1      38.995  24.416  26.933  1.00  0.00     0.338 C 
ATOM     33  O   UNL A   1      37.843  24.064  26.735  1.00  0.00    -0.246 OA
BRANCH  32  34
ATOM     34  C   UNL A   1      39.411  25.642  27.656  1.00  0.00     0.060 A 
ATOM     35  C   UNL A   1      38.983  25.890  28.967  1.00  0.00     0.016 A 
ATOM     36  C   UNL A   1      40.165  26.596  26.974  1.00  0.00     0.016 A 
ATOM     37  C   UNL A   1      39.249  27.129  29.569  1.00  0.00     0.010 A 
ATOM     38  C   UNL A   1      40.359  27.836  27.540  1.00  0.00     0.010 A 
ATOM     39  C   UNL A   1      39.918  28.111  28.840  1.00  0.00    -0.014 A 
BRANCH  39  40
ATOM     40  C   UNL A   1      40.190  29.479  29.275  1.00  0.00     0.031 A 
ATOM     41  C   UNL A   1      39.155  30.534  29.128  1.00  0.00     0.074 A 
ATOM     42  C   UNL A   1      41.239  29.717  30.091  1.00  0.00     0.049 A 
ATOM     43  N   UNL A   1      39.347  31.786  29.377  1.00  0.00    -0.248 NA
ATOM     44  C   UNL A   1      37.801  30.266  28.652  1.00  0.00     0.031 C 
ATOM     45  C   UNL A   1      41.375  30.809  31.042  1.00  0.00     0.029 A 
ATOM     46  N   UNL A   1      42.486  29.106  30.089  1.00  0.00    -0.354 N 
ATOM     47  C   UNL A   1      38.112  32.378  29.498  1.00  0.00     0.074 A 
ATOM     48  C   UNL A   1      37.198  31.432  28.903  1.00  0.00     0.031 C 
ATOM     49  C   UNL A   1      42.671  30.986  31.317  1.00  0.00     0.029 A 
ATOM     50  C   UNL A   1      43.424  30.054  30.496  1.00  0.00     0.049 A 
ATOM     51  H   UNL A   1      42.674  28.171  29.844  1.00  0.00     0.167 HD
ATOM     52  C   UNL A   1      37.994  33.517  30.243  1.00  0.00     0.031 A 
ATOM     53  C   UNL A   1      44.531  30.338  29.762  1.00  0.00     0.031 A 
ATOM     54  C   UNL A   1      39.309  34.010  30.686  1.00  0.00     0.049 A 
ATOM     55  C   UNL A   1      44.508  31.797  29.428  1.00  0.00     0.074 A 
ATOM     56  C   UNL A   1      39.930  34.068  31.923  1.00  0.00     0.029 A 
ATOM     57  N   UNL A   1      40.302  34.289  29.741  1.00  0.00    -0.354 N 
ATOM     58  N   UNL A   1      43.389  32.460  29.292  1.00  0.00    -0.248 NA
ATOM     59  C   UNL A   1      45.689  32.653  29.410  1.00  0.00     0.031 C 
ATOM     60  C   UNL A   1      41.317  34.291  31.709  1.00  0.00     0.029 A 
ATOM     61  C   UNL A   1      41.539  34.402  30.344  1.00  0.00     0.049 A 
ATOM     62  H   UNL A   1      40.139  34.389  28.775  1.00  0.00     0.167 HD
ATOM     63  C   UNL A   1      43.669  33.791  29.369  1.00  0.00     0.074 A 
ATOM     64  C   UNL A   1      45.123  33.871  29.346  1.00  0.00     0.031 C 
ATOM     65  C   UNL A   1      42.731  34.755  29.584  1.00  0.00     0.031 A 
BRANCH  52  66
ATOM     66  C   UNL A   1      36.675  34.040  30.804  1.00  0.00    -0.014 A 
ATOM     67  C   UNL A   1      35.536  34.132  29.974  1.00  0.00     0.010 A 
ATOM     68  C   UNL A   1      36.495  34.500  32.123  1.00  0.00     0.010 A 
ATOM     69  C   UNL A   1      34.324  34.699  30.414  1.00  0.00     0.020 A 
ATOM     70  C   UNL A   1      35.300  35.084  32.575  1.00  0.00     0.020 A 
ATOM     71  C   UNL A   1      34.218  35.185  31.714  1.00  0.00     0.054 A 
BRANCH  71  72
ATOM     72  S   UNL A   1      32.660  35.925  32.273  1.00  0.00     0.124 S 
ATOM     73  O   UNL A   1      33.106  36.844  33.317  1.00  0.00    -0.237 OA
ATOM     74  O   UNL A   1      32.152  36.549  31.056  1.00  0.00    -0.237 OA
ATOM     75  O   UNL A   1      31.884  34.781  32.751  1.00  0.00    -0.744 OA
ENDBRANCH  71  72
ENDBRANCH  52  66
BRANCH  53  76
ATOM     76  C   UNL A   1      45.053  29.170  28.997  1.00  0.00    -0.014 A 
ATOM     77  C   UNL A   1      45.594  28.122  29.780  1.00  0.00     0.010 A 
ATOM     78  C   UNL A   1      44.559  28.860  27.717  1.00  0.00     0.010 A 
ATOM     79  C   UNL A   1      45.471  26.787  29.380  1.00  0.00     0.020 A 
ATOM     80  C   UNL A   1      44.438  27.517  27.311  1.00  0.00     0.020 A 
ATOM     81  C   UNL A   1      44.837  26.490  28.173  1.00  0.00     0.054 A 
BRANCH  81  82
ATOM     82  S   UNL A   1      44.305  24.770  27.889  1.00  0.00     0.124 S 
ATOM     83  O   UNL A   1      44.629  24.572  26.481  1.00  0.00    -0.237 OA
ATOM     84  O   UNL A   1      45.133  24.024  28.838  1.00  0.00    -0.237 OA
ATOM     85  O   UNL A   1      42.882  24.792  28.215  1.00  0.00    -0.744 OA
ENDBRANCH  81  82
ENDBRANCH  53  76
BRANCH  65  86
ATOM     86  C   UNL A   1      42.948  36.183  29.193  1.00  0.00    -0.014 A 
ATOM     87  C   UNL A   1      42.236  36.776  28.136  1.00  0.00     0.010 A 
ATOM     88  C   UNL A   1      43.719  37.024  30.021  1.00  0.00     0.010 A 
ATOM     89  C   UNL A   1      42.325  38.145  27.887  1.00  0.00     0.020 A 
ATOM     90  C   UNL A   1      43.782  38.400  29.805  1.00  0.00     0.020 A 
ATOM     91  C   UNL A   1      43.095  38.949  28.726  1.00  0.00     0.054 A 
BRANCH  91  92
ATOM     92  S   UNL A   1      43.113  40.733  28.449  1.00  0.00     0.124 S 
ATOM     93  O   UNL A   1      42.410  41.225  29.631  1.00  0.00    -0.237 OA
ATOM     94  O   UNL A   1      44.542  41.040  28.397  1.00  0.00    -0.237 OA
ATOM     95  O   UNL A   1      42.403  40.893  27.183  1.00  0.00    -0.744 OA
ENDBRANCH  91  92
ENDBRANCH  65  86
ENDBRANCH  39  40
ENDBRANCH  32  34
ENDBRANCH  31  32
ENDBRANCH  30  31
ENDBRANCH   1  30
TORSDOF 19
ENDMDL
MODEL 3
REMARK VINA RESULT:     -11.9      4.132     10.212
REMARK SMILES Cc1ccccc1-c1c(Cl)ccc2c1C=C(C(=O)OCCOCCOC(=O)c1ccc(-c3c4nc(c(-c5ccc(S(=O)(=O)[O-])cc5)c5ccc([nH]5)c(-c5ccc(S(=O)(=O)[O-])cc5)c5nc(c(-c6ccc(S(=O)(=O)[O-])cc6)c6ccc3[nH]6)C=C5)C=C4)cc1)[C@@H](C(F)(F)F)O2
REMARK SMILES IDX 23 1 22 2 21 3 20 4 19 5 17 6 18 7 16 8 8 9 9 10 14 11 10 12
REMARK SMILES IDX 11 13 13 14 15 15 12 16 93 17 88 18 7 19 1 20 2 21 3 22 4 23
REMARK SMILES IDX 6 24 5 25 89 26 90 27 91 28 92 29 24 30 25 31 26 32 27 33
REMARK SMILES IDX 28 34 29 35 87 36 30 37 86 38 31 39 32 40 33 41 80 42 34 43
REMARK SMILES IDX 85 44 79 45 81 46 35 47 84 48 78 49 77 50 36 52 66 53 47 54
REMARK SMILES IDX 65 55 48 56 51 57 64 58 82 59 49 60 50 61 63 63 83 64 52 65
REMARK SMILES IDX 37 66 38 67 46 68 39 69 45 70 40 71 41 72 42 73 43 74 44 75
REMARK SMILES IDX 67 76 68 77 76 78 69 79 75 80 70 81 71 82 72 83 73 84 74 85
REMARK SMILES IDX 53 86 54 87 62 88 55 89 61 90 56 91 57 92 58 93 59 94 60 95
REMARK H PARENT 81 51 51 62
REMARK Flexibility Score: inf
ROOT
ATOM      1  C   UNL A   1      35.059  31.460  27.881  1.00  0.00     0.202 C 
ENDROOT
BRANCH   1   2
ATOM      2  O   UNL A   1      33.674  31.172  28.008  1.00  0.00    -0.374 OA
BRANCH   2   3
ATOM      3  C   UNL A   1      33.103  30.446  26.913  1.00  0.00     0.202 C 
BRANCH   3   4
ATOM      4  C   UNL A   1      34.045  29.308  26.571  1.00  0.00     0.261 C 
BRANCH   4   5
ATOM      5  O   UNL A   1      33.615  28.070  27.183  1.00  0.00    -0.460 OA
BRANCH   5   6
ATOM      6  C   UNL A   1      32.658  27.424  26.482  1.00  0.00     0.338 C 
ATOM      7  O   UNL A   1      31.601  26.982  26.908  1.00  0.00    -0.246 OA
BRANCH   6   8
ATOM      8  C   UNL A   1      32.995  27.287  25.048  1.00  0.00     0.087 C 
ATOM      9  C   UNL A   1      33.190  23.718  24.175  1.00  0.00     0.012 A 
ATOM     10  C   UNL A   1      32.174  22.775  23.849  1.00  0.00     0.049 A 
ATOM     11  C   UNL A   1      32.827  25.098  24.141  1.00  0.00     0.027 A 
ATOM     12  Cl  UNL A   1      32.433  21.059  23.947  1.00  0.00    -0.084 Cl
ATOM     13  C   UNL A   1      30.893  23.172  23.448  1.00  0.00     0.025 A 
ATOM     14  C   UNL A   1      31.534  25.470  23.698  1.00  0.00     0.128 A 
ATOM     15  C   UNL A   1      33.661  26.157  24.760  1.00  0.00     0.028 C 
ATOM     16  C   UNL A   1      30.583  24.517  23.350  1.00  0.00     0.049 A 
ATOM     17  O   UNL A   1      31.074  26.759  23.612  1.00  0.00    -0.475 OA
ATOM     18  C   UNL A   1      31.907  27.798  24.154  1.00  0.00     0.316 C 
BRANCH   9  19
ATOM     19  C   UNL A   1      34.586  23.243  24.440  1.00  0.00    -0.013 A 
ATOM     20  C   UNL A   1      34.338  22.879  26.983  1.00  0.00     0.045 C 
ATOM     21  C   UNL A   1      35.110  22.864  25.697  1.00  0.00    -0.043 A 
ATOM     22  C   UNL A   1      36.443  22.412  25.800  1.00  0.00     0.004 A 
ATOM     23  C   UNL A   1      37.253  22.285  24.677  1.00  0.00     0.000 A 
ATOM     24  C   UNL A   1      35.446  23.119  23.322  1.00  0.00     0.009 A 
ATOM     25  C   UNL A   1      36.750  22.629  23.433  1.00  0.00     0.001 A 
ENDBRANCH   9  19
BRANCH  18  26
ATOM     26  C   UNL A   1      32.504  28.655  23.033  1.00  0.00     0.430 C 
ATOM     27  F   UNL A   1      31.544  29.339  22.364  1.00  0.00    -0.167 F 
ATOM     28  F   UNL A   1      33.366  29.584  23.522  1.00  0.00    -0.167 F 
ATOM     29  F   UNL A   1      33.187  27.925  22.119  1.00  0.00    -0.167 F 
ENDBRANCH  18  26
ENDBRANCH   6   8
ENDBRANCH   5   6
ENDBRANCH   4   5
ENDBRANCH   3   4
ENDBRANCH   2   3
ENDBRANCH   1   2
BRANCH   1  30
ATOM     30  C   UNL A   1      35.911  31.115  29.110  1.00  0.00     0.261 C 
BRANCH  30  31
ATOM     31  O   UNL A   1      36.257  29.717  29.131  1.00  0.00    -0.460 OA
BRANCH  31  32
ATOM     32  C   UNL A   1      36.905  29.312  30.258  1.00  0.00     0.338 C 
ATOM     33  O   UNL A   1      36.387  29.279  31.363  1.00  0.00    -0.246 OA
BRANCH  32  34
ATOM     34  C   UNL A   1      38.266  28.826  29.927  1.00  0.00     0.060 A 
ATOM     35  C   UNL A   1      39.243  28.676  30.921  1.00  0.00     0.016 A 
ATOM     36  C   UNL A   1      38.592  28.609  28.588  1.00  0.00     0.016 A 
ATOM     37  C   UNL A   1      40.567  28.378  30.564  1.00  0.00     0.010 A 
ATOM     38  C   UNL A   1      39.905  28.391  28.237  1.00  0.00     0.010 A 
ATOM     39  C   UNL A   1      40.899  28.261  29.215  1.00  0.00    -0.014 A 
BRANCH  39  40
ATOM     40  C   UNL A   1      42.237  28.051  28.667  1.00  0.00     0.031 A 
ATOM     41  C   UNL A   1      42.806  26.682  28.576  1.00  0.00     0.074 A 
ATOM     42  C   UNL A   1      42.822  29.038  27.957  1.00  0.00     0.049 A 
ATOM     43  N   UNL A   1      44.016  26.416  28.216  1.00  0.00    -0.248 NA
ATOM     44  C   UNL A   1      42.053  25.478  28.919  1.00  0.00     0.031 C 
ATOM     45  C   UNL A   1      43.826  28.887  26.914  1.00  0.00     0.029 A 
ATOM     46  N   UNL A   1      42.753  30.409  28.170  1.00  0.00    -0.354 N 
ATOM     47  C   UNL A   1      44.066  25.082  27.888  1.00  0.00     0.074 A 
ATOM     48  C   UNL A   1      42.872  24.521  28.473  1.00  0.00     0.031 C 
ATOM     49  C   UNL A   1      44.483  30.043  26.773  1.00  0.00     0.029 A 
ATOM     50  C   UNL A   1      43.969  30.963  27.773  1.00  0.00     0.049 A 
ATOM     51  H   UNL A   1      41.982  30.901  28.536  1.00  0.00     0.167 HD
ATOM     52  C   UNL A   1      45.024  24.650  27.014  1.00  0.00     0.031 A 
ATOM     53  C   UNL A   1      44.707  31.754  28.595  1.00  0.00     0.031 A 
ATOM     54  C   UNL A   1      45.970  25.727  26.676  1.00  0.00     0.049 A 
ATOM     55  C   UNL A   1      46.055  31.126  28.763  1.00  0.00     0.074 A 
ATOM     56  C   UNL A   1      46.198  26.456  25.520  1.00  0.00     0.029 A 
ATOM     57  N   UNL A   1      46.668  26.385  27.693  1.00  0.00    -0.354 N 
ATOM     58  N   UNL A   1      46.231  29.832  28.695  1.00  0.00    -0.248 NA
ATOM     59  C   UNL A   1      47.306  31.873  28.824  1.00  0.00     0.031 C 
ATOM     60  C   UNL A   1      46.961  27.604  25.868  1.00  0.00     0.029 A 
ATOM     61  C   UNL A   1      47.226  27.560  27.229  1.00  0.00     0.049 A 
ATOM     62  H   UNL A   1      46.750  26.054  28.617  1.00  0.00     0.167 HD
ATOM     63  C   UNL A   1      47.557  29.590  28.505  1.00  0.00     0.074 A 
ATOM     64  C   UNL A   1      48.205  30.882  28.688  1.00  0.00     0.031 C 
ATOM     65  C   UNL A   1      48.061  28.398  28.079  1.00  0.00     0.031 A 
BRANCH  52  66
ATOM     66  C   UNL A   1      44.953  23.332  26.250  1.00  0.00    -0.014 A 
ATOM     67  C   UNL A   1      43.768  22.564  26.265  1.00  0.00     0.010 A 
ATOM     68  C   UNL A   1      46.027  22.764  25.536  1.00  0.00     0.010 A 
ATOM     69  C   UNL A   1      43.681  21.295  25.660  1.00  0.00     0.020 A 
ATOM     70  C   UNL A   1      45.965  21.493  24.942  1.00  0.00     0.020 A 
ATOM     71  C   UNL A   1      44.790  20.760  25.010  1.00  0.00     0.054 A 
BRANCH  71  72
ATOM     72  S   UNL A   1      44.679  19.121  24.243  1.00  0.00     0.124 S 
ATOM     73  O   UNL A   1      45.988  18.546  24.541  1.00  0.00    -0.237 OA
ATOM     74  O   UNL A   1      43.550  18.520  24.945  1.00  0.00    -0.237 OA
ATOM     75  O   UNL A   1      44.443  19.415  22.830  1.00  0.00    -0.744 OA
ENDBRANCH  71  72
ENDBRANCH  52  66
BRANCH  53  76
ATOM     76  C   UNL A   1      43.883  32.563  29.539  1.00  0.00    -0.014 A 
ATOM     77  C   UNL A   1      43.317  33.742  28.997  1.00  0.00     0.010 A 
ATOM     78  C   UNL A   1      43.250  31.967  30.645  1.00  0.00     0.010 A 
ATOM     79  C   UNL A   1      42.065  34.200  29.419  1.00  0.00     0.020 A 
ATOM     80  C   UNL A   1      41.991  32.429  31.074  1.00  0.00     0.020 A 
ATOM     81  C   UNL A   1      41.381  33.503  30.415  1.00  0.00     0.054 A 
BRANCH  81  82
ATOM     82  S   UNL A   1      39.605  33.847  30.634  1.00  0.00     0.124 S 
ATOM     83  O   UNL A   1      39.339  34.804  29.566  1.00  0.00    -0.237 OA
ATOM     84  O   UNL A   1      39.005  32.524  30.458  1.00  0.00    -0.237 OA
ATOM     85  O   UNL A   1      39.522  34.374  31.993  1.00  0.00    -0.744 OA
ENDBRANCH  81  82
ENDBRANCH  53  76
BRANCH  65  86
ATOM     86  C   UNL A   1      49.478  27.992  28.334  1.00  0.00    -0.014 A 
ATOM     87  C   UNL A   1      50.220  27.263  27.389  1.00  0.00     0.010 A 
ATOM     88  C   UNL A   1      50.167  28.523  29.444  1.00  0.00     0.010 A 
ATOM     89  C   UNL A   1      51.583  27.032  27.566  1.00  0.00     0.020 A 
ATOM     90  C   UNL A   1      51.538  28.334  29.609  1.00  0.00     0.020 A 
ATOM     91  C   UNL A   1      52.235  27.573  28.674  1.00  0.00     0.054 A 
BRANCH  91  92
ATOM     92  S   UNL A   1      54.021  27.352  28.829  1.00  0.00     0.124 S 
ATOM     93  O   UNL A   1      54.361  28.369  29.820  1.00  0.00    -0.237 OA
ATOM     94  O   UNL A   1      54.138  25.968  29.287  1.00  0.00    -0.237 OA
ATOM     95  O   UNL A   1      54.517  27.598  27.479  1.00  0.00    -0.744 OA
ENDBRANCH  91  92
ENDBRANCH  65  86
ENDBRANCH  39  40
ENDBRANCH  32  34
ENDBRANCH  31  32
ENDBRANCH  30  31
ENDBRANCH   1  30
TORSDOF 19
ENDMDL
