MODEL 1
REMARK VINA RESULT:     -11.3      0.000      0.000
REMARK SMILES O=C(Nc1ccc2c(c1)[C@@H]1C=CC[C@@H]1[C@H](C(=O)OCCOCCOC(=O)c1ccc(-c3c4nc(c(-c5ccc(S(=O)(=O)[O-])cc5)c5ccc([nH]5)c(-c5ccc(S(=O)(=O)[O-])cc5)c5nc(c(-c6ccc(S(=O)(=O)[O-])cc6)c6ccc3[nH]6)C=C5)C=C4)cc1)N2)c1ccccc1
REMARK SMILES IDX 22 1 21 2 20 3 19 4 18 5 16 6 17 7 15 8 4 9 5 10 9 11 6 12
REMARK SMILES IDX 8 13 7 14 10 15 87 16 11 17 14 18 12 20 13 21 3 22 1 23 2 24
REMARK SMILES IDX 88 26 89 27 93 28 90 29 92 30 91 31 23 32 24 33 25 34 26 35
REMARK SMILES IDX 27 36 28 37 86 38 29 39 85 40 30 41 31 42 32 43 79 44 33 45
REMARK SMILES IDX 84 46 78 47 80 48 34 49 83 50 77 51 76 52 35 54 65 55 46 56
REMARK SMILES IDX 64 57 47 58 50 59 63 60 81 61 48 62 49 63 62 65 82 66 51 67
REMARK SMILES IDX 36 68 37 69 45 70 38 71 44 72 39 73 40 74 41 75 42 76 43 77
REMARK SMILES IDX 66 78 67 79 75 80 68 81 74 82 69 83 70 84 71 85 72 86 73 87
REMARK SMILES IDX 52 88 53 89 61 90 54 91 60 92 55 93 56 94 57 95 58 96 59 97
REMARK H PARENT 87 19 3 25 80 53 50 64
REMARK Flexibility Score: inf
ROOT
ATOM      1  C   UNL A   1      40.497  22.040  26.944  1.00  0.00     0.202 C 
ENDROOT
BRANCH   1   2
ATOM      2  O   UNL A   1      39.216  22.575  26.614  1.00  0.00    -0.374 OA
BRANCH   2   3
ATOM      3  C   UNL A   1      38.439  21.873  25.644  1.00  0.00     0.202 C 
BRANCH   3   4
ATOM      4  C   UNL A   1      36.918  21.979  25.768  1.00  0.00     0.261 C 
BRANCH   4   5
ATOM      5  O   UNL A   1      36.269  21.710  24.515  1.00  0.00    -0.462 OA
BRANCH   5   6
ATOM      6  C   UNL A   1      35.077  21.066  24.606  1.00  0.00     0.328 C 
ATOM      7  O   UNL A   1      34.945  19.880  24.898  1.00  0.00    -0.250 OA
BRANCH   6   8
ATOM      8  C   UNL A   1      33.881  21.946  24.239  1.00  0.00     0.194 C 
ATOM      9  C   UNL A   1      31.542  26.196  22.796  1.00  0.00     0.041 A 
ATOM     10  C   UNL A   1      32.878  26.318  22.425  1.00  0.00     0.028 A 
ATOM     11  C   UNL A   1      31.105  25.027  23.424  1.00  0.00     0.032 A 
ATOM     12  C   UNL A   1      33.793  25.343  22.813  1.00  0.00     0.028 A 
ATOM     13  C   UNL A   1      32.019  24.042  23.828  1.00  0.00    -0.015 A 
ATOM     14  C   UNL A   1      33.380  24.212  23.525  1.00  0.00     0.039 A 
ATOM     15  C   UNL A   1      31.535  22.816  24.579  1.00  0.00     0.050 C 
ATOM     16  N   UNL A   1      34.330  23.297  23.940  1.00  0.00    -0.372 N 
ATOM     17  C   UNL A   1      30.752  23.136  25.826  1.00  0.00    -0.023 C 
ATOM     18  C   UNL A   1      32.675  21.956  25.174  1.00  0.00     0.038 C 
ATOM     19  H   UNL A   1      35.277  23.551  24.029  1.00  0.00     0.161 HD
ATOM     20  C   UNL A   1      31.479  22.956  26.935  1.00  0.00    -0.030 C 
ATOM     21  C   UNL A   1      32.861  22.484  26.607  1.00  0.00     0.034 C 
BRANCH   9  22
ATOM     22  N   UNL A   1      30.700  27.293  22.560  1.00  0.00    -0.322 N 
ATOM     23  O   UNL A   1      29.343  29.014  23.125  1.00  0.00    -0.269 OA
ATOM     24  C   UNL A   1      30.260  28.259  23.443  1.00  0.00     0.255 C 
ATOM     25  H   UNL A   1      30.377  27.387  21.635  1.00  0.00     0.170 HD
BRANCH  24  26
ATOM     26  C   UNL A   1      30.941  28.458  24.751  1.00  0.00     0.040 A 
ATOM     27  C   UNL A   1      31.017  27.432  25.704  1.00  0.00     0.014 A 
ATOM     28  C   UNL A   1      31.513  29.704  25.022  1.00  0.00     0.014 A 
ATOM     29  C   UNL A   1      31.582  27.683  26.954  1.00  0.00     0.001 A 
ATOM     30  C   UNL A   1      32.092  29.946  26.269  1.00  0.00     0.001 A 
ATOM     31  C   UNL A   1      32.110  28.941  27.239  1.00  0.00     0.000 A 
ENDBRANCH  24  26
ENDBRANCH   9  22
ENDBRANCH   6   8
ENDBRANCH   5   6
ENDBRANCH   4   5
ENDBRANCH   3   4
ENDBRANCH   2   3
ENDBRANCH   1   2
BRANCH   1  32
ATOM     32  C   UNL A   1      41.714  22.604  26.199  1.00  0.00     0.261 C 
BRANCH  32  33
ATOM     33  O   UNL A   1      41.720  24.044  26.176  1.00  0.00    -0.460 OA
BRANCH  33  34
ATOM     34  C   UNL A   1      42.742  24.615  26.855  1.00  0.00     0.338 C 
ATOM     35  O   UNL A   1      43.939  24.448  26.658  1.00  0.00    -0.246 OA
BRANCH  34  36
ATOM     36  C   UNL A   1      42.231  25.665  27.757  1.00  0.00     0.060 A 
ATOM     37  C   UNL A   1      43.043  26.790  27.956  1.00  0.00     0.016 A 
ATOM     38  C   UNL A   1      41.024  25.532  28.446  1.00  0.00     0.016 A 
ATOM     39  C   UNL A   1      42.679  27.759  28.887  1.00  0.00     0.010 A 
ATOM     40  C   UNL A   1      40.666  26.502  29.389  1.00  0.00     0.010 A 
ATOM     41  C   UNL A   1      41.510  27.599  29.642  1.00  0.00    -0.014 A 
BRANCH  41  42
ATOM     42  C   UNL A   1      41.268  28.497  30.798  1.00  0.00     0.031 A 
ATOM     43  C   UNL A   1      40.142  29.495  30.724  1.00  0.00     0.074 A 
ATOM     44  C   UNL A   1      42.000  28.391  31.922  1.00  0.00     0.049 A 
ATOM     45  N   UNL A   1      39.752  30.371  31.613  1.00  0.00    -0.248 NA
ATOM     46  C   UNL A   1      39.353  29.506  29.480  1.00  0.00     0.031 C 
ATOM     47  C   UNL A   1      43.082  27.430  32.138  1.00  0.00     0.029 A 
ATOM     48  N   UNL A   1      41.940  29.100  33.095  1.00  0.00    -0.354 N 
ATOM     49  C   UNL A   1      38.678  31.042  31.038  1.00  0.00     0.074 A 
ATOM     50  C   UNL A   1      38.500  30.494  29.711  1.00  0.00     0.031 C 
ATOM     51  C   UNL A   1      43.586  27.613  33.371  1.00  0.00     0.029 A 
ATOM     52  C   UNL A   1      42.887  28.723  34.017  1.00  0.00     0.049 A 
ATOM     53  H   UNL A   1      41.281  29.812  33.261  1.00  0.00     0.167 HD
ATOM     54  C   UNL A   1      37.907  32.021  31.567  1.00  0.00     0.031 A 
ATOM     55  C   UNL A   1      43.172  29.227  35.235  1.00  0.00     0.031 A 
ATOM     56  C   UNL A   1      38.093  32.573  32.883  1.00  0.00     0.049 A 
ATOM     57  C   UNL A   1      42.352  30.374  35.770  1.00  0.00     0.074 A 
ATOM     58  C   UNL A   1      37.352  33.556  33.515  1.00  0.00     0.029 A 
ATOM     59  N   UNL A   1      39.096  32.200  33.764  1.00  0.00    -0.354 N 
ATOM     60  N   UNL A   1      41.324  30.978  35.224  1.00  0.00    -0.248 NA
ATOM     61  C   UNL A   1      42.730  30.902  37.088  1.00  0.00     0.031 C 
ATOM     62  C   UNL A   1      37.945  33.821  34.754  1.00  0.00     0.029 A 
ATOM     63  C   UNL A   1      39.015  32.957  34.921  1.00  0.00     0.049 A 
ATOM     64  H   UNL A   1      39.767  31.499  33.593  1.00  0.00     0.167 HD
ATOM     65  C   UNL A   1      40.917  31.940  36.143  1.00  0.00     0.074 A 
ATOM     66  C   UNL A   1      41.799  31.825  37.286  1.00  0.00     0.031 C 
ATOM     67  C   UNL A   1      39.904  32.838  36.050  1.00  0.00     0.031 A 
BRANCH  54  68
ATOM     68  C   UNL A   1      36.810  32.587  30.703  1.00  0.00    -0.014 A 
ATOM     69  C   UNL A   1      35.511  32.048  30.722  1.00  0.00     0.010 A 
ATOM     70  C   UNL A   1      37.076  33.701  29.887  1.00  0.00     0.010 A 
ATOM     71  C   UNL A   1      34.509  32.589  29.912  1.00  0.00     0.020 A 
ATOM     72  C   UNL A   1      36.069  34.263  29.097  1.00  0.00     0.020 A 
ATOM     73  C   UNL A   1      34.795  33.692  29.102  1.00  0.00     0.054 A 
BRANCH  73  74
ATOM     74  S   UNL A   1      33.470  34.385  28.076  1.00  0.00     0.124 S 
ATOM     75  O   UNL A   1      32.752  35.220  29.035  1.00  0.00    -0.237 OA
ATOM     76  O   UNL A   1      34.210  35.108  27.044  1.00  0.00    -0.237 OA
ATOM     77  O   UNL A   1      32.741  33.209  27.608  1.00  0.00    -0.744 OA
ENDBRANCH  73  74
ENDBRANCH  54  68
BRANCH  55  78
ATOM     78  C   UNL A   1      44.304  28.669  36.024  1.00  0.00    -0.014 A 
ATOM     79  C   UNL A   1      45.607  29.177  35.875  1.00  0.00     0.010 A 
ATOM     80  C   UNL A   1      44.081  27.618  36.934  1.00  0.00     0.010 A 
ATOM     81  C   UNL A   1      46.666  28.635  36.610  1.00  0.00     0.020 A 
ATOM     82  C   UNL A   1      45.132  27.094  37.692  1.00  0.00     0.020 A 
ATOM     83  C   UNL A   1      46.420  27.600  37.517  1.00  0.00     0.054 A 
BRANCH  83  84
ATOM     84  S   UNL A   1      47.800  26.951  38.500  1.00  0.00     0.124 S 
ATOM     85  O   UNL A   1      48.807  27.996  38.337  1.00  0.00    -0.237 OA
ATOM     86  O   UNL A   1      47.211  26.842  39.833  1.00  0.00    -0.237 OA
ATOM     87  O   UNL A   1      48.109  25.676  37.857  1.00  0.00    -0.744 OA
ENDBRANCH  83  84
ENDBRANCH  55  78
BRANCH  67  88
ATOM     88  C   UNL A   1      39.675  33.756  37.223  1.00  0.00    -0.014 A 
ATOM     89  C   UNL A   1      38.849  33.376  38.296  1.00  0.00     0.010 A 
ATOM     90  C   UNL A   1      40.343  34.993  37.280  1.00  0.00     0.010 A 
ATOM     91  C   UNL A   1      38.672  34.228  39.389  1.00  0.00     0.020 A 
ATOM     92  C   UNL A   1      40.194  35.835  38.384  1.00  0.00     0.020 A 
ATOM     93  C   UNL A   1      39.347  35.453  39.427  1.00  0.00     0.054 A 
BRANCH  93  94
ATOM     94  S   UNL A   1      39.136  36.522  40.877  1.00  0.00     0.124 S 
ATOM     95  O   UNL A   1      40.507  36.651  41.362  1.00  0.00    -0.237 OA
ATOM     96  O   UNL A   1      38.557  37.733  40.300  1.00  0.00    -0.237 OA
ATOM     97  O   UNL A   1      38.238  35.760  41.742  1.00  0.00    -0.744 OA
ENDBRANCH  93  94
ENDBRANCH  67  88
ENDBRANCH  41  42
ENDBRANCH  34  36
ENDBRANCH  33  34
ENDBRANCH  32  33
ENDBRANCH   1  32
TORSDOF 19
ENDMDL
MODEL 2
REMARK VINA RESULT:     -11.1      1.937      9.010
REMARK SMILES O=C(Nc1ccc2c(c1)[C@@H]1C=CC[C@@H]1[C@H](C(=O)OCCOCCOC(=O)c1ccc(-c3c4nc(c(-c5ccc(S(=O)(=O)[O-])cc5)c5ccc([nH]5)c(-c5ccc(S(=O)(=O)[O-])cc5)c5nc(c(-c6ccc(S(=O)(=O)[O-])cc6)c6ccc3[nH]6)C=C5)C=C4)cc1)N2)c1ccccc1
REMARK SMILES IDX 22 1 21 2 20 3 19 4 18 5 16 6 17 7 15 8 4 9 5 10 9 11 6 12
REMARK SMILES IDX 8 13 7 14 10 15 87 16 11 17 14 18 12 20 13 21 3 22 1 23 2 24
REMARK SMILES IDX 88 26 89 27 93 28 90 29 92 30 91 31 23 32 24 33 25 34 26 35
REMARK SMILES IDX 27 36 28 37 86 38 29 39 85 40 30 41 31 42 32 43 79 44 33 45
REMARK SMILES IDX 84 46 78 47 80 48 34 49 83 50 77 51 76 52 35 54 65 55 46 56
REMARK SMILES IDX 64 57 47 58 50 59 63 60 81 61 48 62 49 63 62 65 82 66 51 67
REMARK SMILES IDX 36 68 37 69 45 70 38 71 44 72 39 73 40 74 41 75 42 76 43 77
REMARK SMILES IDX 66 78 67 79 75 80 68 81 74 82 69 83 70 84 71 85 72 86 73 87
REMARK SMILES IDX 52 88 53 89 61 90 54 91 60 92 55 93 56 94 57 95 58 96 59 97
REMARK H PARENT 87 19 3 25 80 53 50 64
REMARK Flexibility Score: inf
ROOT
ATOM      1  C   UNL A   1      32.046  31.659  26.908  1.00  0.00     0.202 C 
ENDROOT
BRANCH   1   2
ATOM      2  O   UNL A   1      31.808  30.269  26.688  1.00  0.00    -0.374 OA
BRANCH   2   3
ATOM      3  C   UNL A   1      31.878  29.795  25.344  1.00  0.00     0.202 C 
BRANCH   3   4
ATOM      4  C   UNL A   1      30.791  30.281  24.382  1.00  0.00     0.261 C 
BRANCH   4   5
ATOM      5  O   UNL A   1      29.811  29.260  24.137  1.00  0.00    -0.462 OA
BRANCH   5   6
ATOM      6  C   UNL A   1      29.901  28.647  22.929  1.00  0.00     0.328 C 
ATOM      7  O   UNL A   1      29.670  29.190  21.852  1.00  0.00    -0.250 OA
BRANCH   6   8
ATOM      8  C   UNL A   1      30.260  27.164  23.025  1.00  0.00     0.194 C 
ATOM      9  C   UNL A   1      31.258  22.794  25.377  1.00  0.00     0.041 A 
ATOM     10  C   UNL A   1      30.576  23.600  26.283  1.00  0.00     0.028 A 
ATOM     11  C   UNL A   1      31.509  23.268  24.086  1.00  0.00     0.032 A 
ATOM     12  C   UNL A   1      30.284  24.920  25.948  1.00  0.00     0.028 A 
ATOM     13  C   UNL A   1      31.228  24.599  23.741  1.00  0.00    -0.015 A 
ATOM     14  C   UNL A   1      30.617  25.433  24.691  1.00  0.00     0.039 A 
ATOM     15  C   UNL A   1      31.582  25.117  22.360  1.00  0.00     0.050 C 
ATOM     16  N   UNL A   1      30.361  26.765  24.420  1.00  0.00    -0.372 N 
ATOM     17  C   UNL A   1      33.032  24.932  21.993  1.00  0.00    -0.023 C 
ATOM     18  C   UNL A   1      31.448  26.651  22.215  1.00  0.00     0.038 C 
ATOM     19  H   UNL A   1      30.250  27.420  25.147  1.00  0.00     0.161 HD
ATOM     20  C   UNL A   1      33.724  26.073  22.091  1.00  0.00    -0.030 C 
ATOM     21  C   UNL A   1      32.847  27.203  22.535  1.00  0.00     0.034 C 
BRANCH   9  22
ATOM     22  N   UNL A   1      31.706  21.544  25.829  1.00  0.00    -0.322 N 
ATOM     23  O   UNL A   1      33.139  19.800  25.993  1.00  0.00    -0.269 OA
ATOM     24  C   UNL A   1      32.971  20.995  25.759  1.00  0.00     0.255 C 
ATOM     25  H   UNL A   1      31.023  20.979  26.256  1.00  0.00     0.170 HD
BRANCH  24  26
ATOM     26  C   UNL A   1      34.156  21.853  25.486  1.00  0.00     0.040 A 
ATOM     27  C   UNL A   1      34.698  22.693  26.469  1.00  0.00     0.014 A 
ATOM     28  C   UNL A   1      34.731  21.810  24.212  1.00  0.00     0.014 A 
ATOM     29  C   UNL A   1      35.750  23.550  26.150  1.00  0.00     0.001 A 
ATOM     30  C   UNL A   1      35.795  22.659  23.902  1.00  0.00     0.001 A 
ATOM     31  C   UNL A   1      36.292  23.539  24.866  1.00  0.00     0.000 A 
ENDBRANCH  24  26
ENDBRANCH   9  22
ENDBRANCH   6   8
ENDBRANCH   5   6
ENDBRANCH   4   5
ENDBRANCH   3   4
ENDBRANCH   2   3
ENDBRANCH   1   2
BRANCH   1  32
ATOM     32  C   UNL A   1      33.348  32.051  27.618  1.00  0.00     0.261 C 
BRANCH  32  33
ATOM     33  O   UNL A   1      33.658  33.448  27.455  1.00  0.00    -0.460 OA
BRANCH  33  34
ATOM     34  C   UNL A   1      33.560  34.183  28.588  1.00  0.00     0.338 C 
ATOM     35  O   UNL A   1      32.607  34.868  28.938  1.00  0.00    -0.246 OA
BRANCH  34  36
ATOM     36  C   UNL A   1      34.690  33.886  29.487  1.00  0.00     0.060 A 
ATOM     37  C   UNL A   1      35.971  34.254  29.052  1.00  0.00     0.016 A 
ATOM     38  C   UNL A   1      34.521  33.206  30.695  1.00  0.00     0.016 A 
ATOM     39  C   UNL A   1      37.092  33.893  29.794  1.00  0.00     0.010 A 
ATOM     40  C   UNL A   1      35.651  32.835  31.433  1.00  0.00     0.010 A 
ATOM     41  C   UNL A   1      36.943  33.143  30.966  1.00  0.00    -0.014 A 
BRANCH  41  42
ATOM     42  C   UNL A   1      38.145  32.552  31.604  1.00  0.00     0.031 A 
ATOM     43  C   UNL A   1      38.606  33.090  32.933  1.00  0.00     0.074 A 
ATOM     44  C   UNL A   1      38.788  31.513  31.039  1.00  0.00     0.049 A 
ATOM     45  N   UNL A   1      39.623  32.723  33.667  1.00  0.00    -0.248 NA
ATOM     46  C   UNL A   1      37.811  34.188  33.510  1.00  0.00     0.031 C 
ATOM     47  C   UNL A   1      38.410  30.868  29.782  1.00  0.00     0.029 A 
ATOM     48  N   UNL A   1      39.896  30.818  31.455  1.00  0.00    -0.354 N 
ATOM     49  C   UNL A   1      39.599  33.546  34.788  1.00  0.00     0.074 A 
ATOM     50  C   UNL A   1      38.484  34.454  34.621  1.00  0.00     0.031 C 
ATOM     51  C   UNL A   1      39.275  29.871  29.528  1.00  0.00     0.029 A 
ATOM     52  C   UNL A   1      40.285  29.829  30.585  1.00  0.00     0.049 A 
ATOM     53  H   UNL A   1      40.367  31.009  32.298  1.00  0.00     0.167 HD
ATOM     54  C   UNL A   1      40.424  33.545  35.861  1.00  0.00     0.031 A 
ATOM     55  C   UNL A   1      41.346  28.997  30.623  1.00  0.00     0.031 A 
ATOM     56  C   UNL A   1      41.539  32.649  36.021  1.00  0.00     0.049 A 
ATOM     57  C   UNL A   1      42.300  29.070  31.788  1.00  0.00     0.074 A 
ATOM     58  C   UNL A   1      42.424  32.558  37.082  1.00  0.00     0.029 A 
ATOM     59  N   UNL A   1      41.931  31.697  35.092  1.00  0.00    -0.354 N 
ATOM     60  N   UNL A   1      42.246  29.835  32.852  1.00  0.00    -0.248 NA
ATOM     61  C   UNL A   1      43.454  28.160  31.759  1.00  0.00     0.031 C 
ATOM     62  C   UNL A   1      43.387  31.596  36.766  1.00  0.00     0.029 A 
ATOM     63  C   UNL A   1      43.065  31.039  35.539  1.00  0.00     0.049 A 
ATOM     64  H   UNL A   1      41.470  31.516  34.240  1.00  0.00     0.167 HD
ATOM     65  C   UNL A   1      43.345  29.483  33.630  1.00  0.00     0.074 A 
ATOM     66  C   UNL A   1      44.034  28.424  32.922  1.00  0.00     0.031 C 
ATOM     67  C   UNL A   1      43.746  29.991  34.822  1.00  0.00     0.031 A 
BRANCH  54  68
ATOM     68  C   UNL A   1      40.174  34.572  36.935  1.00  0.00    -0.014 A 
ATOM     69  C   UNL A   1      40.832  35.815  36.927  1.00  0.00     0.010 A 
ATOM     70  C   UNL A   1      39.236  34.302  37.948  1.00  0.00     0.010 A 
ATOM     71  C   UNL A   1      40.585  36.753  37.932  1.00  0.00     0.020 A 
ATOM     72  C   UNL A   1      38.965  35.249  38.939  1.00  0.00     0.020 A 
ATOM     73  C   UNL A   1      39.654  36.463  38.934  1.00  0.00     0.054 A 
BRANCH  73  74
ATOM     74  S   UNL A   1      39.339  37.707  40.216  1.00  0.00     0.124 S 
ATOM     75  O   UNL A   1      38.210  38.442  39.652  1.00  0.00    -0.237 OA
ATOM     76  O   UNL A   1      39.033  36.889  41.387  1.00  0.00    -0.237 OA
ATOM     77  O   UNL A   1      40.592  38.454  40.292  1.00  0.00    -0.744 OA
ENDBRANCH  73  74
ENDBRANCH  54  68
BRANCH  55  78
ATOM     78  C   UNL A   1      41.580  28.039  29.508  1.00  0.00    -0.014 A 
ATOM     79  C   UNL A   1      40.792  26.882  29.374  1.00  0.00     0.010 A 
ATOM     80  C   UNL A   1      42.601  28.281  28.570  1.00  0.00     0.010 A 
ATOM     81  C   UNL A   1      41.030  25.980  28.332  1.00  0.00     0.020 A 
ATOM     82  C   UNL A   1      42.823  27.398  27.510  1.00  0.00     0.020 A 
ATOM     83  C   UNL A   1      42.041  26.246  27.404  1.00  0.00     0.054 A 
BRANCH  83  84
ATOM     84  S   UNL A   1      42.295  25.091  26.028  1.00  0.00     0.124 S 
ATOM     85  O   UNL A   1      42.022  25.935  24.869  1.00  0.00    -0.237 OA
ATOM     86  O   UNL A   1      43.689  24.691  26.207  1.00  0.00    -0.237 OA
ATOM     87  O   UNL A   1      41.315  24.037  26.282  1.00  0.00    -0.744 OA
ENDBRANCH  83  84
ENDBRANCH  55  78
BRANCH  67  88
ATOM     88  C   UNL A   1      44.977  29.394  35.455  1.00  0.00    -0.014 A 
ATOM     89  C   UNL A   1      46.251  29.946  35.236  1.00  0.00     0.010 A 
ATOM     90  C   UNL A   1      44.848  28.298  36.329  1.00  0.00     0.010 A 
ATOM     91  C   UNL A   1      47.377  29.396  35.855  1.00  0.00     0.020 A 
ATOM     92  C   UNL A   1      45.966  27.764  36.974  1.00  0.00     0.020 A 
ATOM     93  C   UNL A   1      47.227  28.308  36.722  1.00  0.00     0.054 A 
BRANCH  93  94
ATOM     94  S   UNL A   1      48.698  27.641  37.548  1.00  0.00     0.124 S 
ATOM     95  O   UNL A   1      48.635  28.292  38.853  1.00  0.00    -0.237 OA
ATOM     96  O   UNL A   1      48.438  26.203  37.550  1.00  0.00    -0.237 OA
ATOM     97  O   UNL A   1      49.802  28.069  36.691  1.00  0.00    -0.744 OA
ENDBRANCH  93  94
ENDBRANCH  67  88
ENDBRANCH  41  42
ENDBRANCH  34  36
ENDBRANCH  33  34
ENDBRANCH  32  33
ENDBRANCH   1  32
TORSDOF 19
ENDMDL
MODEL 3
REMARK VINA RESULT:     -10.7      2.024      8.703
REMARK SMILES O=C(Nc1ccc2c(c1)[C@@H]1C=CC[C@@H]1[C@H](C(=O)OCCOCCOC(=O)c1ccc(-c3c4nc(c(-c5ccc(S(=O)(=O)[O-])cc5)c5ccc([nH]5)c(-c5ccc(S(=O)(=O)[O-])cc5)c5nc(c(-c6ccc(S(=O)(=O)[O-])cc6)c6ccc3[nH]6)C=C5)C=C4)cc1)N2)c1ccccc1
REMARK SMILES IDX 22 1 21 2 20 3 19 4 18 5 16 6 17 7 15 8 4 9 5 10 9 11 6 12
REMARK SMILES IDX 8 13 7 14 10 15 87 16 11 17 14 18 12 20 13 21 3 22 1 23 2 24
REMARK SMILES IDX 88 26 89 27 93 28 90 29 92 30 91 31 23 32 24 33 25 34 26 35
REMARK SMILES IDX 27 36 28 37 86 38 29 39 85 40 30 41 31 42 32 43 79 44 33 45
REMARK SMILES IDX 84 46 78 47 80 48 34 49 83 50 77 51 76 52 35 54 65 55 46 56
REMARK SMILES IDX 64 57 47 58 50 59 63 60 81 61 48 62 49 63 62 65 82 66 51 67
REMARK SMILES IDX 36 68 37 69 45 70 38 71 44 72 39 73 40 74 41 75 42 76 43 77
REMARK SMILES IDX 66 78 67 79 75 80 68 81 74 82 69 83 70 84 71 85 72 86 73 87
REMARK SMILES IDX 52 88 53 89 61 90 54 91 60 92 55 93 56 94 57 95 58 96 59 97
REMARK H PARENT 87 19 3 25 80 53 50 64
REMARK Flexibility Score: inf
ROOT
ATOM      1  C   UNL A   1      32.473  31.404  27.077  1.00  0.00     0.202 C 
ENDROOT
BRANCH   1   2
ATOM      2  O   UNL A   1      32.204  30.052  26.711  1.00  0.00    -0.374 OA
BRANCH   2   3
ATOM      3  C   UNL A   1      32.658  29.615  25.430  1.00  0.00     0.202 C 
BRANCH   3   4
ATOM      4  C   UNL A   1      31.699  29.810  24.254  1.00  0.00     0.261 C 
BRANCH   4   5
ATOM      5  O   UNL A   1      30.434  29.173  24.495  1.00  0.00    -0.462 OA
BRANCH   5   6
ATOM      6  C   UNL A   1      29.899  28.524  23.429  1.00  0.00     0.328 C 
ATOM      7  O   UNL A   1      29.177  29.046  22.584  1.00  0.00    -0.250 OA
BRANCH   6   8
ATOM      8  C   UNL A   1      30.226  27.030  23.402  1.00  0.00     0.194 C 
ATOM      9  C   UNL A   1      31.358  22.510  25.379  1.00  0.00     0.041 A 
ATOM     10  C   UNL A   1      30.806  23.277  26.400  1.00  0.00     0.028 A 
ATOM     11  C   UNL A   1      31.477  23.053  24.096  1.00  0.00     0.032 A 
ATOM     12  C   UNL A   1      30.515  24.620  26.174  1.00  0.00     0.028 A 
ATOM     13  C   UNL A   1      31.196  24.408  23.859  1.00  0.00    -0.015 A 
ATOM     14  C   UNL A   1      30.719  25.198  24.918  1.00  0.00     0.039 A 
ATOM     15  C   UNL A   1      31.408  24.998  22.478  1.00  0.00     0.050 C 
ATOM     16  N   UNL A   1      30.471  26.549  24.752  1.00  0.00    -0.372 N 
ATOM     17  C   UNL A   1      32.801  24.804  21.940  1.00  0.00    -0.023 C 
ATOM     18  C   UNL A   1      31.301  26.540  22.434  1.00  0.00     0.038 C 
ATOM     19  H   UNL A   1      30.460  27.163  25.522  1.00  0.00     0.161 HD
ATOM     20  C   UNL A   1      33.532  25.922  22.022  1.00  0.00    -0.030 C 
ATOM     21  C   UNL A   1      32.742  27.043  22.624  1.00  0.00     0.034 C 
BRANCH   9  22
ATOM     22  N   UNL A   1      31.820  21.227  25.707  1.00  0.00    -0.322 N 
ATOM     23  O   UNL A   1      33.247  19.472  25.662  1.00  0.00    -0.269 OA
ATOM     24  C   UNL A   1      33.076  20.682  25.533  1.00  0.00     0.255 C 
ATOM     25  H   UNL A   1      31.154  20.631  26.120  1.00  0.00     0.170 HD
BRANCH  24  26
ATOM     26  C   UNL A   1      34.252  21.556  25.273  1.00  0.00     0.040 A 
ATOM     27  C   UNL A   1      35.022  22.084  26.320  1.00  0.00     0.014 A 
ATOM     28  C   UNL A   1      34.585  21.849  23.947  1.00  0.00     0.014 A 
ATOM     29  C   UNL A   1      36.059  22.973  26.043  1.00  0.00     0.001 A 
ATOM     30  C   UNL A   1      35.636  22.727  23.674  1.00  0.00     0.001 A 
ATOM     31  C   UNL A   1      36.360  23.301  24.721  1.00  0.00     0.000 A 
ENDBRANCH  24  26
ENDBRANCH   9  22
ENDBRANCH   6   8
ENDBRANCH   5   6
ENDBRANCH   4   5
ENDBRANCH   3   4
ENDBRANCH   2   3
ENDBRANCH   1   2
BRANCH   1  32
ATOM     32  C   UNL A   1      33.840  31.711  27.703  1.00  0.00     0.261 C 
BRANCH  32  33
ATOM     33  O   UNL A   1      34.118  33.123  27.742  1.00  0.00    -0.460 OA
BRANCH  33  34
ATOM     34  C   UNL A   1      33.814  33.726  28.916  1.00  0.00     0.338 C 
ATOM     35  O   UNL A   1      32.758  34.272  29.208  1.00  0.00    -0.246 OA
BRANCH  34  36
ATOM     36  C   UNL A   1      34.864  33.454  29.915  1.00  0.00     0.060 A 
ATOM     37  C   UNL A   1      36.088  34.118  29.755  1.00  0.00     0.016 A 
ATOM     38  C   UNL A   1      34.690  32.528  30.945  1.00  0.00     0.016 A 
ATOM     39  C   UNL A   1      37.162  33.815  30.588  1.00  0.00     0.010 A 
ATOM     40  C   UNL A   1      35.774  32.218  31.775  1.00  0.00     0.010 A 
ATOM     41  C   UNL A   1      37.026  32.831  31.575  1.00  0.00    -0.014 A 
BRANCH  41  42
ATOM     42  C   UNL A   1      38.235  32.341  32.280  1.00  0.00     0.031 A 
ATOM     43  C   UNL A   1      39.172  31.408  31.559  1.00  0.00     0.074 A 
ATOM     44  C   UNL A   1      38.529  32.762  33.524  1.00  0.00     0.049 A 
ATOM     45  N   UNL A   1      40.283  30.862  31.980  1.00  0.00    -0.248 NA
ATOM     46  C   UNL A   1      38.806  31.043  30.180  1.00  0.00     0.031 C 
ATOM     47  C   UNL A   1      37.731  33.704  34.309  1.00  0.00     0.029 A 
ATOM     48  N   UNL A   1      39.584  32.449  34.344  1.00  0.00    -0.354 N 
ATOM     49  C   UNL A   1      40.746  30.083  30.925  1.00  0.00     0.074 A 
ATOM     50  C   UNL A   1      39.779  30.203  29.855  1.00  0.00     0.031 C 
ATOM     51  C   UNL A   1      38.326  33.892  35.499  1.00  0.00     0.029 A 
ATOM     52  C   UNL A   1      39.526  33.058  35.575  1.00  0.00     0.049 A 
ATOM     53  H   UNL A   1      40.315  31.846  34.077  1.00  0.00     0.167 HD
ATOM     54  C   UNL A   1      41.876  29.341  30.849  1.00  0.00     0.031 A 
ATOM     55  C   UNL A   1      40.334  32.943  36.647  1.00  0.00     0.031 A 
ATOM     56  C   UNL A   1      42.832  29.214  31.917  1.00  0.00     0.049 A 
ATOM     57  C   UNL A   1      41.542  32.045  36.569  1.00  0.00     0.074 A 
ATOM     58  C   UNL A   1      44.017  28.499  31.930  1.00  0.00     0.029 A 
ATOM     59  N   UNL A   1      42.709  29.805  33.166  1.00  0.00    -0.354 N 
ATOM     60  N   UNL A   1      41.980  31.338  35.554  1.00  0.00    -0.248 NA
ATOM     61  C   UNL A   1      42.368  31.935  37.779  1.00  0.00     0.031 C 
ATOM     62  C   UNL A   1      44.578  28.606  33.206  1.00  0.00     0.029 A 
ATOM     63  C   UNL A   1      43.778  29.443  33.968  1.00  0.00     0.049 A 
ATOM     64  H   UNL A   1      41.970  30.396  33.440  1.00  0.00     0.167 HD
ATOM     65  C   UNL A   1      43.146  30.719  35.996  1.00  0.00     0.074 A 
ATOM     66  C   UNL A   1      43.353  31.149  37.364  1.00  0.00     0.031 C 
ATOM     67  C   UNL A   1      43.969  29.872  35.331  1.00  0.00     0.031 A 
BRANCH  54  68
ATOM     68  C   UNL A   1      42.123  28.576  29.575  1.00  0.00    -0.014 A 
ATOM     69  C   UNL A   1      42.817  29.153  28.496  1.00  0.00     0.010 A 
ATOM     70  C   UNL A   1      41.684  27.244  29.471  1.00  0.00     0.010 A 
ATOM     71  C   UNL A   1      43.034  28.424  27.324  1.00  0.00     0.020 A 
ATOM     72  C   UNL A   1      41.924  26.502  28.311  1.00  0.00     0.020 A 
ATOM     73  C   UNL A   1      42.584  27.104  27.237  1.00  0.00     0.054 A 
BRANCH  73  74
ATOM     74  S   UNL A   1      42.896  26.175  25.711  1.00  0.00     0.124 S 
ATOM     75  O   UNL A   1      41.732  26.526  24.902  1.00  0.00    -0.237 OA
ATOM     76  O   UNL A   1      44.168  26.730  25.254  1.00  0.00    -0.237 OA
ATOM     77  O   UNL A   1      42.950  24.784  26.154  1.00  0.00    -0.744 OA
ENDBRANCH  73  74
ENDBRANCH  54  68
BRANCH  55  78
ATOM     78  C   UNL A   1      40.014  33.677  37.902  1.00  0.00    -0.014 A 
ATOM     79  C   UNL A   1      39.181  33.104  38.880  1.00  0.00     0.010 A 
ATOM     80  C   UNL A   1      40.543  34.962  38.124  1.00  0.00     0.010 A 
ATOM     81  C   UNL A   1      38.874  33.809  40.049  1.00  0.00     0.020 A 
ATOM     82  C   UNL A   1      40.262  35.657  39.304  1.00  0.00     0.020 A 
ATOM     83  C   UNL A   1      39.420  35.079  40.255  1.00  0.00     0.054 A 
BRANCH  83  84
ATOM     84  S   UNL A   1      39.053  35.950  41.804  1.00  0.00     0.124 S 
ATOM     85  O   UNL A   1      40.133  35.493  42.672  1.00  0.00    -0.237 OA
ATOM     86  O   UNL A   1      39.116  37.352  41.397  1.00  0.00    -0.237 OA
ATOM     87  O   UNL A   1      37.719  35.471  42.157  1.00  0.00    -0.744 OA
ENDBRANCH  83  84
ENDBRANCH  55  78
BRANCH  67  88
ATOM     88  C   UNL A   1      45.188  29.367  36.060  1.00  0.00    -0.014 A 
ATOM     89  C   UNL A   1      45.156  28.166  36.789  1.00  0.00     0.010 A 
ATOM     90  C   UNL A   1      46.399  30.077  35.965  1.00  0.00     0.010 A 
ATOM     91  C   UNL A   1      46.305  27.699  37.435  1.00  0.00     0.020 A 
ATOM     92  C   UNL A   1      47.558  29.599  36.583  1.00  0.00     0.020 A 
ATOM     93  C   UNL A   1      47.499  28.419  37.327  1.00  0.00     0.054 A 
BRANCH  93  94
ATOM     94  S   UNL A   1      48.987  27.769  38.137  1.00  0.00     0.124 S 
ATOM     95  O   UNL A   1      48.875  28.335  39.478  1.00  0.00    -0.237 OA
ATOM     96  O   UNL A   1      48.794  26.324  38.047  1.00  0.00    -0.237 OA
ATOM     97  O   UNL A   1      50.082  28.298  37.327  1.00  0.00    -0.744 OA
ENDBRANCH  93  94
ENDBRANCH  67  88
ENDBRANCH  41  42
ENDBRANCH  34  36
ENDBRANCH  33  34
ENDBRANCH  32  33
ENDBRANCH   1  32
TORSDOF 19
ENDMDL
