MODEL 1
REMARK VINA RESULT:     -10.7      0.000      0.000
REMARK SMILES CC1=C(C)C[C@@H](C(=O)OCCOCCOC(=O)c2ccc(-c3c4nc(c(-c5ccc(S(=O)(=O)[O-])cc5)c5ccc([nH]5)c(-c5ccc(S(=O)(=O)[O-])cc5)c5nc(c(-c6ccc(S(=O)(=O)[O-])cc6)c6ccc3[nH]6)C=C5)C=C4)cc2)[C@@H](C(=O)NCC[NH+]2CCOCC2)C1
REMARK SMILES IDX 11 1 10 2 9 3 7 4 8 5 6 6 1 7 2 8 3 9 90 10 4 11 5 12 78 13
REMARK SMILES IDX 79 14 80 15 81 16 82 18 83 19 84 20 85 21 89 22 86 24 88 25
REMARK SMILES IDX 87 26 12 27 13 28 14 29 15 30 16 31 17 32 18 33 19 34 77 35
REMARK SMILES IDX 20 36 76 37 21 38 22 39 23 40 70 41 24 42 75 43 69 44 71 45
REMARK SMILES IDX 25 46 74 47 68 48 67 49 26 51 56 52 37 53 55 54 38 55 41 56
REMARK SMILES IDX 54 57 72 58 39 59 40 60 53 62 73 63 42 64 27 65 28 66 36 67
REMARK SMILES IDX 29 68 35 69 30 70 31 71 32 72 33 73 34 74 57 75 58 76 66 77
REMARK SMILES IDX 59 78 65 79 60 80 61 81 62 82 63 83 64 84 43 85 44 86 52 87
REMARK SMILES IDX 45 88 51 89 46 90 47 91 48 92 49 93 50 94
REMARK H PARENT 81 17 84 23 71 50 41 61
REMARK Flexibility Score: inf
ROOT
ATOM      1  C   UNL A   1      32.922  28.178  27.252  1.00  0.00     0.202 C 
ENDROOT
BRANCH   1   2
ATOM      2  C   UNL A   1      32.483  26.926  26.464  1.00  0.00     0.261 C 
BRANCH   2   3
ATOM      3  O   UNL A   1      31.622  27.127  25.306  1.00  0.00    -0.463 OA
BRANCH   3   4
ATOM      4  C   UNL A   1      30.765  26.122  25.043  1.00  0.00     0.310 C 
ATOM      5  O   UNL A   1      29.844  25.818  25.807  1.00  0.00    -0.252 OA
BRANCH   4   6
ATOM      6  C   UNL A   1      30.946  25.299  23.765  1.00  0.00     0.116 C 
ATOM      7  C   UNL A   1      34.775  23.249  23.157  1.00  0.00     0.039 C 
ATOM      8  C   UNL A   1      33.344  23.689  23.292  1.00  0.00    -0.074 C 
ATOM      9  C   UNL A   1      32.520  23.368  24.309  1.00  0.00    -0.073 C 
ATOM     10  C   UNL A   1      32.815  24.505  22.132  1.00  0.00     0.045 C 
ATOM     11  C   UNL A   1      32.858  22.508  25.498  1.00  0.00     0.039 C 
ATOM     12  C   UNL A   1      31.093  23.840  24.254  1.00  0.00     0.046 C 
ATOM     13  C   UNL A   1      31.776  25.608  22.479  1.00  0.00     0.097 C 
BRANCH  13  14
ATOM     14  C   UNL A   1      32.482  26.954  22.306  1.00  0.00     0.224 C 
ATOM     15  O   UNL A   1      33.689  27.002  22.063  1.00  0.00    -0.275 OA
ATOM     16  N   UNL A   1      31.802  28.154  22.351  1.00  0.00    -0.350 N 
ATOM     17  H   UNL A   1      32.399  28.935  22.401  1.00  0.00     0.163 HD
BRANCH  16  18
ATOM     18  C   UNL A   1      30.380  28.514  22.339  1.00  0.00     0.177 C 
BRANCH  18  19
ATOM     19  C   UNL A   1      30.009  30.028  22.162  1.00  0.00     0.283 C 
BRANCH  19  20
ATOM     20  N   UNL A   1      28.586  30.415  22.321  1.00  0.00    -0.330 N 
ATOM     21  C   UNL A   1      27.879  30.829  21.082  1.00  0.00     0.291 C 
ATOM     22  C   UNL A   1      28.404  31.517  23.305  1.00  0.00     0.291 C 
ATOM     23  H   UNL A   1      28.172  29.541  22.644  1.00  0.00     0.348 HD
ATOM     24  C   UNL A   1      28.094  32.300  20.621  1.00  0.00     0.221 C 
ATOM     25  C   UNL A   1      28.772  32.907  22.768  1.00  0.00     0.221 C 
ATOM     26  O   UNL A   1      27.906  33.243  21.682  1.00  0.00    -0.370 OA
ENDBRANCH  19  20
ENDBRANCH  18  19
ENDBRANCH  16  18
ENDBRANCH  13  14
ENDBRANCH   4   6
ENDBRANCH   3   4
ENDBRANCH   2   3
ENDBRANCH   1   2
BRANCH   1  27
ATOM     27  O   UNL A   1      33.548  29.266  26.587  1.00  0.00    -0.374 OA
BRANCH  27  28
ATOM     28  C   UNL A   1      33.894  30.406  27.339  1.00  0.00     0.202 C 
BRANCH  28  29
ATOM     29  C   UNL A   1      35.328  30.584  27.825  1.00  0.00     0.261 C 
BRANCH  29  30
ATOM     30  O   UNL A   1      36.176  29.444  27.912  1.00  0.00    -0.460 OA
BRANCH  30  31
ATOM     31  C   UNL A   1      36.951  29.328  29.007  1.00  0.00     0.338 C 
ATOM     32  O   UNL A   1      36.593  29.336  30.176  1.00  0.00    -0.246 OA
BRANCH  31  33
ATOM     33  C   UNL A   1      38.333  29.093  28.568  1.00  0.00     0.060 A 
ATOM     34  C   UNL A   1      39.259  28.674  29.527  1.00  0.00     0.016 A 
ATOM     35  C   UNL A   1      38.719  29.298  27.241  1.00  0.00     0.016 A 
ATOM     36  C   UNL A   1      40.583  28.458  29.156  1.00  0.00     0.010 A 
ATOM     37  C   UNL A   1      40.052  29.082  26.874  1.00  0.00     0.010 A 
ATOM     38  C   UNL A   1      40.994  28.676  27.833  1.00  0.00    -0.014 A 
BRANCH  38  39
ATOM     39  C   UNL A   1      42.432  28.541  27.496  1.00  0.00     0.031 A 
ATOM     40  C   UNL A   1      43.358  29.704  27.717  1.00  0.00     0.074 A 
ATOM     41  C   UNL A   1      42.915  27.363  27.060  1.00  0.00     0.049 A 
ATOM     42  N   UNL A   1      44.654  29.769  27.556  1.00  0.00    -0.248 NA
ATOM     43  C   UNL A   1      42.746  30.958  28.185  1.00  0.00     0.031 C 
ATOM     44  C   UNL A   1      42.119  26.157  26.832  1.00  0.00     0.029 A 
ATOM     45  N   UNL A   1      44.196  26.984  26.743  1.00  0.00    -0.354 N 
ATOM     46  C   UNL A   1      45.015  31.065  27.905  1.00  0.00     0.074 A 
ATOM     47  C   UNL A   1      43.796  31.764  28.249  1.00  0.00     0.031 C 
ATOM     48  C   UNL A   1      42.932  25.166  26.429  1.00  0.00     0.029 A 
ATOM     49  C   UNL A   1      44.299  25.676  26.335  1.00  0.00     0.049 A 
ATOM     50  H   UNL A   1      44.968  27.591  26.804  1.00  0.00     0.167 HD
ATOM     51  C   UNL A   1      46.251  31.619  27.944  1.00  0.00     0.031 A 
ATOM     52  C   UNL A   1      45.370  24.970  25.919  1.00  0.00     0.031 A 
ATOM     53  C   UNL A   1      47.459  30.923  27.581  1.00  0.00     0.049 A 
ATOM     54  C   UNL A   1      46.724  25.631  25.902  1.00  0.00     0.074 A 
ATOM     55  C   UNL A   1      48.760  31.394  27.602  1.00  0.00     0.029 A 
ATOM     56  N   UNL A   1      47.515  29.616  27.120  1.00  0.00    -0.354 N 
ATOM     57  N   UNL A   1      47.053  26.846  26.274  1.00  0.00    -0.248 NA
ATOM     58  C   UNL A   1      47.852  24.822  25.422  1.00  0.00     0.031 C 
ATOM     59  C   UNL A   1      49.594  30.395  27.090  1.00  0.00     0.029 A 
ATOM     60  C   UNL A   1      48.824  29.275  26.823  1.00  0.00     0.049 A 
ATOM     61  H   UNL A   1      46.739  29.019  27.020  1.00  0.00     0.167 HD
ATOM     62  C   UNL A   1      48.430  26.937  26.098  1.00  0.00     0.074 A 
ATOM     63  C   UNL A   1      48.873  25.649  25.604  1.00  0.00     0.031 C 
ATOM     64  C   UNL A   1      49.253  27.990  26.328  1.00  0.00     0.031 A 
BRANCH  51  65
ATOM     65  C   UNL A   1      46.355  33.062  28.365  1.00  0.00    -0.014 A 
ATOM     66  C   UNL A   1      46.250  34.107  27.430  1.00  0.00     0.010 A 
ATOM     67  C   UNL A   1      46.516  33.379  29.726  1.00  0.00     0.010 A 
ATOM     68  C   UNL A   1      46.342  35.439  27.842  1.00  0.00     0.020 A 
ATOM     69  C   UNL A   1      46.579  34.710  30.147  1.00  0.00     0.020 A 
ATOM     70  C   UNL A   1      46.506  35.732  29.199  1.00  0.00     0.054 A 
BRANCH  70  71
ATOM     71  S   UNL A   1      46.600  37.471  29.708  1.00  0.00     0.124 S 
ATOM     72  O   UNL A   1      47.954  37.833  29.297  1.00  0.00    -0.237 OA
ATOM     73  O   UNL A   1      45.524  38.088  28.935  1.00  0.00    -0.237 OA
ATOM     74  O   UNL A   1      46.380  37.424  31.151  1.00  0.00    -0.744 OA
ENDBRANCH  70  71
ENDBRANCH  51  65
BRANCH  52  75
ATOM     75  C   UNL A   1      45.203  23.560  25.468  1.00  0.00    -0.014 A 
ATOM     76  C   UNL A   1      44.649  23.262  24.211  1.00  0.00     0.010 A 
ATOM     77  C   UNL A   1      45.600  22.501  26.306  1.00  0.00     0.010 A 
ATOM     78  C   UNL A   1      44.480  21.932  23.807  1.00  0.00     0.020 A 
ATOM     79  C   UNL A   1      45.462  21.172  25.895  1.00  0.00     0.020 A 
ATOM     80  C   UNL A   1      44.893  20.897  24.651  1.00  0.00     0.054 A 
BRANCH  80  81
ATOM     81  S   UNL A   1      44.709  19.182  24.087  1.00  0.00     0.124 S 
ATOM     82  O   UNL A   1      43.533  18.740  24.829  1.00  0.00    -0.237 OA
ATOM     83  O   UNL A   1      44.526  19.344  22.646  1.00  0.00    -0.237 OA
ATOM     84  O   UNL A   1      45.970  18.555  24.481  1.00  0.00    -0.744 OA
ENDBRANCH  80  81
ENDBRANCH  52  75
BRANCH  64  85
ATOM     85  C   UNL A   1      50.728  27.789  26.085  1.00  0.00    -0.014 A 
ATOM     86  C   UNL A   1      51.528  27.059  26.983  1.00  0.00     0.010 A 
ATOM     87  C   UNL A   1      51.311  28.294  24.907  1.00  0.00     0.010 A 
ATOM     88  C   UNL A   1      52.890  26.869  26.723  1.00  0.00     0.020 A 
ATOM     89  C   UNL A   1      52.663  28.078  24.628  1.00  0.00     0.020 A 
ATOM     90  C   UNL A   1      53.447  27.378  25.547  1.00  0.00     0.054 A 
BRANCH  90  91
ATOM     91  S   UNL A   1      55.206  27.080  25.215  1.00  0.00     0.124 S 
ATOM     92  O   UNL A   1      55.532  28.169  24.299  1.00  0.00    -0.237 OA
ATOM     93  O   UNL A   1      55.802  27.177  26.545  1.00  0.00    -0.237 OA
ATOM     94  O   UNL A   1      55.227  25.743  24.626  1.00  0.00    -0.744 OA
ENDBRANCH  90  91
ENDBRANCH  64  85
ENDBRANCH  38  39
ENDBRANCH  31  33
ENDBRANCH  30  31
ENDBRANCH  29  30
ENDBRANCH  28  29
ENDBRANCH  27  28
ENDBRANCH   1  27
TORSDOF 21
ENDMDL
MODEL 2
REMARK VINA RESULT:     -10.4      7.199     13.002
REMARK SMILES CC1=C(C)C[C@@H](C(=O)OCCOCCOC(=O)c2ccc(-c3c4nc(c(-c5ccc(S(=O)(=O)[O-])cc5)c5ccc([nH]5)c(-c5ccc(S(=O)(=O)[O-])cc5)c5nc(c(-c6ccc(S(=O)(=O)[O-])cc6)c6ccc3[nH]6)C=C5)C=C4)cc2)[C@@H](C(=O)NCC[NH+]2CCOCC2)C1
REMARK SMILES IDX 11 1 10 2 9 3 7 4 8 5 6 6 1 7 2 8 3 9 90 10 4 11 5 12 78 13
REMARK SMILES IDX 79 14 80 15 81 16 82 18 83 19 84 20 85 21 89 22 86 24 88 25
REMARK SMILES IDX 87 26 12 27 13 28 14 29 15 30 16 31 17 32 18 33 19 34 77 35
REMARK SMILES IDX 20 36 76 37 21 38 22 39 23 40 70 41 24 42 75 43 69 44 71 45
REMARK SMILES IDX 25 46 74 47 68 48 67 49 26 51 56 52 37 53 55 54 38 55 41 56
REMARK SMILES IDX 54 57 72 58 39 59 40 60 53 62 73 63 42 64 27 65 28 66 36 67
REMARK SMILES IDX 29 68 35 69 30 70 31 71 32 72 33 73 34 74 57 75 58 76 66 77
REMARK SMILES IDX 59 78 65 79 60 80 61 81 62 82 63 83 64 84 43 85 44 86 52 87
REMARK SMILES IDX 45 88 51 89 46 90 47 91 48 92 49 93 50 94
REMARK H PARENT 81 17 84 23 71 50 41 61
REMARK Flexibility Score: inf
ROOT
ATOM      1  C   UNL A   1      37.944  21.958  25.266  1.00  0.00     0.202 C 
ENDROOT
BRANCH   1   2
ATOM      2  C   UNL A   1      36.522  21.472  25.615  1.00  0.00     0.261 C 
BRANCH   2   3
ATOM      3  O   UNL A   1      35.550  22.476  26.026  1.00  0.00    -0.463 OA
BRANCH   3   4
ATOM      4  C   UNL A   1      35.147  23.320  25.057  1.00  0.00     0.310 C 
ATOM      5  O   UNL A   1      35.455  24.516  25.048  1.00  0.00    -0.252 OA
BRANCH   4   6
ATOM      6  C   UNL A   1      34.248  22.796  23.934  1.00  0.00     0.116 C 
ATOM      7  C   UNL A   1      30.625  25.067  22.959  1.00  0.00     0.039 C 
ATOM      8  C   UNL A   1      31.912  24.291  23.000  1.00  0.00    -0.074 C 
ATOM      9  C   UNL A   1      33.144  24.810  22.826  1.00  0.00    -0.073 C 
ATOM     10  C   UNL A   1      31.751  22.798  23.189  1.00  0.00     0.045 C 
ATOM     11  C   UNL A   1      33.478  26.252  22.553  1.00  0.00     0.039 C 
ATOM     12  C   UNL A   1      34.323  23.877  22.831  1.00  0.00     0.046 C 
ATOM     13  C   UNL A   1      32.862  22.080  24.006  1.00  0.00     0.097 C 
BRANCH  13  14
ATOM     14  C   UNL A   1      32.246  21.699  25.353  1.00  0.00     0.224 C 
ATOM     15  O   UNL A   1      31.480  22.469  25.933  1.00  0.00    -0.275 OA
ATOM     16  N   UNL A   1      32.466  20.470  25.942  1.00  0.00    -0.350 N 
ATOM     17  H   UNL A   1      32.157  20.428  26.875  1.00  0.00     0.163 HD
BRANCH  16  18
ATOM     18  C   UNL A   1      33.060  19.213  25.473  1.00  0.00     0.177 C 
BRANCH  18  19
ATOM     19  C   UNL A   1      32.100  18.001  25.210  1.00  0.00     0.283 C 
BRANCH  19  20
ATOM     20  N   UNL A   1      32.547  16.958  24.256  1.00  0.00    -0.330 N 
ATOM     21  C   UNL A   1      32.727  15.593  24.816  1.00  0.00     0.291 C 
ATOM     22  C   UNL A   1      33.825  17.314  23.582  1.00  0.00     0.291 C 
ATOM     23  H   UNL A   1      31.765  16.930  23.602  1.00  0.00     0.348 HD
ATOM     24  C   UNL A   1      34.072  15.318  25.549  1.00  0.00     0.221 C 
ATOM     25  C   UNL A   1      35.073  17.118  24.455  1.00  0.00     0.221 C 
ATOM     26  O   UNL A   1      35.210  15.735  24.786  1.00  0.00    -0.370 OA
ENDBRANCH  19  20
ENDBRANCH  18  19
ENDBRANCH  16  18
ENDBRANCH  13  14
ENDBRANCH   4   6
ENDBRANCH   3   4
ENDBRANCH   2   3
ENDBRANCH   1   2
BRANCH   1  27
ATOM     27  O   UNL A   1      39.082  21.211  25.673  1.00  0.00    -0.374 OA
BRANCH  27  28
ATOM     28  C   UNL A   1      39.912  21.742  26.679  1.00  0.00     0.202 C 
BRANCH  28  29
ATOM     29  C   UNL A   1      40.714  23.010  26.406  1.00  0.00     0.261 C 
BRANCH  29  30
ATOM     30  O   UNL A   1      40.080  24.275  26.549  1.00  0.00    -0.460 OA
BRANCH  30  31
ATOM     31  C   UNL A   1      40.813  25.373  26.285  1.00  0.00     0.338 C 
ATOM     32  O   UNL A   1      41.374  25.656  25.235  1.00  0.00    -0.246 OA
BRANCH  31  33
ATOM     33  C   UNL A   1      40.764  26.253  27.459  1.00  0.00     0.060 A 
ATOM     34  C   UNL A   1      39.755  26.031  28.399  1.00  0.00     0.016 A 
ATOM     35  C   UNL A   1      41.683  27.292  27.627  1.00  0.00     0.016 A 
ATOM     36  C   UNL A   1      39.663  26.855  29.517  1.00  0.00     0.010 A 
ATOM     37  C   UNL A   1      41.584  28.120  28.750  1.00  0.00     0.010 A 
ATOM     38  C   UNL A   1      40.564  27.914  29.694  1.00  0.00    -0.014 A 
BRANCH  38  39
ATOM     39  C   UNL A   1      40.371  28.839  30.838  1.00  0.00     0.031 A 
ATOM     40  C   UNL A   1      41.245  28.707  32.053  1.00  0.00     0.074 A 
ATOM     41  C   UNL A   1      39.467  29.833  30.757  1.00  0.00     0.049 A 
ATOM     42  N   UNL A   1      41.288  29.458  33.124  1.00  0.00    -0.248 NA
ATOM     43  C   UNL A   1      42.201  27.588  32.064  1.00  0.00     0.031 C 
ATOM     44  C   UNL A   1      38.581  30.076  29.619  1.00  0.00     0.029 A 
ATOM     45  N   UNL A   1      39.153  30.831  31.646  1.00  0.00    -0.354 N 
ATOM     46  C   UNL A   1      42.273  28.905  33.935  1.00  0.00     0.074 A 
ATOM     47  C   UNL A   1      42.776  27.734  33.249  1.00  0.00     0.031 C 
ATOM     48  C   UNL A   1      37.835  31.166  29.871  1.00  0.00     0.029 A 
ATOM     49  C   UNL A   1      38.164  31.675  31.201  1.00  0.00     0.049 A 
ATOM     50  H   UNL A   1      39.595  30.933  32.519  1.00  0.00     0.167 HD
ATOM     51  C   UNL A   1      42.723  29.340  35.136  1.00  0.00     0.031 A 
ATOM     52  C   UNL A   1      37.579  32.731  31.802  1.00  0.00     0.031 A 
ATOM     53  C   UNL A   1      42.204  30.494  35.823  1.00  0.00     0.049 A 
ATOM     54  C   UNL A   1      38.048  33.150  33.170  1.00  0.00     0.074 A 
ATOM     55  C   UNL A   1      42.605  31.023  37.037  1.00  0.00     0.029 A 
ATOM     56  N   UNL A   1      41.165  31.291  35.364  1.00  0.00    -0.354 N 
ATOM     57  N   UNL A   1      39.008  32.640  33.905  1.00  0.00    -0.248 NA
ATOM     58  C   UNL A   1      37.362  34.296  33.785  1.00  0.00     0.031 C 
ATOM     59  C   UNL A   1      41.764  32.098  37.344  1.00  0.00     0.029 A 
ATOM     60  C   UNL A   1      40.890  32.287  36.287  1.00  0.00     0.049 A 
ATOM     61  H   UNL A   1      40.693  31.167  34.509  1.00  0.00     0.167 HD
ATOM     62  C   UNL A   1      39.060  33.421  35.056  1.00  0.00     0.074 A 
ATOM     63  C   UNL A   1      38.047  34.446  34.911  1.00  0.00     0.031 C 
ATOM     64  C   UNL A   1      39.875  33.301  36.133  1.00  0.00     0.031 A 
BRANCH  51  65
ATOM     65  C   UNL A   1      43.814  28.541  35.802  1.00  0.00    -0.014 A 
ATOM     66  C   UNL A   1      45.173  28.810  35.557  1.00  0.00     0.010 A 
ATOM     67  C   UNL A   1      43.473  27.533  36.722  1.00  0.00     0.010 A 
ATOM     68  C   UNL A   1      46.168  28.061  36.191  1.00  0.00     0.020 A 
ATOM     69  C   UNL A   1      44.465  26.801  37.381  1.00  0.00     0.020 A 
ATOM     70  C   UNL A   1      45.808  27.061  37.098  1.00  0.00     0.054 A 
BRANCH  70  71
ATOM     71  S   UNL A   1      47.122  26.120  37.923  1.00  0.00     0.124 S 
ATOM     72  O   UNL A   1      47.888  25.613  36.787  1.00  0.00    -0.237 OA
ATOM     73  O   UNL A   1      47.791  27.143  38.725  1.00  0.00    -0.237 OA
ATOM     74  O   UNL A   1      46.399  25.107  38.687  1.00  0.00    -0.744 OA
ENDBRANCH  70  71
ENDBRANCH  51  65
BRANCH  52  75
ATOM     75  C   UNL A   1      36.471  33.456  31.117  1.00  0.00    -0.014 A 
ATOM     76  C   UNL A   1      36.637  33.975  29.821  1.00  0.00     0.010 A 
ATOM     77  C   UNL A   1      35.236  33.632  31.769  1.00  0.00     0.010 A 
ATOM     78  C   UNL A   1      35.595  34.671  29.197  1.00  0.00     0.020 A 
ATOM     79  C   UNL A   1      34.183  34.299  31.138  1.00  0.00     0.020 A 
ATOM     80  C   UNL A   1      34.373  34.824  29.859  1.00  0.00     0.054 A 
BRANCH  80  81
ATOM     81  S   UNL A   1      33.021  35.686  29.011  1.00  0.00     0.124 S 
ATOM     82  O   UNL A   1      32.196  36.134  30.128  1.00  0.00    -0.237 OA
ATOM     83  O   UNL A   1      33.727  36.738  28.283  1.00  0.00    -0.237 OA
ATOM     84  O   UNL A   1      32.426  34.648  28.171  1.00  0.00    -0.744 OA
ENDBRANCH  80  81
ENDBRANCH  52  75
BRANCH  64  85
ATOM     85  C   UNL A   1      39.736  34.325  37.232  1.00  0.00    -0.014 A 
ATOM     86  C   UNL A   1      39.022  34.044  38.412  1.00  0.00     0.010 A 
ATOM     87  C   UNL A   1      40.377  35.571  37.103  1.00  0.00     0.010 A 
ATOM     88  C   UNL A   1      38.927  35.003  39.425  1.00  0.00     0.020 A 
ATOM     89  C   UNL A   1      40.311  36.519  38.127  1.00  0.00     0.020 A 
ATOM     90  C   UNL A   1      39.573  36.234  39.277  1.00  0.00     0.054 A 
BRANCH  90  91
ATOM     91  S   UNL A   1      39.467  37.443  40.625  1.00  0.00     0.124 S 
ATOM     92  O   UNL A   1      40.816  37.999  40.642  1.00  0.00    -0.237 OA
ATOM     93  O   UNL A   1      38.419  38.348  40.160  1.00  0.00    -0.237 OA
ATOM     94  O   UNL A   1      39.111  36.635  41.789  1.00  0.00    -0.744 OA
ENDBRANCH  90  91
ENDBRANCH  64  85
ENDBRANCH  38  39
ENDBRANCH  31  33
ENDBRANCH  30  31
ENDBRANCH  29  30
ENDBRANCH  28  29
ENDBRANCH  27  28
ENDBRANCH   1  27
TORSDOF 21
ENDMDL
MODEL 3
REMARK VINA RESULT:     -10.3      3.238      9.656
REMARK SMILES CC1=C(C)C[C@@H](C(=O)OCCOCCOC(=O)c2ccc(-c3c4nc(c(-c5ccc(S(=O)(=O)[O-])cc5)c5ccc([nH]5)c(-c5ccc(S(=O)(=O)[O-])cc5)c5nc(c(-c6ccc(S(=O)(=O)[O-])cc6)c6ccc3[nH]6)C=C5)C=C4)cc2)[C@@H](C(=O)NCC[NH+]2CCOCC2)C1
REMARK SMILES IDX 11 1 10 2 9 3 7 4 8 5 6 6 1 7 2 8 3 9 90 10 4 11 5 12 78 13
REMARK SMILES IDX 79 14 80 15 81 16 82 18 83 19 84 20 85 21 89 22 86 24 88 25
REMARK SMILES IDX 87 26 12 27 13 28 14 29 15 30 16 31 17 32 18 33 19 34 77 35
REMARK SMILES IDX 20 36 76 37 21 38 22 39 23 40 70 41 24 42 75 43 69 44 71 45
REMARK SMILES IDX 25 46 74 47 68 48 67 49 26 51 56 52 37 53 55 54 38 55 41 56
REMARK SMILES IDX 54 57 72 58 39 59 40 60 53 62 73 63 42 64 27 65 28 66 36 67
REMARK SMILES IDX 29 68 35 69 30 70 31 71 32 72 33 73 34 74 57 75 58 76 66 77
REMARK SMILES IDX 59 78 65 79 60 80 61 81 62 82 63 83 64 84 43 85 44 86 52 87
REMARK SMILES IDX 45 88 51 89 46 90 47 91 48 92 49 93 50 94
REMARK H PARENT 81 17 84 23 71 50 41 61
REMARK Flexibility Score: inf
ROOT
ATOM      1  C   UNL A   1      36.893  23.057  25.306  1.00  0.00     0.202 C 
ENDROOT
BRANCH   1   2
ATOM      2  C   UNL A   1      35.845  23.116  24.175  1.00  0.00     0.261 C 
BRANCH   2   3
ATOM      3  O   UNL A   1      34.457  23.340  24.554  1.00  0.00    -0.463 OA
BRANCH   3   4
ATOM      4  C   UNL A   1      33.611  23.577  23.533  1.00  0.00     0.310 C 
ATOM      5  O   UNL A   1      33.970  23.544  22.352  1.00  0.00    -0.252 OA
BRANCH   4   6
ATOM      6  C   UNL A   1      32.152  23.931  23.836  1.00  0.00     0.116 C 
ATOM      7  C   UNL A   1      31.364  27.243  26.600  1.00  0.00     0.039 C 
ATOM      8  C   UNL A   1      31.434  26.243  25.480  1.00  0.00    -0.074 C 
ATOM      9  C   UNL A   1      32.047  26.437  24.296  1.00  0.00    -0.073 C 
ATOM     10  C   UNL A   1      30.682  24.953  25.729  1.00  0.00     0.045 C 
ATOM     11  C   UNL A   1      32.772  27.681  23.856  1.00  0.00     0.039 C 
ATOM     12  C   UNL A   1      31.963  25.352  23.258  1.00  0.00     0.046 C 
ATOM     13  C   UNL A   1      31.297  23.664  25.115  1.00  0.00     0.097 C 
BRANCH  13  14
ATOM     14  C   UNL A   1      31.860  22.843  26.277  1.00  0.00     0.224 C 
ATOM     15  O   UNL A   1      31.879  23.305  27.419  1.00  0.00    -0.275 OA
ATOM     16  N   UNL A   1      32.306  21.548  26.115  1.00  0.00    -0.350 N 
ATOM     17  H   UNL A   1      32.798  21.208  26.897  1.00  0.00     0.163 HD
BRANCH  16  18
ATOM     18  C   UNL A   1      32.203  20.568  25.028  1.00  0.00     0.177 C 
BRANCH  18  19
ATOM     19  C   UNL A   1      33.032  19.243  25.154  1.00  0.00     0.283 C 
BRANCH  19  20
ATOM     20  N   UNL A   1      32.387  17.979  24.721  1.00  0.00    -0.330 N 
ATOM     21  C   UNL A   1      32.648  16.788  25.570  1.00  0.00     0.291 C 
ATOM     22  C   UNL A   1      32.756  17.600  23.330  1.00  0.00     0.291 C 
ATOM     23  H   UNL A   1      31.399  18.215  24.804  1.00  0.00     0.348 HD
ATOM     24  C   UNL A   1      33.990  16.040  25.319  1.00  0.00     0.221 C 
ATOM     25  C   UNL A   1      34.158  16.988  23.195  1.00  0.00     0.221 C 
ATOM     26  O   UNL A   1      34.215  15.765  23.932  1.00  0.00    -0.370 OA
ENDBRANCH  19  20
ENDBRANCH  18  19
ENDBRANCH  16  18
ENDBRANCH  13  14
ENDBRANCH   4   6
ENDBRANCH   3   4
ENDBRANCH   2   3
ENDBRANCH   1   2
BRANCH   1  27
ATOM     27  O   UNL A   1      37.587  21.849  25.585  1.00  0.00    -0.374 OA
BRANCH  27  28
ATOM     28  C   UNL A   1      38.954  21.918  25.913  1.00  0.00     0.202 C 
BRANCH  28  29
ATOM     29  C   UNL A   1      39.644  20.708  26.533  1.00  0.00     0.261 C 
BRANCH  29  30
ATOM     30  O   UNL A   1      40.576  19.968  25.753  1.00  0.00    -0.460 OA
BRANCH  30  31
ATOM     31  C   UNL A   1      41.800  19.762  26.274  1.00  0.00     0.338 C 
ATOM     32  O   UNL A   1      42.364  18.690  26.446  1.00  0.00    -0.246 OA
BRANCH  31  33
ATOM     33  C   UNL A   1      42.415  21.070  26.534  1.00  0.00     0.060 A 
ATOM     34  C   UNL A   1      42.621  21.441  27.865  1.00  0.00     0.016 A 
ATOM     35  C   UNL A   1      42.768  21.927  25.489  1.00  0.00     0.016 A 
ATOM     36  C   UNL A   1      43.185  22.680  28.154  1.00  0.00     0.010 A 
ATOM     37  C   UNL A   1      43.331  23.173  25.784  1.00  0.00     0.010 A 
ATOM     38  C   UNL A   1      43.529  23.562  27.120  1.00  0.00    -0.014 A 
BRANCH  38  39
ATOM     39  C   UNL A   1      44.026  24.917  27.465  1.00  0.00     0.031 A 
ATOM     40  C   UNL A   1      45.473  25.254  27.244  1.00  0.00     0.074 A 
ATOM     41  C   UNL A   1      43.170  25.857  27.908  1.00  0.00     0.049 A 
ATOM     42  N   UNL A   1      46.089  26.396  27.410  1.00  0.00    -0.248 NA
ATOM     43  C   UNL A   1      46.342  24.166  26.768  1.00  0.00     0.031 C 
ATOM     44  C   UNL A   1      41.739  25.654  28.136  1.00  0.00     0.029 A 
ATOM     45  N   UNL A   1      43.378  27.174  28.231  1.00  0.00    -0.354 N 
ATOM     46  C   UNL A   1      47.414  26.168  27.059  1.00  0.00     0.074 A 
ATOM     47  C   UNL A   1      47.521  24.768  26.706  1.00  0.00     0.031 C 
ATOM     48  C   UNL A   1      41.194  26.812  28.547  1.00  0.00     0.029 A 
ATOM     49  C   UNL A   1      42.242  27.827  28.645  1.00  0.00     0.049 A 
ATOM     50  H   UNL A   1      44.258  27.611  28.172  1.00  0.00     0.167 HD
ATOM     51  C   UNL A   1      48.445  27.046  27.023  1.00  0.00     0.031 A 
ATOM     52  C   UNL A   1      42.066  29.095  29.068  1.00  0.00     0.031 A 
ATOM     53  C   UNL A   1      48.336  28.433  27.394  1.00  0.00     0.049 A 
ATOM     54  C   UNL A   1      43.244  30.033  29.089  1.00  0.00     0.074 A 
ATOM     55  C   UNL A   1      49.320  29.406  27.378  1.00  0.00     0.029 A 
ATOM     56  N   UNL A   1      47.180  29.042  27.860  1.00  0.00    -0.354 N 
ATOM     57  N   UNL A   1      44.482  29.810  28.715  1.00  0.00    -0.248 NA
ATOM     58  C   UNL A   1      42.998  31.397  29.578  1.00  0.00     0.031 C 
ATOM     59  C   UNL A   1      48.777  30.585  27.897  1.00  0.00     0.029 A 
ATOM     60  C   UNL A   1      47.435  30.370  28.165  1.00  0.00     0.049 A 
ATOM     61  H   UNL A   1      46.308  28.598  27.959  1.00  0.00     0.167 HD
ATOM     62  C   UNL A   1      45.156  31.014  28.897  1.00  0.00     0.074 A 
ATOM     63  C   UNL A   1      44.184  31.964  29.397  1.00  0.00     0.031 C 
ATOM     64  C   UNL A   1      46.460  31.306  28.667  1.00  0.00     0.031 A 
BRANCH  51  65
ATOM     65  C   UNL A   1      49.792  26.522  26.597  1.00  0.00    -0.014 A 
ATOM     66  C   UNL A   1      50.197  26.551  25.251  1.00  0.00     0.010 A 
ATOM     67  C   UNL A   1      50.686  26.033  27.568  1.00  0.00     0.010 A 
ATOM     68  C   UNL A   1      51.454  26.065  24.879  1.00  0.00     0.020 A 
ATOM     69  C   UNL A   1      51.955  25.575  27.205  1.00  0.00     0.020 A 
ATOM     70  C   UNL A   1      52.325  25.580  25.859  1.00  0.00     0.054 A 
BRANCH  70  71
ATOM     71  S   UNL A   1      53.959  24.979  25.349  1.00  0.00     0.124 S 
ATOM     72  O   UNL A   1      53.634  23.678  24.768  1.00  0.00    -0.237 OA
ATOM     73  O   UNL A   1      54.393  25.999  24.398  1.00  0.00    -0.237 OA
ATOM     74  O   UNL A   1      54.717  24.930  26.596  1.00  0.00    -0.744 OA
ENDBRANCH  70  71
ENDBRANCH  51  65
BRANCH  52  75
ATOM     75  C   UNL A   1      40.720  29.547  29.524  1.00  0.00    -0.014 A 
ATOM     76  C   UNL A   1      40.385  29.564  30.889  1.00  0.00     0.010 A 
ATOM     77  C   UNL A   1      39.762  29.964  28.581  1.00  0.00     0.010 A 
ATOM     78  C   UNL A   1      39.112  29.973  31.302  1.00  0.00     0.020 A 
ATOM     79  C   UNL A   1      38.500  30.403  28.991  1.00  0.00     0.020 A 
ATOM     80  C   UNL A   1      38.179  30.394  30.349  1.00  0.00     0.054 A 
BRANCH  80  81
ATOM     81  S   UNL A   1      36.552  30.967  30.911  1.00  0.00     0.124 S 
ATOM     82  O   UNL A   1      36.140  29.888  31.803  1.00  0.00    -0.237 OA
ATOM     83  O   UNL A   1      36.872  32.237  31.558  1.00  0.00    -0.237 OA
ATOM     84  O   UNL A   1      35.784  31.084  29.673  1.00  0.00    -0.744 OA
ENDBRANCH  80  81
ENDBRANCH  52  75
BRANCH  64  85
ATOM     85  C   UNL A   1      46.913  32.723  28.917  1.00  0.00    -0.014 A 
ATOM     86  C   UNL A   1      47.404  33.126  30.173  1.00  0.00     0.010 A 
ATOM     87  C   UNL A   1      46.897  33.653  27.861  1.00  0.00     0.010 A 
ATOM     88  C   UNL A   1      47.839  34.440  30.373  1.00  0.00     0.020 A 
ATOM     89  C   UNL A   1      47.361  34.957  28.048  1.00  0.00     0.020 A 
ATOM     90  C   UNL A   1      47.816  35.347  29.309  1.00  0.00     0.054 A 
BRANCH  90  91
ATOM     91  S   UNL A   1      48.424  37.033  29.586  1.00  0.00     0.124 S 
ATOM     92  O   UNL A   1      47.809  37.372  30.865  1.00  0.00    -0.237 OA
ATOM     93  O   UNL A   1      49.873  36.849  29.613  1.00  0.00    -0.237 OA
ATOM     94  O   UNL A   1      47.919  37.778  28.435  1.00  0.00    -0.744 OA
ENDBRANCH  90  91
ENDBRANCH  64  85
ENDBRANCH  38  39
ENDBRANCH  31  33
ENDBRANCH  30  31
ENDBRANCH  29  30
ENDBRANCH  28  29
ENDBRANCH  27  28
ENDBRANCH   1  27
TORSDOF 21
ENDMDL
