MODEL 1
REMARK VINA RESULT:     -10.4      0.000      0.000
REMARK SMILES C[C@H](NC(=O)N1CC[C@@H](C(=O)OCCOCCOC(=O)c2ccc(-c3c4nc(c(-c5ccc(S(=O)(=O)[O-])cc5)c5ccc([nH]5)c(-c5ccc(S(=O)(=O)[O-])cc5)c5nc(c(-c6ccc(S(=O)(=O)[O-])cc6)c6ccc3[nH]6)C=C5)C=C4)cc2)[C@@H]1C)c1cccc(Cl)c1
REMARK SMILES IDX 15 1 14 2 13 3 12 4 10 5 11 6 9 7 6 8 7 9 81 10 8 11 82 12
REMARK SMILES IDX 4 13 3 14 5 16 2 17 1 18 83 19 84 20 89 21 85 22 87 23 86 24
REMARK SMILES IDX 88 25 16 26 17 27 18 28 19 29 20 30 21 31 22 32 80 33 23 34
REMARK SMILES IDX 79 35 24 36 25 37 26 38 73 39 27 40 78 41 72 42 74 43 28 44
REMARK SMILES IDX 77 45 71 46 70 47 29 49 59 50 40 51 58 52 41 53 44 54 57 55
REMARK SMILES IDX 75 56 42 57 43 58 56 60 76 61 45 62 30 63 31 64 39 65 32 66
REMARK SMILES IDX 38 67 33 68 34 69 35 70 36 71 37 72 60 73 61 74 69 75 62 76
REMARK SMILES IDX 68 77 63 78 64 79 65 80 66 81 67 82 46 83 47 84 55 85 48 86
REMARK SMILES IDX 54 87 49 88 50 89 51 90 52 91 53 92
REMARK H PARENT 3 15 74 48 44 59
REMARK Flexibility Score: inf
ROOT
ATOM      1  O   UNL A   1      31.077  29.109  25.076  1.00  0.00    -0.374 OA
ENDROOT
BRANCH   1   2
ATOM      2  C   UNL A   1      31.888  29.053  23.900  1.00  0.00     0.202 C 
BRANCH   2   3
ATOM      3  C   UNL A   1      31.212  28.417  22.683  1.00  0.00     0.261 C 
BRANCH   3   4
ATOM      4  O   UNL A   1      31.262  26.978  22.745  1.00  0.00    -0.463 OA
BRANCH   4   5
ATOM      5  C   UNL A   1      32.455  26.427  23.089  1.00  0.00     0.311 C 
ATOM      6  O   UNL A   1      33.460  26.424  22.389  1.00  0.00    -0.252 OA
BRANCH   5   7
ATOM      7  C   UNL A   1      32.409  25.750  24.442  1.00  0.00     0.123 C 
ATOM      8  N   UNL A   1      33.529  23.770  25.171  1.00  0.00    -0.321 N 
ATOM      9  C   UNL A   1      33.915  24.843  26.061  1.00  0.00     0.122 C 
ATOM     10  C   UNL A   1      32.363  24.205  24.394  1.00  0.00     0.098 C 
ATOM     11  C   UNL A   1      33.662  26.092  25.248  1.00  0.00     0.039 C 
ATOM     12  C   UNL A   1      31.042  23.675  24.967  1.00  0.00     0.032 C 
BRANCH   8  13
ATOM     13  C   UNL A   1      33.858  22.505  25.536  1.00  0.00     0.318 C 
ATOM     14  N   UNL A   1      34.881  21.834  24.991  1.00  0.00    -0.331 N 
ATOM     15  H   UNL A   1      34.806  20.867  25.161  1.00  0.00     0.165 HD
ATOM     16  O   UNL A   1      33.248  21.928  26.442  1.00  0.00    -0.249 OA
BRANCH  14  17
ATOM     17  C   UNL A   1      36.073  22.142  24.215  1.00  0.00     0.111 C 
ATOM     18  C   UNL A   1      35.882  23.057  23.030  1.00  0.00     0.036 C 
BRANCH  17  19
ATOM     19  C   UNL A   1      37.298  22.499  25.044  1.00  0.00    -0.024 A 
ATOM     20  C   UNL A   1      37.408  23.784  25.606  1.00  0.00     0.006 A 
ATOM     21  C   UNL A   1      38.285  21.552  25.365  1.00  0.00     0.026 A 
ATOM     22  C   UNL A   1      38.435  24.093  26.503  1.00  0.00     0.002 A 
ATOM     23  C   UNL A   1      39.302  21.862  26.271  1.00  0.00     0.041 A 
ATOM     24  C   UNL A   1      39.376  23.127  26.848  1.00  0.00     0.020 A 
ATOM     25  Cl  UNL A   1      40.444  20.650  26.705  1.00  0.00    -0.084 Cl
ENDBRANCH  17  19
ENDBRANCH  14  17
ENDBRANCH   8  13
ENDBRANCH   5   7
ENDBRANCH   4   5
ENDBRANCH   3   4
ENDBRANCH   2   3
ENDBRANCH   1   2
BRANCH   1  26
ATOM     26  C   UNL A   1      31.781  29.105  26.316  1.00  0.00     0.202 C 
BRANCH  26  27
ATOM     27  C   UNL A   1      32.222  30.482  26.830  1.00  0.00     0.261 C 
BRANCH  27  28
ATOM     28  O   UNL A   1      33.650  30.655  26.760  1.00  0.00    -0.460 OA
BRANCH  28  29
ATOM     29  C   UNL A   1      34.190  31.450  27.716  1.00  0.00     0.338 C 
ATOM     30  O   UNL A   1      33.619  32.337  28.333  1.00  0.00    -0.246 OA
BRANCH  29  31
ATOM     31  C   UNL A   1      35.550  30.977  28.063  1.00  0.00     0.060 A 
ATOM     32  C   UNL A   1      35.732  29.602  28.244  1.00  0.00     0.016 A 
ATOM     33  C   UNL A   1      36.628  31.848  28.233  1.00  0.00     0.016 A 
ATOM     34  C   UNL A   1      36.970  29.107  28.658  1.00  0.00     0.010 A 
ATOM     35  C   UNL A   1      37.889  31.344  28.574  1.00  0.00     0.010 A 
ATOM     36  C   UNL A   1      38.049  29.977  28.865  1.00  0.00    -0.014 A 
BRANCH  36  37
ATOM     37  C   UNL A   1      39.256  29.499  29.598  1.00  0.00     0.031 A 
ATOM     38  C   UNL A   1      39.593  30.143  30.925  1.00  0.00     0.074 A 
ATOM     39  C   UNL A   1      40.005  28.476  29.144  1.00  0.00     0.049 A 
ATOM     40  N   UNL A   1      40.577  29.879  31.747  1.00  0.00    -0.248 NA
ATOM     41  C   UNL A   1      38.712  31.231  31.384  1.00  0.00     0.031 C 
ATOM     42  C   UNL A   1      39.776  27.742  27.900  1.00  0.00     0.029 A 
ATOM     43  N   UNL A   1      41.115  27.871  29.687  1.00  0.00    -0.354 N 
ATOM     44  C   UNL A   1      40.440  30.775  32.802  1.00  0.00     0.074 A 
ATOM     45  C   UNL A   1      39.310  31.621  32.499  1.00  0.00     0.031 C 
ATOM     46  C   UNL A   1      40.715  26.785  27.774  1.00  0.00     0.029 A 
ATOM     47  C   UNL A   1      41.627  26.854  28.915  1.00  0.00     0.049 A 
ATOM     48  H   UNL A   1      41.507  28.141  30.548  1.00  0.00     0.167 HD
ATOM     49  C   UNL A   1      41.171  30.877  33.936  1.00  0.00     0.031 A 
ATOM     50  C   UNL A   1      42.711  26.071  29.100  1.00  0.00     0.031 A 
ATOM     51  C   UNL A   1      42.278  30.019  34.261  1.00  0.00     0.049 A 
ATOM     52  C   UNL A   1      43.535  26.232  30.355  1.00  0.00     0.074 A 
ATOM     53  C   UNL A   1      43.050  30.018  35.409  1.00  0.00     0.029 A 
ATOM     54  N   UNL A   1      42.771  29.016  33.444  1.00  0.00    -0.354 N 
ATOM     55  N   UNL A   1      43.356  27.056  31.361  1.00  0.00    -0.248 NA
ATOM     56  C   UNL A   1      44.695  25.341  30.510  1.00  0.00     0.031 C 
ATOM     57  C   UNL A   1      44.055  29.060  35.258  1.00  0.00     0.029 A 
ATOM     58  C   UNL A   1      43.858  28.410  34.050  1.00  0.00     0.049 A 
ATOM     59  H   UNL A   1      42.404  28.770  32.564  1.00  0.00     0.167 HD
ATOM     60  C   UNL A   1      44.354  26.749  32.285  1.00  0.00     0.074 A 
ATOM     61  C   UNL A   1      45.122  25.659  31.723  1.00  0.00     0.031 C 
ATOM     62  C   UNL A   1      44.608  27.316  33.490  1.00  0.00     0.031 A 
BRANCH  49  63
ATOM     63  C   UNL A   1      40.816  31.966  34.912  1.00  0.00    -0.014 A 
ATOM     64  C   UNL A   1      39.946  31.731  35.991  1.00  0.00     0.010 A 
ATOM     65  C   UNL A   1      41.434  33.225  34.791  1.00  0.00     0.010 A 
ATOM     66  C   UNL A   1      39.691  32.739  36.926  1.00  0.00     0.020 A 
ATOM     67  C   UNL A   1      41.205  34.225  35.739  1.00  0.00     0.020 A 
ATOM     68  C   UNL A   1      40.329  33.977  36.797  1.00  0.00     0.054 A 
BRANCH  68  69
ATOM     69  S   UNL A   1      40.038  35.241  38.065  1.00  0.00     0.124 S 
ATOM     70  O   UNL A   1      41.319  35.258  38.771  1.00  0.00    -0.237 OA
ATOM     71  O   UNL A   1      39.744  36.429  37.270  1.00  0.00    -0.237 OA
ATOM     72  O   UNL A   1      38.913  34.712  38.832  1.00  0.00    -0.744 OA
ENDBRANCH  68  69
ENDBRANCH  49  63
BRANCH  50  73
ATOM     73  C   UNL A   1      43.108  25.072  28.065  1.00  0.00    -0.014 A 
ATOM     74  C   UNL A   1      42.713  23.726  28.163  1.00  0.00     0.010 A 
ATOM     75  C   UNL A   1      43.937  25.461  26.997  1.00  0.00     0.010 A 
ATOM     76  C   UNL A   1      43.177  22.781  27.241  1.00  0.00     0.020 A 
ATOM     77  C   UNL A   1      44.374  24.528  26.053  1.00  0.00     0.020 A 
ATOM     78  C   UNL A   1      44.008  23.188  26.194  1.00  0.00     0.054 A 
BRANCH  78  79
ATOM     79  S   UNL A   1      44.598  21.948  25.006  1.00  0.00     0.124 S 
ATOM     80  O   UNL A   1      45.992  21.786  25.404  1.00  0.00    -0.237 OA
ATOM     81  O   UNL A   1      43.724  20.811  25.279  1.00  0.00    -0.237 OA
ATOM     82  O   UNL A   1      44.387  22.589  23.710  1.00  0.00    -0.744 OA
ENDBRANCH  78  79
ENDBRANCH  50  73
BRANCH  62  83
ATOM     83  C   UNL A   1      45.720  26.730  34.323  1.00  0.00    -0.014 A 
ATOM     84  C   UNL A   1      45.461  25.855  35.392  1.00  0.00     0.010 A 
ATOM     85  C   UNL A   1      47.056  27.025  33.990  1.00  0.00     0.010 A 
ATOM     86  C   UNL A   1      46.515  25.327  36.143  1.00  0.00     0.020 A 
ATOM     87  C   UNL A   1      48.112  26.471  34.715  1.00  0.00     0.020 A 
ATOM     88  C   UNL A   1      47.835  25.640  35.801  1.00  0.00     0.054 A 
BRANCH  88  89
ATOM     89  S   UNL A   1      49.185  24.924  36.777  1.00  0.00     0.124 S 
ATOM     90  O   UNL A   1      49.341  23.610  36.162  1.00  0.00    -0.237 OA
ATOM     91  O   UNL A   1      50.281  25.862  36.545  1.00  0.00    -0.237 OA
ATOM     92  O   UNL A   1      48.659  24.915  38.141  1.00  0.00    -0.744 OA
ENDBRANCH  88  89
ENDBRANCH  62  83
ENDBRANCH  36  37
ENDBRANCH  29  31
ENDBRANCH  28  29
ENDBRANCH  27  28
ENDBRANCH  26  27
ENDBRANCH   1  26
TORSDOF 20
ENDMDL
MODEL 2
REMARK VINA RESULT:     -10.4      3.488     10.027
REMARK SMILES C[C@H](NC(=O)N1CC[C@@H](C(=O)OCCOCCOC(=O)c2ccc(-c3c4nc(c(-c5ccc(S(=O)(=O)[O-])cc5)c5ccc([nH]5)c(-c5ccc(S(=O)(=O)[O-])cc5)c5nc(c(-c6ccc(S(=O)(=O)[O-])cc6)c6ccc3[nH]6)C=C5)C=C4)cc2)[C@@H]1C)c1cccc(Cl)c1
REMARK SMILES IDX 15 1 14 2 13 3 12 4 10 5 11 6 9 7 6 8 7 9 81 10 8 11 82 12
REMARK SMILES IDX 4 13 3 14 5 16 2 17 1 18 83 19 84 20 89 21 85 22 87 23 86 24
REMARK SMILES IDX 88 25 16 26 17 27 18 28 19 29 20 30 21 31 22 32 80 33 23 34
REMARK SMILES IDX 79 35 24 36 25 37 26 38 73 39 27 40 78 41 72 42 74 43 28 44
REMARK SMILES IDX 77 45 71 46 70 47 29 49 59 50 40 51 58 52 41 53 44 54 57 55
REMARK SMILES IDX 75 56 42 57 43 58 56 60 76 61 45 62 30 63 31 64 39 65 32 66
REMARK SMILES IDX 38 67 33 68 34 69 35 70 36 71 37 72 60 73 61 74 69 75 62 76
REMARK SMILES IDX 68 77 63 78 64 79 65 80 66 81 67 82 46 83 47 84 55 85 48 86
REMARK SMILES IDX 54 87 49 88 50 89 51 90 52 91 53 92
REMARK H PARENT 3 15 74 48 44 59
REMARK Flexibility Score: inf
ROOT
ATOM      1  O   UNL A   1      37.975  22.536  25.769  1.00  0.00    -0.374 OA
ENDROOT
BRANCH   1   2
ATOM      2  C   UNL A   1      37.348  21.603  24.888  1.00  0.00     0.202 C 
BRANCH   2   3
ATOM      3  C   UNL A   1      35.864  21.352  25.167  1.00  0.00     0.261 C 
BRANCH   3   4
ATOM      4  O   UNL A   1      35.059  22.488  24.796  1.00  0.00    -0.463 OA
BRANCH   4   5
ATOM      5  C   UNL A   1      33.713  22.308  24.805  1.00  0.00     0.311 C 
ATOM      6  O   UNL A   1      33.145  21.230  24.928  1.00  0.00    -0.252 OA
BRANCH   5   7
ATOM      7  C   UNL A   1      32.956  23.602  24.593  1.00  0.00     0.123 C 
ATOM      8  N   UNL A   1      32.624  24.834  22.574  1.00  0.00    -0.321 N 
ATOM      9  C   UNL A   1      31.319  24.516  23.110  1.00  0.00     0.122 C 
ATOM     10  C   UNL A   1      33.628  24.595  23.616  1.00  0.00     0.098 C 
ATOM     11  C   UNL A   1      31.578  23.318  23.994  1.00  0.00     0.039 C 
ATOM     12  C   UNL A   1      34.046  25.881  24.340  1.00  0.00     0.032 C 
BRANCH   8  13
ATOM     13  C   UNL A   1      32.681  25.733  21.558  1.00  0.00     0.318 C 
ATOM     14  N   UNL A   1      32.267  27.001  21.686  1.00  0.00    -0.331 N 
ATOM     15  H   UNL A   1      32.120  27.419  20.807  1.00  0.00     0.165 HD
ATOM     16  O   UNL A   1      33.176  25.427  20.468  1.00  0.00    -0.249 OA
BRANCH  14  17
ATOM     17  C   UNL A   1      31.974  27.928  22.767  1.00  0.00     0.111 C 
ATOM     18  C   UNL A   1      33.039  28.952  23.078  1.00  0.00     0.036 C 
BRANCH  17  19
ATOM     19  C   UNL A   1      30.574  28.526  22.733  1.00  0.00    -0.024 A 
ATOM     20  C   UNL A   1      30.332  29.688  21.976  1.00  0.00     0.006 A 
ATOM     21  C   UNL A   1      29.478  27.897  23.345  1.00  0.00     0.026 A 
ATOM     22  C   UNL A   1      29.032  30.169  21.791  1.00  0.00     0.002 A 
ATOM     23  C   UNL A   1      28.181  28.375  23.146  1.00  0.00     0.041 A 
ATOM     24  C   UNL A   1      27.952  29.504  22.365  1.00  0.00     0.020 A 
ATOM     25  Cl  UNL A   1      26.853  27.529  23.843  1.00  0.00    -0.084 Cl
ENDBRANCH  17  19
ENDBRANCH  14  17
ENDBRANCH   8  13
ENDBRANCH   5   7
ENDBRANCH   4   5
ENDBRANCH   3   4
ENDBRANCH   2   3
ENDBRANCH   1   2
BRANCH   1  26
ATOM     26  C   UNL A   1      39.298  22.205  26.186  1.00  0.00     0.202 C 
BRANCH  26  27
ATOM     27  C   UNL A   1      40.023  23.285  27.001  1.00  0.00     0.261 C 
BRANCH  27  28
ATOM     28  O   UNL A   1      39.397  24.575  26.869  1.00  0.00    -0.460 OA
BRANCH  28  29
ATOM     29  C   UNL A   1      40.244  25.631  26.799  1.00  0.00     0.338 C 
ATOM     30  O   UNL A   1      41.020  25.882  25.889  1.00  0.00    -0.246 OA
BRANCH  29  31
ATOM     31  C   UNL A   1      39.977  26.572  27.911  1.00  0.00     0.060 A 
ATOM     32  C   UNL A   1      40.633  27.807  27.887  1.00  0.00     0.016 A 
ATOM     33  C   UNL A   1      39.125  26.259  28.972  1.00  0.00     0.016 A 
ATOM     34  C   UNL A   1      40.489  28.698  28.953  1.00  0.00     0.010 A 
ATOM     35  C   UNL A   1      38.921  27.184  30.003  1.00  0.00     0.010 A 
ATOM     36  C   UNL A   1      39.663  28.378  30.039  1.00  0.00    -0.014 A 
BRANCH  36  37
ATOM     37  C   UNL A   1      39.756  29.170  31.299  1.00  0.00     0.031 A 
ATOM     38  C   UNL A   1      40.906  28.892  32.240  1.00  0.00     0.074 A 
ATOM     39  C   UNL A   1      38.887  30.160  31.582  1.00  0.00     0.049 A 
ATOM     40  N   UNL A   1      41.203  29.465  33.379  1.00  0.00    -0.248 NA
ATOM     41  C   UNL A   1      41.843  27.822  31.854  1.00  0.00     0.031 C 
ATOM     42  C   UNL A   1      37.753  30.560  30.750  1.00  0.00     0.029 A 
ATOM     43  N   UNL A   1      38.830  31.018  32.655  1.00  0.00    -0.354 N 
ATOM     44  C   UNL A   1      42.341  28.817  33.845  1.00  0.00     0.074 A 
ATOM     45  C   UNL A   1      42.659  27.777  32.896  1.00  0.00     0.031 C 
ATOM     46  C   UNL A   1      37.112  31.584  31.341  1.00  0.00     0.029 A 
ATOM     47  C   UNL A   1      37.774  31.899  32.606  1.00  0.00     0.049 A 
ATOM     48  H   UNL A   1      39.484  31.004  33.390  1.00  0.00     0.167 HD
ATOM     49  C   UNL A   1      43.077  29.073  34.952  1.00  0.00     0.031 A 
ATOM     50  C   UNL A   1      37.379  32.846  33.484  1.00  0.00     0.031 A 
ATOM     51  C   UNL A   1      42.786  30.126  35.886  1.00  0.00     0.049 A 
ATOM     52  C   UNL A   1      38.193  33.085  34.733  1.00  0.00     0.074 A 
ATOM     53  C   UNL A   1      43.502  30.491  37.013  1.00  0.00     0.029 A 
ATOM     54  N   UNL A   1      41.700  30.981  35.807  1.00  0.00    -0.354 N 
ATOM     55  N   UNL A   1      39.294  32.489  35.128  1.00  0.00    -0.248 NA
ATOM     56  C   UNL A   1      37.724  34.139  35.643  1.00  0.00     0.031 C 
ATOM     57  C   UNL A   1      42.811  31.521  37.654  1.00  0.00     0.029 A 
ATOM     58  C   UNL A   1      41.708  31.851  36.883  1.00  0.00     0.049 A 
ATOM     59  H   UNL A   1      41.023  30.971  35.092  1.00  0.00     0.167 HD
ATOM     60  C   UNL A   1      39.670  33.130  36.308  1.00  0.00     0.074 A 
ATOM     61  C   UNL A   1      38.687  34.163  36.553  1.00  0.00     0.031 C 
ATOM     62  C   UNL A   1      40.734  32.886  37.112  1.00  0.00     0.031 A 
BRANCH  49  63
ATOM     63  C   UNL A   1      44.262  28.190  35.234  1.00  0.00    -0.014 A 
ATOM     64  C   UNL A   1      44.140  27.018  36.001  1.00  0.00     0.010 A 
ATOM     65  C   UNL A   1      45.504  28.500  34.649  1.00  0.00     0.010 A 
ATOM     66  C   UNL A   1      45.240  26.176  36.186  1.00  0.00     0.020 A 
ATOM     67  C   UNL A   1      46.599  27.647  34.807  1.00  0.00     0.020 A 
ATOM     68  C   UNL A   1      46.461  26.493  35.581  1.00  0.00     0.054 A 
BRANCH  68  69
ATOM     69  S   UNL A   1      47.851  25.345  35.776  1.00  0.00     0.124 S 
ATOM     70  O   UNL A   1      47.512  24.672  37.028  1.00  0.00    -0.237 OA
ATOM     71  O   UNL A   1      47.755  24.521  34.574  1.00  0.00    -0.237 OA
ATOM     72  O   UNL A   1      49.019  26.220  35.837  1.00  0.00    -0.744 OA
ENDBRANCH  68  69
ENDBRANCH  49  63
BRANCH  50  73
ATOM     73  C   UNL A   1      36.137  33.635  33.237  1.00  0.00    -0.014 A 
ATOM     74  C   UNL A   1      34.865  33.090  33.488  1.00  0.00     0.010 A 
ATOM     75  C   UNL A   1      36.225  34.929  32.691  1.00  0.00     0.010 A 
ATOM     76  C   UNL A   1      33.708  33.804  33.156  1.00  0.00     0.020 A 
ATOM     77  C   UNL A   1      35.073  35.660  32.390  1.00  0.00     0.020 A 
ATOM     78  C   UNL A   1      33.820  35.083  32.605  1.00  0.00     0.054 A 
BRANCH  78  79
ATOM     79  S   UNL A   1      32.307  35.994  32.183  1.00  0.00     0.124 S 
ATOM     80  O   UNL A   1      32.460  36.185  30.744  1.00  0.00    -0.237 OA
ATOM     81  O   UNL A   1      31.257  35.067  32.593  1.00  0.00    -0.237 OA
ATOM     82  O   UNL A   1      32.405  37.209  32.990  1.00  0.00    -0.744 OA
ENDBRANCH  78  79
ENDBRANCH  50  73
BRANCH  62  83
ATOM     83  C   UNL A   1      40.939  33.791  38.300  1.00  0.00    -0.014 A 
ATOM     84  C   UNL A   1      40.432  33.470  39.571  1.00  0.00     0.010 A 
ATOM     85  C   UNL A   1      41.703  34.964  38.146  1.00  0.00     0.010 A 
ATOM     86  C   UNL A   1      40.643  34.329  40.654  1.00  0.00     0.020 A 
ATOM     87  C   UNL A   1      41.946  35.806  39.233  1.00  0.00     0.020 A 
ATOM     88  C   UNL A   1      41.397  35.494  40.477  1.00  0.00     0.054 A 
BRANCH  88  89
ATOM     89  S   UNL A   1      41.675  36.581  41.901  1.00  0.00     0.124 S 
ATOM     90  O   UNL A   1      40.434  37.350  41.943  1.00  0.00    -0.237 OA
ATOM     91  O   UNL A   1      41.863  35.632  42.996  1.00  0.00    -0.237 OA
ATOM     92  O   UNL A   1      42.867  37.341  41.531  1.00  0.00    -0.744 OA
ENDBRANCH  88  89
ENDBRANCH  62  83
ENDBRANCH  36  37
ENDBRANCH  29  31
ENDBRANCH  28  29
ENDBRANCH  27  28
ENDBRANCH  26  27
ENDBRANCH   1  26
TORSDOF 20
ENDMDL
MODEL 3
REMARK VINA RESULT:     -10.4      3.208      9.778
REMARK SMILES C[C@H](NC(=O)N1CC[C@@H](C(=O)OCCOCCOC(=O)c2ccc(-c3c4nc(c(-c5ccc(S(=O)(=O)[O-])cc5)c5ccc([nH]5)c(-c5ccc(S(=O)(=O)[O-])cc5)c5nc(c(-c6ccc(S(=O)(=O)[O-])cc6)c6ccc3[nH]6)C=C5)C=C4)cc2)[C@@H]1C)c1cccc(Cl)c1
REMARK SMILES IDX 15 1 14 2 13 3 12 4 10 5 11 6 9 7 6 8 7 9 81 10 8 11 82 12
REMARK SMILES IDX 4 13 3 14 5 16 2 17 1 18 83 19 84 20 89 21 85 22 87 23 86 24
REMARK SMILES IDX 88 25 16 26 17 27 18 28 19 29 20 30 21 31 22 32 80 33 23 34
REMARK SMILES IDX 79 35 24 36 25 37 26 38 73 39 27 40 78 41 72 42 74 43 28 44
REMARK SMILES IDX 77 45 71 46 70 47 29 49 59 50 40 51 58 52 41 53 44 54 57 55
REMARK SMILES IDX 75 56 42 57 43 58 56 60 76 61 45 62 30 63 31 64 39 65 32 66
REMARK SMILES IDX 38 67 33 68 34 69 35 70 36 71 37 72 60 73 61 74 69 75 62 76
REMARK SMILES IDX 68 77 63 78 64 79 65 80 66 81 67 82 46 83 47 84 55 85 48 86
REMARK SMILES IDX 54 87 49 88 50 89 51 90 52 91 53 92
REMARK H PARENT 3 15 74 48 44 59
REMARK Flexibility Score: inf
ROOT
ATOM      1  O   UNL A   1      38.494  21.649  25.328  1.00  0.00    -0.374 OA
ENDROOT
BRANCH   1   2
ATOM      2  C   UNL A   1      37.145  22.120  25.312  1.00  0.00     0.202 C 
BRANCH   2   3
ATOM      3  C   UNL A   1      36.079  21.022  25.312  1.00  0.00     0.261 C 
BRANCH   3   4
ATOM      4  O   UNL A   1      34.793  21.537  24.914  1.00  0.00    -0.463 OA
BRANCH   4   5
ATOM      5  C   UNL A   1      33.773  21.371  25.797  1.00  0.00     0.311 C 
ATOM      6  O   UNL A   1      33.878  20.882  26.914  1.00  0.00    -0.252 OA
BRANCH   5   7
ATOM      7  C   UNL A   1      32.442  21.815  25.229  1.00  0.00     0.123 C 
ATOM      8  N   UNL A   1      31.684  24.024  24.730  1.00  0.00    -0.321 N 
ATOM      9  C   UNL A   1      31.597  23.248  23.513  1.00  0.00     0.122 C 
ATOM     10  C   UNL A   1      31.865  23.105  25.858  1.00  0.00     0.098 C 
ATOM     11  C   UNL A   1      32.577  22.120  23.737  1.00  0.00     0.039 C 
ATOM     12  C   UNL A   1      30.555  22.817  26.602  1.00  0.00     0.032 C 
BRANCH   8  13
ATOM     13  C   UNL A   1      31.082  25.241  24.740  1.00  0.00     0.318 C 
ATOM     14  N   UNL A   1      31.553  26.279  25.445  1.00  0.00    -0.331 N 
ATOM     15  H   UNL A   1      30.866  26.974  25.560  1.00  0.00     0.165 HD
ATOM     16  O   UNL A   1      30.086  25.462  24.043  1.00  0.00    -0.249 OA
BRANCH  14  17
ATOM     17  C   UNL A   1      32.801  26.660  26.087  1.00  0.00     0.111 C 
ATOM     18  C   UNL A   1      34.061  26.063  25.508  1.00  0.00     0.036 C 
BRANCH  17  19
ATOM     19  C   UNL A   1      32.937  28.145  26.388  1.00  0.00    -0.024 A 
ATOM     20  C   UNL A   1      31.791  28.962  26.389  1.00  0.00     0.006 A 
ATOM     21  C   UNL A   1      34.158  28.721  26.776  1.00  0.00     0.026 A 
ATOM     22  C   UNL A   1      31.854  30.292  26.818  1.00  0.00     0.002 A 
ATOM     23  C   UNL A   1      34.213  30.045  27.216  1.00  0.00     0.041 A 
ATOM     24  C   UNL A   1      33.064  30.831  27.247  1.00  0.00     0.020 A 
ATOM     25  Cl  UNL A   1      35.711  30.691  27.764  1.00  0.00    -0.084 Cl
ENDBRANCH  17  19
ENDBRANCH  14  17
ENDBRANCH   8  13
ENDBRANCH   5   7
ENDBRANCH   4   5
ENDBRANCH   3   4
ENDBRANCH   2   3
ENDBRANCH   1   2
BRANCH   1  26
ATOM     26  C   UNL A   1      39.348  22.241  26.305  1.00  0.00     0.202 C 
BRANCH  26  27
ATOM     27  C   UNL A   1      39.117  23.736  26.564  1.00  0.00     0.261 C 
BRANCH  27  28
ATOM     28  O   UNL A   1      40.268  24.368  27.154  1.00  0.00    -0.460 OA
BRANCH  28  29
ATOM     29  C   UNL A   1      40.497  25.646  26.764  1.00  0.00     0.338 C 
ATOM     30  O   UNL A   1      40.789  26.023  25.639  1.00  0.00    -0.246 OA
BRANCH  29  31
ATOM     31  C   UNL A   1      40.162  26.580  27.864  1.00  0.00     0.060 A 
ATOM     32  C   UNL A   1      40.767  27.841  27.851  1.00  0.00     0.016 A 
ATOM     33  C   UNL A   1      39.296  26.237  28.904  1.00  0.00     0.016 A 
ATOM     34  C   UNL A   1      40.557  28.730  28.907  1.00  0.00     0.010 A 
ATOM     35  C   UNL A   1      39.028  27.157  29.925  1.00  0.00     0.010 A 
ATOM     36  C   UNL A   1      39.718  28.381  29.974  1.00  0.00    -0.014 A 
BRANCH  36  37
ATOM     37  C   UNL A   1      39.745  29.182  31.230  1.00  0.00     0.031 A 
ATOM     38  C   UNL A   1      40.847  28.913  32.231  1.00  0.00     0.074 A 
ATOM     39  C   UNL A   1      38.860  30.171  31.463  1.00  0.00     0.049 A 
ATOM     40  N   UNL A   1      41.084  29.495  33.379  1.00  0.00    -0.248 NA
ATOM     41  C   UNL A   1      41.805  27.844  31.900  1.00  0.00     0.031 C 
ATOM     42  C   UNL A   1      37.768  30.561  30.572  1.00  0.00     0.029 A 
ATOM     43  N   UNL A   1      38.746  31.036  32.525  1.00  0.00    -0.354 N 
ATOM     44  C   UNL A   1      42.199  28.854  33.907  1.00  0.00     0.074 A 
ATOM     45  C   UNL A   1      42.567  27.808  32.982  1.00  0.00     0.031 C 
ATOM     46  C   UNL A   1      37.095  31.588  31.123  1.00  0.00     0.029 A 
ATOM     47  C   UNL A   1      37.691  31.913  32.418  1.00  0.00     0.049 A 
ATOM     48  H   UNL A   1      39.362  31.029  33.293  1.00  0.00     0.167 HD
ATOM     49  C   UNL A   1      42.877  29.120  35.047  1.00  0.00     0.031 A 
ATOM     50  C   UNL A   1      37.250  32.864  33.267  1.00  0.00     0.031 A 
ATOM     51  C   UNL A   1      42.537  30.178  35.959  1.00  0.00     0.049 A 
ATOM     52  C   UNL A   1      37.999  33.114  34.554  1.00  0.00     0.074 A 
ATOM     53  C   UNL A   1      43.194  30.552  37.118  1.00  0.00     0.029 A 
ATOM     54  N   UNL A   1      41.453  31.029  35.819  1.00  0.00    -0.354 N 
ATOM     55  N   UNL A   1      39.081  32.525  35.009  1.00  0.00    -0.248 NA
ATOM     56  C   UNL A   1      37.481  34.173  35.433  1.00  0.00     0.031 C 
ATOM     57  C   UNL A   1      42.468  31.585  37.716  1.00  0.00     0.029 A 
ATOM     58  C   UNL A   1      41.405  31.906  36.887  1.00  0.00     0.049 A 
ATOM     59  H   UNL A   1      40.813  31.012  35.071  1.00  0.00     0.167 HD
ATOM     60  C   UNL A   1      39.394  33.174  36.201  1.00  0.00     0.074 A 
ATOM     61  C   UNL A   1      38.398  34.206  36.390  1.00  0.00     0.031 C 
ATOM     62  C   UNL A   1      40.417  32.940  37.060  1.00  0.00     0.031 A 
BRANCH  49  63
ATOM     63  C   UNL A   1      44.049  28.243  35.395  1.00  0.00    -0.014 A 
ATOM     64  C   UNL A   1      45.329  28.482  34.865  1.00  0.00     0.010 A 
ATOM     65  C   UNL A   1      43.879  27.211  36.337  1.00  0.00     0.010 A 
ATOM     66  C   UNL A   1      46.416  27.698  35.262  1.00  0.00     0.020 A 
ATOM     67  C   UNL A   1      44.968  26.444  36.759  1.00  0.00     0.020 A 
ATOM     68  C   UNL A   1      46.229  26.689  36.213  1.00  0.00     0.054 A 
BRANCH  68  69
ATOM     69  S   UNL A   1      47.671  25.737  36.765  1.00  0.00     0.124 S 
ATOM     70  O   UNL A   1      47.971  24.933  35.582  1.00  0.00    -0.237 OA
ATOM     71  O   UNL A   1      48.642  26.782  37.077  1.00  0.00    -0.237 OA
ATOM     72  O   UNL A   1      47.173  24.989  37.916  1.00  0.00    -0.744 OA
ENDBRANCH  68  69
ENDBRANCH  49  63
BRANCH  50  73
ATOM     73  C   UNL A   1      36.019  33.648  32.952  1.00  0.00    -0.014 A 
ATOM     74  C   UNL A   1      36.085  35.021  32.657  1.00  0.00     0.010 A 
ATOM     75  C   UNL A   1      34.759  33.023  33.002  1.00  0.00     0.010 A 
ATOM     76  C   UNL A   1      34.914  35.763  32.464  1.00  0.00     0.020 A 
ATOM     77  C   UNL A   1      33.589  33.752  32.774  1.00  0.00     0.020 A 
ATOM     78  C   UNL A   1      33.673  35.124  32.528  1.00  0.00     0.054 A 
BRANCH  78  79
ATOM     79  S   UNL A   1      32.166  36.103  32.272  1.00  0.00     0.124 S 
ATOM     80  O   UNL A   1      31.141  35.235  32.844  1.00  0.00    -0.237 OA
ATOM     81  O   UNL A   1      32.453  37.324  33.019  1.00  0.00    -0.237 OA
ATOM     82  O   UNL A   1      32.108  36.267  30.821  1.00  0.00    -0.744 OA
ENDBRANCH  78  79
ENDBRANCH  50  73
BRANCH  62  83
ATOM     83  C   UNL A   1      40.560  33.853  38.251  1.00  0.00    -0.014 A 
ATOM     84  C   UNL A   1      40.026  33.520  39.507  1.00  0.00     0.010 A 
ATOM     85  C   UNL A   1      41.292  35.049  38.116  1.00  0.00     0.010 A 
ATOM     86  C   UNL A   1      40.178  34.388  40.593  1.00  0.00     0.020 A 
ATOM     87  C   UNL A   1      41.476  35.901  39.206  1.00  0.00     0.020 A 
ATOM     88  C   UNL A   1      40.901  35.575  40.434  1.00  0.00     0.054 A 
BRANCH  88  89
ATOM     89  S   UNL A   1      41.103  36.672  41.863  1.00  0.00     0.124 S 
ATOM     90  O   UNL A   1      41.720  35.784  42.844  1.00  0.00    -0.237 OA
ATOM     91  O   UNL A   1      41.968  37.727  41.337  1.00  0.00    -0.237 OA
ATOM     92  O   UNL A   1      39.738  37.092  42.174  1.00  0.00    -0.744 OA
ENDBRANCH  88  89
ENDBRANCH  62  83
ENDBRANCH  36  37
ENDBRANCH  29  31
ENDBRANCH  28  29
ENDBRANCH  27  28
ENDBRANCH  26  27
ENDBRANCH   1  26
TORSDOF 20
ENDMDL
