MODEL 1
REMARK VINA RESULT:     -11.0      0.000      0.000
REMARK SMILES CC(=O)c1nnn(-c2ccc(C(=O)OCCOCCOC(=O)c3ccc(-c4c5nc(c(-c6ccc(S(=O)(=O)[O-])cc6)c6ccc([nH]6)c(-c6ccc(S(=O)(=O)[O-])cc6)c6nc(c(-c7ccc(S(=O)(=O)[O-])cc7)c7ccc4[nH]7)C=C6)C=C5)cc3)cc2)c1C
REMARK SMILES IDX 18 1 17 2 16 3 15 4 14 5 12 6 13 7 11 8 8 9 9 10 84 11 10 12
REMARK SMILES IDX 83 13 7 14 4 15 5 16 85 17 6 18 86 19 2 20 1 21 3 22 19 23
REMARK SMILES IDX 20 24 21 25 22 26 23 27 24 28 82 29 25 30 81 31 26 32 27 33
REMARK SMILES IDX 28 34 75 35 29 36 80 37 74 38 76 39 30 40 79 41 73 42 72 43
REMARK SMILES IDX 31 45 61 46 42 47 60 48 43 49 46 50 59 51 77 52 44 53 45 54
REMARK SMILES IDX 58 56 78 57 47 58 32 59 33 60 41 61 34 62 40 63 35 64 36 65
REMARK SMILES IDX 37 66 38 67 39 68 62 69 63 70 71 71 64 72 70 73 65 74 66 75
REMARK SMILES IDX 67 76 68 77 69 78 48 79 49 80 57 81 50 82 56 83 51 84 52 85
REMARK SMILES IDX 53 86 54 87 55 88
REMARK H PARENT 76 44 46 55
REMARK Flexibility Score: inf
ROOT
ATOM      1  C   UNL A   1      45.233  19.454  25.446  1.00  0.00     0.202 C 
ENDROOT
BRANCH   1   2
ATOM      2  O   UNL A   1      44.236  18.527  25.866  1.00  0.00    -0.374 OA
BRANCH   2   3
ATOM      3  C   UNL A   1      42.860  18.835  25.639  1.00  0.00     0.202 C 
BRANCH   3   4
ATOM      4  C   UNL A   1      42.181  19.738  26.667  1.00  0.00     0.261 C 
BRANCH   4   5
ATOM      5  O   UNL A   1      41.023  20.385  26.111  1.00  0.00    -0.460 OA
BRANCH   5   6
ATOM      6  C   UNL A   1      40.507  21.371  26.879  1.00  0.00     0.338 C 
ATOM      7  O   UNL A   1      40.954  21.799  27.931  1.00  0.00    -0.246 OA
BRANCH   6   8
ATOM      8  C   UNL A   1      39.343  21.990  26.214  1.00  0.00     0.060 A 
ATOM      9  C   UNL A   1      36.904  23.052  25.446  1.00  0.00     0.067 A 
ATOM     10  C   UNL A   1      37.778  23.840  26.200  1.00  0.00     0.029 A 
ATOM     11  C   UNL A   1      37.316  21.813  24.935  1.00  0.00     0.029 A 
ATOM     12  C   UNL A   1      38.989  23.290  26.610  1.00  0.00     0.018 A 
ATOM     13  C   UNL A   1      38.547  21.280  25.314  1.00  0.00     0.018 A 
BRANCH   9  14
ATOM     14  N   UNL A   1      35.545  23.432  25.386  1.00  0.00    -0.217 N 
ATOM     15  C   UNL A   1      33.436  23.736  25.867  1.00  0.00     0.151 A 
ATOM     16  N   UNL A   1      33.856  24.753  25.053  1.00  0.00    -0.126 NA
ATOM     17  C   UNL A   1      34.496  22.879  26.116  1.00  0.00     0.073 A 
ATOM     18  N   UNL A   1      35.158  24.611  24.851  1.00  0.00    -0.061 NA
ATOM     19  C   UNL A   1      34.635  21.726  27.040  1.00  0.00     0.069 C 
BRANCH  15  20
ATOM     20  C   UNL A   1      32.097  23.713  26.435  1.00  0.00     0.181 C 
ATOM     21  C   UNL A   1      30.936  23.647  25.470  1.00  0.00     0.095 C 
ATOM     22  O   UNL A   1      31.902  23.689  27.648  1.00  0.00    -0.293 OA
ENDBRANCH  15  20
ENDBRANCH   9  14
ENDBRANCH   6   8
ENDBRANCH   5   6
ENDBRANCH   4   5
ENDBRANCH   3   4
ENDBRANCH   2   3
ENDBRANCH   1   2
BRANCH   1  23
ATOM     23  C   UNL A   1      45.011  20.184  24.129  1.00  0.00     0.261 C 
BRANCH  23  24
ATOM     24  O   UNL A   1      44.043  21.217  24.247  1.00  0.00    -0.460 OA
BRANCH  24  25
ATOM     25  C   UNL A   1      44.569  22.462  24.336  1.00  0.00     0.338 C 
ATOM     26  O   UNL A   1      45.511  22.910  23.710  1.00  0.00    -0.246 OA
BRANCH  25  27
ATOM     27  C   UNL A   1      43.904  23.160  25.442  1.00  0.00     0.060 A 
ATOM     28  C   UNL A   1      42.883  24.045  25.084  1.00  0.00     0.016 A 
ATOM     29  C   UNL A   1      44.468  23.151  26.727  1.00  0.00     0.016 A 
ATOM     30  C   UNL A   1      42.576  25.071  25.949  1.00  0.00     0.010 A 
ATOM     31  C   UNL A   1      44.180  24.193  27.575  1.00  0.00     0.010 A 
ATOM     32  C   UNL A   1      43.297  25.180  27.139  1.00  0.00    -0.014 A 
BRANCH  32  33
ATOM     33  C   UNL A   1      43.117  26.376  27.929  1.00  0.00     0.031 A 
ATOM     34  C   UNL A   1      44.203  27.365  27.803  1.00  0.00     0.074 A 
ATOM     35  C   UNL A   1      41.975  26.610  28.600  1.00  0.00     0.049 A 
ATOM     36  N   UNL A   1      45.051  27.735  28.702  1.00  0.00    -0.248 NA
ATOM     37  C   UNL A   1      44.463  27.899  26.458  1.00  0.00     0.031 C 
ATOM     38  C   UNL A   1      40.721  25.857  28.504  1.00  0.00     0.029 A 
ATOM     39  N   UNL A   1      41.653  27.660  29.402  1.00  0.00    -0.354 N 
ATOM     40  C   UNL A   1      45.815  28.721  28.091  1.00  0.00     0.074 A 
ATOM     41  C   UNL A   1      45.566  28.610  26.677  1.00  0.00     0.031 C 
ATOM     42  C   UNL A   1      39.724  26.602  29.026  1.00  0.00     0.029 A 
ATOM     43  C   UNL A   1      40.288  27.824  29.582  1.00  0.00     0.049 A 
ATOM     44  H   UNL A   1      42.326  28.249  29.815  1.00  0.00     0.167 HD
ATOM     45  C   UNL A   1      46.351  29.753  28.797  1.00  0.00     0.031 A 
ATOM     46  C   UNL A   1      39.667  28.932  30.053  1.00  0.00     0.031 A 
ATOM     47  C   UNL A   1      46.369  29.489  30.214  1.00  0.00     0.049 A 
ATOM     48  C   UNL A   1      40.683  29.765  30.744  1.00  0.00     0.074 A 
ATOM     49  C   UNL A   1      46.905  28.500  31.015  1.00  0.00     0.029 A 
ATOM     50  N   UNL A   1      45.444  30.151  30.987  1.00  0.00    -0.354 N 
ATOM     51  N   UNL A   1      41.255  29.436  31.868  1.00  0.00    -0.248 NA
ATOM     52  C   UNL A   1      41.364  30.808  29.990  1.00  0.00     0.031 C 
ATOM     53  C   UNL A   1      45.985  28.347  32.092  1.00  0.00     0.029 A 
ATOM     54  C   UNL A   1      44.951  29.267  31.912  1.00  0.00     0.049 A 
ATOM     55  H   UNL A   1      45.182  31.095  30.893  1.00  0.00     0.167 HD
ATOM     56  C   UNL A   1      42.555  29.911  31.765  1.00  0.00     0.074 A 
ATOM     57  C   UNL A   1      42.522  30.852  30.652  1.00  0.00     0.031 C 
ATOM     58  C   UNL A   1      43.588  29.284  32.405  1.00  0.00     0.031 A 
BRANCH  45  59
ATOM     59  C   UNL A   1      46.440  31.156  28.239  1.00  0.00    -0.014 A 
ATOM     60  C   UNL A   1      45.262  31.922  28.141  1.00  0.00     0.010 A 
ATOM     61  C   UNL A   1      47.571  31.637  27.542  1.00  0.00     0.010 A 
ATOM     62  C   UNL A   1      45.198  33.048  27.309  1.00  0.00     0.020 A 
ATOM     63  C   UNL A   1      47.535  32.786  26.757  1.00  0.00     0.020 A 
ATOM     64  C   UNL A   1      46.332  33.456  26.605  1.00  0.00     0.054 A 
BRANCH  64  65
ATOM     65  S   UNL A   1      46.208  34.805  25.409  1.00  0.00     0.124 S 
ATOM     66  O   UNL A   1      47.583  34.899  24.930  1.00  0.00    -0.237 OA
ATOM     67  O   UNL A   1      45.233  34.284  24.454  1.00  0.00    -0.237 OA
ATOM     68  O   UNL A   1      45.742  35.931  26.214  1.00  0.00    -0.744 OA
ENDBRANCH  64  65
ENDBRANCH  45  59
BRANCH  46  69
ATOM     69  C   UNL A   1      38.323  29.443  29.688  1.00  0.00    -0.014 A 
ATOM     70  C   UNL A   1      37.454  29.950  30.671  1.00  0.00     0.010 A 
ATOM     71  C   UNL A   1      37.984  29.668  28.336  1.00  0.00     0.010 A 
ATOM     72  C   UNL A   1      36.323  30.703  30.316  1.00  0.00     0.020 A 
ATOM     73  C   UNL A   1      36.849  30.400  27.975  1.00  0.00     0.020 A 
ATOM     74  C   UNL A   1      36.038  30.938  28.968  1.00  0.00     0.054 A 
BRANCH  74  75
ATOM     75  S   UNL A   1      34.679  32.055  28.522  1.00  0.00     0.124 S 
ATOM     76  O   UNL A   1      34.259  32.568  29.821  1.00  0.00    -0.237 OA
ATOM     77  O   UNL A   1      35.336  33.017  27.642  1.00  0.00    -0.237 OA
ATOM     78  O   UNL A   1      33.715  31.175  27.861  1.00  0.00    -0.744 OA
ENDBRANCH  74  75
ENDBRANCH  46  69
BRANCH  58  79
ATOM     79  C   UNL A   1      43.261  28.334  33.532  1.00  0.00    -0.014 A 
ATOM     80  C   UNL A   1      43.128  26.941  33.368  1.00  0.00     0.010 A 
ATOM     81  C   UNL A   1      43.196  28.861  34.836  1.00  0.00     0.010 A 
ATOM     82  C   UNL A   1      42.888  26.108  34.469  1.00  0.00     0.020 A 
ATOM     83  C   UNL A   1      42.980  28.033  35.940  1.00  0.00     0.020 A 
ATOM     84  C   UNL A   1      42.811  26.661  35.749  1.00  0.00     0.054 A 
BRANCH  84  85
ATOM     85  S   UNL A   1      42.534  25.571  37.172  1.00  0.00     0.124 S 
ATOM     86  O   UNL A   1      42.820  26.449  38.304  1.00  0.00    -0.237 OA
ATOM     87  O   UNL A   1      41.133  25.183  37.016  1.00  0.00    -0.237 OA
ATOM     88  O   UNL A   1      43.493  24.486  36.972  1.00  0.00    -0.744 OA
ENDBRANCH  84  85
ENDBRANCH  58  79
ENDBRANCH  32  33
ENDBRANCH  25  27
ENDBRANCH  24  25
ENDBRANCH  23  24
ENDBRANCH   1  23
TORSDOF 19
ENDMDL
MODEL 2
REMARK VINA RESULT:     -10.7      1.621      2.241
REMARK SMILES CC(=O)c1nnn(-c2ccc(C(=O)OCCOCCOC(=O)c3ccc(-c4c5nc(c(-c6ccc(S(=O)(=O)[O-])cc6)c6ccc([nH]6)c(-c6ccc(S(=O)(=O)[O-])cc6)c6nc(c(-c7ccc(S(=O)(=O)[O-])cc7)c7ccc4[nH]7)C=C6)C=C5)cc3)cc2)c1C
REMARK SMILES IDX 18 1 17 2 16 3 15 4 14 5 12 6 13 7 11 8 8 9 9 10 84 11 10 12
REMARK SMILES IDX 83 13 7 14 4 15 5 16 85 17 6 18 86 19 2 20 1 21 3 22 19 23
REMARK SMILES IDX 20 24 21 25 22 26 23 27 24 28 82 29 25 30 81 31 26 32 27 33
REMARK SMILES IDX 28 34 75 35 29 36 80 37 74 38 76 39 30 40 79 41 73 42 72 43
REMARK SMILES IDX 31 45 61 46 42 47 60 48 43 49 46 50 59 51 77 52 44 53 45 54
REMARK SMILES IDX 58 56 78 57 47 58 32 59 33 60 41 61 34 62 40 63 35 64 36 65
REMARK SMILES IDX 37 66 38 67 39 68 62 69 63 70 71 71 64 72 70 73 65 74 66 75
REMARK SMILES IDX 67 76 68 77 69 78 48 79 49 80 57 81 50 82 56 83 51 84 52 85
REMARK SMILES IDX 53 86 54 87 55 88
REMARK H PARENT 76 44 46 55
REMARK Flexibility Score: inf
ROOT
ATOM      1  C   UNL A   1      44.326  18.088  26.119  1.00  0.00     0.202 C 
ENDROOT
BRANCH   1   2
ATOM      2  O   UNL A   1      43.001  18.148  25.602  1.00  0.00    -0.374 OA
BRANCH   2   3
ATOM      3  C   UNL A   1      42.001  18.864  26.330  1.00  0.00     0.202 C 
BRANCH   3   4
ATOM      4  C   UNL A   1      42.228  20.364  26.511  1.00  0.00     0.261 C 
BRANCH   4   5
ATOM      5  O   UNL A   1      41.151  21.128  25.942  1.00  0.00    -0.460 OA
BRANCH   5   6
ATOM      6  C   UNL A   1      40.286  21.639  26.846  1.00  0.00     0.338 C 
ATOM      7  O   UNL A   1      40.456  21.756  28.048  1.00  0.00    -0.246 OA
BRANCH   6   8
ATOM      8  C   UNL A   1      39.088  22.178  26.170  1.00  0.00     0.060 A 
ATOM      9  C   UNL A   1      36.594  23.085  25.381  1.00  0.00     0.067 A 
ATOM     10  C   UNL A   1      37.421  23.936  26.120  1.00  0.00     0.029 A 
ATOM     11  C   UNL A   1      37.075  21.861  24.895  1.00  0.00     0.029 A 
ATOM     12  C   UNL A   1      38.661  23.463  26.540  1.00  0.00     0.018 A 
ATOM     13  C   UNL A   1      38.335  21.407  25.283  1.00  0.00     0.018 A 
BRANCH   9  14
ATOM     14  N   UNL A   1      35.215  23.386  25.314  1.00  0.00    -0.217 N 
ATOM     15  C   UNL A   1      33.103  23.634  25.814  1.00  0.00     0.151 A 
ATOM     16  N   UNL A   1      33.452  24.572  24.880  1.00  0.00    -0.126 NA
ATOM     17  C   UNL A   1      34.212  22.866  26.129  1.00  0.00     0.073 A 
ATOM     18  N   UNL A   1      34.754  24.475  24.661  1.00  0.00    -0.061 NA
ATOM     19  C   UNL A   1      34.431  21.834  27.173  1.00  0.00     0.069 C 
BRANCH  15  20
ATOM     20  C   UNL A   1      31.779  23.607  26.415  1.00  0.00     0.181 C 
ATOM     21  C   UNL A   1      30.878  22.450  26.056  1.00  0.00     0.095 C 
ATOM     22  O   UNL A   1      31.413  24.454  27.228  1.00  0.00    -0.293 OA
ENDBRANCH  15  20
ENDBRANCH   9  14
ENDBRANCH   6   8
ENDBRANCH   5   6
ENDBRANCH   4   5
ENDBRANCH   3   4
ENDBRANCH   2   3
ENDBRANCH   1   2
BRANCH   1  23
ATOM     23  C   UNL A   1      45.461  18.544  25.213  1.00  0.00     0.261 C 
BRANCH  23  24
ATOM     24  O   UNL A   1      45.598  19.958  25.198  1.00  0.00    -0.460 OA
BRANCH  24  25
ATOM     25  C   UNL A   1      44.977  20.564  24.158  1.00  0.00     0.338 C 
ATOM     26  O   UNL A   1      44.566  20.040  23.139  1.00  0.00    -0.246 OA
BRANCH  25  27
ATOM     27  C   UNL A   1      45.008  22.013  24.388  1.00  0.00     0.060 A 
ATOM     28  C   UNL A   1      46.145  22.508  25.033  1.00  0.00     0.016 A 
ATOM     29  C   UNL A   1      43.843  22.780  24.237  1.00  0.00     0.016 A 
ATOM     30  C   UNL A   1      46.041  23.696  25.720  1.00  0.00     0.010 A 
ATOM     31  C   UNL A   1      43.733  23.951  24.947  1.00  0.00     0.010 A 
ATOM     32  C   UNL A   1      44.808  24.349  25.741  1.00  0.00    -0.014 A 
BRANCH  32  33
ATOM     33  C   UNL A   1      44.656  25.472  26.637  1.00  0.00     0.031 A 
ATOM     34  C   UNL A   1      45.703  26.501  26.514  1.00  0.00     0.074 A 
ATOM     35  C   UNL A   1      43.563  25.614  27.408  1.00  0.00     0.049 A 
ATOM     36  N   UNL A   1      46.607  26.825  27.376  1.00  0.00    -0.248 NA
ATOM     37  C   UNL A   1      45.846  27.150  25.202  1.00  0.00     0.031 C 
ATOM     38  C   UNL A   1      42.325  24.831  27.342  1.00  0.00     0.029 A 
ATOM     39  N   UNL A   1      43.275  26.586  28.315  1.00  0.00    -0.354 N 
ATOM     40  C   UNL A   1      47.296  27.882  26.793  1.00  0.00     0.074 A 
ATOM     41  C   UNL A   1      46.944  27.876  25.397  1.00  0.00     0.031 C 
ATOM     42  C   UNL A   1      41.351  25.500  27.996  1.00  0.00     0.029 A 
ATOM     43  C   UNL A   1      41.924  26.690  28.608  1.00  0.00     0.049 A 
ATOM     44  H   UNL A   1      43.962  27.160  28.725  1.00  0.00     0.167 HD
ATOM     45  C   UNL A   1      47.858  28.870  27.541  1.00  0.00     0.031 A 
ATOM     46  C   UNL A   1      41.311  27.737  29.213  1.00  0.00     0.031 A 
ATOM     47  C   UNL A   1      47.989  28.495  28.926  1.00  0.00     0.049 A 
ATOM     48  C   UNL A   1      42.355  28.544  29.893  1.00  0.00     0.074 A 
ATOM     49  C   UNL A   1      48.610  27.463  29.602  1.00  0.00     0.029 A 
ATOM     50  N   UNL A   1      47.109  29.062  29.817  1.00  0.00    -0.354 N 
ATOM     51  N   UNL A   1      43.018  28.144  30.941  1.00  0.00    -0.248 NA
ATOM     52  C   UNL A   1      42.949  29.665  29.180  1.00  0.00     0.031 C 
ATOM     53  C   UNL A   1      47.779  27.193  30.727  1.00  0.00     0.029 A 
ATOM     54  C   UNL A   1      46.710  28.092  30.699  1.00  0.00     0.049 A 
ATOM     55  H   UNL A   1      46.815  30.002  29.820  1.00  0.00     0.167 HD
ATOM     56  C   UNL A   1      44.294  28.668  30.782  1.00  0.00     0.074 A 
ATOM     57  C   UNL A   1      44.152  29.694  29.756  1.00  0.00     0.031 C 
ATOM     58  C   UNL A   1      45.388  28.025  31.291  1.00  0.00     0.031 A 
BRANCH  45  59
ATOM     59  C   UNL A   1      47.867  30.316  27.095  1.00  0.00    -0.014 A 
ATOM     60  C   UNL A   1      49.061  31.053  27.209  1.00  0.00     0.010 A 
ATOM     61  C   UNL A   1      46.686  31.052  26.847  1.00  0.00     0.010 A 
ATOM     62  C   UNL A   1      49.052  32.455  27.180  1.00  0.00     0.020 A 
ATOM     63  C   UNL A   1      46.674  32.441  26.758  1.00  0.00     0.020 A 
ATOM     64  C   UNL A   1      47.852  33.136  26.977  1.00  0.00     0.054 A 
BRANCH  64  65
ATOM     65  S   UNL A   1      47.812  34.939  27.102  1.00  0.00     0.124 S 
ATOM     66  O   UNL A   1      47.086  35.300  25.888  1.00  0.00    -0.237 OA
ATOM     67  O   UNL A   1      47.099  35.148  28.358  1.00  0.00    -0.237 OA
ATOM     68  O   UNL A   1      49.225  35.308  27.124  1.00  0.00    -0.744 OA
ENDBRANCH  64  65
ENDBRANCH  45  59
BRANCH  46  69
ATOM     69  C   UNL A   1      39.931  28.232  28.990  1.00  0.00    -0.014 A 
ATOM     70  C   UNL A   1      39.054  28.429  30.072  1.00  0.00     0.010 A 
ATOM     71  C   UNL A   1      39.549  28.753  27.735  1.00  0.00     0.010 A 
ATOM     72  C   UNL A   1      37.871  29.169  29.917  1.00  0.00     0.020 A 
ATOM     73  C   UNL A   1      38.364  29.475  27.569  1.00  0.00     0.020 A 
ATOM     74  C   UNL A   1      37.543  29.703  28.668  1.00  0.00     0.054 A 
BRANCH  74  75
ATOM     75  S   UNL A   1      36.107  30.804  28.513  1.00  0.00     0.124 S 
ATOM     76  O   UNL A   1      35.578  30.816  29.873  1.00  0.00    -0.237 OA
ATOM     77  O   UNL A   1      36.712  32.051  28.056  1.00  0.00    -0.237 OA
ATOM     78  O   UNL A   1      35.264  30.130  27.526  1.00  0.00    -0.744 OA
ENDBRANCH  74  75
ENDBRANCH  46  69
BRANCH  58  79
ATOM     79  C   UNL A   1      45.173  26.977  32.357  1.00  0.00    -0.014 A 
ATOM     80  C   UNL A   1      45.233  27.243  33.738  1.00  0.00     0.010 A 
ATOM     81  C   UNL A   1      44.779  25.691  31.941  1.00  0.00     0.010 A 
ATOM     82  C   UNL A   1      44.958  26.238  34.676  1.00  0.00     0.020 A 
ATOM     83  C   UNL A   1      44.481  24.691  32.870  1.00  0.00     0.020 A 
ATOM     84  C   UNL A   1      44.587  24.965  34.234  1.00  0.00     0.054 A 
BRANCH  84  85
ATOM     85  S   UNL A   1      44.200  23.680  35.454  1.00  0.00     0.124 S 
ATOM     86  O   UNL A   1      44.700  24.263  36.697  1.00  0.00    -0.237 OA
ATOM     87  O   UNL A   1      42.746  23.563  35.354  1.00  0.00    -0.237 OA
ATOM     88  O   UNL A   1      44.940  22.512  34.977  1.00  0.00    -0.744 OA
ENDBRANCH  84  85
ENDBRANCH  58  79
ENDBRANCH  32  33
ENDBRANCH  25  27
ENDBRANCH  24  25
ENDBRANCH  23  24
ENDBRANCH   1  23
TORSDOF 19
ENDMDL
MODEL 3
REMARK VINA RESULT:     -10.5      3.660     12.018
REMARK SMILES CC(=O)c1nnn(-c2ccc(C(=O)OCCOCCOC(=O)c3ccc(-c4c5nc(c(-c6ccc(S(=O)(=O)[O-])cc6)c6ccc([nH]6)c(-c6ccc(S(=O)(=O)[O-])cc6)c6nc(c(-c7ccc(S(=O)(=O)[O-])cc7)c7ccc4[nH]7)C=C6)C=C5)cc3)cc2)c1C
REMARK SMILES IDX 18 1 17 2 16 3 15 4 14 5 12 6 13 7 11 8 8 9 9 10 84 11 10 12
REMARK SMILES IDX 83 13 7 14 4 15 5 16 85 17 6 18 86 19 2 20 1 21 3 22 19 23
REMARK SMILES IDX 20 24 21 25 22 26 23 27 24 28 82 29 25 30 81 31 26 32 27 33
REMARK SMILES IDX 28 34 75 35 29 36 80 37 74 38 76 39 30 40 79 41 73 42 72 43
REMARK SMILES IDX 31 45 61 46 42 47 60 48 43 49 46 50 59 51 77 52 44 53 45 54
REMARK SMILES IDX 58 56 78 57 47 58 32 59 33 60 41 61 34 62 40 63 35 64 36 65
REMARK SMILES IDX 37 66 38 67 39 68 62 69 63 70 71 71 64 72 70 73 65 74 66 75
REMARK SMILES IDX 67 76 68 77 69 78 48 79 49 80 57 81 50 82 56 83 51 84 52 85
REMARK SMILES IDX 53 86 54 87 55 88
REMARK H PARENT 76 44 46 55
REMARK Flexibility Score: inf
ROOT
ATOM      1  C   UNL A   1      33.402  35.249  28.707  1.00  0.00     0.202 C 
ENDROOT
BRANCH   1   2
ATOM      2  O   UNL A   1      32.722  34.914  29.913  1.00  0.00    -0.374 OA
BRANCH   2   3
ATOM      3  C   UNL A   1      32.693  35.863  30.982  1.00  0.00     0.202 C 
BRANCH   3   4
ATOM      4  C   UNL A   1      33.564  35.551  32.198  1.00  0.00     0.261 C 
BRANCH   4   5
ATOM      5  O   UNL A   1      34.713  34.769  31.832  1.00  0.00    -0.460 OA
BRANCH   5   6
ATOM      6  C   UNL A   1      34.760  33.541  32.395  1.00  0.00     0.338 C 
ATOM      7  O   UNL A   1      33.963  32.629  32.247  1.00  0.00    -0.246 OA
BRANCH   6   8
ATOM      8  C   UNL A   1      36.010  33.370  33.162  1.00  0.00     0.060 A 
ATOM      9  C   UNL A   1      38.018  32.900  35.010  1.00  0.00     0.067 A 
ATOM     10  C   UNL A   1      37.473  31.818  34.312  1.00  0.00     0.029 A 
ATOM     11  C   UNL A   1      37.685  34.217  34.663  1.00  0.00     0.029 A 
ATOM     12  C   UNL A   1      36.442  32.057  33.408  1.00  0.00     0.018 A 
ATOM     13  C   UNL A   1      36.681  34.456  33.726  1.00  0.00     0.018 A 
BRANCH   9  14
ATOM     14  N   UNL A   1      38.741  32.636  36.194  1.00  0.00    -0.217 N 
ATOM     15  C   UNL A   1      40.263  32.648  37.761  1.00  0.00     0.151 A 
ATOM     16  N   UNL A   1      39.049  32.365  38.325  1.00  0.00    -0.126 NA
ATOM     17  C   UNL A   1      40.103  32.844  36.399  1.00  0.00     0.073 A 
ATOM     18  N   UNL A   1      38.123  32.459  37.382  1.00  0.00    -0.061 NA
ATOM     19  C   UNL A   1      41.044  33.319  35.355  1.00  0.00     0.069 C 
BRANCH  15  20
ATOM     20  C   UNL A   1      41.461  32.818  38.568  1.00  0.00     0.181 C 
ATOM     21  C   UNL A   1      41.991  34.222  38.735  1.00  0.00     0.095 C 
ATOM     22  O   UNL A   1      42.000  31.874  39.144  1.00  0.00    -0.293 OA
ENDBRANCH  15  20
ENDBRANCH   9  14
ENDBRANCH   6   8
ENDBRANCH   5   6
ENDBRANCH   4   5
ENDBRANCH   3   4
ENDBRANCH   2   3
ENDBRANCH   1   2
BRANCH   1  23
ATOM     23  C   UNL A   1      34.293  34.187  28.079  1.00  0.00     0.261 C 
BRANCH  23  24
ATOM     24  O   UNL A   1      34.360  33.008  28.870  1.00  0.00    -0.460 OA
BRANCH  24  25
ATOM     25  C   UNL A   1      34.677  31.891  28.173  1.00  0.00     0.338 C 
ATOM     26  O   UNL A   1      34.142  31.477  27.161  1.00  0.00    -0.246 OA
BRANCH  25  27
ATOM     27  C   UNL A   1      35.699  31.157  28.929  1.00  0.00     0.060 A 
ATOM     28  C   UNL A   1      36.561  31.932  29.709  1.00  0.00     0.016 A 
ATOM     29  C   UNL A   1      35.962  29.809  28.639  1.00  0.00     0.016 A 
ATOM     30  C   UNL A   1      37.800  31.418  30.020  1.00  0.00     0.010 A 
ATOM     31  C   UNL A   1      37.210  29.310  28.926  1.00  0.00     0.010 A 
ATOM     32  C   UNL A   1      38.136  30.151  29.541  1.00  0.00    -0.014 A 
BRANCH  32  33
ATOM     33  C   UNL A   1      39.507  29.718  29.689  1.00  0.00     0.031 A 
ATOM     34  C   UNL A   1      39.964  29.592  31.084  1.00  0.00     0.074 A 
ATOM     35  C   UNL A   1      40.238  29.328  28.630  1.00  0.00     0.049 A 
ATOM     36  N   UNL A   1      40.851  30.300  31.699  1.00  0.00    -0.248 NA
ATOM     37  C   UNL A   1      39.231  28.648  31.941  1.00  0.00     0.031 C 
ATOM     38  C   UNL A   1      39.763  29.091  27.264  1.00  0.00     0.029 A 
ATOM     39  N   UNL A   1      41.536  28.921  28.590  1.00  0.00    -0.354 N 
ATOM     40  C   UNL A   1      40.944  29.736  32.965  1.00  0.00     0.074 A 
ATOM     41  C   UNL A   1      39.784  28.899  33.125  1.00  0.00     0.031 C 
ATOM     42  C   UNL A   1      40.689  28.367  26.600  1.00  0.00     0.029 A 
ATOM     43  C   UNL A   1      41.852  28.187  27.456  1.00  0.00     0.049 A 
ATOM     44  H   UNL A   1      42.188  29.127  29.297  1.00  0.00     0.167 HD
ATOM     45  C   UNL A   1      42.109  29.746  33.669  1.00  0.00     0.031 A 
ATOM     46  C   UNL A   1      42.943  27.400  27.287  1.00  0.00     0.031 A 
ATOM     47  C   UNL A   1      43.051  30.703  33.147  1.00  0.00     0.049 A 
ATOM     48  C   UNL A   1      43.946  27.785  28.312  1.00  0.00     0.074 A 
ATOM     49  C   UNL A   1      43.033  32.065  32.920  1.00  0.00     0.029 A 
ATOM     50  N   UNL A   1      44.117  30.209  32.432  1.00  0.00    -0.354 N 
ATOM     51  N   UNL A   1      44.587  28.919  28.314  1.00  0.00    -0.248 NA
ATOM     52  C   UNL A   1      43.968  27.063  29.576  1.00  0.00     0.031 C 
ATOM     53  C   UNL A   1      43.829  32.265  31.755  1.00  0.00     0.029 A 
ATOM     54  C   UNL A   1      44.316  31.022  31.347  1.00  0.00     0.049 A 
ATOM     55  H   UNL A   1      44.644  29.409  32.660  1.00  0.00     0.167 HD
ATOM     56  C   UNL A   1      44.732  29.250  29.655  1.00  0.00     0.074 A 
ATOM     57  C   UNL A   1      44.449  28.015  30.377  1.00  0.00     0.031 C 
ATOM     58  C   UNL A   1      44.786  30.555  30.057  1.00  0.00     0.031 A 
BRANCH  45  59
ATOM     59  C   UNL A   1      42.540  28.583  34.536  1.00  0.00    -0.014 A 
ATOM     60  C   UNL A   1      42.973  28.842  35.851  1.00  0.00     0.010 A 
ATOM     61  C   UNL A   1      42.812  27.297  34.018  1.00  0.00     0.010 A 
ATOM     62  C   UNL A   1      43.727  27.899  36.563  1.00  0.00     0.020 A 
ATOM     63  C   UNL A   1      43.510  26.332  34.738  1.00  0.00     0.020 A 
ATOM     64  C   UNL A   1      44.007  26.658  35.988  1.00  0.00     0.054 A 
BRANCH  64  65
ATOM     65  S   UNL A   1      45.113  25.507  36.836  1.00  0.00     0.124 S 
ATOM     66  O   UNL A   1      44.373  25.242  38.065  1.00  0.00    -0.237 OA
ATOM     67  O   UNL A   1      45.194  24.400  35.888  1.00  0.00    -0.237 OA
ATOM     68  O   UNL A   1      46.345  26.275  36.996  1.00  0.00    -0.744 OA
ENDBRANCH  64  65
ENDBRANCH  45  59
BRANCH  46  69
ATOM     69  C   UNL A   1      43.048  26.155  26.489  1.00  0.00    -0.014 A 
ATOM     70  C   UNL A   1      44.055  26.005  25.518  1.00  0.00     0.010 A 
ATOM     71  C   UNL A   1      42.314  25.005  26.853  1.00  0.00     0.010 A 
ATOM     72  C   UNL A   1      44.353  24.744  24.977  1.00  0.00     0.020 A 
ATOM     73  C   UNL A   1      42.593  23.750  26.304  1.00  0.00     0.020 A 
ATOM     74  C   UNL A   1      43.630  23.621  25.388  1.00  0.00     0.054 A 
BRANCH  74  75
ATOM     75  S   UNL A   1      44.136  21.973  24.818  1.00  0.00     0.124 S 
ATOM     76  O   UNL A   1      44.213  22.153  23.373  1.00  0.00    -0.237 OA
ATOM     77  O   UNL A   1      45.411  21.779  25.502  1.00  0.00    -0.237 OA
ATOM     78  O   UNL A   1      43.052  21.105  25.278  1.00  0.00    -0.744 OA
ENDBRANCH  74  75
ENDBRANCH  46  69
BRANCH  58  79
ATOM     79  C   UNL A   1      45.094  31.612  29.023  1.00  0.00    -0.014 A 
ATOM     80  C   UNL A   1      46.375  32.162  28.824  1.00  0.00     0.010 A 
ATOM     81  C   UNL A   1      44.063  31.981  28.137  1.00  0.00     0.010 A 
ATOM     82  C   UNL A   1      46.606  33.092  27.801  1.00  0.00     0.020 A 
ATOM     83  C   UNL A   1      44.292  32.890  27.101  1.00  0.00     0.020 A 
ATOM     84  C   UNL A   1      45.560  33.454  26.948  1.00  0.00     0.054 A 
BRANCH  84  85
ATOM     85  S   UNL A   1      45.876  34.633  25.606  1.00  0.00     0.124 S 
ATOM     86  O   UNL A   1      44.928  34.206  24.580  1.00  0.00    -0.237 OA
ATOM     87  O   UNL A   1      45.587  35.923  26.231  1.00  0.00    -0.237 OA
ATOM     88  O   UNL A   1      47.284  34.417  25.277  1.00  0.00    -0.744 OA
ENDBRANCH  84  85
ENDBRANCH  58  79
ENDBRANCH  32  33
ENDBRANCH  25  27
ENDBRANCH  24  25
ENDBRANCH  23  24
ENDBRANCH   1  23
TORSDOF 19
ENDMDL
