MODEL 1
REMARK VINA RESULT:     -11.5      0.000      0.000
REMARK SMILES COc1ccc(NC(=O)c2nn(C)cc2C(=O)OCCOCCOC(=O)c2ccc(-c3c4nc(c(-c5ccc(S(=O)(=O)[O-])cc5)c5ccc([nH]5)c(-c5ccc(S(=O)(=O)[O-])cc5)c5nc(c(-c6ccc(S(=O)(=O)[O-])cc6)c6ccc3[nH]6)C=C5)C=C4)cc2)c(C)c1
REMARK SMILES IDX 21 1 20 2 19 3 18 4 16 5 17 6 15 7 10 8 11 9 12 10 14 11
REMARK SMILES IDX 13 12 8 13 7 14 9 16 6 17 3 18 4 19 89 20 5 21 87 22 88 23
REMARK SMILES IDX 2 24 1 25 22 26 23 27 24 28 25 29 26 30 27 31 28 32 86 33
REMARK SMILES IDX 29 34 85 35 30 36 31 37 32 38 79 39 33 40 84 41 78 42 80 43
REMARK SMILES IDX 34 44 83 45 77 46 76 47 35 49 65 50 46 51 64 52 47 53 50 54
REMARK SMILES IDX 63 55 81 56 48 57 49 58 62 60 82 61 51 62 36 63 37 64 45 65
REMARK SMILES IDX 38 66 44 67 39 68 40 69 41 70 42 71 43 72 66 73 67 74 75 75
REMARK SMILES IDX 68 76 74 77 69 78 70 79 71 80 72 81 73 82 52 83 53 84 61 85
REMARK SMILES IDX 54 86 60 87 55 88 56 89 57 90 58 91 59 92
REMARK H PARENT 7 15 80 48 50 59
REMARK Flexibility Score: inf
ROOT
ATOM      1  O   UNL A   1      33.669  27.666  26.066  1.00  0.00    -0.374 OA
ENDROOT
BRANCH   1   2
ATOM      2  C   UNL A   1      32.636  26.733  25.835  1.00  0.00     0.202 C 
BRANCH   2   3
ATOM      3  C   UNL A   1      33.234  25.352  25.809  1.00  0.00     0.261 C 
BRANCH   3   4
ATOM      4  O   UNL A   1      32.510  24.311  26.510  1.00  0.00    -0.460 OA
BRANCH   4   5
ATOM      5  C   UNL A   1      32.959  23.146  27.057  1.00  0.00     0.342 C 
ATOM      6  O   UNL A   1      32.584  22.598  28.067  1.00  0.00    -0.246 OA
BRANCH   5   7
ATOM      7  C   UNL A   1      33.933  22.568  26.148  1.00  0.00     0.111 A 
ATOM      8  C   UNL A   1      33.778  22.047  24.829  1.00  0.00     0.165 A 
ATOM      9  N   UNL A   1      34.988  21.787  24.278  1.00  0.00    -0.167 NA
ATOM     10  N   UNL A   1      35.867  22.112  25.237  1.00  0.00    -0.274 N 
ATOM     11  C   UNL A   1      35.291  22.502  26.395  1.00  0.00     0.125 A 
ATOM     12  C   UNL A   1      37.277  22.175  24.940  1.00  0.00     0.173 C 
BRANCH   8  13
ATOM     13  C   UNL A   1      32.551  21.834  24.054  1.00  0.00     0.277 C 
ATOM     14  N   UNL A   1      32.111  20.571  23.706  1.00  0.00    -0.320 N 
ATOM     15  H   UNL A   1      31.372  20.587  23.058  1.00  0.00     0.170 HD
ATOM     16  O   UNL A   1      31.856  22.784  23.681  1.00  0.00    -0.267 OA
BRANCH  14  17
ATOM     17  C   UNL A   1      32.488  19.265  24.078  1.00  0.00     0.044 A 
ATOM     18  C   UNL A   1      33.513  16.718  24.741  1.00  0.00     0.119 A 
ATOM     19  C   UNL A   1      33.313  17.666  25.733  1.00  0.00     0.048 A 
ATOM     20  C   UNL A   1      33.076  16.987  23.444  1.00  0.00     0.052 A 
ATOM     21  C   UNL A   1      32.778  18.916  25.403  1.00  0.00     0.030 A 
ATOM     22  C   UNL A   1      32.585  18.263  23.085  1.00  0.00    -0.024 A 
ATOM     23  C   UNL A   1      32.367  18.501  21.611  1.00  0.00     0.047 C 
BRANCH  18  24
ATOM     24  O   UNL A   1      34.131  15.516  24.941  1.00  0.00    -0.497 OA
ATOM     25  C   UNL A   1      35.516  15.605  25.292  1.00  0.00     0.278 C 
ENDBRANCH  18  24
ENDBRANCH  14  17
ENDBRANCH   8  13
ENDBRANCH   5   7
ENDBRANCH   4   5
ENDBRANCH   3   4
ENDBRANCH   2   3
ENDBRANCH   1   2
BRANCH   1  26
ATOM     26  C   UNL A   1      33.399  28.564  27.116  1.00  0.00     0.202 C 
BRANCH  26  27
ATOM     27  C   UNL A   1      33.409  30.035  26.720  1.00  0.00     0.261 C 
BRANCH  27  28
ATOM     28  O   UNL A   1      33.688  31.135  27.643  1.00  0.00    -0.460 OA
BRANCH  28  29
ATOM     29  C   UNL A   1      34.678  31.455  28.511  1.00  0.00     0.338 C 
ATOM     30  O   UNL A   1      34.600  32.442  29.234  1.00  0.00    -0.246 OA
BRANCH  29  31
ATOM     31  C   UNL A   1      35.801  30.529  28.669  1.00  0.00     0.060 A 
ATOM     32  C   UNL A   1      36.018  29.856  29.881  1.00  0.00     0.016 A 
ATOM     33  C   UNL A   1      36.715  30.453  27.631  1.00  0.00     0.016 A 
ATOM     34  C   UNL A   1      37.252  29.233  30.112  1.00  0.00     0.010 A 
ATOM     35  C   UNL A   1      37.974  29.978  27.930  1.00  0.00     0.010 A 
ATOM     36  C   UNL A   1      38.261  29.355  29.156  1.00  0.00    -0.014 A 
BRANCH  36  37
ATOM     37  C   UNL A   1      39.668  28.980  29.346  1.00  0.00     0.031 A 
ATOM     38  C   UNL A   1      40.123  27.614  29.007  1.00  0.00     0.074 A 
ATOM     39  C   UNL A   1      40.610  29.900  29.650  1.00  0.00     0.049 A 
ATOM     40  N   UNL A   1      41.215  27.101  29.460  1.00  0.00    -0.248 NA
ATOM     41  C   UNL A   1      39.371  26.673  28.180  1.00  0.00     0.031 C 
ATOM     42  C   UNL A   1      42.049  29.844  29.407  1.00  0.00     0.029 A 
ATOM     43  N   UNL A   1      40.428  31.139  30.242  1.00  0.00    -0.354 N 
ATOM     44  C   UNL A   1      41.485  25.983  28.709  1.00  0.00     0.074 A 
ATOM     45  C   UNL A   1      40.245  25.677  28.048  1.00  0.00     0.031 C 
ATOM     46  C   UNL A   1      42.643  30.906  29.979  1.00  0.00     0.029 A 
ATOM     47  C   UNL A   1      41.640  31.634  30.742  1.00  0.00     0.049 A 
ATOM     48  H   UNL A   1      39.564  31.609  30.302  1.00  0.00     0.167 HD
ATOM     49  C   UNL A   1      42.773  25.549  28.612  1.00  0.00     0.031 A 
ATOM     50  C   UNL A   1      41.764  31.994  32.055  1.00  0.00     0.031 A 
ATOM     51  C   UNL A   1      43.671  26.336  29.474  1.00  0.00     0.049 A 
ATOM     52  C   UNL A   1      42.575  30.961  32.809  1.00  0.00     0.074 A 
ATOM     53  C   UNL A   1      44.682  27.247  29.212  1.00  0.00     0.029 A 
ATOM     54  N   UNL A   1      43.380  26.466  30.835  1.00  0.00    -0.354 N 
ATOM     55  N   UNL A   1      42.887  29.809  32.281  1.00  0.00    -0.248 NA
ATOM     56  C   UNL A   1      43.118  31.102  34.158  1.00  0.00     0.031 C 
ATOM     57  C   UNL A   1      44.938  27.976  30.409  1.00  0.00     0.029 A 
ATOM     58  C   UNL A   1      44.117  27.484  31.411  1.00  0.00     0.049 A 
ATOM     59  H   UNL A   1      42.733  25.905  31.320  1.00  0.00     0.167 HD
ATOM     60  C   UNL A   1      43.599  29.057  33.157  1.00  0.00     0.074 A 
ATOM     61  C   UNL A   1      43.721  29.907  34.329  1.00  0.00     0.031 C 
ATOM     62  C   UNL A   1      43.994  27.792  32.837  1.00  0.00     0.031 A 
BRANCH  49  63
ATOM     63  C   UNL A   1      43.258  24.568  27.557  1.00  0.00    -0.014 A 
ATOM     64  C   UNL A   1      44.418  23.801  27.788  1.00  0.00     0.010 A 
ATOM     65  C   UNL A   1      42.650  24.373  26.299  1.00  0.00     0.010 A 
ATOM     66  C   UNL A   1      44.939  22.917  26.823  1.00  0.00     0.020 A 
ATOM     67  C   UNL A   1      43.155  23.502  25.326  1.00  0.00     0.020 A 
ATOM     68  C   UNL A   1      44.298  22.771  25.594  1.00  0.00     0.054 A 
BRANCH  68  69
ATOM     69  S   UNL A   1      44.942  21.610  24.365  1.00  0.00     0.124 S 
ATOM     70  O   UNL A   1      46.360  21.542  24.705  1.00  0.00    -0.237 OA
ATOM     71  O   UNL A   1      44.166  20.404  24.640  1.00  0.00    -0.237 OA
ATOM     72  O   UNL A   1      44.646  22.256  23.087  1.00  0.00    -0.744 OA
ENDBRANCH  68  69
ENDBRANCH  49  63
BRANCH  50  73
ATOM     73  C   UNL A   1      40.634  32.833  32.568  1.00  0.00    -0.014 A 
ATOM     74  C   UNL A   1      39.847  33.514  31.609  1.00  0.00     0.010 A 
ATOM     75  C   UNL A   1      40.067  32.594  33.833  1.00  0.00     0.010 A 
ATOM     76  C   UNL A   1      38.493  33.799  31.847  1.00  0.00     0.020 A 
ATOM     77  C   UNL A   1      38.702  32.852  34.066  1.00  0.00     0.020 A 
ATOM     78  C   UNL A   1      37.910  33.406  33.053  1.00  0.00     0.054 A 
BRANCH  78  79
ATOM     79  S   UNL A   1      36.082  33.287  33.164  1.00  0.00     0.124 S 
ATOM     80  O   UNL A   1      35.804  32.032  32.479  1.00  0.00    -0.237 OA
ATOM     81  O   UNL A   1      35.832  33.279  34.606  1.00  0.00    -0.237 OA
ATOM     82  O   UNL A   1      35.635  34.504  32.493  1.00  0.00    -0.744 OA
ENDBRANCH  78  79
ENDBRANCH  50  73
BRANCH  62  83
ATOM     83  C   UNL A   1      44.367  26.748  33.851  1.00  0.00    -0.014 A 
ATOM     84  C   UNL A   1      43.514  25.696  34.222  1.00  0.00     0.010 A 
ATOM     85  C   UNL A   1      45.689  26.717  34.350  1.00  0.00     0.010 A 
ATOM     86  C   UNL A   1      43.933  24.707  35.117  1.00  0.00     0.020 A 
ATOM     87  C   UNL A   1      46.135  25.703  35.197  1.00  0.00     0.020 A 
ATOM     88  C   UNL A   1      45.239  24.724  35.607  1.00  0.00     0.054 A 
BRANCH  88  89
ATOM     89  S   UNL A   1      45.766  23.437  36.760  1.00  0.00     0.124 S 
ATOM     90  O   UNL A   1      45.206  23.923  38.019  1.00  0.00    -0.237 OA
ATOM     91  O   UNL A   1      45.138  22.235  36.217  1.00  0.00    -0.237 OA
ATOM     92  O   UNL A   1      47.223  23.467  36.668  1.00  0.00    -0.744 OA
ENDBRANCH  88  89
ENDBRANCH  62  83
ENDBRANCH  36  37
ENDBRANCH  29  31
ENDBRANCH  28  29
ENDBRANCH  27  28
ENDBRANCH  26  27
ENDBRANCH   1  26
TORSDOF 20
ENDMDL
MODEL 2
REMARK VINA RESULT:     -11.0      3.739     10.299
REMARK SMILES COc1ccc(NC(=O)c2nn(C)cc2C(=O)OCCOCCOC(=O)c2ccc(-c3c4nc(c(-c5ccc(S(=O)(=O)[O-])cc5)c5ccc([nH]5)c(-c5ccc(S(=O)(=O)[O-])cc5)c5nc(c(-c6ccc(S(=O)(=O)[O-])cc6)c6ccc3[nH]6)C=C5)C=C4)cc2)c(C)c1
REMARK SMILES IDX 21 1 20 2 19 3 18 4 16 5 17 6 15 7 10 8 11 9 12 10 14 11
REMARK SMILES IDX 13 12 8 13 7 14 9 16 6 17 3 18 4 19 89 20 5 21 87 22 88 23
REMARK SMILES IDX 2 24 1 25 22 26 23 27 24 28 25 29 26 30 27 31 28 32 86 33
REMARK SMILES IDX 29 34 85 35 30 36 31 37 32 38 79 39 33 40 84 41 78 42 80 43
REMARK SMILES IDX 34 44 83 45 77 46 76 47 35 49 65 50 46 51 64 52 47 53 50 54
REMARK SMILES IDX 63 55 81 56 48 57 49 58 62 60 82 61 51 62 36 63 37 64 45 65
REMARK SMILES IDX 38 66 44 67 39 68 40 69 41 70 42 71 43 72 66 73 67 74 75 75
REMARK SMILES IDX 68 76 74 77 69 78 70 79 71 80 72 81 73 82 52 83 53 84 61 85
REMARK SMILES IDX 54 86 60 87 55 88 56 89 57 90 58 91 59 92
REMARK H PARENT 7 15 80 48 50 59
REMARK Flexibility Score: inf
ROOT
ATOM      1  O   UNL A   1      36.016  20.399  25.424  1.00  0.00    -0.374 OA
ENDROOT
BRANCH   1   2
ATOM      2  C   UNL A   1      34.843  20.416  24.640  1.00  0.00     0.202 C 
BRANCH   2   3
ATOM      3  C   UNL A   1      34.602  21.825  24.169  1.00  0.00     0.261 C 
BRANCH   3   4
ATOM      4  O   UNL A   1      33.314  22.103  23.566  1.00  0.00    -0.460 OA
BRANCH   4   5
ATOM      5  C   UNL A   1      32.625  23.274  23.470  1.00  0.00     0.342 C 
ATOM      6  O   UNL A   1      32.406  23.937  22.483  1.00  0.00    -0.246 OA
BRANCH   5   7
ATOM      7  C   UNL A   1      32.067  23.577  24.776  1.00  0.00     0.111 A 
ATOM      8  C   UNL A   1      32.291  24.683  25.648  1.00  0.00     0.165 A 
ATOM      9  N   UNL A   1      31.414  24.657  26.680  1.00  0.00    -0.167 NA
ATOM     10  N   UNL A   1      30.684  23.553  26.469  1.00  0.00    -0.274 N 
ATOM     11  C   UNL A   1      31.084  22.832  25.398  1.00  0.00     0.125 A 
ATOM     12  C   UNL A   1      29.497  23.305  27.248  1.00  0.00     0.173 C 
BRANCH   8  13
ATOM     13  C   UNL A   1      33.255  25.782  25.524  1.00  0.00     0.277 C 
ATOM     14  N   UNL A   1      32.959  26.945  24.837  1.00  0.00    -0.320 N 
ATOM     15  H   UNL A   1      33.745  27.520  24.699  1.00  0.00     0.170 HD
ATOM     16  O   UNL A   1      34.376  25.712  26.035  1.00  0.00    -0.267 OA
BRANCH  14  17
ATOM     17  C   UNL A   1      31.779  27.487  24.291  1.00  0.00     0.044 A 
ATOM     18  C   UNL A   1      29.580  28.701  22.997  1.00  0.00     0.119 A 
ATOM     19  C   UNL A   1      29.884  27.370  22.751  1.00  0.00     0.048 A 
ATOM     20  C   UNL A   1      30.284  29.388  23.986  1.00  0.00     0.052 A 
ATOM     21  C   UNL A   1      30.955  26.766  23.417  1.00  0.00     0.030 A 
ATOM     22  C   UNL A   1      31.403  28.809  24.627  1.00  0.00    -0.024 A 
ATOM     23  C   UNL A   1      32.219  29.729  25.501  1.00  0.00     0.047 C 
BRANCH  18  24
ATOM     24  O   UNL A   1      28.630  29.410  22.318  1.00  0.00    -0.497 OA
ATOM     25  C   UNL A   1      28.655  30.822  22.552  1.00  0.00     0.278 C 
ENDBRANCH  18  24
ENDBRANCH  14  17
ENDBRANCH   8  13
ENDBRANCH   5   7
ENDBRANCH   4   5
ENDBRANCH   3   4
ENDBRANCH   2   3
ENDBRANCH   1   2
BRANCH   1  26
ATOM     26  C   UNL A   1      37.090  21.108  24.854  1.00  0.00     0.202 C 
BRANCH  26  27
ATOM     27  C   UNL A   1      37.601  22.277  25.686  1.00  0.00     0.261 C 
BRANCH  27  28
ATOM     28  O   UNL A   1      38.848  22.263  26.451  1.00  0.00    -0.460 OA
BRANCH  28  29
ATOM     29  C   UNL A   1      39.979  23.008  26.490  1.00  0.00     0.338 C 
ATOM     30  O   UNL A   1      41.060  22.547  26.141  1.00  0.00    -0.246 OA
BRANCH  29  31
ATOM     31  C   UNL A   1      39.876  24.426  26.839  1.00  0.00     0.060 A 
ATOM     32  C   UNL A   1      40.651  25.391  26.179  1.00  0.00     0.016 A 
ATOM     33  C   UNL A   1      39.095  24.757  27.934  1.00  0.00     0.016 A 
ATOM     34  C   UNL A   1      40.771  26.673  26.730  1.00  0.00     0.010 A 
ATOM     35  C   UNL A   1      39.348  25.964  28.549  1.00  0.00     0.010 A 
ATOM     36  C   UNL A   1      40.171  26.940  27.962  1.00  0.00    -0.014 A 
BRANCH  36  37
ATOM     37  C   UNL A   1      40.401  28.134  28.784  1.00  0.00     0.031 A 
ATOM     38  C   UNL A   1      39.465  29.276  28.710  1.00  0.00     0.074 A 
ATOM     39  C   UNL A   1      41.345  28.155  29.752  1.00  0.00     0.049 A 
ATOM     40  N   UNL A   1      39.768  30.465  29.106  1.00  0.00    -0.248 NA
ATOM     41  C   UNL A   1      38.125  29.212  28.131  1.00  0.00     0.031 C 
ATOM     42  C   UNL A   1      41.407  28.996  30.944  1.00  0.00     0.029 A 
ATOM     43  N   UNL A   1      42.471  27.355  29.858  1.00  0.00    -0.354 N 
ATOM     44  C   UNL A   1      38.598  31.178  29.196  1.00  0.00     0.074 A 
ATOM     45  C   UNL A   1      37.644  30.416  28.436  1.00  0.00     0.031 C 
ATOM     46  C   UNL A   1      42.575  28.792  31.578  1.00  0.00     0.029 A 
ATOM     47  C   UNL A   1      43.393  27.912  30.754  1.00  0.00     0.049 A 
ATOM     48  H   UNL A   1      42.605  26.510  29.370  1.00  0.00     0.167 HD
ATOM     49  C   UNL A   1      38.539  32.246  30.041  1.00  0.00     0.031 A 
ATOM     50  C   UNL A   1      44.679  28.170  30.371  1.00  0.00     0.031 A 
ATOM     51  C   UNL A   1      39.852  32.522  30.649  1.00  0.00     0.049 A 
ATOM     52  C   UNL A   1      44.882  29.660  30.184  1.00  0.00     0.074 A 
ATOM     53  C   UNL A   1      40.347  32.402  31.937  1.00  0.00     0.029 A 
ATOM     54  N   UNL A   1      40.967  32.707  29.826  1.00  0.00    -0.354 N 
ATOM     55  N   UNL A   1      43.883  30.498  30.184  1.00  0.00    -0.248 NA
ATOM     56  C   UNL A   1      46.161  30.344  30.009  1.00  0.00     0.031 C 
ATOM     57  C   UNL A   1      41.769  32.439  31.868  1.00  0.00     0.029 A 
ATOM     58  C   UNL A   1      42.143  32.624  30.547  1.00  0.00     0.049 A 
ATOM     59  H   UNL A   1      40.919  32.875  28.856  1.00  0.00     0.167 HD
ATOM     60  C   UNL A   1      44.320  31.766  29.983  1.00  0.00     0.074 A 
ATOM     61  C   UNL A   1      45.762  31.626  29.875  1.00  0.00     0.031 C 
ATOM     62  C   UNL A   1      43.443  32.806  29.897  1.00  0.00     0.031 A 
BRANCH  49  63
ATOM     63  C   UNL A   1      37.242  32.892  30.500  1.00  0.00    -0.014 A 
ATOM     64  C   UNL A   1      36.480  33.661  29.598  1.00  0.00     0.010 A 
ATOM     65  C   UNL A   1      36.729  32.820  31.811  1.00  0.00     0.010 A 
ATOM     66  C   UNL A   1      35.299  34.323  29.987  1.00  0.00     0.020 A 
ATOM     67  C   UNL A   1      35.559  33.474  32.219  1.00  0.00     0.020 A 
ATOM     68  C   UNL A   1      34.844  34.222  31.300  1.00  0.00     0.054 A 
BRANCH  68  69
ATOM     69  S   UNL A   1      33.308  35.040  31.796  1.00  0.00     0.124 S 
ATOM     70  O   UNL A   1      33.772  36.360  32.211  1.00  0.00    -0.237 OA
ATOM     71  O   UNL A   1      32.523  35.003  30.565  1.00  0.00    -0.237 OA
ATOM     72  O   UNL A   1      32.798  34.199  32.878  1.00  0.00    -0.744 OA
ENDBRANCH  68  69
ENDBRANCH  49  63
BRANCH  50  73
ATOM     73  C   UNL A   1      45.329  27.050  29.619  1.00  0.00    -0.014 A 
ATOM     74  C   UNL A   1      45.220  25.751  30.172  1.00  0.00     0.010 A 
ATOM     75  C   UNL A   1      45.599  27.157  28.243  1.00  0.00     0.010 A 
ATOM     76  C   UNL A   1      45.216  24.609  29.355  1.00  0.00     0.020 A 
ATOM     77  C   UNL A   1      45.568  26.017  27.416  1.00  0.00     0.020 A 
ATOM     78  C   UNL A   1      45.326  24.755  27.971  1.00  0.00     0.054 A 
BRANCH  78  79
ATOM     79  S   UNL A   1      44.799  23.374  26.883  1.00  0.00     0.124 S 
ATOM     80  O   UNL A   1      46.068  22.764  26.508  1.00  0.00    -0.237 OA
ATOM     81  O   UNL A   1      43.951  22.562  27.757  1.00  0.00    -0.237 OA
ATOM     82  O   UNL A   1      44.069  24.057  25.819  1.00  0.00    -0.744 OA
ENDBRANCH  78  79
ENDBRANCH  50  73
BRANCH  62  83
ATOM     83  C   UNL A   1      43.762  34.121  29.245  1.00  0.00    -0.014 A 
ATOM     84  C   UNL A   1      43.388  34.440  27.930  1.00  0.00     0.010 A 
ATOM     85  C   UNL A   1      44.328  35.155  30.027  1.00  0.00     0.010 A 
ATOM     86  C   UNL A   1      43.644  35.705  27.392  1.00  0.00     0.020 A 
ATOM     87  C   UNL A   1      44.535  36.437  29.518  1.00  0.00     0.020 A 
ATOM     88  C   UNL A   1      44.227  36.691  28.187  1.00  0.00     0.054 A 
BRANCH  88  89
ATOM     89  S   UNL A   1      44.550  38.321  27.477  1.00  0.00     0.124 S 
ATOM     90  O   UNL A   1      43.465  38.439  26.506  1.00  0.00    -0.237 OA
ATOM     91  O   UNL A   1      44.453  39.206  28.635  1.00  0.00    -0.237 OA
ATOM     92  O   UNL A   1      45.890  38.191  26.910  1.00  0.00    -0.744 OA
ENDBRANCH  88  89
ENDBRANCH  62  83
ENDBRANCH  36  37
ENDBRANCH  29  31
ENDBRANCH  28  29
ENDBRANCH  27  28
ENDBRANCH  26  27
ENDBRANCH   1  26
TORSDOF 20
ENDMDL
MODEL 3
REMARK VINA RESULT:     -10.9      2.418      3.311
REMARK SMILES COc1ccc(NC(=O)c2nn(C)cc2C(=O)OCCOCCOC(=O)c2ccc(-c3c4nc(c(-c5ccc(S(=O)(=O)[O-])cc5)c5ccc([nH]5)c(-c5ccc(S(=O)(=O)[O-])cc5)c5nc(c(-c6ccc(S(=O)(=O)[O-])cc6)c6ccc3[nH]6)C=C5)C=C4)cc2)c(C)c1
REMARK SMILES IDX 21 1 20 2 19 3 18 4 16 5 17 6 15 7 10 8 11 9 12 10 14 11
REMARK SMILES IDX 13 12 8 13 7 14 9 16 6 17 3 18 4 19 89 20 5 21 87 22 88 23
REMARK SMILES IDX 2 24 1 25 22 26 23 27 24 28 25 29 26 30 27 31 28 32 86 33
REMARK SMILES IDX 29 34 85 35 30 36 31 37 32 38 79 39 33 40 84 41 78 42 80 43
REMARK SMILES IDX 34 44 83 45 77 46 76 47 35 49 65 50 46 51 64 52 47 53 50 54
REMARK SMILES IDX 63 55 81 56 48 57 49 58 62 60 82 61 51 62 36 63 37 64 45 65
REMARK SMILES IDX 38 66 44 67 39 68 40 69 41 70 42 71 43 72 66 73 67 74 75 75
REMARK SMILES IDX 68 76 74 77 69 78 70 79 71 80 72 81 73 82 52 83 53 84 61 85
REMARK SMILES IDX 54 86 60 87 55 88 56 89 57 90 58 91 59 92
REMARK H PARENT 7 15 80 48 50 59
REMARK Flexibility Score: inf
ROOT
ATOM      1  O   UNL A   1      33.306  29.453  25.915  1.00  0.00    -0.374 OA
ENDROOT
BRANCH   1   2
ATOM      2  C   UNL A   1      31.927  29.211  25.744  1.00  0.00     0.202 C 
BRANCH   2   3
ATOM      3  C   UNL A   1      31.748  27.825  25.187  1.00  0.00     0.261 C 
BRANCH   3   4
ATOM      4  O   UNL A   1      32.728  26.831  25.576  1.00  0.00    -0.460 OA
BRANCH   4   5
ATOM      5  C   UNL A   1      32.553  25.576  26.078  1.00  0.00     0.342 C 
ATOM      6  O   UNL A   1      31.682  25.179  26.816  1.00  0.00    -0.246 OA
BRANCH   5   7
ATOM      7  C   UNL A   1      33.554  24.709  25.484  1.00  0.00     0.111 A 
ATOM      8  C   UNL A   1      33.512  23.916  24.299  1.00  0.00     0.165 A 
ATOM      9  N   UNL A   1      34.739  23.415  24.020  1.00  0.00    -0.167 NA
ATOM     10  N   UNL A   1      35.515  23.863  25.017  1.00  0.00    -0.274 N 
ATOM     11  C   UNL A   1      34.845  24.566  25.956  1.00  0.00     0.125 A 
ATOM     12  C   UNL A   1      36.948  23.714  24.946  1.00  0.00     0.173 C 
BRANCH   8  13
ATOM     13  C   UNL A   1      32.383  23.654  23.398  1.00  0.00     0.277 C 
ATOM     14  N   UNL A   1      31.939  22.373  23.130  1.00  0.00    -0.320 N 
ATOM     15  H   UNL A   1      31.288  22.339  22.393  1.00  0.00     0.170 HD
ATOM     16  O   UNL A   1      31.780  24.577  22.842  1.00  0.00    -0.267 OA
BRANCH  14  17
ATOM     17  C   UNL A   1      32.213  21.105  23.680  1.00  0.00     0.044 A 
ATOM     18  C   UNL A   1      33.031  18.594  24.682  1.00  0.00     0.119 A 
ATOM     19  C   UNL A   1      32.973  19.694  25.526  1.00  0.00     0.048 A 
ATOM     20  C   UNL A   1      32.555  18.712  23.377  1.00  0.00     0.052 A 
ATOM     21  C   UNL A   1      32.538  20.928  25.031  1.00  0.00     0.030 A 
ATOM     22  C   UNL A   1      32.165  19.963  22.848  1.00  0.00    -0.024 A 
ATOM     23  C   UNL A   1      31.893  20.002  21.364  1.00  0.00     0.047 C 
BRANCH  18  24
ATOM     24  O   UNL A   1      33.546  17.380  25.038  1.00  0.00    -0.497 OA
ATOM     25  C   UNL A   1      32.587  16.450  25.553  1.00  0.00     0.278 C 
ENDBRANCH  18  24
ENDBRANCH  14  17
ENDBRANCH   8  13
ENDBRANCH   5   7
ENDBRANCH   4   5
ENDBRANCH   3   4
ENDBRANCH   2   3
ENDBRANCH   1   2
BRANCH   1  26
ATOM     26  C   UNL A   1      33.686  29.650  27.256  1.00  0.00     0.202 C 
BRANCH  26  27
ATOM     27  C   UNL A   1      35.187  29.763  27.488  1.00  0.00     0.261 C 
BRANCH  27  28
ATOM     28  O   UNL A   1      35.795  30.302  28.704  1.00  0.00    -0.460 OA
BRANCH  28  29
ATOM     29  C   UNL A   1      36.444  29.795  29.780  1.00  0.00     0.338 C 
ATOM     30  O   UNL A   1      36.021  29.962  30.918  1.00  0.00    -0.246 OA
BRANCH  29  31
ATOM     31  C   UNL A   1      37.603  28.928  29.558  1.00  0.00     0.060 A 
ATOM     32  C   UNL A   1      38.327  28.399  30.637  1.00  0.00     0.016 A 
ATOM     33  C   UNL A   1      38.036  28.765  28.253  1.00  0.00     0.016 A 
ATOM     34  C   UNL A   1      39.594  27.845  30.411  1.00  0.00     0.010 A 
ATOM     35  C   UNL A   1      39.342  28.365  28.065  1.00  0.00     0.010 A 
ATOM     36  C   UNL A   1      40.133  27.891  29.125  1.00  0.00    -0.014 A 
BRANCH  36  37
ATOM     37  C   UNL A   1      41.524  27.583  28.770  1.00  0.00     0.031 A 
ATOM     38  C   UNL A   1      41.949  26.178  28.588  1.00  0.00     0.074 A 
ATOM     39  C   UNL A   1      42.397  28.555  28.421  1.00  0.00     0.049 A 
ATOM     40  N   UNL A   1      43.181  25.802  28.630  1.00  0.00    -0.248 NA
ATOM     41  C   UNL A   1      41.033  25.055  28.404  1.00  0.00     0.031 C 
ATOM     42  C   UNL A   1      43.601  28.446  27.602  1.00  0.00     0.029 A 
ATOM     43  N   UNL A   1      42.338  29.903  28.736  1.00  0.00    -0.354 N 
ATOM     44  C   UNL A   1      43.239  24.531  28.111  1.00  0.00     0.074 A 
ATOM     45  C   UNL A   1      41.880  24.062  28.137  1.00  0.00     0.031 C 
ATOM     46  C   UNL A   1      44.254  29.621  27.604  1.00  0.00     0.029 A 
ATOM     47  C   UNL A   1      43.583  30.513  28.539  1.00  0.00     0.049 A 
ATOM     48  H   UNL A   1      41.530  30.368  29.054  1.00  0.00     0.167 HD
ATOM     49  C   UNL A   1      44.410  24.093  27.570  1.00  0.00     0.031 A 
ATOM     50  C   UNL A   1      44.200  31.196  29.550  1.00  0.00     0.031 A 
ATOM     51  C   UNL A   1      45.490  25.077  27.758  1.00  0.00     0.049 A 
ATOM     52  C   UNL A   1      45.363  30.391  30.094  1.00  0.00     0.074 A 
ATOM     53  C   UNL A   1      46.190  25.897  26.887  1.00  0.00     0.029 A 
ATOM     54  N   UNL A   1      45.779  25.546  29.042  1.00  0.00    -0.354 N 
ATOM     55  N   UNL A   1      45.556  29.145  29.759  1.00  0.00    -0.248 NA
ATOM     56  C   UNL A   1      46.397  30.872  31.006  1.00  0.00     0.031 C 
ATOM     57  C   UNL A   1      46.836  26.906  27.656  1.00  0.00     0.029 A 
ATOM     58  C   UNL A   1      46.568  26.681  28.997  1.00  0.00     0.049 A 
ATOM     59  H   UNL A   1      45.460  25.124  29.872  1.00  0.00     0.167 HD
ATOM     60  C   UNL A   1      46.647  28.643  30.389  1.00  0.00     0.074 A 
ATOM     61  C   UNL A   1      47.148  29.763  31.167  1.00  0.00     0.031 C 
ATOM     62  C   UNL A   1      47.014  27.340  30.226  1.00  0.00     0.031 A 
BRANCH  49  63
ATOM     63  C   UNL A   1      44.522  22.879  26.663  1.00  0.00    -0.014 A 
ATOM     64  C   UNL A   1      43.394  22.066  26.431  1.00  0.00     0.010 A 
ATOM     65  C   UNL A   1      45.710  22.451  26.034  1.00  0.00     0.010 A 
ATOM     66  C   UNL A   1      43.457  20.901  25.641  1.00  0.00     0.020 A 
ATOM     67  C   UNL A   1      45.793  21.294  25.248  1.00  0.00     0.020 A 
ATOM     68  C   UNL A   1      44.661  20.524  25.051  1.00  0.00     0.054 A 
BRANCH  68  69
ATOM     69  S   UNL A   1      44.739  19.049  24.006  1.00  0.00     0.124 S 
ATOM     70  O   UNL A   1      43.767  18.162  24.636  1.00  0.00    -0.237 OA
ATOM     71  O   UNL A   1      44.361  19.574  22.696  1.00  0.00    -0.237 OA
ATOM     72  O   UNL A   1      46.131  18.615  24.118  1.00  0.00    -0.744 OA
ENDBRANCH  68  69
ENDBRANCH  49  63
BRANCH  50  73
ATOM     73  C   UNL A   1      43.298  32.132  30.295  1.00  0.00    -0.014 A 
ATOM     74  C   UNL A   1      42.895  33.311  29.624  1.00  0.00     0.010 A 
ATOM     75  C   UNL A   1      42.505  31.680  31.364  1.00  0.00     0.010 A 
ATOM     76  C   UNL A   1      41.662  33.922  29.902  1.00  0.00     0.020 A 
ATOM     77  C   UNL A   1      41.254  32.273  31.628  1.00  0.00     0.020 A 
ATOM     78  C   UNL A   1      40.817  33.359  30.861  1.00  0.00     0.054 A 
BRANCH  78  79
ATOM     79  S   UNL A   1      39.038  33.809  30.858  1.00  0.00     0.124 S 
ATOM     80  O   UNL A   1      38.787  34.123  32.258  1.00  0.00    -0.237 OA
ATOM     81  O   UNL A   1      38.981  34.949  29.942  1.00  0.00    -0.237 OA
ATOM     82  O   UNL A   1      38.398  32.603  30.340  1.00  0.00    -0.744 OA
ENDBRANCH  78  79
ENDBRANCH  50  73
BRANCH  62  83
ATOM     83  C   UNL A   1      47.890  26.589  31.188  1.00  0.00    -0.014 A 
ATOM     84  C   UNL A   1      47.524  26.325  32.518  1.00  0.00     0.010 A 
ATOM     85  C   UNL A   1      49.071  25.978  30.708  1.00  0.00     0.010 A 
ATOM     86  C   UNL A   1      48.342  25.559  33.354  1.00  0.00     0.020 A 
ATOM     87  C   UNL A   1      49.864  25.165  31.517  1.00  0.00     0.020 A 
ATOM     88  C   UNL A   1      49.513  24.994  32.851  1.00  0.00     0.054 A 
BRANCH  88  89
ATOM     89  S   UNL A   1      50.557  24.005  33.944  1.00  0.00     0.124 S 
ATOM     90  O   UNL A   1      50.865  22.856  33.096  1.00  0.00    -0.237 OA
ATOM     91  O   UNL A   1      51.679  24.899  34.219  1.00  0.00    -0.237 OA
ATOM     92  O   UNL A   1      49.694  23.728  35.089  1.00  0.00    -0.744 OA
ENDBRANCH  88  89
ENDBRANCH  62  83
ENDBRANCH  36  37
ENDBRANCH  29  31
ENDBRANCH  28  29
ENDBRANCH  27  28
ENDBRANCH  26  27
ENDBRANCH   1  26
TORSDOF 20
ENDMDL
