MODEL 1
REMARK VINA RESULT:     -10.6      0.000      0.000
REMARK SMILES O=C(OCCOCCOC(=O)[C@H]1Cc2c([nH]c3ccccc23)[C@@H](c2ccc(OC(F)(F)F)cc2)[NH2+]1)c1ccc(-c2c3nc(c(-c4ccc(S(=O)(=O)[O-])cc4)c4ccc([nH]4)c(-c4ccc(S(=O)(=O)[O-])cc4)c4nc(c(-c5ccc(S(=O)(=O)[O-])cc5)c5ccc2[nH]5)C=C4)C=C3)cc1
REMARK SMILES IDX 6 1 5 2 4 3 3 4 2 5 1 6 36 7 37 8 95 9 38 10 94 11 39 12
REMARK SMILES IDX 40 13 41 14 88 15 42 16 93 17 87 18 89 19 43 20 92 21 86 22
REMARK SMILES IDX 85 23 44 25 74 26 55 27 73 28 56 29 59 30 72 31 90 32 57 33
REMARK SMILES IDX 58 34 71 36 91 37 60 38 45 39 46 40 54 41 47 42 53 43 48 44
REMARK SMILES IDX 49 45 50 46 51 47 52 48 75 49 76 50 84 51 77 52 83 53 78 54
REMARK SMILES IDX 79 55 80 56 81 57 82 58 61 59 62 60 70 61 63 62 69 63 64 64
REMARK SMILES IDX 65 65 66 66 67 67 68 68 7 69 8 70 9 71 10 72 11 73 12 74
REMARK SMILES IDX 13 75 35 76 14 77 23 78 15 81 22 82 16 83 17 84 21 85 18 87
REMARK SMILES IDX 20 88 19 89 24 90 25 91 34 92 26 93 33 94 27 95 28 96 29 97
REMARK SMILES IDX 30 98 31 99 32 100
REMARK H PARENT 89 24 59 35 35 79 35 80 16 86
REMARK Flexibility Score: inf
ROOT
ATOM      1  O   UNL A   1      32.938  27.594  24.779  1.00  0.00    -0.374 OA
ENDROOT
BRANCH   1   2
ATOM      2  C   UNL A   1      32.357  28.616  25.596  1.00  0.00     0.202 C 
BRANCH   2   3
ATOM      3  C   UNL A   1      33.145  29.918  25.783  1.00  0.00     0.261 C 
BRANCH   3   4
ATOM      4  O   UNL A   1      33.466  30.120  27.170  1.00  0.00    -0.460 OA
BRANCH   4   5
ATOM      5  C   UNL A   1      34.196  31.122  27.718  1.00  0.00     0.338 C 
ATOM      6  O   UNL A   1      33.784  32.277  27.628  1.00  0.00    -0.246 OA
BRANCH   5   7
ATOM      7  C   UNL A   1      35.482  30.879  28.432  1.00  0.00     0.060 A 
ATOM      8  C   UNL A   1      36.593  31.718  28.351  1.00  0.00     0.016 A 
ATOM      9  C   UNL A   1      35.546  29.773  29.293  1.00  0.00     0.016 A 
ATOM     10  C   UNL A   1      37.774  31.421  29.000  1.00  0.00     0.010 A 
ATOM     11  C   UNL A   1      36.717  29.495  30.005  1.00  0.00     0.010 A 
ATOM     12  C   UNL A   1      37.840  30.308  29.829  1.00  0.00    -0.014 A 
BRANCH  12  13
ATOM     13  C   UNL A   1      39.156  29.986  30.397  1.00  0.00     0.031 A 
ATOM     14  C   UNL A   1      39.557  30.659  31.671  1.00  0.00     0.074 A 
ATOM     15  C   UNL A   1      39.862  28.972  29.867  1.00  0.00     0.049 A 
ATOM     16  N   UNL A   1      40.645  30.511  32.372  1.00  0.00    -0.248 NA
ATOM     17  C   UNL A   1      38.589  31.611  32.246  1.00  0.00     0.031 C 
ATOM     18  C   UNL A   1      39.443  28.164  28.715  1.00  0.00     0.029 A 
ATOM     19  N   UNL A   1      41.045  28.408  30.255  1.00  0.00    -0.354 N 
ATOM     20  C   UNL A   1      40.511  31.374  33.453  1.00  0.00     0.074 A 
ATOM     21  C   UNL A   1      39.234  32.037  33.320  1.00  0.00     0.031 C 
ATOM     22  C   UNL A   1      40.337  27.182  28.520  1.00  0.00     0.029 A 
ATOM     23  C   UNL A   1      41.422  27.339  29.480  1.00  0.00     0.049 A 
ATOM     24  H   UNL A   1      41.574  28.736  31.017  1.00  0.00     0.167 HD
ATOM     25  C   UNL A   1      41.393  31.600  34.452  1.00  0.00     0.031 A 
ATOM     26  C   UNL A   1      42.541  26.592  29.530  1.00  0.00     0.031 A 
ATOM     27  C   UNL A   1      42.666  30.939  34.529  1.00  0.00     0.049 A 
ATOM     28  C   UNL A   1      43.557  26.939  30.582  1.00  0.00     0.074 A 
ATOM     29  C   UNL A   1      43.696  31.140  35.426  1.00  0.00     0.029 A 
ATOM     30  N   UNL A   1      43.077  29.936  33.657  1.00  0.00    -0.354 N 
ATOM     31  N   UNL A   1      43.471  27.829  31.545  1.00  0.00    -0.248 NA
ATOM     32  C   UNL A   1      44.826  26.204  30.547  1.00  0.00     0.031 C 
ATOM     33  C   UNL A   1      44.750  30.290  35.066  1.00  0.00     0.029 A 
ATOM     34  C   UNL A   1      44.353  29.520  33.981  1.00  0.00     0.049 A 
ATOM     35  H   UNL A   1      42.536  29.575  32.918  1.00  0.00     0.167 HD
ATOM     36  C   UNL A   1      44.672  27.760  32.236  1.00  0.00     0.074 A 
ATOM     37  C   UNL A   1      45.459  26.723  31.590  1.00  0.00     0.031 C 
ATOM     38  C   UNL A   1      45.095  28.486  33.301  1.00  0.00     0.031 A 
BRANCH  25  39
ATOM     39  C   UNL A   1      41.034  32.674  35.440  1.00  0.00    -0.014 A 
ATOM     40  C   UNL A   1      41.376  34.022  35.225  1.00  0.00     0.010 A 
ATOM     41  C   UNL A   1      40.413  32.310  36.649  1.00  0.00     0.010 A 
ATOM     42  C   UNL A   1      41.160  34.974  36.228  1.00  0.00     0.020 A 
ATOM     43  C   UNL A   1      40.176  33.262  37.644  1.00  0.00     0.020 A 
ATOM     44  C   UNL A   1      40.578  34.583  37.438  1.00  0.00     0.054 A 
BRANCH  44  45
ATOM     45  S   UNL A   1      40.357  35.821  38.745  1.00  0.00     0.124 S 
ATOM     46  O   UNL A   1      41.711  35.931  39.285  1.00  0.00    -0.237 OA
ATOM     47  O   UNL A   1      39.880  36.988  38.009  1.00  0.00    -0.237 OA
ATOM     48  O   UNL A   1      39.378  35.209  39.640  1.00  0.00    -0.744 OA
ENDBRANCH  44  45
ENDBRANCH  25  39
BRANCH  26  49
ATOM     49  C   UNL A   1      42.766  25.514  28.530  1.00  0.00    -0.014 A 
ATOM     50  C   UNL A   1      42.398  24.185  28.800  1.00  0.00     0.010 A 
ATOM     51  C   UNL A   1      43.322  25.823  27.272  1.00  0.00     0.010 A 
ATOM     52  C   UNL A   1      42.582  23.188  27.834  1.00  0.00     0.020 A 
ATOM     53  C   UNL A   1      43.482  24.836  26.295  1.00  0.00     0.020 A 
ATOM     54  C   UNL A   1      43.118  23.520  26.586  1.00  0.00     0.054 A 
BRANCH  54  55
ATOM     55  S   UNL A   1      43.290  22.226  25.325  1.00  0.00     0.124 S 
ATOM     56  O   UNL A   1      42.074  21.445  25.524  1.00  0.00    -0.237 OA
ATOM     57  O   UNL A   1      43.352  22.997  24.086  1.00  0.00    -0.237 OA
ATOM     58  O   UNL A   1      44.535  21.553  25.694  1.00  0.00    -0.744 OA
ENDBRANCH  54  55
ENDBRANCH  26  49
BRANCH  38  59
ATOM     59  C   UNL A   1      46.458  28.161  33.838  1.00  0.00    -0.014 A 
ATOM     60  C   UNL A   1      47.597  28.846  33.381  1.00  0.00     0.010 A 
ATOM     61  C   UNL A   1      46.584  27.205  34.860  1.00  0.00     0.010 A 
ATOM     62  C   UNL A   1      48.849  28.561  33.925  1.00  0.00     0.020 A 
ATOM     63  C   UNL A   1      47.832  26.936  35.423  1.00  0.00     0.020 A 
ATOM     64  C   UNL A   1      48.958  27.609  34.944  1.00  0.00     0.054 A 
BRANCH  64  65
ATOM     65  S   UNL A   1      50.586  27.297  35.676  1.00  0.00     0.124 S 
ATOM     66  O   UNL A   1      50.925  25.992  35.117  1.00  0.00    -0.237 OA
ATOM     67  O   UNL A   1      51.381  28.419  35.184  1.00  0.00    -0.237 OA
ATOM     68  O   UNL A   1      50.325  27.311  37.114  1.00  0.00    -0.744 OA
ENDBRANCH  64  65
ENDBRANCH  38  59
ENDBRANCH  12  13
ENDBRANCH   5   7
ENDBRANCH   4   5
ENDBRANCH   3   4
ENDBRANCH   2   3
ENDBRANCH   1   2
BRANCH   1  69
ATOM     69  C   UNL A   1      32.024  26.778  24.032  1.00  0.00     0.202 C 
BRANCH  69  70
ATOM     70  C   UNL A   1      32.806  25.774  23.185  1.00  0.00     0.261 C 
BRANCH  70  71
ATOM     71  O   UNL A   1      32.032  24.569  23.181  1.00  0.00    -0.459 OA
BRANCH  71  72
ATOM     72  C   UNL A   1      32.694  23.450  22.785  1.00  0.00     0.365 C 
ATOM     73  O   UNL A   1      33.666  23.435  22.039  1.00  0.00    -0.245 OA
BRANCH  72  74
ATOM     74  C   UNL A   1      32.158  22.211  23.517  1.00  0.00     0.298 C 
ATOM     75  C   UNL A   1      32.907  20.912  23.101  1.00  0.00     0.115 C 
ATOM     76  N   UNL A   1      31.981  22.501  24.972  1.00  0.00    -0.323 N 
ATOM     77  C   UNL A   1      32.899  19.929  24.201  1.00  0.00    -0.006 A 
ATOM     78  C   UNL A   1      32.910  21.829  25.888  1.00  0.00     0.262 C 
ATOM     79  H   UNL A   1      31.035  22.223  25.232  1.00  0.00     0.347 HD
ATOM     80  H   UNL A   1      32.172  23.497  25.076  1.00  0.00     0.347 HD
ATOM     81  C   UNL A   1      32.926  20.382  25.497  1.00  0.00     0.083 A 
ATOM     82  C   UNL A   1      32.896  18.518  24.213  1.00  0.00     0.003 A 
ATOM     83  N   UNL A   1      32.982  19.292  26.319  1.00  0.00    -0.353 N 
ATOM     84  C   UNL A   1      33.004  18.139  25.554  1.00  0.00     0.046 A 
ATOM     85  C   UNL A   1      32.839  17.523  23.218  1.00  0.00     0.010 A 
ATOM     86  H   UNL A   1      33.005  19.322  27.303  1.00  0.00     0.166 HD
ATOM     87  C   UNL A   1      33.107  16.798  25.941  1.00  0.00     0.026 A 
ATOM     88  C   UNL A   1      32.920  16.180  23.594  1.00  0.00     0.001 A 
ATOM     89  C   UNL A   1      33.067  15.826  24.933  1.00  0.00     0.002 A 
BRANCH  78  90
ATOM     90  C   UNL A   1      34.290  22.485  25.956  1.00  0.00     0.016 A 
ATOM     91  C   UNL A   1      34.465  23.876  25.865  1.00  0.00     0.014 A 
ATOM     92  C   UNL A   1      35.451  21.693  26.010  1.00  0.00     0.014 A 
ATOM     93  C   UNL A   1      35.740  24.442  25.792  1.00  0.00     0.047 A 
ATOM     94  C   UNL A   1      36.730  22.263  25.950  1.00  0.00     0.047 A 
ATOM     95  C   UNL A   1      36.879  23.641  25.813  1.00  0.00     0.129 A 
BRANCH  95  96
ATOM     96  O   UNL A   1      38.051  24.328  25.681  1.00  0.00    -0.406 OA
BRANCH  96  97
ATOM     97  C   UNL A   1      39.053  24.113  26.658  1.00  0.00     0.573 C 
ATOM     98  F   UNL A   1      38.602  24.420  27.891  1.00  0.00    -0.132 F 
ATOM     99  F   UNL A   1      39.499  22.838  26.639  1.00  0.00    -0.132 F 
ATOM    100  F   UNL A   1      40.102  24.921  26.379  1.00  0.00    -0.132 F 
ENDBRANCH  96  97
ENDBRANCH  95  96
ENDBRANCH  78  90
ENDBRANCH  72  74
ENDBRANCH  71  72
ENDBRANCH  70  71
ENDBRANCH  69  70
ENDBRANCH   1  69
TORSDOF 20
ENDMDL
MODEL 2
REMARK VINA RESULT:     -10.5      3.049      9.214
REMARK SMILES O=C(OCCOCCOC(=O)[C@H]1Cc2c([nH]c3ccccc23)[C@@H](c2ccc(OC(F)(F)F)cc2)[NH2+]1)c1ccc(-c2c3nc(c(-c4ccc(S(=O)(=O)[O-])cc4)c4ccc([nH]4)c(-c4ccc(S(=O)(=O)[O-])cc4)c4nc(c(-c5ccc(S(=O)(=O)[O-])cc5)c5ccc2[nH]5)C=C4)C=C3)cc1
REMARK SMILES IDX 6 1 5 2 4 3 3 4 2 5 1 6 36 7 37 8 95 9 38 10 94 11 39 12
REMARK SMILES IDX 40 13 41 14 88 15 42 16 93 17 87 18 89 19 43 20 92 21 86 22
REMARK SMILES IDX 85 23 44 25 74 26 55 27 73 28 56 29 59 30 72 31 90 32 57 33
REMARK SMILES IDX 58 34 71 36 91 37 60 38 45 39 46 40 54 41 47 42 53 43 48 44
REMARK SMILES IDX 49 45 50 46 51 47 52 48 75 49 76 50 84 51 77 52 83 53 78 54
REMARK SMILES IDX 79 55 80 56 81 57 82 58 61 59 62 60 70 61 63 62 69 63 64 64
REMARK SMILES IDX 65 65 66 66 67 67 68 68 7 69 8 70 9 71 10 72 11 73 12 74
REMARK SMILES IDX 13 75 35 76 14 77 23 78 15 81 22 82 16 83 17 84 21 85 18 87
REMARK SMILES IDX 20 88 19 89 24 90 25 91 34 92 26 93 33 94 27 95 28 96 29 97
REMARK SMILES IDX 30 98 31 99 32 100
REMARK H PARENT 89 24 59 35 35 79 35 80 16 86
REMARK Flexibility Score: inf
ROOT
ATOM      1  O   UNL A   1      41.310  22.004  26.151  1.00  0.00    -0.374 OA
ENDROOT
BRANCH   1   2
ATOM      2  C   UNL A   1      42.565  22.070  26.837  1.00  0.00     0.202 C 
BRANCH   2   3
ATOM      3  C   UNL A   1      43.181  23.455  27.069  1.00  0.00     0.261 C 
BRANCH   3   4
ATOM      4  O   UNL A   1      42.812  24.356  26.010  1.00  0.00    -0.460 OA
BRANCH   4   5
ATOM      5  C   UNL A   1      41.981  25.423  26.078  1.00  0.00     0.338 C 
ATOM      6  O   UNL A   1      41.357  25.758  25.073  1.00  0.00    -0.246 OA
BRANCH   5   7
ATOM      7  C   UNL A   1      41.787  26.210  27.329  1.00  0.00     0.060 A 
ATOM      8  C   UNL A   1      40.889  25.868  28.339  1.00  0.00     0.016 A 
ATOM      9  C   UNL A   1      42.615  27.326  27.528  1.00  0.00     0.016 A 
ATOM     10  C   UNL A   1      40.719  26.658  29.458  1.00  0.00     0.010 A 
ATOM     11  C   UNL A   1      42.497  28.100  28.686  1.00  0.00     0.010 A 
ATOM     12  C   UNL A   1      41.523  27.778  29.635  1.00  0.00    -0.014 A 
BRANCH  12  13
ATOM     13  C   UNL A   1      41.213  28.636  30.786  1.00  0.00     0.031 A 
ATOM     14  C   UNL A   1      42.170  28.645  31.935  1.00  0.00     0.074 A 
ATOM     15  C   UNL A   1      40.201  29.516  30.687  1.00  0.00     0.049 A 
ATOM     16  N   UNL A   1      42.126  29.340  33.036  1.00  0.00    -0.248 NA
ATOM     17  C   UNL A   1      43.349  27.767  31.818  1.00  0.00     0.031 C 
ATOM     18  C   UNL A   1      39.328  29.668  29.517  1.00  0.00     0.029 A 
ATOM     19  N   UNL A   1      39.770  30.482  31.552  1.00  0.00    -0.354 N 
ATOM     20  C   UNL A   1      43.251  28.961  33.759  1.00  0.00     0.074 A 
ATOM     21  C   UNL A   1      43.962  27.981  32.971  1.00  0.00     0.031 C 
ATOM     22  C   UNL A   1      38.495  30.700  29.723  1.00  0.00     0.029 A 
ATOM     23  C   UNL A   1      38.723  31.226  31.063  1.00  0.00     0.049 A 
ATOM     24  H   UNL A   1      40.171  30.630  32.438  1.00  0.00     0.167 HD
ATOM     25  C   UNL A   1      43.635  29.387  34.984  1.00  0.00     0.031 A 
ATOM     26  C   UNL A   1      38.015  32.205  31.655  1.00  0.00     0.031 A 
ATOM     27  C   UNL A   1      42.881  30.343  35.746  1.00  0.00     0.049 A 
ATOM     28  C   UNL A   1      38.393  32.581  33.060  1.00  0.00     0.074 A 
ATOM     29  C   UNL A   1      43.097  30.790  37.034  1.00  0.00     0.029 A 
ATOM     30  N   UNL A   1      41.751  31.000  35.272  1.00  0.00    -0.354 N 
ATOM     31  N   UNL A   1      39.400  32.146  33.782  1.00  0.00    -0.248 NA
ATOM     32  C   UNL A   1      37.535  33.557  33.739  1.00  0.00     0.031 C 
ATOM     33  C   UNL A   1      42.067  31.684  37.356  1.00  0.00     0.029 A 
ATOM     34  C   UNL A   1      41.245  31.836  36.248  1.00  0.00     0.049 A 
ATOM     35  H   UNL A   1      41.369  30.886  34.372  1.00  0.00     0.167 HD
ATOM     36  C   UNL A   1      39.303  32.798  35.003  1.00  0.00     0.074 A 
ATOM     37  C   UNL A   1      38.148  33.675  34.910  1.00  0.00     0.031 C 
ATOM     38  C   UNL A   1      40.087  32.685  36.105  1.00  0.00     0.031 A 
BRANCH  25  39
ATOM     39  C   UNL A   1      44.846  28.726  35.579  1.00  0.00    -0.014 A 
ATOM     40  C   UNL A   1      44.741  27.583  36.394  1.00  0.00     0.010 A 
ATOM     41  C   UNL A   1      46.110  29.313  35.384  1.00  0.00     0.010 A 
ATOM     42  C   UNL A   1      45.868  27.079  37.053  1.00  0.00     0.020 A 
ATOM     43  C   UNL A   1      47.242  28.799  36.023  1.00  0.00     0.020 A 
ATOM     44  C   UNL A   1      47.107  27.702  36.876  1.00  0.00     0.054 A 
BRANCH  44  45
ATOM     45  S   UNL A   1      48.545  27.066  37.782  1.00  0.00     0.124 S 
ATOM     46  O   UNL A   1      49.641  27.812  37.166  1.00  0.00    -0.237 OA
ATOM     47  O   UNL A   1      48.241  27.425  39.164  1.00  0.00    -0.237 OA
ATOM     48  O   UNL A   1      48.529  25.633  37.495  1.00  0.00    -0.744 OA
ENDBRANCH  44  45
ENDBRANCH  25  39
BRANCH  26  49
ATOM     49  C   UNL A   1      36.865  32.830  30.945  1.00  0.00    -0.014 A 
ATOM     50  C   UNL A   1      35.565  32.312  31.071  1.00  0.00     0.010 A 
ATOM     51  C   UNL A   1      37.064  33.984  30.160  1.00  0.00     0.010 A 
ATOM     52  C   UNL A   1      34.488  32.933  30.427  1.00  0.00     0.020 A 
ATOM     53  C   UNL A   1      35.988  34.623  29.538  1.00  0.00     0.020 A 
ATOM     54  C   UNL A   1      34.705  34.088  29.668  1.00  0.00     0.054 A 
BRANCH  54  55
ATOM     55  S   UNL A   1      33.288  34.914  28.893  1.00  0.00     0.124 S 
ATOM     56  O   UNL A   1      32.819  33.898  27.956  1.00  0.00    -0.237 OA
ATOM     57  O   UNL A   1      32.412  35.177  30.032  1.00  0.00    -0.237 OA
ATOM     58  O   UNL A   1      33.878  36.104  28.283  1.00  0.00    -0.744 OA
ENDBRANCH  54  55
ENDBRANCH  26  49
BRANCH  38  59
ATOM     59  C   UNL A   1      39.725  33.546  37.279  1.00  0.00    -0.014 A 
ATOM     60  C   UNL A   1      38.895  33.061  38.304  1.00  0.00     0.010 A 
ATOM     61  C   UNL A   1      40.282  34.833  37.385  1.00  0.00     0.010 A 
ATOM     62  C   UNL A   1      38.608  33.862  39.409  1.00  0.00     0.020 A 
ATOM     63  C   UNL A   1      40.017  35.626  38.501  1.00  0.00     0.020 A 
ATOM     64  C   UNL A   1      39.172  35.139  39.501  1.00  0.00     0.054 A 
BRANCH  64  65
ATOM     65  S   UNL A   1      38.832  36.139  40.973  1.00  0.00     0.124 S 
ATOM     66  O   UNL A   1      38.529  37.443  40.391  1.00  0.00    -0.237 OA
ATOM     67  O   UNL A   1      37.701  35.443  41.582  1.00  0.00    -0.237 OA
ATOM     68  O   UNL A   1      40.079  36.069  41.733  1.00  0.00    -0.744 OA
ENDBRANCH  64  65
ENDBRANCH  38  59
ENDBRANCH  12  13
ENDBRANCH   5   7
ENDBRANCH   4   5
ENDBRANCH   3   4
ENDBRANCH   2   3
ENDBRANCH   1   2
BRANCH   1  69
ATOM     69  C   UNL A   1      40.133  21.973  26.973  1.00  0.00     0.202 C 
BRANCH  69  70
ATOM     70  C   UNL A   1      39.078  22.915  26.395  1.00  0.00     0.261 C 
BRANCH  70  71
ATOM     71  O   UNL A   1      38.031  22.077  25.889  1.00  0.00    -0.459 OA
BRANCH  71  72
ATOM     72  C   UNL A   1      37.175  22.672  25.017  1.00  0.00     0.365 C 
ATOM     73  O   UNL A   1      37.119  22.437  23.816  1.00  0.00    -0.245 OA
BRANCH  72  74
ATOM     74  C   UNL A   1      36.176  23.571  25.761  1.00  0.00     0.298 C 
ATOM     75  C   UNL A   1      35.278  24.384  24.786  1.00  0.00     0.115 C 
ATOM     76  N   UNL A   1      35.524  22.816  26.874  1.00  0.00    -0.323 N 
ATOM     77  C   UNL A   1      33.970  24.678  25.401  1.00  0.00    -0.006 A 
ATOM     78  C   UNL A   1      34.103  22.497  26.700  1.00  0.00     0.262 C 
ATOM     79  H   UNL A   1      35.616  23.373  27.723  1.00  0.00     0.347 HD
ATOM     80  H   UNL A   1      36.001  21.915  26.907  1.00  0.00     0.347 HD
ATOM     81  C   UNL A   1      33.428  23.767  26.275  1.00  0.00     0.083 A 
ATOM     82  C   UNL A   1      33.073  25.757  25.256  1.00  0.00     0.003 A 
ATOM     83  N   UNL A   1      32.198  24.230  26.649  1.00  0.00    -0.353 N 
ATOM     84  C   UNL A   1      31.942  25.429  26.008  1.00  0.00     0.046 A 
ATOM     85  C   UNL A   1      33.097  26.970  24.542  1.00  0.00     0.010 A 
ATOM     86  H   UNL A   1      31.588  23.778  27.277  1.00  0.00     0.166 HD
ATOM     87  C   UNL A   1      30.805  26.245  26.036  1.00  0.00     0.026 A 
ATOM     88  C   UNL A   1      31.977  27.805  24.579  1.00  0.00     0.001 A 
ATOM     89  C   UNL A   1      30.845  27.438  25.302  1.00  0.00     0.002 A 
BRANCH  78  90
ATOM     90  C   UNL A   1      33.847  21.302  25.780  1.00  0.00     0.016 A 
ATOM     91  C   UNL A   1      32.560  20.965  25.329  1.00  0.00     0.014 A 
ATOM     92  C   UNL A   1      34.897  20.432  25.438  1.00  0.00     0.014 A 
ATOM     93  C   UNL A   1      32.331  19.793  24.604  1.00  0.00     0.047 A 
ATOM     94  C   UNL A   1      34.669  19.263  24.700  1.00  0.00     0.047 A 
ATOM     95  C   UNL A   1      33.378  18.924  24.302  1.00  0.00     0.129 A 
BRANCH  95  96
ATOM     96  O   UNL A   1      32.996  17.796  23.636  1.00  0.00    -0.406 OA
BRANCH  96  97
ATOM     97  C   UNL A   1      33.690  16.596  23.923  1.00  0.00     0.573 C 
ATOM     98  F   UNL A   1      34.432  16.200  22.869  1.00  0.00    -0.132 F 
ATOM     99  F   UNL A   1      34.478  16.727  25.013  1.00  0.00    -0.132 F 
ATOM    100  F   UNL A   1      32.781  15.629  24.186  1.00  0.00    -0.132 F 
ENDBRANCH  96  97
ENDBRANCH  95  96
ENDBRANCH  78  90
ENDBRANCH  72  74
ENDBRANCH  71  72
ENDBRANCH  70  71
ENDBRANCH  69  70
ENDBRANCH   1  69
TORSDOF 20
ENDMDL
MODEL 3
REMARK VINA RESULT:     -10.4      0.590      7.887
REMARK SMILES O=C(OCCOCCOC(=O)[C@H]1Cc2c([nH]c3ccccc23)[C@@H](c2ccc(OC(F)(F)F)cc2)[NH2+]1)c1ccc(-c2c3nc(c(-c4ccc(S(=O)(=O)[O-])cc4)c4ccc([nH]4)c(-c4ccc(S(=O)(=O)[O-])cc4)c4nc(c(-c5ccc(S(=O)(=O)[O-])cc5)c5ccc2[nH]5)C=C4)C=C3)cc1
REMARK SMILES IDX 6 1 5 2 4 3 3 4 2 5 1 6 36 7 37 8 95 9 38 10 94 11 39 12
REMARK SMILES IDX 40 13 41 14 88 15 42 16 93 17 87 18 89 19 43 20 92 21 86 22
REMARK SMILES IDX 85 23 44 25 74 26 55 27 73 28 56 29 59 30 72 31 90 32 57 33
REMARK SMILES IDX 58 34 71 36 91 37 60 38 45 39 46 40 54 41 47 42 53 43 48 44
REMARK SMILES IDX 49 45 50 46 51 47 52 48 75 49 76 50 84 51 77 52 83 53 78 54
REMARK SMILES IDX 79 55 80 56 81 57 82 58 61 59 62 60 70 61 63 62 69 63 64 64
REMARK SMILES IDX 65 65 66 66 67 67 68 68 7 69 8 70 9 71 10 72 11 73 12 74
REMARK SMILES IDX 13 75 35 76 14 77 23 78 15 81 22 82 16 83 17 84 21 85 18 87
REMARK SMILES IDX 20 88 19 89 24 90 25 91 34 92 26 93 33 94 27 95 28 96 29 97
REMARK SMILES IDX 30 98 31 99 32 100
REMARK H PARENT 89 24 59 35 35 79 35 80 16 86
REMARK Flexibility Score: inf
ROOT
ATOM      1  O   UNL A   1      32.166  27.571  24.382  1.00  0.00    -0.374 OA
ENDROOT
BRANCH   1   2
ATOM      2  C   UNL A   1      33.198  28.550  24.548  1.00  0.00     0.202 C 
BRANCH   2   3
ATOM      3  C   UNL A   1      32.962  29.672  25.566  1.00  0.00     0.261 C 
BRANCH   3   4
ATOM      4  O   UNL A   1      33.895  29.569  26.656  1.00  0.00    -0.460 OA
BRANCH   4   5
ATOM      5  C   UNL A   1      34.479  30.576  27.349  1.00  0.00     0.338 C 
ATOM      6  O   UNL A   1      33.992  31.703  27.287  1.00  0.00    -0.246 OA
BRANCH   5   7
ATOM      7  C   UNL A   1      35.691  30.372  28.193  1.00  0.00     0.060 A 
ATOM      8  C   UNL A   1      36.919  30.991  27.963  1.00  0.00     0.016 A 
ATOM      9  C   UNL A   1      35.561  29.559  29.329  1.00  0.00     0.016 A 
ATOM     10  C   UNL A   1      38.022  30.732  28.751  1.00  0.00     0.010 A 
ATOM     11  C   UNL A   1      36.653  29.336  30.172  1.00  0.00     0.010 A 
ATOM     12  C   UNL A   1      37.893  29.902  29.858  1.00  0.00    -0.014 A 
BRANCH  12  13
ATOM     13  C   UNL A   1      39.126  29.577  30.586  1.00  0.00     0.031 A 
ATOM     14  C   UNL A   1      40.026  28.528  30.013  1.00  0.00     0.074 A 
ATOM     15  C   UNL A   1      39.496  30.354  31.619  1.00  0.00     0.049 A 
ATOM     16  N   UNL A   1      41.174  28.099  30.455  1.00  0.00    -0.248 NA
ATOM     17  C   UNL A   1      39.582  27.892  28.760  1.00  0.00     0.031 C 
ATOM     18  C   UNL A   1      38.734  31.503  32.124  1.00  0.00     0.029 A 
ATOM     19  N   UNL A   1      40.623  30.338  32.391  1.00  0.00    -0.354 N 
ATOM     20  C   UNL A   1      41.576  27.120  29.555  1.00  0.00     0.074 A 
ATOM     21  C   UNL A   1      40.554  27.022  28.538  1.00  0.00     0.031 C 
ATOM     22  C   UNL A   1      39.441  32.105  33.093  1.00  0.00     0.029 A 
ATOM     23  C   UNL A   1      40.660  31.342  33.327  1.00  0.00     0.049 A 
ATOM     24  H   UNL A   1      41.339  29.671  32.285  1.00  0.00     0.167 HD
ATOM     25  C   UNL A   1      42.694  26.360  29.596  1.00  0.00     0.031 A 
ATOM     26  C   UNL A   1      41.573  31.592  34.284  1.00  0.00     0.031 A 
ATOM     27  C   UNL A   1      43.671  26.470  30.643  1.00  0.00     0.049 A 
ATOM     28  C   UNL A   1      42.750  30.663  34.377  1.00  0.00     0.074 A 
ATOM     29  C   UNL A   1      44.796  25.702  30.866  1.00  0.00     0.029 A 
ATOM     30  N   UNL A   1      43.625  27.425  31.653  1.00  0.00    -0.354 N 
ATOM     31  N   UNL A   1      43.076  29.669  33.582  1.00  0.00    -0.248 NA
ATOM     32  C   UNL A   1      43.669  30.867  35.502  1.00  0.00     0.031 C 
ATOM     33  C   UNL A   1      45.406  26.164  32.039  1.00  0.00     0.029 A 
ATOM     34  C   UNL A   1      44.691  27.256  32.514  1.00  0.00     0.049 A 
ATOM     35  H   UNL A   1      42.933  28.121  31.741  1.00  0.00     0.167 HD
ATOM     36  C   UNL A   1      44.242  29.130  34.105  1.00  0.00     0.074 A 
ATOM     37  C   UNL A   1      44.575  29.925  35.275  1.00  0.00     0.031 C 
ATOM     38  C   UNL A   1      44.973  28.073  33.669  1.00  0.00     0.031 A 
BRANCH  25  39
ATOM     39  C   UNL A   1      42.824  25.295  28.544  1.00  0.00    -0.014 A 
ATOM     40  C   UNL A   1      42.331  23.992  28.744  1.00  0.00     0.010 A 
ATOM     41  C   UNL A   1      43.532  25.585  27.363  1.00  0.00     0.010 A 
ATOM     42  C   UNL A   1      42.599  22.985  27.810  1.00  0.00     0.020 A 
ATOM     43  C   UNL A   1      43.782  24.587  26.417  1.00  0.00     0.020 A 
ATOM     44  C   UNL A   1      43.337  23.286  26.661  1.00  0.00     0.054 A 
BRANCH  44  45
ATOM     45  S   UNL A   1      43.720  21.954  25.490  1.00  0.00     0.124 S 
ATOM     46  O   UNL A   1      43.404  22.582  24.209  1.00  0.00    -0.237 OA
ATOM     47  O   UNL A   1      45.138  21.706  25.734  1.00  0.00    -0.237 OA
ATOM     48  O   UNL A   1      42.823  20.872  25.891  1.00  0.00    -0.744 OA
ENDBRANCH  44  45
ENDBRANCH  25  39
BRANCH  26  49
ATOM     49  C   UNL A   1      41.365  32.714  35.240  1.00  0.00    -0.014 A 
ATOM     50  C   UNL A   1      40.590  32.546  36.400  1.00  0.00     0.010 A 
ATOM     51  C   UNL A   1      41.983  33.960  35.010  1.00  0.00     0.010 A 
ATOM     52  C   UNL A   1      40.436  33.600  37.308  1.00  0.00     0.020 A 
ATOM     53  C   UNL A   1      41.854  35.006  35.928  1.00  0.00     0.020 A 
ATOM     54  C   UNL A   1      41.072  34.823  37.069  1.00  0.00     0.054 A 
BRANCH  54  55
ATOM     55  S   UNL A   1      40.911  36.156  38.290  1.00  0.00     0.124 S 
ATOM     56  O   UNL A   1      40.856  35.414  39.545  1.00  0.00    -0.237 OA
ATOM     57  O   UNL A   1      42.126  36.937  38.069  1.00  0.00    -0.237 OA
ATOM     58  O   UNL A   1      39.670  36.825  37.903  1.00  0.00    -0.744 OA
ENDBRANCH  54  55
ENDBRANCH  26  49
BRANCH  38  59
ATOM     59  C   UNL A   1      46.209  27.740  34.453  1.00  0.00    -0.014 A 
ATOM     60  C   UNL A   1      46.176  26.784  35.483  1.00  0.00     0.010 A 
ATOM     61  C   UNL A   1      47.428  28.347  34.105  1.00  0.00     0.010 A 
ATOM     62  C   UNL A   1      47.345  26.456  36.168  1.00  0.00     0.020 A 
ATOM     63  C   UNL A   1      48.603  28.003  34.773  1.00  0.00     0.020 A 
ATOM     64  C   UNL A   1      48.551  27.066  35.809  1.00  0.00     0.054 A 
BRANCH  64  65
ATOM     65  S   UNL A   1      50.067  26.582  36.675  1.00  0.00     0.124 S 
ATOM     66  O   UNL A   1      49.787  27.013  38.041  1.00  0.00    -0.237 OA
ATOM     67  O   UNL A   1      50.110  25.137  36.466  1.00  0.00    -0.237 OA
ATOM     68  O   UNL A   1      51.113  27.335  35.985  1.00  0.00    -0.744 OA
ENDBRANCH  64  65
ENDBRANCH  38  59
ENDBRANCH  12  13
ENDBRANCH   5   7
ENDBRANCH   4   5
ENDBRANCH   3   4
ENDBRANCH   2   3
ENDBRANCH   1   2
BRANCH   1  69
ATOM     69  C   UNL A   1      32.063  26.966  23.084  1.00  0.00     0.202 C 
BRANCH  69  70
ATOM     70  C   UNL A   1      33.074  25.825  22.967  1.00  0.00     0.261 C 
BRANCH  70  71
ATOM     71  O   UNL A   1      32.376  24.635  23.354  1.00  0.00    -0.459 OA
BRANCH  71  72
ATOM     72  C   UNL A   1      32.786  23.492  22.744  1.00  0.00     0.365 C 
ATOM     73  O   UNL A   1      33.584  23.438  21.816  1.00  0.00    -0.245 OA
BRANCH  72  74
ATOM     74  C   UNL A   1      32.233  22.258  23.471  1.00  0.00     0.298 C 
ATOM     75  C   UNL A   1      32.958  20.950  23.041  1.00  0.00     0.115 C 
ATOM     76  N   UNL A   1      32.070  22.540  24.929  1.00  0.00    -0.323 N 
ATOM     77  C   UNL A   1      32.939  19.959  24.134  1.00  0.00    -0.006 A 
ATOM     78  C   UNL A   1      32.993  21.847  25.834  1.00  0.00     0.262 C 
ATOM     79  H   UNL A   1      31.121  22.277  25.192  1.00  0.00     0.347 HD
ATOM     80  H   UNL A   1      32.279  23.533  25.038  1.00  0.00     0.347 HD
ATOM     81  C   UNL A   1      32.981  20.402  25.433  1.00  0.00     0.083 A 
ATOM     82  C   UNL A   1      32.912  18.548  24.136  1.00  0.00     0.003 A 
ATOM     83  N   UNL A   1      33.024  19.305  26.247  1.00  0.00    -0.353 N 
ATOM     84  C   UNL A   1      33.021  18.158  25.474  1.00  0.00     0.046 A 
ATOM     85  C   UNL A   1      32.832  17.562  23.135  1.00  0.00     0.010 A 
ATOM     86  H   UNL A   1      33.053  19.329  27.231  1.00  0.00     0.166 HD
ATOM     87  C   UNL A   1      33.104  16.812  25.851  1.00  0.00     0.026 A 
ATOM     88  C   UNL A   1      32.892  16.214  23.501  1.00  0.00     0.001 A 
ATOM     89  C   UNL A   1      33.042  15.849  24.836  1.00  0.00     0.002 A 
BRANCH  78  90
ATOM     90  C   UNL A   1      34.385  22.479  25.898  1.00  0.00     0.016 A 
ATOM     91  C   UNL A   1      34.575  23.870  25.938  1.00  0.00     0.014 A 
ATOM     92  C   UNL A   1      35.534  21.673  25.814  1.00  0.00     0.014 A 
ATOM     93  C   UNL A   1      35.854  24.428  25.858  1.00  0.00     0.047 A 
ATOM     94  C   UNL A   1      36.818  22.234  25.747  1.00  0.00     0.047 A 
ATOM     95  C   UNL A   1      36.981  23.617  25.741  1.00  0.00     0.129 A 
BRANCH  95  96
ATOM     96  O   UNL A   1      38.155  24.302  25.620  1.00  0.00    -0.406 OA
BRANCH  96  97
ATOM     97  C   UNL A   1      39.123  24.134  26.640  1.00  0.00     0.573 C 
ATOM     98  F   UNL A   1      39.539  22.853  26.706  1.00  0.00    -0.132 F 
ATOM     99  F   UNL A   1      40.183  24.950  26.457  1.00  0.00    -0.132 F 
ATOM    100  F   UNL A   1      38.554  24.454  27.825  1.00  0.00    -0.132 F 
ENDBRANCH  96  97
ENDBRANCH  95  96
ENDBRANCH  78  90
ENDBRANCH  72  74
ENDBRANCH  71  72
ENDBRANCH  70  71
ENDBRANCH  69  70
ENDBRANCH   1  69
TORSDOF 20
ENDMDL
