MODEL 1
REMARK VINA RESULT:     -10.2      0.000      0.000
REMARK SMILES COc1ccc(N2CC[C@H](C(=O)OCCOCCOC(=O)c3ccc(-c4c5nc(c(-c6ccc(S(=O)(=O)[O-])cc6)c6ccc([nH]6)c(-c6ccc(S(=O)(=O)[O-])cc6)c6nc(c(-c7ccc(S(=O)(=O)[O-])cc7)c7ccc4[nH]7)C=C6)C=C5)cc3)C2=O)cc1
REMARK SMILES IDX 17 1 16 2 15 3 14 4 13 5 11 6 12 7 10 8 7 9 8 10 82 11 9 12
REMARK SMILES IDX 83 13 6 14 3 15 4 16 85 17 5 18 84 19 2 20 1 21 18 22 19 23
REMARK SMILES IDX 20 24 21 25 22 26 23 27 81 28 24 29 80 30 25 31 26 32 27 33
REMARK SMILES IDX 74 34 28 35 79 36 73 37 75 38 29 39 78 40 72 41 71 42 30 44
REMARK SMILES IDX 60 45 41 46 59 47 42 48 45 49 58 50 76 51 43 52 44 53 57 55
REMARK SMILES IDX 77 56 46 57 31 58 32 59 40 60 33 61 39 62 34 63 35 64 36 65
REMARK SMILES IDX 37 66 38 67 61 68 62 69 70 70 63 71 69 72 64 73 65 74 66 75
REMARK SMILES IDX 67 76 68 77 47 78 48 79 56 80 49 81 55 82 50 83 51 84 52 85
REMARK SMILES IDX 53 86 54 87
REMARK H PARENT 75 43 45 54
REMARK Flexibility Score: inf
ROOT
ATOM      1  C   UNL A   1      31.778  29.876  26.467  1.00  0.00     0.202 C 
ENDROOT
BRANCH   1   2
ATOM      2  O   UNL A   1      32.152  29.459  25.153  1.00  0.00    -0.374 OA
BRANCH   2   3
ATOM      3  C   UNL A   1      31.109  28.963  24.309  1.00  0.00     0.202 C 
BRANCH   3   4
ATOM      4  C   UNL A   1      31.509  28.679  22.861  1.00  0.00     0.261 C 
BRANCH   4   5
ATOM      5  O   UNL A   1      31.984  27.328  22.712  1.00  0.00    -0.463 OA
BRANCH   5   6
ATOM      6  C   UNL A   1      33.310  27.185  22.499  1.00  0.00     0.318 C 
ATOM      7  O   UNL A   1      34.004  27.988  21.879  1.00  0.00    -0.251 OA
BRANCH   6   8
ATOM      8  C   UNL A   1      33.933  25.993  23.162  1.00  0.00     0.190 C 
ATOM      9  N   UNL A   1      33.475  23.816  23.934  1.00  0.00    -0.312 N 
ATOM     10  C   UNL A   1      33.743  24.609  25.109  1.00  0.00     0.127 C 
ATOM     11  C   UNL A   1      33.543  24.591  22.757  1.00  0.00     0.241 C 
ATOM     12  C   UNL A   1      33.575  26.033  24.647  1.00  0.00     0.047 C 
ATOM     13  O   UNL A   1      33.397  24.198  21.610  1.00  0.00    -0.274 OA
BRANCH   9  14
ATOM     14  C   UNL A   1      33.490  22.401  24.011  1.00  0.00     0.044 A 
ATOM     15  C   UNL A   1      33.338  19.609  24.416  1.00  0.00     0.119 A 
ATOM     16  C   UNL A   1      32.367  20.266  23.666  1.00  0.00     0.048 A 
ATOM     17  C   UNL A   1      34.418  20.335  24.913  1.00  0.00     0.048 A 
ATOM     18  C   UNL A   1      32.428  21.652  23.486  1.00  0.00     0.030 A 
ATOM     19  C   UNL A   1      34.504  21.720  24.693  1.00  0.00     0.030 A 
BRANCH  15  20
ATOM     20  O   UNL A   1      33.159  18.261  24.561  1.00  0.00    -0.497 OA
ATOM     21  C   UNL A   1      32.820  17.566  23.365  1.00  0.00     0.278 C 
ENDBRANCH  15  20
ENDBRANCH   9  14
ENDBRANCH   6   8
ENDBRANCH   5   6
ENDBRANCH   4   5
ENDBRANCH   3   4
ENDBRANCH   2   3
ENDBRANCH   1   2
BRANCH   1  22
ATOM     22  C   UNL A   1      32.710  30.872  27.167  1.00  0.00     0.261 C 
BRANCH  22  23
ATOM     23  O   UNL A   1      34.068  30.408  27.208  1.00  0.00    -0.460 OA
BRANCH  23  24
ATOM     24  C   UNL A   1      34.829  30.954  28.185  1.00  0.00     0.338 C 
ATOM     25  O   UNL A   1      34.496  31.831  28.972  1.00  0.00    -0.246 OA
BRANCH  24  26
ATOM     26  C   UNL A   1      36.101  30.215  28.316  1.00  0.00     0.060 A 
ATOM     27  C   UNL A   1      36.410  29.682  29.575  1.00  0.00     0.016 A 
ATOM     28  C   UNL A   1      37.004  30.101  27.257  1.00  0.00     0.016 A 
ATOM     29  C   UNL A   1      37.650  29.087  29.797  1.00  0.00     0.010 A 
ATOM     30  C   UNL A   1      38.253  29.512  27.486  1.00  0.00     0.010 A 
ATOM     31  C   UNL A   1      38.596  29.039  28.766  1.00  0.00    -0.014 A 
BRANCH  31  32
ATOM     32  C   UNL A   1      39.993  28.650  29.072  1.00  0.00     0.031 A 
ATOM     33  C   UNL A   1      40.890  29.648  29.756  1.00  0.00     0.074 A 
ATOM     34  C   UNL A   1      40.452  27.420  28.777  1.00  0.00     0.049 A 
ATOM     35  N   UNL A   1      42.149  29.536  30.091  1.00  0.00    -0.248 NA
ATOM     36  C   UNL A   1      40.283  30.942  30.110  1.00  0.00     0.031 C 
ATOM     37  C   UNL A   1      39.667  26.351  28.160  1.00  0.00     0.029 A 
ATOM     38  N   UNL A   1      41.695  26.868  28.955  1.00  0.00    -0.354 N 
ATOM     39  C   UNL A   1      42.489  30.747  30.684  1.00  0.00     0.074 A 
ATOM     40  C   UNL A   1      41.312  31.586  30.642  1.00  0.00     0.031 C 
ATOM     41  C   UNL A   1      40.453  25.271  28.002  1.00  0.00     0.029 A 
ATOM     42  C   UNL A   1      41.801  25.584  28.475  1.00  0.00     0.049 A 
ATOM     43  H   UNL A   1      42.441  27.346  29.384  1.00  0.00     0.167 HD
ATOM     44  C   UNL A   1      43.675  31.126  31.219  1.00  0.00     0.031 A 
ATOM     45  C   UNL A   1      42.869  24.764  28.406  1.00  0.00     0.031 A 
ATOM     46  C   UNL A   1      44.848  30.295  31.247  1.00  0.00     0.049 A 
ATOM     47  C   UNL A   1      44.197  25.233  28.941  1.00  0.00     0.074 A 
ATOM     48  C   UNL A   1      46.095  30.585  31.773  1.00  0.00     0.029 A 
ATOM     49  N   UNL A   1      44.923  29.014  30.723  1.00  0.00    -0.354 N 
ATOM     50  N   UNL A   1      44.499  26.375  29.514  1.00  0.00    -0.248 NA
ATOM     51  C   UNL A   1      45.327  24.300  28.828  1.00  0.00     0.031 C 
ATOM     52  C   UNL A   1      46.939  29.499  31.520  1.00  0.00     0.029 A 
ATOM     53  C   UNL A   1      46.201  28.508  30.891  1.00  0.00     0.049 A 
ATOM     54  H   UNL A   1      44.178  28.535  30.293  1.00  0.00     0.167 HD
ATOM     55  C   UNL A   1      45.845  26.282  29.856  1.00  0.00     0.074 A 
ATOM     56  C   UNL A   1      46.295  24.973  29.434  1.00  0.00     0.031 C 
ATOM     57  C   UNL A   1      46.634  27.200  30.470  1.00  0.00     0.031 A 
BRANCH  44  58
ATOM     58  C   UNL A   1      43.768  32.518  31.784  1.00  0.00    -0.014 A 
ATOM     59  C   UNL A   1      44.157  33.607  30.982  1.00  0.00     0.010 A 
ATOM     60  C   UNL A   1      43.431  32.746  33.130  1.00  0.00     0.010 A 
ATOM     61  C   UNL A   1      44.244  34.890  31.528  1.00  0.00     0.020 A 
ATOM     62  C   UNL A   1      43.493  34.032  33.673  1.00  0.00     0.020 A 
ATOM     63  C   UNL A   1      43.916  35.094  32.872  1.00  0.00     0.054 A 
BRANCH  63  64
ATOM     64  S   UNL A   1      44.020  36.772  33.550  1.00  0.00     0.124 S 
ATOM     65  O   UNL A   1      44.818  36.561  34.756  1.00  0.00    -0.237 OA
ATOM     66  O   UNL A   1      44.686  37.511  32.480  1.00  0.00    -0.237 OA
ATOM     67  O   UNL A   1      42.626  37.141  33.783  1.00  0.00    -0.744 OA
ENDBRANCH  63  64
ENDBRANCH  44  58
BRANCH  45  68
ATOM     68  C   UNL A   1      42.731  23.417  27.787  1.00  0.00    -0.014 A 
ATOM     69  C   UNL A   1      42.306  22.316  28.549  1.00  0.00     0.010 A 
ATOM     70  C   UNL A   1      43.025  23.232  26.423  1.00  0.00     0.010 A 
ATOM     71  C   UNL A   1      42.191  21.051  27.963  1.00  0.00     0.020 A 
ATOM     72  C   UNL A   1      42.886  21.976  25.827  1.00  0.00     0.020 A 
ATOM     73  C   UNL A   1      42.480  20.890  26.604  1.00  0.00     0.054 A 
BRANCH  73  74
ATOM     74  S   UNL A   1      42.274  19.251  25.853  1.00  0.00     0.124 S 
ATOM     75  O   UNL A   1      43.122  19.350  24.670  1.00  0.00    -0.237 OA
ATOM     76  O   UNL A   1      42.754  18.359  26.904  1.00  0.00    -0.237 OA
ATOM     77  O   UNL A   1      40.838  19.175  25.591  1.00  0.00    -0.744 OA
ENDBRANCH  73  74
ENDBRANCH  45  68
BRANCH  57  78
ATOM     78  C   UNL A   1      48.057  26.809  30.769  1.00  0.00    -0.014 A 
ATOM     79  C   UNL A   1      49.102  27.115  29.882  1.00  0.00     0.010 A 
ATOM     80  C   UNL A   1      48.358  26.183  31.994  1.00  0.00     0.010 A 
ATOM     81  C   UNL A   1      50.422  26.781  30.203  1.00  0.00     0.020 A 
ATOM     82  C   UNL A   1      49.677  25.870  32.329  1.00  0.00     0.020 A 
ATOM     83  C   UNL A   1      50.700  26.161  31.425  1.00  0.00     0.054 A 
BRANCH  83  84
ATOM     84  S   UNL A   1      52.426  25.784  31.841  1.00  0.00     0.124 S 
ATOM     85  O   UNL A   1      52.701  26.753  32.899  1.00  0.00    -0.237 OA
ATOM     86  O   UNL A   1      52.358  24.389  32.268  1.00  0.00    -0.237 OA
ATOM     87  O   UNL A   1      53.143  26.012  30.588  1.00  0.00    -0.744 OA
ENDBRANCH  83  84
ENDBRANCH  57  78
ENDBRANCH  31  32
ENDBRANCH  24  26
ENDBRANCH  23  24
ENDBRANCH  22  23
ENDBRANCH   1  22
TORSDOF 19
ENDMDL
MODEL 2
REMARK VINA RESULT:     -10.0      2.258      2.861
REMARK SMILES COc1ccc(N2CC[C@H](C(=O)OCCOCCOC(=O)c3ccc(-c4c5nc(c(-c6ccc(S(=O)(=O)[O-])cc6)c6ccc([nH]6)c(-c6ccc(S(=O)(=O)[O-])cc6)c6nc(c(-c7ccc(S(=O)(=O)[O-])cc7)c7ccc4[nH]7)C=C6)C=C5)cc3)C2=O)cc1
REMARK SMILES IDX 17 1 16 2 15 3 14 4 13 5 11 6 12 7 10 8 7 9 8 10 82 11 9 12
REMARK SMILES IDX 83 13 6 14 3 15 4 16 85 17 5 18 84 19 2 20 1 21 18 22 19 23
REMARK SMILES IDX 20 24 21 25 22 26 23 27 81 28 24 29 80 30 25 31 26 32 27 33
REMARK SMILES IDX 74 34 28 35 79 36 73 37 75 38 29 39 78 40 72 41 71 42 30 44
REMARK SMILES IDX 60 45 41 46 59 47 42 48 45 49 58 50 76 51 43 52 44 53 57 55
REMARK SMILES IDX 77 56 46 57 31 58 32 59 40 60 33 61 39 62 34 63 35 64 36 65
REMARK SMILES IDX 37 66 38 67 61 68 62 69 70 70 63 71 69 72 64 73 65 74 66 75
REMARK SMILES IDX 67 76 68 77 47 78 48 79 56 80 49 81 55 82 50 83 51 84 52 85
REMARK SMILES IDX 53 86 54 87
REMARK H PARENT 75 43 45 54
REMARK Flexibility Score: inf
ROOT
ATOM      1  C   UNL A   1      31.674  29.905  25.439  1.00  0.00     0.202 C 
ENDROOT
BRANCH   1   2
ATOM      2  O   UNL A   1      32.237  28.643  25.080  1.00  0.00    -0.374 OA
BRANCH   2   3
ATOM      3  C   UNL A   1      32.594  28.458  23.708  1.00  0.00     0.202 C 
BRANCH   3   4
ATOM      4  C   UNL A   1      33.655  27.391  23.438  1.00  0.00     0.261 C 
BRANCH   4   5
ATOM      5  O   UNL A   1      33.761  27.111  22.030  1.00  0.00    -0.463 OA
BRANCH   5   6
ATOM      6  C   UNL A   1      33.180  25.967  21.607  1.00  0.00     0.318 C 
ATOM      7  O   UNL A   1      33.003  25.673  20.427  1.00  0.00    -0.251 OA
BRANCH   6   8
ATOM      8  C   UNL A   1      32.829  24.995  22.694  1.00  0.00     0.190 C 
ATOM      9  N   UNL A   1      32.232  22.753  23.091  1.00  0.00    -0.312 N 
ATOM     10  C   UNL A   1      31.069  23.540  23.420  1.00  0.00     0.127 C 
ATOM     11  C   UNL A   1      33.292  23.559  22.626  1.00  0.00     0.241 C 
ATOM     12  C   UNL A   1      31.307  24.863  22.740  1.00  0.00     0.047 C 
ATOM     13  O   UNL A   1      34.409  23.188  22.304  1.00  0.00    -0.274 OA
BRANCH   9  14
ATOM     14  C   UNL A   1      32.327  21.407  23.527  1.00  0.00     0.044 A 
ATOM     15  C   UNL A   1      32.822  18.746  24.338  1.00  0.00     0.119 A 
ATOM     16  C   UNL A   1      32.949  19.794  25.245  1.00  0.00     0.048 A 
ATOM     17  C   UNL A   1      32.388  19.019  23.042  1.00  0.00     0.048 A 
ATOM     18  C   UNL A   1      32.729  21.114  24.838  1.00  0.00     0.030 A 
ATOM     19  C   UNL A   1      32.122  20.340  22.646  1.00  0.00     0.030 A 
BRANCH  15  20
ATOM     20  O   UNL A   1      33.099  17.502  24.832  1.00  0.00    -0.497 OA
ATOM     21  C   UNL A   1      33.536  16.553  23.864  1.00  0.00     0.278 C 
ENDBRANCH  15  20
ENDBRANCH   9  14
ENDBRANCH   6   8
ENDBRANCH   5   6
ENDBRANCH   4   5
ENDBRANCH   3   4
ENDBRANCH   2   3
ENDBRANCH   1   2
BRANCH   1  22
ATOM     22  C   UNL A   1      32.274  30.607  26.663  1.00  0.00     0.261 C 
BRANCH  22  23
ATOM     23  O   UNL A   1      33.601  30.143  26.958  1.00  0.00    -0.460 OA
BRANCH  23  24
ATOM     24  C   UNL A   1      34.355  30.996  27.689  1.00  0.00     0.338 C 
ATOM     25  O   UNL A   1      34.022  32.099  28.105  1.00  0.00    -0.246 OA
BRANCH  24  26
ATOM     26  C   UNL A   1      35.615  30.344  28.098  1.00  0.00     0.060 A 
ATOM     27  C   UNL A   1      35.641  29.721  29.355  1.00  0.00     0.016 A 
ATOM     28  C   UNL A   1      36.766  30.393  27.309  1.00  0.00     0.016 A 
ATOM     29  C   UNL A   1      36.833  29.201  29.853  1.00  0.00     0.010 A 
ATOM     30  C   UNL A   1      37.964  29.878  27.816  1.00  0.00     0.010 A 
ATOM     31  C   UNL A   1      38.011  29.317  29.105  1.00  0.00    -0.014 A 
BRANCH  31  32
ATOM     32  C   UNL A   1      39.314  29.005  29.740  1.00  0.00     0.031 A 
ATOM     33  C   UNL A   1      39.761  29.826  30.920  1.00  0.00     0.074 A 
ATOM     34  C   UNL A   1      40.076  27.988  29.296  1.00  0.00     0.049 A 
ATOM     35  N   UNL A   1      40.869  29.751  31.609  1.00  0.00    -0.248 NA
ATOM     36  C   UNL A   1      38.830  30.868  31.385  1.00  0.00     0.031 C 
ATOM     37  C   UNL A   1      39.731  27.090  28.195  1.00  0.00     0.029 A 
ATOM     38  N   UNL A   1      41.304  27.546  29.721  1.00  0.00    -0.354 N 
ATOM     39  C   UNL A   1      40.776  30.741  32.581  1.00  0.00     0.074 A 
ATOM     40  C   UNL A   1      39.514  31.418  32.378  1.00  0.00     0.031 C 
ATOM     41  C   UNL A   1      40.731  26.207  28.024  1.00  0.00     0.029 A 
ATOM     42  C   UNL A   1      41.798  26.499  28.980  1.00  0.00     0.049 A 
ATOM     43  H   UNL A   1      41.785  27.942  30.483  1.00  0.00     0.167 HD
ATOM     44  C   UNL A   1      41.660  31.058  33.557  1.00  0.00     0.031 A 
ATOM     45  C   UNL A   1      42.985  25.863  29.052  1.00  0.00     0.031 A 
ATOM     46  C   UNL A   1      42.921  30.393  33.749  1.00  0.00     0.049 A 
ATOM     47  C   UNL A   1      43.985  26.280  30.099  1.00  0.00     0.074 A 
ATOM     48  C   UNL A   1      43.884  30.635  34.713  1.00  0.00     0.029 A 
ATOM     49  N   UNL A   1      43.398  29.359  32.957  1.00  0.00    -0.354 N 
ATOM     50  N   UNL A   1      43.876  27.208  31.021  1.00  0.00    -0.248 NA
ATOM     51  C   UNL A   1      45.265  25.558  30.121  1.00  0.00     0.031 C 
ATOM     52  C   UNL A   1      44.966  29.782  34.473  1.00  0.00     0.029 A 
ATOM     53  C   UNL A   1      44.651  28.968  33.397  1.00  0.00     0.049 A 
ATOM     54  H   UNL A   1      42.917  28.963  32.195  1.00  0.00     0.167 HD
ATOM     55  C   UNL A   1      45.060  27.158  31.750  1.00  0.00     0.074 A 
ATOM     56  C   UNL A   1      45.866  26.107  31.169  1.00  0.00     0.031 C 
ATOM     57  C   UNL A   1      45.440  27.914  32.811  1.00  0.00     0.031 A 
BRANCH  44  58
ATOM     58  C   UNL A   1      41.307  32.201  34.470  1.00  0.00    -0.014 A 
ATOM     59  C   UNL A   1      40.663  31.981  35.701  1.00  0.00     0.010 A 
ATOM     60  C   UNL A   1      41.651  33.515  34.103  1.00  0.00     0.010 A 
ATOM     61  C   UNL A   1      40.336  33.057  36.530  1.00  0.00     0.020 A 
ATOM     62  C   UNL A   1      41.349  34.591  34.942  1.00  0.00     0.020 A 
ATOM     63  C   UNL A   1      40.677  34.356  36.143  1.00  0.00     0.054 A 
BRANCH  63  64
ATOM     64  S   UNL A   1      40.258  35.733  37.246  1.00  0.00     0.124 S 
ATOM     65  O   UNL A   1      39.244  35.131  38.109  1.00  0.00    -0.237 OA
ATOM     66  O   UNL A   1      41.534  36.029  37.891  1.00  0.00    -0.237 OA
ATOM     67  O   UNL A   1      39.767  36.768  36.339  1.00  0.00    -0.744 OA
ENDBRANCH  63  64
ENDBRANCH  44  58
BRANCH  45  68
ATOM     68  C   UNL A   1      43.303  24.775  28.087  1.00  0.00    -0.014 A 
ATOM     69  C   UNL A   1      42.913  23.450  28.345  1.00  0.00     0.010 A 
ATOM     70  C   UNL A   1      43.999  25.064  26.898  1.00  0.00     0.010 A 
ATOM     71  C   UNL A   1      43.227  22.431  27.440  1.00  0.00     0.020 A 
ATOM     72  C   UNL A   1      44.291  24.053  25.979  1.00  0.00     0.020 A 
ATOM     73  C   UNL A   1      43.912  22.740  26.261  1.00  0.00     0.054 A 
BRANCH  73  74
ATOM     74  S   UNL A   1      44.262  21.410  25.077  1.00  0.00     0.124 S 
ATOM     75  O   UNL A   1      44.162  22.107  23.799  1.00  0.00    -0.237 OA
ATOM     76  O   UNL A   1      45.605  20.987  25.464  1.00  0.00    -0.237 OA
ATOM     77  O   UNL A   1      43.209  20.432  25.342  1.00  0.00    -0.744 OA
ENDBRANCH  73  74
ENDBRANCH  45  68
BRANCH  57  78
ATOM     78  C   UNL A   1      46.770  27.605  33.447  1.00  0.00    -0.014 A 
ATOM     79  C   UNL A   1      47.945  28.263  33.045  1.00  0.00     0.010 A 
ATOM     80  C   UNL A   1      46.829  26.687  34.512  1.00  0.00     0.010 A 
ATOM     81  C   UNL A   1      49.160  27.991  33.682  1.00  0.00     0.020 A 
ATOM     82  C   UNL A   1      48.035  26.431  35.168  1.00  0.00     0.020 A 
ATOM     83  C   UNL A   1      49.197  27.076  34.739  1.00  0.00     0.054 A 
BRANCH  83  84
ATOM     84  S   UNL A   1      50.775  26.779  35.584  1.00  0.00     0.124 S 
ATOM     85  O   UNL A   1      50.504  25.538  36.305  1.00  0.00    -0.237 OA
ATOM     86  O   UNL A   1      51.719  26.670  34.475  1.00  0.00    -0.237 OA
ATOM     87  O   UNL A   1      50.946  27.962  36.426  1.00  0.00    -0.744 OA
ENDBRANCH  83  84
ENDBRANCH  57  78
ENDBRANCH  31  32
ENDBRANCH  24  26
ENDBRANCH  23  24
ENDBRANCH  22  23
ENDBRANCH   1  22
TORSDOF 19
ENDMDL
MODEL 3
REMARK VINA RESULT:      -9.8      0.886      8.303
REMARK SMILES COc1ccc(N2CC[C@H](C(=O)OCCOCCOC(=O)c3ccc(-c4c5nc(c(-c6ccc(S(=O)(=O)[O-])cc6)c6ccc([nH]6)c(-c6ccc(S(=O)(=O)[O-])cc6)c6nc(c(-c7ccc(S(=O)(=O)[O-])cc7)c7ccc4[nH]7)C=C6)C=C5)cc3)C2=O)cc1
REMARK SMILES IDX 17 1 16 2 15 3 14 4 13 5 11 6 12 7 10 8 7 9 8 10 82 11 9 12
REMARK SMILES IDX 83 13 6 14 3 15 4 16 85 17 5 18 84 19 2 20 1 21 18 22 19 23
REMARK SMILES IDX 20 24 21 25 22 26 23 27 81 28 24 29 80 30 25 31 26 32 27 33
REMARK SMILES IDX 74 34 28 35 79 36 73 37 75 38 29 39 78 40 72 41 71 42 30 44
REMARK SMILES IDX 60 45 41 46 59 47 42 48 45 49 58 50 76 51 43 52 44 53 57 55
REMARK SMILES IDX 77 56 46 57 31 58 32 59 40 60 33 61 39 62 34 63 35 64 36 65
REMARK SMILES IDX 37 66 38 67 61 68 62 69 70 70 63 71 69 72 64 73 65 74 66 75
REMARK SMILES IDX 67 76 68 77 47 78 48 79 56 80 49 81 55 82 50 83 51 84 52 85
REMARK SMILES IDX 53 86 54 87
REMARK H PARENT 75 43 45 54
REMARK Flexibility Score: inf
ROOT
ATOM      1  C   UNL A   1      32.424  29.914  25.405  1.00  0.00     0.202 C 
ENDROOT
BRANCH   1   2
ATOM      2  O   UNL A   1      32.000  28.650  24.892  1.00  0.00    -0.374 OA
BRANCH   2   3
ATOM      3  C   UNL A   1      32.324  28.363  23.530  1.00  0.00     0.202 C 
BRANCH   3   4
ATOM      4  C   UNL A   1      33.668  27.671  23.301  1.00  0.00     0.261 C 
BRANCH   4   5
ATOM      5  O   UNL A   1      33.807  27.250  21.932  1.00  0.00    -0.463 OA
BRANCH   5   6
ATOM      6  C   UNL A   1      33.208  26.085  21.605  1.00  0.00     0.318 C 
ATOM      7  O   UNL A   1      33.000  25.710  20.453  1.00  0.00    -0.251 OA
BRANCH   6   8
ATOM      8  C   UNL A   1      32.876  25.196  22.766  1.00  0.00     0.190 C 
ATOM      9  N   UNL A   1      32.508  22.950  23.371  1.00  0.00    -0.312 N 
ATOM     10  C   UNL A   1      31.238  23.617  23.518  1.00  0.00     0.127 C 
ATOM     11  C   UNL A   1      33.505  23.829  22.899  1.00  0.00     0.241 C 
ATOM     12  C   UNL A   1      31.381  24.881  22.711  1.00  0.00     0.047 C 
ATOM     13  O   UNL A   1      34.682  23.569  22.707  1.00  0.00    -0.274 OA
BRANCH   9  14
ATOM     14  C   UNL A   1      32.719  21.680  23.964  1.00  0.00     0.044 A 
ATOM     15  C   UNL A   1      32.837  19.153  25.221  1.00  0.00     0.119 A 
ATOM     16  C   UNL A   1      32.480  19.256  23.880  1.00  0.00     0.048 A 
ATOM     17  C   UNL A   1      33.195  20.304  25.919  1.00  0.00     0.048 A 
ATOM     18  C   UNL A   1      32.397  20.509  23.263  1.00  0.00     0.030 A 
ATOM     19  C   UNL A   1      33.157  21.558  25.287  1.00  0.00     0.030 A 
BRANCH  15  20
ATOM     20  O   UNL A   1      32.848  17.885  25.732  1.00  0.00    -0.497 OA
ATOM     21  C   UNL A   1      32.836  16.844  24.760  1.00  0.00     0.278 C 
ENDBRANCH  15  20
ENDBRANCH   9  14
ENDBRANCH   6   8
ENDBRANCH   5   6
ENDBRANCH   4   5
ENDBRANCH   3   4
ENDBRANCH   2   3
ENDBRANCH   1   2
BRANCH   1  22
ATOM     22  C   UNL A   1      32.376  30.094  26.927  1.00  0.00     0.261 C 
BRANCH  22  23
ATOM     23  O   UNL A   1      33.561  29.598  27.569  1.00  0.00    -0.460 OA
BRANCH  23  24
ATOM     24  C   UNL A   1      34.409  30.553  28.018  1.00  0.00     0.338 C 
ATOM     25  O   UNL A   1      34.114  31.682  28.388  1.00  0.00    -0.246 OA
BRANCH  24  26
ATOM     26  C   UNL A   1      35.765  29.994  28.187  1.00  0.00     0.060 A 
ATOM     27  C   UNL A   1      36.138  29.583  29.475  1.00  0.00     0.016 A 
ATOM     28  C   UNL A   1      36.678  29.932  27.132  1.00  0.00     0.016 A 
ATOM     29  C   UNL A   1      37.444  29.168  29.726  1.00  0.00     0.010 A 
ATOM     30  C   UNL A   1      37.992  29.524  27.389  1.00  0.00     0.010 A 
ATOM     31  C   UNL A   1      38.390  29.179  28.694  1.00  0.00    -0.014 A 
BRANCH  31  32
ATOM     32  C   UNL A   1      39.825  28.993  29.016  1.00  0.00     0.031 A 
ATOM     33  C   UNL A   1      40.476  27.676  28.689  1.00  0.00     0.074 A 
ATOM     34  C   UNL A   1      40.549  29.988  29.560  1.00  0.00     0.049 A 
ATOM     35  N   UNL A   1      41.704  27.282  28.908  1.00  0.00    -0.248 NA
ATOM     36  C   UNL A   1      39.628  26.671  28.026  1.00  0.00     0.031 C 
ATOM     37  C   UNL A   1      40.046  31.324  29.878  1.00  0.00     0.029 A 
ATOM     38  N   UNL A   1      41.865  30.022  29.947  1.00  0.00    -0.354 N 
ATOM     39  C   UNL A   1      41.774  25.981  28.420  1.00  0.00     0.074 A 
ATOM     40  C   UNL A   1      40.461  25.645  27.916  1.00  0.00     0.031 C 
ATOM     41  C   UNL A   1      41.042  32.047  30.420  1.00  0.00     0.029 A 
ATOM     42  C   UNL A   1      42.240  31.214  30.519  1.00  0.00     0.049 A 
ATOM     43  H   UNL A   1      42.482  29.264  29.828  1.00  0.00     0.167 HD
ATOM     44  C   UNL A   1      42.837  25.142  28.392  1.00  0.00     0.031 A 
ATOM     45  C   UNL A   1      43.410  31.584  31.078  1.00  0.00     0.031 A 
ATOM     46  C   UNL A   1      44.139  25.473  28.906  1.00  0.00     0.049 A 
ATOM     47  C   UNL A   1      44.559  30.609  31.101  1.00  0.00     0.074 A 
ATOM     48  C   UNL A   1      45.283  24.695  28.918  1.00  0.00     0.029 A 
ATOM     49  N   UNL A   1      44.469  26.679  29.506  1.00  0.00    -0.354 N 
ATOM     50  N   UNL A   1      44.615  29.388  30.622  1.00  0.00    -0.248 NA
ATOM     51  C   UNL A   1      45.805  31.064  31.734  1.00  0.00     0.031 C 
ATOM     52  C   UNL A   1      46.292  25.410  29.572  1.00  0.00     0.029 A 
ATOM     53  C   UNL A   1      45.792  26.658  29.912  1.00  0.00     0.049 A 
ATOM     54  H   UNL A   1      43.853  27.437  29.626  1.00  0.00     0.167 HD
ATOM     55  C   UNL A   1      45.910  28.944  30.868  1.00  0.00     0.074 A 
ATOM     56  C   UNL A   1      46.606  30.026  31.530  1.00  0.00     0.031 C 
ATOM     57  C   UNL A   1      46.473  27.746  30.566  1.00  0.00     0.031 A 
BRANCH  44  58
ATOM     58  C   UNL A   1      42.622  23.768  27.816  1.00  0.00    -0.014 A 
ATOM     59  C   UNL A   1      42.661  23.545  26.427  1.00  0.00     0.010 A 
ATOM     60  C   UNL A   1      42.407  22.679  28.679  1.00  0.00     0.010 A 
ATOM     61  C   UNL A   1      42.451  22.263  25.912  1.00  0.00     0.020 A 
ATOM     62  C   UNL A   1      42.222  21.391  28.169  1.00  0.00     0.020 A 
ATOM     63  C   UNL A   1      42.228  21.194  26.787  1.00  0.00     0.054 A 
BRANCH  63  64
ATOM     64  S   UNL A   1      41.976  19.538  26.093  1.00  0.00     0.124 S 
ATOM     65  O   UNL A   1      42.315  18.681  27.227  1.00  0.00    -0.237 OA
ATOM     66  O   UNL A   1      40.563  19.556  25.721  1.00  0.00    -0.237 OA
ATOM     67  O   UNL A   1      42.911  19.485  24.972  1.00  0.00    -0.744 OA
ENDBRANCH  63  64
ENDBRANCH  44  58
BRANCH  45  68
ATOM     68  C   UNL A   1      43.549  32.937  31.682  1.00  0.00    -0.014 A 
ATOM     69  C   UNL A   1      44.009  34.022  30.916  1.00  0.00     0.010 A 
ATOM     70  C   UNL A   1      43.217  33.147  33.034  1.00  0.00     0.010 A 
ATOM     71  C   UNL A   1      44.149  35.288  31.494  1.00  0.00     0.020 A 
ATOM     72  C   UNL A   1      43.331  34.415  33.608  1.00  0.00     0.020 A 
ATOM     73  C   UNL A   1      43.807  35.477  32.837  1.00  0.00     0.054 A 
BRANCH  73  74
ATOM     74  S   UNL A   1      43.946  37.139  33.551  1.00  0.00     0.124 S 
ATOM     75  O   UNL A   1      45.146  37.017  34.373  1.00  0.00    -0.237 OA
ATOM     76  O   UNL A   1      44.073  37.983  32.366  1.00  0.00    -0.237 OA
ATOM     77  O   UNL A   1      42.694  37.299  34.288  1.00  0.00    -0.744 OA
ENDBRANCH  73  74
ENDBRANCH  45  68
BRANCH  57  78
ATOM     78  C   UNL A   1      47.928  27.553  30.905  1.00  0.00    -0.014 A 
ATOM     79  C   UNL A   1      48.944  27.928  30.011  1.00  0.00     0.010 A 
ATOM     80  C   UNL A   1      48.280  27.051  32.173  1.00  0.00     0.010 A 
ATOM     81  C   UNL A   1      50.289  27.781  30.368  1.00  0.00     0.020 A 
ATOM     82  C   UNL A   1      49.621  26.926  32.542  1.00  0.00     0.020 A 
ATOM     83  C   UNL A   1      50.618  27.281  31.631  1.00  0.00     0.054 A 
BRANCH  83  84
ATOM     84  S   UNL A   1      52.368  27.148  32.091  1.00  0.00     0.124 S 
ATOM     85  O   UNL A   1      52.879  26.229  31.077  1.00  0.00    -0.237 OA
ATOM     86  O   UNL A   1      52.836  28.527  31.983  1.00  0.00    -0.237 OA
ATOM     87  O   UNL A   1      52.330  26.615  33.451  1.00  0.00    -0.744 OA
ENDBRANCH  83  84
ENDBRANCH  57  78
ENDBRANCH  31  32
ENDBRANCH  24  26
ENDBRANCH  23  24
ENDBRANCH  22  23
ENDBRANCH   1  22
TORSDOF 19
ENDMDL
