MODEL 1
REMARK VINA RESULT:     -11.1      0.000      0.000
REMARK SMILES O=C(OCCOCCOC(=O)[C@@H]1[C@@H](C(=O)Nc2cccc(C(F)(F)F)c2)[C@@H]2C=C[C@H]1O2)c1ccc(-c2c3nc(c(-c4ccc(S(=O)(=O)[O-])cc4)c4ccc([nH]4)c(-c4ccc(S(=O)(=O)[O-])cc4)c4nc(c(-c5ccc(S(=O)(=O)[O-])cc5)c5ccc2[nH]5)C=C4)C=C3)cc1
REMARK SMILES IDX 6 1 5 2 4 3 3 4 2 5 1 6 32 7 33 8 91 9 34 10 90 11 35 12
REMARK SMILES IDX 36 13 37 14 84 15 38 16 89 17 83 18 85 19 39 20 88 21 82 22
REMARK SMILES IDX 81 23 40 25 70 26 51 27 69 28 52 29 55 30 68 31 86 32 53 33
REMARK SMILES IDX 54 34 67 36 87 37 56 38 41 39 42 40 50 41 43 42 49 43 44 44
REMARK SMILES IDX 45 45 46 46 47 47 48 48 71 49 72 50 80 51 73 52 79 53 74 54
REMARK SMILES IDX 75 55 76 56 77 57 78 58 57 59 58 60 66 61 59 62 65 63 60 64
REMARK SMILES IDX 61 65 62 66 63 67 64 68 7 69 8 70 9 71 10 72 11 73 12 74
REMARK SMILES IDX 13 75 30 76 27 77 29 78 31 79 28 80 14 81 15 82 16 83 17 85
REMARK SMILES IDX 18 86 26 87 19 88 21 89 20 90 22 91 23 92 24 93 25 94
REMARK H PARENT 85 24 55 35 16 84
REMARK Flexibility Score: inf
ROOT
ATOM      1  O   UNL A   1      37.045  22.412  25.694  1.00  0.00    -0.374 OA
ENDROOT
BRANCH   1   2
ATOM      2  C   UNL A   1      38.437  22.125  25.706  1.00  0.00     0.202 C 
BRANCH   2   3
ATOM      3  C   UNL A   1      39.368  22.978  26.575  1.00  0.00     0.261 C 
BRANCH   3   4
ATOM      4  O   UNL A   1      39.132  24.386  26.389  1.00  0.00    -0.460 OA
BRANCH   4   5
ATOM      5  C   UNL A   1      40.065  25.375  26.424  1.00  0.00     0.338 C 
ATOM      6  O   UNL A   1      40.786  25.566  25.449  1.00  0.00    -0.246 OA
BRANCH   5   7
ATOM      7  C   UNL A   1      40.257  26.218  27.637  1.00  0.00     0.060 A 
ATOM      8  C   UNL A   1      39.450  26.090  28.758  1.00  0.00     0.016 A 
ATOM      9  C   UNL A   1      41.305  27.139  27.696  1.00  0.00     0.016 A 
ATOM     10  C   UNL A   1      39.556  26.886  29.859  1.00  0.00     0.010 A 
ATOM     11  C   UNL A   1      41.466  27.941  28.836  1.00  0.00     0.010 A 
ATOM     12  C   UNL A   1      40.564  27.823  29.903  1.00  0.00    -0.014 A 
BRANCH  12  13
ATOM     13  C   UNL A   1      40.418  28.782  30.997  1.00  0.00     0.031 A 
ATOM     14  C   UNL A   1      41.494  28.780  32.035  1.00  0.00     0.074 A 
ATOM     15  C   UNL A   1      39.541  29.795  30.859  1.00  0.00     0.049 A 
ATOM     16  N   UNL A   1      41.605  29.509  33.105  1.00  0.00    -0.248 NA
ATOM     17  C   UNL A   1      42.618  27.843  31.823  1.00  0.00     0.031 C 
ATOM     18  C   UNL A   1      38.657  30.002  29.701  1.00  0.00     0.029 A 
ATOM     19  N   UNL A   1      39.301  30.878  31.651  1.00  0.00    -0.354 N 
ATOM     20  C   UNL A   1      42.763  29.068  33.733  1.00  0.00     0.074 A 
ATOM     21  C   UNL A   1      43.342  28.033  32.914  1.00  0.00     0.031 C 
ATOM     22  C   UNL A   1      37.989  31.155  29.856  1.00  0.00     0.029 A 
ATOM     23  C   UNL A   1      38.322  31.708  31.160  1.00  0.00     0.049 A 
ATOM     24  H   UNL A   1      39.781  31.048  32.493  1.00  0.00     0.167 HD
ATOM     25  C   UNL A   1      43.262  29.484  34.916  1.00  0.00     0.031 A 
ATOM     26  C   UNL A   1      37.732  32.766  31.744  1.00  0.00     0.031 A 
ATOM     27  C   UNL A   1      42.629  30.520  35.682  1.00  0.00     0.049 A 
ATOM     28  C   UNL A   1      38.211  33.117  33.126  1.00  0.00     0.074 A 
ATOM     29  C   UNL A   1      42.937  30.979  36.946  1.00  0.00     0.029 A 
ATOM     30  N   UNL A   1      41.542  31.262  35.230  1.00  0.00    -0.354 N 
ATOM     31  N   UNL A   1      39.208  32.596  33.806  1.00  0.00    -0.248 NA
ATOM     32  C   UNL A   1      37.482  34.175  33.828  1.00  0.00     0.031 C 
ATOM     33  C   UNL A   1      41.997  31.959  37.281  1.00  0.00     0.029 A 
ATOM     34  C   UNL A   1      41.150  32.164  36.197  1.00  0.00     0.049 A 
ATOM     35  H   UNL A   1      41.115  31.158  34.350  1.00  0.00     0.167 HD
ATOM     36  C   UNL A   1      39.246  33.281  35.011  1.00  0.00     0.074 A 
ATOM     37  C   UNL A   1      38.178  34.265  34.954  1.00  0.00     0.031 C 
ATOM     38  C   UNL A   1      40.078  33.122  36.071  1.00  0.00     0.031 A 
BRANCH  25  39
ATOM     39  C   UNL A   1      44.425  28.714  35.473  1.00  0.00    -0.014 A 
ATOM     40  C   UNL A   1      45.759  29.069  35.205  1.00  0.00     0.010 A 
ATOM     41  C   UNL A   1      44.164  27.556  36.227  1.00  0.00     0.010 A 
ATOM     42  C   UNL A   1      46.808  28.254  35.644  1.00  0.00     0.020 A 
ATOM     43  C   UNL A   1      45.209  26.754  36.691  1.00  0.00     0.020 A 
ATOM     44  C   UNL A   1      46.525  27.098  36.380  1.00  0.00     0.054 A 
BRANCH  44  45
ATOM     45  S   UNL A   1      47.901  26.056  36.938  1.00  0.00     0.124 S 
ATOM     46  O   UNL A   1      47.998  25.080  35.855  1.00  0.00    -0.237 OA
ATOM     47  O   UNL A   1      49.005  27.006  37.027  1.00  0.00    -0.237 OA
ATOM     48  O   UNL A   1      47.437  25.522  38.216  1.00  0.00    -0.744 OA
ENDBRANCH  44  45
ENDBRANCH  25  39
BRANCH  26  49
ATOM     49  C   UNL A   1      36.598  33.473  31.086  1.00  0.00    -0.014 A 
ATOM     50  C   UNL A   1      35.367  33.643  31.742  1.00  0.00     0.010 A 
ATOM     51  C   UNL A   1      36.739  33.977  29.777  1.00  0.00     0.010 A 
ATOM     52  C   UNL A   1      34.297  34.275  31.095  1.00  0.00     0.020 A 
ATOM     53  C   UNL A   1      35.686  34.637  29.139  1.00  0.00     0.020 A 
ATOM     54  C   UNL A   1      34.464  34.767  29.796  1.00  0.00     0.054 A 
BRANCH  54  55
ATOM     55  S   UNL A   1      33.067  35.594  28.983  1.00  0.00     0.124 S 
ATOM     56  O   UNL A   1      32.306  36.095  30.123  1.00  0.00    -0.237 OA
ATOM     57  O   UNL A   1      33.731  36.608  28.169  1.00  0.00    -0.237 OA
ATOM     58  O   UNL A   1      32.426  34.520  28.227  1.00  0.00    -0.744 OA
ENDBRANCH  54  55
ENDBRANCH  26  49
BRANCH  38  59
ATOM     59  C   UNL A   1      39.897  34.078  37.211  1.00  0.00    -0.014 A 
ATOM     60  C   UNL A   1      40.560  35.315  37.242  1.00  0.00     0.010 A 
ATOM     61  C   UNL A   1      38.994  33.744  38.236  1.00  0.00     0.010 A 
ATOM     62  C   UNL A   1      40.351  36.190  38.307  1.00  0.00     0.020 A 
ATOM     63  C   UNL A   1      38.755  34.631  39.282  1.00  0.00     0.020 A 
ATOM     64  C   UNL A   1      39.449  35.841  39.319  1.00  0.00     0.054 A 
BRANCH  64  65
ATOM     65  S   UNL A   1      39.162  37.013  40.669  1.00  0.00     0.124 S 
ATOM     66  O   UNL A   1      38.243  37.965  40.052  1.00  0.00    -0.237 OA
ATOM     67  O   UNL A   1      38.586  36.166  41.710  1.00  0.00    -0.237 OA
ATOM     68  O   UNL A   1      40.495  37.533  40.965  1.00  0.00    -0.744 OA
ENDBRANCH  64  65
ENDBRANCH  38  59
ENDBRANCH  12  13
ENDBRANCH   5   7
ENDBRANCH   4   5
ENDBRANCH   3   4
ENDBRANCH   2   3
ENDBRANCH   1   2
BRANCH   1  69
ATOM     69  C   UNL A   1      36.413  22.528  24.421  1.00  0.00     0.202 C 
BRANCH  69  70
ATOM     70  C   UNL A   1      34.991  22.055  24.605  1.00  0.00     0.261 C 
BRANCH  70  71
ATOM     71  O   UNL A   1      34.197  22.956  23.819  1.00  0.00    -0.463 OA
BRANCH  71  72
ATOM     72  C   UNL A   1      33.034  22.507  23.291  1.00  0.00     0.312 C 
ATOM     73  O   UNL A   1      32.750  21.331  23.104  1.00  0.00    -0.252 OA
BRANCH  72  74
ATOM     74  C   UNL A   1      32.174  23.675  22.878  1.00  0.00     0.147 C 
ATOM     75  C   UNL A   1      32.673  25.072  23.338  1.00  0.00     0.129 C 
ATOM     76  C   UNL A   1      30.794  23.584  23.543  1.00  0.00     0.157 C 
ATOM     77  C   UNL A   1      31.412  25.592  24.092  1.00  0.00     0.155 C 
ATOM     78  C   UNL A   1      30.844  23.610  25.043  1.00  0.00     0.004 C 
ATOM     79  O   UNL A   1      30.358  24.952  23.316  1.00  0.00    -0.365 OA
ATOM     80  C   UNL A   1      31.204  24.853  25.382  1.00  0.00     0.004 C 
BRANCH  75  81
ATOM     81  C   UNL A   1      33.095  26.096  22.279  1.00  0.00     0.231 C 
ATOM     82  O   UNL A   1      33.535  25.732  21.183  1.00  0.00    -0.274 OA
ATOM     83  N   UNL A   1      32.739  27.419  22.361  1.00  0.00    -0.326 N 
ATOM     84  H   UNL A   1      32.674  27.859  21.483  1.00  0.00     0.169 HD
BRANCH  83  85
ATOM     85  C   UNL A   1      32.448  28.275  23.429  1.00  0.00     0.041 A 
ATOM     86  C   UNL A   1      31.231  28.963  23.414  1.00  0.00     0.026 A 
ATOM     87  C   UNL A   1      33.351  28.525  24.459  1.00  0.00     0.039 A 
ATOM     88  C   UNL A   1      30.873  29.794  24.480  1.00  0.00     0.003 A 
ATOM     89  C   UNL A   1      32.975  29.296  25.576  1.00  0.00     0.058 A 
ATOM     90  C   UNL A   1      31.734  29.947  25.566  1.00  0.00     0.013 A 
BRANCH  89  91
ATOM     91  C   UNL A   1      33.823  29.299  26.829  1.00  0.00     0.416 C 
ATOM     92  F   UNL A   1      35.156  29.328  26.564  1.00  0.00    -0.166 F 
ATOM     93  F   UNL A   1      33.568  30.385  27.610  1.00  0.00    -0.166 F 
ATOM     94  F   UNL A   1      33.613  28.211  27.620  1.00  0.00    -0.166 F 
ENDBRANCH  89  91
ENDBRANCH  83  85
ENDBRANCH  75  81
ENDBRANCH  72  74
ENDBRANCH  71  72
ENDBRANCH  70  71
ENDBRANCH  69  70
ENDBRANCH   1  69
TORSDOF 20
ENDMDL
MODEL 2
REMARK VINA RESULT:     -11.1      1.841      8.356
REMARK SMILES O=C(OCCOCCOC(=O)[C@@H]1[C@@H](C(=O)Nc2cccc(C(F)(F)F)c2)[C@@H]2C=C[C@H]1O2)c1ccc(-c2c3nc(c(-c4ccc(S(=O)(=O)[O-])cc4)c4ccc([nH]4)c(-c4ccc(S(=O)(=O)[O-])cc4)c4nc(c(-c5ccc(S(=O)(=O)[O-])cc5)c5ccc2[nH]5)C=C4)C=C3)cc1
REMARK SMILES IDX 6 1 5 2 4 3 3 4 2 5 1 6 32 7 33 8 91 9 34 10 90 11 35 12
REMARK SMILES IDX 36 13 37 14 84 15 38 16 89 17 83 18 85 19 39 20 88 21 82 22
REMARK SMILES IDX 81 23 40 25 70 26 51 27 69 28 52 29 55 30 68 31 86 32 53 33
REMARK SMILES IDX 54 34 67 36 87 37 56 38 41 39 42 40 50 41 43 42 49 43 44 44
REMARK SMILES IDX 45 45 46 46 47 47 48 48 71 49 72 50 80 51 73 52 79 53 74 54
REMARK SMILES IDX 75 55 76 56 77 57 78 58 57 59 58 60 66 61 59 62 65 63 60 64
REMARK SMILES IDX 61 65 62 66 63 67 64 68 7 69 8 70 9 71 10 72 11 73 12 74
REMARK SMILES IDX 13 75 30 76 27 77 29 78 31 79 28 80 14 81 15 82 16 83 17 85
REMARK SMILES IDX 18 86 26 87 19 88 21 89 20 90 22 91 23 92 24 93 25 94
REMARK H PARENT 85 24 55 35 16 84
REMARK Flexibility Score: inf
ROOT
ATOM      1  O   UNL A   1      36.980  23.863  25.054  1.00  0.00    -0.374 OA
ENDROOT
BRANCH   1   2
ATOM      2  C   UNL A   1      38.083  23.332  25.775  1.00  0.00     0.202 C 
BRANCH   2   3
ATOM      3  C   UNL A   1      38.793  24.212  26.809  1.00  0.00     0.261 C 
BRANCH   3   4
ATOM      4  O   UNL A   1      40.149  24.504  26.423  1.00  0.00    -0.460 OA
BRANCH   4   5
ATOM      5  C   UNL A   1      40.731  25.732  26.380  1.00  0.00     0.338 C 
ATOM      6  O   UNL A   1      41.119  26.184  25.307  1.00  0.00    -0.246 OA
BRANCH   5   7
ATOM      7  C   UNL A   1      40.939  26.535  27.618  1.00  0.00     0.060 A 
ATOM      8  C   UNL A   1      40.192  26.324  28.767  1.00  0.00     0.016 A 
ATOM      9  C   UNL A   1      41.944  27.504  27.668  1.00  0.00     0.016 A 
ATOM     10  C   UNL A   1      40.311  27.080  29.894  1.00  0.00     0.010 A 
ATOM     11  C   UNL A   1      42.120  28.267  28.832  1.00  0.00     0.010 A 
ATOM     12  C   UNL A   1      41.275  28.063  29.932  1.00  0.00    -0.014 A 
BRANCH  12  13
ATOM     13  C   UNL A   1      41.135  28.970  31.070  1.00  0.00     0.031 A 
ATOM     14  C   UNL A   1      39.966  29.902  31.042  1.00  0.00     0.074 A 
ATOM     15  C   UNL A   1      41.839  28.718  32.191  1.00  0.00     0.049 A 
ATOM     16  N   UNL A   1      39.616  30.808  31.907  1.00  0.00    -0.248 NA
ATOM     17  C   UNL A   1      39.046  29.778  29.893  1.00  0.00     0.031 C 
ATOM     18  C   UNL A   1      42.799  27.616  32.361  1.00  0.00     0.029 A 
ATOM     19  N   UNL A   1      41.805  29.314  33.416  1.00  0.00    -0.354 N 
ATOM     20  C   UNL A   1      38.486  31.411  31.371  1.00  0.00     0.074 A 
ATOM     21  C   UNL A   1      38.184  30.753  30.124  1.00  0.00     0.031 C 
ATOM     22  C   UNL A   1      43.242  27.609  33.627  1.00  0.00     0.029 A 
ATOM     23  C   UNL A   1      42.678  28.758  34.319  1.00  0.00     0.049 A 
ATOM     24  H   UNL A   1      41.213  30.070  33.633  1.00  0.00     0.167 HD
ATOM     25  C   UNL A   1      37.796  32.454  31.879  1.00  0.00     0.031 A 
ATOM     26  C   UNL A   1      43.014  29.182  35.550  1.00  0.00     0.031 A 
ATOM     27  C   UNL A   1      38.157  33.065  33.127  1.00  0.00     0.049 A 
ATOM     28  C   UNL A   1      42.333  30.434  36.032  1.00  0.00     0.074 A 
ATOM     29  C   UNL A   1      37.638  34.194  33.725  1.00  0.00     0.029 A 
ATOM     30  N   UNL A   1      39.147  32.572  33.971  1.00  0.00    -0.354 N 
ATOM     31  N   UNL A   1      41.368  31.117  35.457  1.00  0.00    -0.248 NA
ATOM     32  C   UNL A   1      42.791  30.985  37.309  1.00  0.00     0.031 C 
ATOM     33  C   UNL A   1      38.358  34.417  34.904  1.00  0.00     0.029 A 
ATOM     34  C   UNL A   1      39.273  33.385  35.078  1.00  0.00     0.049 A 
ATOM     35  H   UNL A   1      39.682  31.763  33.802  1.00  0.00     0.167 HD
ATOM     36  C   UNL A   1      41.082  32.168  36.314  1.00  0.00     0.074 A 
ATOM     37  C   UNL A   1      41.969  32.016  37.455  1.00  0.00     0.031 C 
ATOM     38  C   UNL A   1      40.176  33.169  36.183  1.00  0.00     0.031 A 
BRANCH  25  39
ATOM     39  C   UNL A   1      36.724  33.049  31.011  1.00  0.00    -0.014 A 
ATOM     40  C   UNL A   1      37.006  33.989  30.004  1.00  0.00     0.010 A 
ATOM     41  C   UNL A   1      35.384  32.705  31.269  1.00  0.00     0.010 A 
ATOM     42  C   UNL A   1      35.965  34.606  29.302  1.00  0.00     0.020 A 
ATOM     43  C   UNL A   1      34.343  33.298  30.552  1.00  0.00     0.020 A 
ATOM     44  C   UNL A   1      34.639  34.260  29.585  1.00  0.00     0.054 A 
BRANCH  44  45
ATOM     45  S   UNL A   1      33.306  35.073  28.663  1.00  0.00     0.124 S 
ATOM     46  O   UNL A   1      32.507  35.655  29.740  1.00  0.00    -0.237 OA
ATOM     47  O   UNL A   1      34.031  36.031  27.832  1.00  0.00    -0.237 OA
ATOM     48  O   UNL A   1      32.667  33.979  27.936  1.00  0.00    -0.744 OA
ENDBRANCH  44  45
ENDBRANCH  25  39
BRANCH  26  49
ATOM     49  C   UNL A   1      44.080  28.498  36.334  1.00  0.00    -0.014 A 
ATOM     50  C   UNL A   1      43.768  27.493  37.265  1.00  0.00     0.010 A 
ATOM     51  C   UNL A   1      45.432  28.860  36.161  1.00  0.00     0.010 A 
ATOM     52  C   UNL A   1      44.778  26.886  38.024  1.00  0.00     0.020 A 
ATOM     53  C   UNL A   1      46.446  28.235  36.891  1.00  0.00     0.020 A 
ATOM     54  C   UNL A   1      46.111  27.263  37.832  1.00  0.00     0.054 A 
BRANCH  54  55
ATOM     55  S   UNL A   1      47.403  26.454  38.817  1.00  0.00     0.124 S 
ATOM     56  O   UNL A   1      47.583  25.193  38.104  1.00  0.00    -0.237 OA
ATOM     57  O   UNL A   1      48.511  27.400  38.720  1.00  0.00    -0.237 OA
ATOM     58  O   UNL A   1      46.803  26.341  40.144  1.00  0.00    -0.744 OA
ENDBRANCH  54  55
ENDBRANCH  26  49
BRANCH  38  59
ATOM     59  C   UNL A   1      40.067  34.126  37.333  1.00  0.00    -0.014 A 
ATOM     60  C   UNL A   1      40.859  35.282  37.401  1.00  0.00     0.010 A 
ATOM     61  C   UNL A   1      39.104  33.880  38.327  1.00  0.00     0.010 A 
ATOM     62  C   UNL A   1      40.717  36.162  38.473  1.00  0.00     0.020 A 
ATOM     63  C   UNL A   1      38.933  34.775  39.380  1.00  0.00     0.020 A 
ATOM     64  C   UNL A   1      39.754  35.901  39.454  1.00  0.00     0.054 A 
BRANCH  64  65
ATOM     65  S   UNL A   1      39.557  37.081  40.814  1.00  0.00     0.124 S 
ATOM     66  O   UNL A   1      38.672  38.080  40.221  1.00  0.00    -0.237 OA
ATOM     67  O   UNL A   1      38.964  36.259  41.866  1.00  0.00    -0.237 OA
ATOM     68  O   UNL A   1      40.921  37.533  41.080  1.00  0.00    -0.744 OA
ENDBRANCH  64  65
ENDBRANCH  38  59
ENDBRANCH  12  13
ENDBRANCH   5   7
ENDBRANCH   4   5
ENDBRANCH   3   4
ENDBRANCH   2   3
ENDBRANCH   1   2
BRANCH   1  69
ATOM     69  C   UNL A   1      35.733  23.955  25.741  1.00  0.00     0.202 C 
BRANCH  69  70
ATOM     70  C   UNL A   1      34.686  24.239  24.691  1.00  0.00     0.261 C 
BRANCH  70  71
ATOM     71  O   UNL A   1      34.239  25.575  24.967  1.00  0.00    -0.463 OA
BRANCH  71  72
ATOM     72  C   UNL A   1      32.974  25.759  25.412  1.00  0.00     0.312 C 
ATOM     73  O   UNL A   1      32.345  24.966  26.101  1.00  0.00    -0.252 OA
BRANCH  72  74
ATOM     74  C   UNL A   1      32.416  27.044  24.855  1.00  0.00     0.147 C 
ATOM     75  C   UNL A   1      33.447  27.982  24.169  1.00  0.00     0.129 C 
ATOM     76  C   UNL A   1      31.873  27.926  25.987  1.00  0.00     0.157 C 
ATOM     77  C   UNL A   1      33.211  29.299  24.967  1.00  0.00     0.155 C 
ATOM     78  C   UNL A   1      32.912  28.322  26.995  1.00  0.00     0.004 C 
ATOM     79  O   UNL A   1      31.789  29.181  25.257  1.00  0.00    -0.365 OA
ATOM     80  C   UNL A   1      33.725  29.185  26.373  1.00  0.00     0.004 C 
BRANCH  75  81
ATOM     81  C   UNL A   1      33.314  28.262  22.667  1.00  0.00     0.231 C 
ATOM     82  O   UNL A   1      34.302  28.229  21.925  1.00  0.00    -0.274 OA
ATOM     83  N   UNL A   1      32.098  28.262  22.031  1.00  0.00    -0.326 N 
ATOM     84  H   UNL A   1      32.158  28.019  21.079  1.00  0.00     0.169 HD
BRANCH  83  85
ATOM     85  C   UNL A   1      30.790  28.535  22.449  1.00  0.00     0.041 A 
ATOM     86  C   UNL A   1      29.974  27.460  22.815  1.00  0.00     0.026 A 
ATOM     87  C   UNL A   1      30.251  29.818  22.439  1.00  0.00     0.039 A 
ATOM     88  C   UNL A   1      28.676  27.684  23.284  1.00  0.00     0.003 A 
ATOM     89  C   UNL A   1      28.975  30.068  22.981  1.00  0.00     0.058 A 
ATOM     90  C   UNL A   1      28.183  28.984  23.383  1.00  0.00     0.013 A 
BRANCH  89  91
ATOM     91  C   UNL A   1      28.526  31.484  23.267  1.00  0.00     0.416 C 
ATOM     92  F   UNL A   1      29.303  32.108  24.191  1.00  0.00    -0.166 F 
ATOM     93  F   UNL A   1      28.564  32.263  22.151  1.00  0.00    -0.166 F 
ATOM     94  F   UNL A   1      27.247  31.556  23.730  1.00  0.00    -0.166 F 
ENDBRANCH  89  91
ENDBRANCH  83  85
ENDBRANCH  75  81
ENDBRANCH  72  74
ENDBRANCH  71  72
ENDBRANCH  70  71
ENDBRANCH  69  70
ENDBRANCH   1  69
TORSDOF 20
ENDMDL
MODEL 3
REMARK VINA RESULT:     -10.9      3.117      8.507
REMARK SMILES O=C(OCCOCCOC(=O)[C@@H]1[C@@H](C(=O)Nc2cccc(C(F)(F)F)c2)[C@@H]2C=C[C@H]1O2)c1ccc(-c2c3nc(c(-c4ccc(S(=O)(=O)[O-])cc4)c4ccc([nH]4)c(-c4ccc(S(=O)(=O)[O-])cc4)c4nc(c(-c5ccc(S(=O)(=O)[O-])cc5)c5ccc2[nH]5)C=C4)C=C3)cc1
REMARK SMILES IDX 6 1 5 2 4 3 3 4 2 5 1 6 32 7 33 8 91 9 34 10 90 11 35 12
REMARK SMILES IDX 36 13 37 14 84 15 38 16 89 17 83 18 85 19 39 20 88 21 82 22
REMARK SMILES IDX 81 23 40 25 70 26 51 27 69 28 52 29 55 30 68 31 86 32 53 33
REMARK SMILES IDX 54 34 67 36 87 37 56 38 41 39 42 40 50 41 43 42 49 43 44 44
REMARK SMILES IDX 45 45 46 46 47 47 48 48 71 49 72 50 80 51 73 52 79 53 74 54
REMARK SMILES IDX 75 55 76 56 77 57 78 58 57 59 58 60 66 61 59 62 65 63 60 64
REMARK SMILES IDX 61 65 62 66 63 67 64 68 7 69 8 70 9 71 10 72 11 73 12 74
REMARK SMILES IDX 13 75 30 76 27 77 29 78 31 79 28 80 14 81 15 82 16 83 17 85
REMARK SMILES IDX 18 86 26 87 19 88 21 89 20 90 22 91 23 92 24 93 25 94
REMARK H PARENT 85 24 55 35 16 84
REMARK Flexibility Score: inf
ROOT
ATOM      1  O   UNL A   1      33.928  30.509  27.123  1.00  0.00    -0.374 OA
ENDROOT
BRANCH   1   2
ATOM      2  C   UNL A   1      32.983  31.488  27.532  1.00  0.00     0.202 C 
BRANCH   2   3
ATOM      3  C   UNL A   1      33.227  32.958  27.174  1.00  0.00     0.261 C 
BRANCH   3   4
ATOM      4  O   UNL A   1      32.717  33.847  28.185  1.00  0.00    -0.460 OA
BRANCH   4   5
ATOM      5  C   UNL A   1      33.417  34.380  29.222  1.00  0.00     0.338 C 
ATOM      6  O   UNL A   1      33.038  35.428  29.736  1.00  0.00    -0.246 OA
BRANCH   5   7
ATOM      7  C   UNL A   1      34.658  33.733  29.734  1.00  0.00     0.060 A 
ATOM      8  C   UNL A   1      34.621  32.649  30.598  1.00  0.00     0.016 A 
ATOM      9  C   UNL A   1      35.911  34.179  29.308  1.00  0.00     0.016 A 
ATOM     10  C   UNL A   1      35.734  32.074  31.135  1.00  0.00     0.010 A 
ATOM     11  C   UNL A   1      37.074  33.576  29.809  1.00  0.00     0.010 A 
ATOM     12  C   UNL A   1      36.970  32.539  30.747  1.00  0.00    -0.014 A 
BRANCH  12  13
ATOM     13  C   UNL A   1      38.066  32.035  31.575  1.00  0.00     0.031 A 
ATOM     14  C   UNL A   1      38.988  31.048  30.934  1.00  0.00     0.074 A 
ATOM     15  C   UNL A   1      38.375  32.690  32.710  1.00  0.00     0.049 A 
ATOM     16  N   UNL A   1      40.021  30.440  31.438  1.00  0.00    -0.248 NA
ATOM     17  C   UNL A   1      38.728  30.721  29.516  1.00  0.00     0.031 C 
ATOM     18  C   UNL A   1      37.661  33.865  33.235  1.00  0.00     0.029 A 
ATOM     19  N   UNL A   1      39.405  32.516  33.585  1.00  0.00    -0.354 N 
ATOM     20  C   UNL A   1      40.484  29.604  30.431  1.00  0.00     0.074 A 
ATOM     21  C   UNL A   1      39.647  29.802  29.273  1.00  0.00     0.031 C 
ATOM     22  C   UNL A   1      38.295  34.314  34.329  1.00  0.00     0.029 A 
ATOM     23  C   UNL A   1      39.387  33.403  34.634  1.00  0.00     0.049 A 
ATOM     24  H   UNL A   1      40.095  31.823  33.477  1.00  0.00     0.167 HD
ATOM     25  C   UNL A   1      41.506  28.725  30.502  1.00  0.00     0.031 A 
ATOM     26  C   UNL A   1      40.147  33.424  35.744  1.00  0.00     0.031 A 
ATOM     27  C   UNL A   1      42.296  28.578  31.691  1.00  0.00     0.049 A 
ATOM     28  C   UNL A   1      41.183  32.340  35.863  1.00  0.00     0.074 A 
ATOM     29  C   UNL A   1      43.288  27.660  31.968  1.00  0.00     0.029 A 
ATOM     30  N   UNL A   1      42.171  29.396  32.809  1.00  0.00    -0.354 N 
ATOM     31  N   UNL A   1      41.525  31.431  34.977  1.00  0.00    -0.248 NA
ATOM     32  C   UNL A   1      41.920  32.266  37.126  1.00  0.00     0.031 C 
ATOM     33  C   UNL A   1      43.720  27.887  33.279  1.00  0.00     0.029 A 
ATOM     34  C   UNL A   1      43.051  28.993  33.791  1.00  0.00     0.049 A 
ATOM     35  H   UNL A   1      41.544  30.151  32.889  1.00  0.00     0.167 HD
ATOM     36  C   UNL A   1      42.538  30.688  35.565  1.00  0.00     0.074 A 
ATOM     37  C   UNL A   1      42.760  31.271  36.876  1.00  0.00     0.031 C 
ATOM     38  C   UNL A   1      43.226  29.626  35.077  1.00  0.00     0.031 A 
BRANCH  25  39
ATOM     39  C   UNL A   1      41.687  27.796  29.335  1.00  0.00    -0.014 A 
ATOM     40  C   UNL A   1      40.765  26.779  29.033  1.00  0.00     0.010 A 
ATOM     41  C   UNL A   1      42.860  27.906  28.567  1.00  0.00     0.010 A 
ATOM     42  C   UNL A   1      41.034  25.862  28.011  1.00  0.00     0.020 A 
ATOM     43  C   UNL A   1      43.121  27.009  27.528  1.00  0.00     0.020 A 
ATOM     44  C   UNL A   1      42.215  25.980  27.269  1.00  0.00     0.054 A 
BRANCH  44  45
ATOM     45  S   UNL A   1      42.544  24.779  25.950  1.00  0.00     0.124 S 
ATOM     46  O   UNL A   1      41.901  25.410  24.800  1.00  0.00    -0.237 OA
ATOM     47  O   UNL A   1      44.003  24.741  25.910  1.00  0.00    -0.237 OA
ATOM     48  O   UNL A   1      41.904  23.555  26.427  1.00  0.00    -0.744 OA
ENDBRANCH  44  45
ENDBRANCH  25  39
BRANCH  26  49
ATOM     49  C   UNL A   1      39.892  34.411  36.831  1.00  0.00    -0.014 A 
ATOM     50  C   UNL A   1      40.521  35.667  36.837  1.00  0.00     0.010 A 
ATOM     51  C   UNL A   1      39.014  34.091  37.887  1.00  0.00     0.010 A 
ATOM     52  C   UNL A   1      40.301  36.568  37.887  1.00  0.00     0.020 A 
ATOM     53  C   UNL A   1      38.765  34.999  38.919  1.00  0.00     0.020 A 
ATOM     54  C   UNL A   1      39.425  36.227  38.923  1.00  0.00     0.054 A 
BRANCH  54  55
ATOM     55  S   UNL A   1      39.146  37.415  40.266  1.00  0.00     0.124 S 
ATOM     56  O   UNL A   1      38.540  36.575  41.294  1.00  0.00    -0.237 OA
ATOM     57  O   UNL A   1      40.496  37.892  40.551  1.00  0.00    -0.237 OA
ATOM     58  O   UNL A   1      38.256  38.408  39.666  1.00  0.00    -0.744 OA
ENDBRANCH  54  55
ENDBRANCH  26  49
BRANCH  38  59
ATOM     59  C   UNL A   1      44.319  29.082  35.948  1.00  0.00    -0.014 A 
ATOM     60  C   UNL A   1      44.079  28.041  36.859  1.00  0.00     0.010 A 
ATOM     61  C   UNL A   1      45.620  29.591  35.796  1.00  0.00     0.010 A 
ATOM     62  C   UNL A   1      45.123  27.543  37.638  1.00  0.00     0.020 A 
ATOM     63  C   UNL A   1      46.672  29.071  36.545  1.00  0.00     0.020 A 
ATOM     64  C   UNL A   1      46.412  28.062  37.474  1.00  0.00     0.054 A 
BRANCH  64  65
ATOM     65  S   UNL A   1      47.760  27.370  38.466  1.00  0.00     0.124 S 
ATOM     66  O   UNL A   1      47.660  28.151  39.696  1.00  0.00    -0.237 OA
ATOM     67  O   UNL A   1      47.383  25.964  38.579  1.00  0.00    -0.237 OA
ATOM     68  O   UNL A   1      48.950  27.627  37.658  1.00  0.00    -0.744 OA
ENDBRANCH  64  65
ENDBRANCH  38  59
ENDBRANCH  12  13
ENDBRANCH   5   7
ENDBRANCH   4   5
ENDBRANCH   3   4
ENDBRANCH   2   3
ENDBRANCH   1   2
BRANCH   1  69
ATOM     69  C   UNL A   1      33.721  29.172  27.574  1.00  0.00     0.202 C 
BRANCH  69  70
ATOM     70  C   UNL A   1      32.380  28.741  27.034  1.00  0.00     0.261 C 
BRANCH  70  71
ATOM     71  O   UNL A   1      32.647  28.285  25.700  1.00  0.00    -0.463 OA
BRANCH  71  72
ATOM     72  C   UNL A   1      32.908  26.972  25.501  1.00  0.00     0.312 C 
ATOM     73  O   UNL A   1      34.022  26.491  25.333  1.00  0.00    -0.252 OA
BRANCH  72  74
ATOM     74  C   UNL A   1      31.617  26.198  25.420  1.00  0.00     0.147 C 
ATOM     75  C   UNL A   1      31.765  24.662  25.241  1.00  0.00     0.129 C 
ATOM     76  C   UNL A   1      30.831  26.600  24.165  1.00  0.00     0.157 C 
ATOM     77  C   UNL A   1      30.910  24.439  23.957  1.00  0.00     0.155 C 
ATOM     78  C   UNL A   1      31.563  26.330  22.882  1.00  0.00     0.004 C 
ATOM     79  O   UNL A   1      29.905  25.480  24.126  1.00  0.00    -0.365 OA
ATOM     80  C   UNL A   1      31.593  24.999  22.744  1.00  0.00     0.004 C 
BRANCH  75  81
ATOM     81  C   UNL A   1      31.268  23.733  26.355  1.00  0.00     0.231 C 
ATOM     82  O   UNL A   1      30.396  24.103  27.148  1.00  0.00    -0.274 OA
ATOM     83  N   UNL A   1      31.527  22.385  26.349  1.00  0.00    -0.326 N 
ATOM     84  H   UNL A   1      30.841  21.856  26.817  1.00  0.00     0.169 HD
BRANCH  83  85
ATOM     85  C   UNL A   1      32.559  21.603  25.818  1.00  0.00     0.041 A 
ATOM     86  C   UNL A   1      33.878  22.019  26.023  1.00  0.00     0.026 A 
ATOM     87  C   UNL A   1      32.321  20.477  25.034  1.00  0.00     0.039 A 
ATOM     88  C   UNL A   1      34.945  21.248  25.554  1.00  0.00     0.003 A 
ATOM     89  C   UNL A   1      33.382  19.649  24.621  1.00  0.00     0.058 A 
ATOM     90  C   UNL A   1      34.700  20.058  24.869  1.00  0.00     0.013 A 
BRANCH  89  91
ATOM     91  C   UNL A   1      33.109  18.272  24.058  1.00  0.00     0.416 C 
ATOM     92  F   UNL A   1      34.038  17.354  24.433  1.00  0.00    -0.166 F 
ATOM     93  F   UNL A   1      31.906  17.785  24.473  1.00  0.00    -0.166 F 
ATOM     94  F   UNL A   1      33.073  18.248  22.697  1.00  0.00    -0.166 F 
ENDBRANCH  89  91
ENDBRANCH  83  85
ENDBRANCH  75  81
ENDBRANCH  72  74
ENDBRANCH  71  72
ENDBRANCH  70  71
ENDBRANCH  69  70
ENDBRANCH   1  69
TORSDOF 20
ENDMDL
