MODEL 1
REMARK VINA RESULT:     -10.6      0.000      0.000
REMARK SMILES O=C(OCCOCCOC(=O)c1ccc(-c2ccc(Cl)cc2)cc1F)c1ccc(-c2c3nc(c(-c4ccc(S(=O)(=O)[O-])cc4)c4ccc([nH]4)c(-c4ccc(S(=O)(=O)[O-])cc4)c4nc(c(-c5ccc(S(=O)(=O)[O-])cc5)c5ccc2[nH]5)C=C4)C=C3)cc1
REMARK SMILES IDX 5 1 4 2 3 3 2 4 1 5 26 6 27 7 85 8 28 9 84 10 29 11 30 12
REMARK SMILES IDX 31 13 78 14 32 15 83 16 77 17 79 18 33 19 82 20 76 21 75 22
REMARK SMILES IDX 34 24 64 25 45 26 63 27 46 28 49 29 62 30 80 31 47 32 48 33
REMARK SMILES IDX 61 35 81 36 50 37 35 38 36 39 44 40 37 41 43 42 38 43 39 44
REMARK SMILES IDX 40 45 41 46 42 47 65 48 66 49 74 50 67 51 73 52 68 53 69 54
REMARK SMILES IDX 70 55 71 56 72 57 51 58 52 59 60 60 53 61 59 62 54 63 55 64
REMARK SMILES IDX 56 65 57 66 58 67 6 68 7 69 8 70 9 71 10 72 11 73 12 74
REMARK SMILES IDX 13 75 24 76 14 77 23 78 25 79 15 80 16 81 17 82 22 83 18 84
REMARK SMILES IDX 21 85 19 86 20 87
REMARK H PARENT 79 23 49 34
REMARK Flexibility Score: inf
ROOT
ATOM      1  C   UNL A   1      44.314  23.018  24.606  1.00  0.00     0.202 C 
ENDROOT
BRANCH   1   2
ATOM      2  C   UNL A   1      43.991  24.460  25.019  1.00  0.00     0.261 C 
BRANCH   2   3
ATOM      3  O   UNL A   1      42.902  24.494  25.961  1.00  0.00    -0.460 OA
BRANCH   3   4
ATOM      4  C   UNL A   1      41.885  25.389  26.028  1.00  0.00     0.338 C 
ATOM      5  O   UNL A   1      41.131  25.499  25.062  1.00  0.00    -0.246 OA
BRANCH   4   6
ATOM      6  C   UNL A   1      41.636  26.254  27.220  1.00  0.00     0.060 A 
ATOM      7  C   UNL A   1      40.924  25.844  28.343  1.00  0.00     0.016 A 
ATOM      8  C   UNL A   1      42.229  27.527  27.248  1.00  0.00     0.016 A 
ATOM      9  C   UNL A   1      40.719  26.678  29.422  1.00  0.00     0.010 A 
ATOM     10  C   UNL A   1      42.088  28.357  28.369  1.00  0.00     0.010 A 
ATOM     11  C   UNL A   1      41.320  27.930  29.456  1.00  0.00    -0.014 A 
BRANCH  11  12
ATOM     12  C   UNL A   1      41.038  28.754  30.643  1.00  0.00     0.031 A 
ATOM     13  C   UNL A   1      42.000  28.709  31.788  1.00  0.00     0.074 A 
ATOM     14  C   UNL A   1      40.055  29.672  30.571  1.00  0.00     0.049 A 
ATOM     15  N   UNL A   1      41.984  29.390  32.900  1.00  0.00    -0.248 NA
ATOM     16  C   UNL A   1      43.150  27.796  31.654  1.00  0.00     0.031 C 
ATOM     17  C   UNL A   1      39.165  29.866  29.417  1.00  0.00     0.029 A 
ATOM     18  N   UNL A   1      39.676  30.654  31.445  1.00  0.00    -0.354 N 
ATOM     19  C   UNL A   1      43.107  28.978  33.606  1.00  0.00     0.074 A 
ATOM     20  C   UNL A   1      43.777  27.979  32.805  1.00  0.00     0.031 C 
ATOM     21  C   UNL A   1      38.379  30.930  29.641  1.00  0.00     0.029 A 
ATOM     22  C   UNL A   1      38.645  31.437  30.979  1.00  0.00     0.049 A 
ATOM     23  H   UNL A   1      40.099  30.785  32.324  1.00  0.00     0.167 HD
ATOM     24  C   UNL A   1      43.529  29.402  34.817  1.00  0.00     0.031 A 
ATOM     25  C   UNL A   1      37.972  32.431  31.588  1.00  0.00     0.031 A 
ATOM     26  C   UNL A   1      42.823  30.387  35.591  1.00  0.00     0.049 A 
ATOM     27  C   UNL A   1      38.392  32.793  32.987  1.00  0.00     0.074 A 
ATOM     28  C   UNL A   1      43.087  30.833  36.871  1.00  0.00     0.029 A 
ATOM     29  N   UNL A   1      41.710  31.086  35.140  1.00  0.00    -0.354 N 
ATOM     30  N   UNL A   1      39.402  32.330  33.687  1.00  0.00    -0.248 NA
ATOM     31  C   UNL A   1      37.581  33.798  33.682  1.00  0.00     0.031 C 
ATOM     32  C   UNL A   1      42.102  31.766  37.214  1.00  0.00     0.029 A 
ATOM     33  C   UNL A   1      41.264  31.949  36.123  1.00  0.00     0.049 A 
ATOM     34  H   UNL A   1      41.300  30.981  34.252  1.00  0.00     0.167 HD
ATOM     35  C   UNL A   1      39.352  32.993  34.906  1.00  0.00     0.074 A 
ATOM     36  C   UNL A   1      38.236  33.916  34.828  1.00  0.00     0.031 C 
ATOM     37  C   UNL A   1      40.143  32.848  35.999  1.00  0.00     0.031 A 
BRANCH  24  38
ATOM     38  C   UNL A   1      44.754  28.746  35.389  1.00  0.00    -0.014 A 
ATOM     39  C   UNL A   1      44.667  27.565  36.149  1.00  0.00     0.010 A 
ATOM     40  C   UNL A   1      46.016  29.327  35.167  1.00  0.00     0.010 A 
ATOM     41  C   UNL A   1      45.819  26.993  36.698  1.00  0.00     0.020 A 
ATOM     42  C   UNL A   1      47.171  28.744  35.693  1.00  0.00     0.020 A 
ATOM     43  C   UNL A   1      47.063  27.587  36.467  1.00  0.00     0.054 A 
BRANCH  43  44
ATOM     44  S   UNL A   1      48.544  26.807  37.168  1.00  0.00     0.124 S 
ATOM     45  O   UNL A   1      48.242  25.387  37.005  1.00  0.00    -0.237 OA
ATOM     46  O   UNL A   1      49.610  27.324  36.316  1.00  0.00    -0.237 OA
ATOM     47  O   UNL A   1      48.567  27.282  38.549  1.00  0.00    -0.744 OA
ENDBRANCH  43  44
ENDBRANCH  24  38
BRANCH  25  48
ATOM     48  C   UNL A   1      36.790  33.064  30.935  1.00  0.00    -0.014 A 
ATOM     49  C   UNL A   1      36.920  33.856  29.781  1.00  0.00     0.010 A 
ATOM     50  C   UNL A   1      35.510  32.906  31.503  1.00  0.00     0.010 A 
ATOM     51  C   UNL A   1      35.806  34.506  29.234  1.00  0.00     0.020 A 
ATOM     52  C   UNL A   1      34.389  33.523  30.943  1.00  0.00     0.020 A 
ATOM     53  C   UNL A   1      34.549  34.340  29.825  1.00  0.00     0.054 A 
BRANCH  53  54
ATOM     54  S   UNL A   1      33.117  35.198  29.112  1.00  0.00     0.124 S 
ATOM     55  O   UNL A   1      32.724  34.291  28.039  1.00  0.00    -0.237 OA
ATOM     56  O   UNL A   1      32.197  35.275  30.244  1.00  0.00    -0.237 OA
ATOM     57  O   UNL A   1      33.668  36.480  28.679  1.00  0.00    -0.744 OA
ENDBRANCH  53  54
ENDBRANCH  25  48
BRANCH  37  58
ATOM     58  C   UNL A   1      39.833  33.730  37.173  1.00  0.00    -0.014 A 
ATOM     59  C   UNL A   1      40.417  35.003  37.299  1.00  0.00     0.010 A 
ATOM     60  C   UNL A   1      38.919  33.288  38.146  1.00  0.00     0.010 A 
ATOM     61  C   UNL A   1      40.125  35.801  38.406  1.00  0.00     0.020 A 
ATOM     62  C   UNL A   1      38.600  34.098  39.236  1.00  0.00     0.020 A 
ATOM     63  C   UNL A   1      39.220  35.342  39.368  1.00  0.00     0.054 A 
BRANCH  63  64
ATOM     64  S   UNL A   1      38.838  36.408  40.782  1.00  0.00     0.124 S 
ATOM     65  O   UNL A   1      37.785  35.652  41.454  1.00  0.00    -0.237 OA
ATOM     66  O   UNL A   1      40.114  36.473  41.489  1.00  0.00    -0.237 OA
ATOM     67  O   UNL A   1      38.410  37.661  40.165  1.00  0.00    -0.744 OA
ENDBRANCH  63  64
ENDBRANCH  37  58
ENDBRANCH  11  12
ENDBRANCH   4   6
ENDBRANCH   3   4
ENDBRANCH   2   3
ENDBRANCH   1   2
BRANCH   1  68
ATOM     68  O   UNL A   1      43.239  22.090  24.742  1.00  0.00    -0.374 OA
BRANCH  68  69
ATOM     69  C   UNL A   1      43.553  20.858  25.407  1.00  0.00     0.202 C 
BRANCH  69  70
ATOM     70  C   UNL A   1      42.352  20.400  26.236  1.00  0.00     0.261 C 
BRANCH  70  71
ATOM     71  O   UNL A   1      41.214  21.159  25.802  1.00  0.00    -0.460 OA
BRANCH  71  72
ATOM     72  C   UNL A   1      40.302  21.398  26.774  1.00  0.00     0.341 C 
ATOM     73  O   UNL A   1      40.472  21.368  27.981  1.00  0.00    -0.246 OA
BRANCH  72  74
ATOM     74  C   UNL A   1      39.095  21.958  26.152  1.00  0.00     0.095 A 
ATOM     75  C   UNL A   1      38.803  23.312  26.368  1.00  0.00     0.019 A 
ATOM     76  C   UNL A   1      38.262  21.190  25.348  1.00  0.00     0.138 A 
ATOM     77  C   UNL A   1      37.663  23.879  25.799  1.00  0.00     0.010 A 
ATOM     78  C   UNL A   1      37.116  21.749  24.793  1.00  0.00     0.049 A 
ATOM     79  F   UNL A   1      38.506  19.891  25.126  1.00  0.00    -0.206 F 
ATOM     80  C   UNL A   1      36.785  23.091  25.041  1.00  0.00    -0.015 A 
BRANCH  80  81
ATOM     81  C   UNL A   1      35.470  23.603  24.652  1.00  0.00    -0.018 A 
ATOM     82  C   UNL A   1      34.806  22.992  23.574  1.00  0.00     0.010 A 
ATOM     83  C   UNL A   1      34.836  24.655  25.326  1.00  0.00     0.010 A 
ATOM     84  C   UNL A   1      33.544  23.418  23.171  1.00  0.00     0.021 A 
ATOM     85  C   UNL A   1      33.568  25.089  24.919  1.00  0.00     0.021 A 
ATOM     86  C   UNL A   1      32.929  24.467  23.845  1.00  0.00     0.041 A 
ATOM     87  Cl  UNL A   1      31.370  24.997  23.348  1.00  0.00    -0.084 Cl
ENDBRANCH  80  81
ENDBRANCH  72  74
ENDBRANCH  71  72
ENDBRANCH  70  71
ENDBRANCH  69  70
ENDBRANCH  68  69
ENDBRANCH   1  68
TORSDOF 18
ENDMDL
MODEL 2
REMARK VINA RESULT:     -10.1      3.480      9.861
REMARK SMILES O=C(OCCOCCOC(=O)c1ccc(-c2ccc(Cl)cc2)cc1F)c1ccc(-c2c3nc(c(-c4ccc(S(=O)(=O)[O-])cc4)c4ccc([nH]4)c(-c4ccc(S(=O)(=O)[O-])cc4)c4nc(c(-c5ccc(S(=O)(=O)[O-])cc5)c5ccc2[nH]5)C=C4)C=C3)cc1
REMARK SMILES IDX 5 1 4 2 3 3 2 4 1 5 26 6 27 7 85 8 28 9 84 10 29 11 30 12
REMARK SMILES IDX 31 13 78 14 32 15 83 16 77 17 79 18 33 19 82 20 76 21 75 22
REMARK SMILES IDX 34 24 64 25 45 26 63 27 46 28 49 29 62 30 80 31 47 32 48 33
REMARK SMILES IDX 61 35 81 36 50 37 35 38 36 39 44 40 37 41 43 42 38 43 39 44
REMARK SMILES IDX 40 45 41 46 42 47 65 48 66 49 74 50 67 51 73 52 68 53 69 54
REMARK SMILES IDX 70 55 71 56 72 57 51 58 52 59 60 60 53 61 59 62 54 63 55 64
REMARK SMILES IDX 56 65 57 66 58 67 6 68 7 69 8 70 9 71 10 72 11 73 12 74
REMARK SMILES IDX 13 75 24 76 14 77 23 78 25 79 15 80 16 81 17 82 22 83 18 84
REMARK SMILES IDX 21 85 19 86 20 87
REMARK H PARENT 79 23 49 34
REMARK Flexibility Score: inf
ROOT
ATOM      1  C   UNL A   1      31.709  29.953  25.426  1.00  0.00     0.202 C 
ENDROOT
BRANCH   1   2
ATOM      2  C   UNL A   1      32.080  30.178  26.897  1.00  0.00     0.261 C 
BRANCH   2   3
ATOM      3  O   UNL A   1      33.509  30.198  27.071  1.00  0.00    -0.460 OA
BRANCH   3   4
ATOM      4  C   UNL A   1      34.256  31.113  27.738  1.00  0.00     0.338 C 
ATOM      5  O   UNL A   1      33.837  32.265  27.828  1.00  0.00    -0.246 OA
BRANCH   4   6
ATOM      6  C   UNL A   1      35.572  30.789  28.367  1.00  0.00     0.060 A 
ATOM      7  C   UNL A   1      35.832  29.610  29.061  1.00  0.00     0.016 A 
ATOM      8  C   UNL A   1      36.635  31.686  28.175  1.00  0.00     0.016 A 
ATOM      9  C   UNL A   1      37.063  29.353  29.626  1.00  0.00     0.010 A 
ATOM     10  C   UNL A   1      37.910  31.403  28.684  1.00  0.00     0.010 A 
ATOM     11  C   UNL A   1      38.119  30.233  29.422  1.00  0.00    -0.014 A 
BRANCH  11  12
ATOM     12  C   UNL A   1      39.394  29.882  30.070  1.00  0.00     0.031 A 
ATOM     13  C   UNL A   1      39.744  30.546  31.363  1.00  0.00     0.074 A 
ATOM     14  C   UNL A   1      40.088  28.829  29.594  1.00  0.00     0.049 A 
ATOM     15  N   UNL A   1      40.777  30.347  32.133  1.00  0.00    -0.248 NA
ATOM     16  C   UNL A   1      38.792  31.549  31.875  1.00  0.00     0.031 C 
ATOM     17  C   UNL A   1      39.719  28.041  28.410  1.00  0.00     0.029 A 
ATOM     18  N   UNL A   1      41.202  28.196  30.074  1.00  0.00    -0.354 N 
ATOM     19  C   UNL A   1      40.612  31.209  33.209  1.00  0.00     0.074 A 
ATOM     20  C   UNL A   1      39.386  31.942  32.990  1.00  0.00     0.031 C 
ATOM     21  C   UNL A   1      40.566  27.008  28.286  1.00  0.00     0.029 A 
ATOM     22  C   UNL A   1      41.582  27.108  29.324  1.00  0.00     0.049 A 
ATOM     23  H   UNL A   1      41.685  28.494  30.879  1.00  0.00     0.167 HD
ATOM     24  C   UNL A   1      41.421  31.367  34.280  1.00  0.00     0.031 A 
ATOM     25  C   UNL A   1      42.656  26.306  29.448  1.00  0.00     0.031 A 
ATOM     26  C   UNL A   1      42.642  30.629  34.453  1.00  0.00     0.049 A 
ATOM     27  C   UNL A   1      43.602  26.590  30.583  1.00  0.00     0.074 A 
ATOM     28  C   UNL A   1      43.601  30.762  35.438  1.00  0.00     0.029 A 
ATOM     29  N   UNL A   1      43.065  29.606  33.613  1.00  0.00    -0.354 N 
ATOM     30  N   UNL A   1      43.486  27.474  31.548  1.00  0.00    -0.248 NA
ATOM     31  C   UNL A   1      44.825  25.784  30.642  1.00  0.00     0.031 C 
ATOM     32  C   UNL A   1      44.629  29.852  35.166  1.00  0.00     0.029 A 
ATOM     33  C   UNL A   1      44.279  29.108  34.048  1.00  0.00     0.049 A 
ATOM     34  H   UNL A   1      42.572  29.284  32.825  1.00  0.00     0.167 HD
ATOM     35  C   UNL A   1      44.620  27.326  32.335  1.00  0.00     0.074 A 
ATOM     36  C   UNL A   1      45.387  26.240  31.754  1.00  0.00     0.031 C 
ATOM     37  C   UNL A   1      45.006  28.026  33.431  1.00  0.00     0.031 A 
BRANCH  24  38
ATOM     38  C   UNL A   1      41.040  32.419  35.283  1.00  0.00    -0.014 A 
ATOM     39  C   UNL A   1      41.369  33.773  35.088  1.00  0.00     0.010 A 
ATOM     40  C   UNL A   1      40.344  32.044  36.446  1.00  0.00     0.010 A 
ATOM     41  C   UNL A   1      41.032  34.728  36.052  1.00  0.00     0.020 A 
ATOM     42  C   UNL A   1      39.984  32.999  37.400  1.00  0.00     0.020 A 
ATOM     43  C   UNL A   1      40.342  34.334  37.203  1.00  0.00     0.054 A 
BRANCH  43  44
ATOM     44  S   UNL A   1      39.893  35.598  38.424  1.00  0.00     0.124 S 
ATOM     45  O   UNL A   1      38.695  35.021  39.028  1.00  0.00    -0.237 OA
ATOM     46  O   UNL A   1      41.071  35.642  39.285  1.00  0.00    -0.237 OA
ATOM     47  O   UNL A   1      39.667  36.796  37.618  1.00  0.00    -0.744 OA
ENDBRANCH  43  44
ENDBRANCH  24  38
BRANCH  25  48
ATOM     48  C   UNL A   1      42.943  25.252  28.432  1.00  0.00    -0.014 A 
ATOM     49  C   UNL A   1      43.573  25.554  27.213  1.00  0.00     0.010 A 
ATOM     50  C   UNL A   1      42.540  23.924  28.673  1.00  0.00     0.010 A 
ATOM     51  C   UNL A   1      43.757  24.561  26.242  1.00  0.00     0.020 A 
ATOM     52  C   UNL A   1      42.752  22.921  27.723  1.00  0.00     0.020 A 
ATOM     53  C   UNL A   1      43.338  23.252  26.502  1.00  0.00     0.054 A 
BRANCH  53  54
ATOM     54  S   UNL A   1      43.571  21.979  25.230  1.00  0.00     0.124 S 
ATOM     55  O   UNL A   1      42.482  21.055  25.524  1.00  0.00    -0.237 OA
ATOM     56  O   UNL A   1      43.438  22.740  23.991  1.00  0.00    -0.237 OA
ATOM     57  O   UNL A   1      44.914  21.470  25.499  1.00  0.00    -0.744 OA
ENDBRANCH  53  54
ENDBRANCH  25  48
BRANCH  37  58
ATOM     58  C   UNL A   1      46.299  27.611  34.072  1.00  0.00    -0.014 A 
ATOM     59  C   UNL A   1      47.518  28.201  33.694  1.00  0.00     0.010 A 
ATOM     60  C   UNL A   1      46.285  26.638  35.087  1.00  0.00     0.010 A 
ATOM     61  C   UNL A   1      48.710  27.790  34.293  1.00  0.00     0.020 A 
ATOM     62  C   UNL A   1      47.470  26.250  35.710  1.00  0.00     0.020 A 
ATOM     63  C   UNL A   1      48.678  26.816  35.295  1.00  0.00     0.054 A 
BRANCH  63  64
ATOM     64  S   UNL A   1      50.235  26.318  36.076  1.00  0.00     0.124 S 
ATOM     65  O   UNL A   1      50.771  25.370  35.103  1.00  0.00    -0.237 OA
ATOM     66  O   UNL A   1      50.958  27.583  36.185  1.00  0.00    -0.237 OA
ATOM     67  O   UNL A   1      49.814  25.736  37.348  1.00  0.00    -0.744 OA
ENDBRANCH  63  64
ENDBRANCH  37  58
ENDBRANCH  11  12
ENDBRANCH   4   6
ENDBRANCH   3   4
ENDBRANCH   2   3
ENDBRANCH   1   2
BRANCH   1  68
ATOM     68  O   UNL A   1      32.713  29.317  24.634  1.00  0.00    -0.374 OA
BRANCH  68  69
ATOM     69  C   UNL A   1      32.277  28.201  23.847  1.00  0.00     0.202 C 
BRANCH  69  70
ATOM     70  C   UNL A   1      30.817  27.880  24.174  1.00  0.00     0.261 C 
BRANCH  70  71
ATOM     71  O   UNL A   1      30.695  26.453  24.251  1.00  0.00    -0.460 OA
BRANCH  71  72
ATOM     72  C   UNL A   1      30.951  25.938  25.477  1.00  0.00     0.341 C 
ATOM     73  O   UNL A   1      30.620  26.389  26.560  1.00  0.00    -0.246 OA
BRANCH  72  74
ATOM     74  C   UNL A   1      31.493  24.583  25.309  1.00  0.00     0.095 A 
ATOM     75  C   UNL A   1      32.582  24.407  24.443  1.00  0.00     0.019 A 
ATOM     76  C   UNL A   1      30.972  23.495  25.996  1.00  0.00     0.138 A 
ATOM     77  C   UNL A   1      33.123  23.135  24.252  1.00  0.00     0.010 A 
ATOM     78  C   UNL A   1      31.498  22.224  25.794  1.00  0.00     0.049 A 
ATOM     79  F   UNL A   1      29.927  23.626  26.824  1.00  0.00    -0.206 F 
ATOM     80  C   UNL A   1      32.558  22.024  24.894  1.00  0.00    -0.015 A 
BRANCH  80  81
ATOM     81  C   UNL A   1      32.946  20.666  24.513  1.00  0.00    -0.018 A 
ATOM     82  C   UNL A   1      32.178  19.997  23.544  1.00  0.00     0.010 A 
ATOM     83  C   UNL A   1      34.063  20.016  25.054  1.00  0.00     0.010 A 
ATOM     84  C   UNL A   1      32.510  18.712  23.123  1.00  0.00     0.021 A 
ATOM     85  C   UNL A   1      34.396  18.722  24.637  1.00  0.00     0.021 A 
ATOM     86  C   UNL A   1      33.618  18.078  23.673  1.00  0.00     0.041 A 
ATOM     87  Cl  UNL A   1      34.030  16.489  23.157  1.00  0.00    -0.084 Cl
ENDBRANCH  80  81
ENDBRANCH  72  74
ENDBRANCH  71  72
ENDBRANCH  70  71
ENDBRANCH  69  70
ENDBRANCH  68  69
ENDBRANCH   1  68
TORSDOF 18
ENDMDL
MODEL 3
REMARK VINA RESULT:     -10.1      3.353      9.933
REMARK SMILES O=C(OCCOCCOC(=O)c1ccc(-c2ccc(Cl)cc2)cc1F)c1ccc(-c2c3nc(c(-c4ccc(S(=O)(=O)[O-])cc4)c4ccc([nH]4)c(-c4ccc(S(=O)(=O)[O-])cc4)c4nc(c(-c5ccc(S(=O)(=O)[O-])cc5)c5ccc2[nH]5)C=C4)C=C3)cc1
REMARK SMILES IDX 5 1 4 2 3 3 2 4 1 5 26 6 27 7 85 8 28 9 84 10 29 11 30 12
REMARK SMILES IDX 31 13 78 14 32 15 83 16 77 17 79 18 33 19 82 20 76 21 75 22
REMARK SMILES IDX 34 24 64 25 45 26 63 27 46 28 49 29 62 30 80 31 47 32 48 33
REMARK SMILES IDX 61 35 81 36 50 37 35 38 36 39 44 40 37 41 43 42 38 43 39 44
REMARK SMILES IDX 40 45 41 46 42 47 65 48 66 49 74 50 67 51 73 52 68 53 69 54
REMARK SMILES IDX 70 55 71 56 72 57 51 58 52 59 60 60 53 61 59 62 54 63 55 64
REMARK SMILES IDX 56 65 57 66 58 67 6 68 7 69 8 70 9 71 10 72 11 73 12 74
REMARK SMILES IDX 13 75 24 76 14 77 23 78 25 79 15 80 16 81 17 82 22 83 18 84
REMARK SMILES IDX 21 85 19 86 20 87
REMARK H PARENT 79 23 49 34
REMARK Flexibility Score: inf
ROOT
ATOM      1  C   UNL A   1      31.770  29.635  25.361  1.00  0.00     0.202 C 
ENDROOT
BRANCH   1   2
ATOM      2  C   UNL A   1      32.123  30.286  26.704  1.00  0.00     0.261 C 
BRANCH   2   3
ATOM      3  O   UNL A   1      33.547  30.445  26.842  1.00  0.00    -0.460 OA
BRANCH   3   4
ATOM      4  C   UNL A   1      34.217  31.271  27.683  1.00  0.00     0.338 C 
ATOM      5  O   UNL A   1      33.729  32.368  27.947  1.00  0.00    -0.246 OA
BRANCH   4   6
ATOM      6  C   UNL A   1      35.529  30.914  28.304  1.00  0.00     0.060 A 
ATOM      7  C   UNL A   1      35.823  29.660  28.832  1.00  0.00     0.016 A 
ATOM      8  C   UNL A   1      36.556  31.871  28.275  1.00  0.00     0.016 A 
ATOM      9  C   UNL A   1      37.048  29.375  29.396  1.00  0.00     0.010 A 
ATOM     10  C   UNL A   1      37.828  31.570  28.780  1.00  0.00     0.010 A 
ATOM     11  C   UNL A   1      38.069  30.317  29.352  1.00  0.00    -0.014 A 
BRANCH  11  12
ATOM     12  C   UNL A   1      39.340  29.928  29.986  1.00  0.00     0.031 A 
ATOM     13  C   UNL A   1      39.716  30.569  31.284  1.00  0.00     0.074 A 
ATOM     14  C   UNL A   1      40.005  28.864  29.493  1.00  0.00     0.049 A 
ATOM     15  N   UNL A   1      40.751  30.337  32.043  1.00  0.00    -0.248 NA
ATOM     16  C   UNL A   1      38.793  31.588  31.814  1.00  0.00     0.031 C 
ATOM     17  C   UNL A   1      39.608  28.098  28.304  1.00  0.00     0.029 A 
ATOM     18  N   UNL A   1      41.107  28.200  29.957  1.00  0.00    -0.354 N 
ATOM     19  C   UNL A   1      40.615  31.191  33.129  1.00  0.00     0.074 A 
ATOM     20  C   UNL A   1      39.405  31.956  32.929  1.00  0.00     0.031 C 
ATOM     21  C   UNL A   1      40.429  27.047  28.162  1.00  0.00     0.029 A 
ATOM     22  C   UNL A   1      41.456  27.111  29.193  1.00  0.00     0.049 A 
ATOM     23  H   UNL A   1      41.604  28.477  30.761  1.00  0.00     0.167 HD
ATOM     24  C   UNL A   1      41.436  31.318  34.195  1.00  0.00     0.031 A 
ATOM     25  C   UNL A   1      42.512  26.283  29.299  1.00  0.00     0.031 A 
ATOM     26  C   UNL A   1      42.641  30.549  34.350  1.00  0.00     0.049 A 
ATOM     27  C   UNL A   1      43.473  26.532  30.429  1.00  0.00     0.074 A 
ATOM     28  C   UNL A   1      43.610  30.649  35.329  1.00  0.00     0.029 A 
ATOM     29  N   UNL A   1      43.032  29.526  33.495  1.00  0.00    -0.354 N 
ATOM     30  N   UNL A   1      43.385  27.408  31.405  1.00  0.00    -0.248 NA
ATOM     31  C   UNL A   1      44.677  25.696  30.469  1.00  0.00     0.031 C 
ATOM     32  C   UNL A   1      44.614  29.718  35.038  1.00  0.00     0.029 A 
ATOM     33  C   UNL A   1      44.237  28.995  33.915  1.00  0.00     0.049 A 
ATOM     34  H   UNL A   1      42.525  29.224  32.708  1.00  0.00     0.167 HD
ATOM     35  C   UNL A   1      44.522  27.224  32.180  1.00  0.00     0.074 A 
ATOM     36  C   UNL A   1      45.258  26.127  31.581  1.00  0.00     0.031 C 
ATOM     37  C   UNL A   1      44.934  27.903  33.280  1.00  0.00     0.031 A 
BRANCH  24  38
ATOM     38  C   UNL A   1      41.088  32.368  35.212  1.00  0.00    -0.014 A 
ATOM     39  C   UNL A   1      40.266  32.076  36.316  1.00  0.00     0.010 A 
ATOM     40  C   UNL A   1      41.590  33.673  35.058  1.00  0.00     0.010 A 
ATOM     41  C   UNL A   1      39.930  33.078  37.232  1.00  0.00     0.020 A 
ATOM     42  C   UNL A   1      41.276  34.671  35.984  1.00  0.00     0.020 A 
ATOM     43  C   UNL A   1      40.437  34.369  37.059  1.00  0.00     0.054 A 
BRANCH  43  44
ATOM     44  S   UNL A   1      40.008  35.643  38.278  1.00  0.00     0.124 S 
ATOM     45  O   UNL A   1      38.884  35.025  38.976  1.00  0.00    -0.237 OA
ATOM     46  O   UNL A   1      41.237  35.768  39.055  1.00  0.00    -0.237 OA
ATOM     47  O   UNL A   1      39.668  36.806  37.461  1.00  0.00    -0.744 OA
ENDBRANCH  43  44
ENDBRANCH  24  38
BRANCH  25  48
ATOM     48  C   UNL A   1      42.765  25.233  28.269  1.00  0.00    -0.014 A 
ATOM     49  C   UNL A   1      42.269  23.926  28.410  1.00  0.00     0.010 A 
ATOM     50  C   UNL A   1      43.555  25.538  27.143  1.00  0.00     0.010 A 
ATOM     51  C   UNL A   1      42.591  22.938  27.470  1.00  0.00     0.020 A 
ATOM     52  C   UNL A   1      43.850  24.567  26.183  1.00  0.00     0.020 A 
ATOM     53  C   UNL A   1      43.385  23.265  26.366  1.00  0.00     0.054 A 
BRANCH  53  54
ATOM     54  S   UNL A   1      43.803  21.972  25.163  1.00  0.00     0.124 S 
ATOM     55  O   UNL A   1      42.761  20.981  25.412  1.00  0.00    -0.237 OA
ATOM     56  O   UNL A   1      43.711  22.681  23.890  1.00  0.00    -0.237 OA
ATOM     57  O   UNL A   1      45.154  21.570  25.548  1.00  0.00    -0.744 OA
ENDBRANCH  53  54
ENDBRANCH  25  48
BRANCH  37  58
ATOM     58  C   UNL A   1      46.221  27.450  33.906  1.00  0.00    -0.014 A 
ATOM     59  C   UNL A   1      46.236  26.444  34.888  1.00  0.00     0.010 A 
ATOM     60  C   UNL A   1      47.434  28.020  33.478  1.00  0.00     0.010 A 
ATOM     61  C   UNL A   1      47.443  26.048  35.466  1.00  0.00     0.020 A 
ATOM     62  C   UNL A   1      48.644  27.601  34.031  1.00  0.00     0.020 A 
ATOM     63  C   UNL A   1      48.639  26.631  35.035  1.00  0.00     0.054 A 
BRANCH  63  64
ATOM     64  S   UNL A   1      50.195  26.080  35.782  1.00  0.00     0.124 S 
ATOM     65  O   UNL A   1      49.726  25.381  36.975  1.00  0.00    -0.237 OA
ATOM     66  O   UNL A   1      50.768  25.232  34.740  1.00  0.00    -0.237 OA
ATOM     67  O   UNL A   1      50.917  27.325  36.032  1.00  0.00    -0.744 OA
ENDBRANCH  63  64
ENDBRANCH  37  58
ENDBRANCH  11  12
ENDBRANCH   4   6
ENDBRANCH   3   4
ENDBRANCH   2   3
ENDBRANCH   1   2
BRANCH   1  68
ATOM     68  O   UNL A   1      32.881  29.352  24.510  1.00  0.00    -0.374 OA
BRANCH  68  69
ATOM     69  C   UNL A   1      32.561  28.983  23.162  1.00  0.00     0.202 C 
BRANCH  69  70
ATOM     70  C   UNL A   1      31.046  28.827  23.017  1.00  0.00     0.261 C 
BRANCH  70  71
ATOM     71  O   UNL A   1      30.798  27.541  22.433  1.00  0.00    -0.460 OA
BRANCH  71  72
ATOM     72  C   UNL A   1      30.437  26.586  23.323  1.00  0.00     0.341 C 
ATOM     73  O   UNL A   1      29.311  26.293  23.687  1.00  0.00    -0.246 OA
BRANCH  72  74
ATOM     74  C   UNL A   1      31.613  25.757  23.620  1.00  0.00     0.095 A 
ATOM     75  C   UNL A   1      31.915  25.492  24.962  1.00  0.00     0.019 A 
ATOM     76  C   UNL A   1      32.404  25.222  22.612  1.00  0.00     0.138 A 
ATOM     77  C   UNL A   1      33.027  24.713  25.286  1.00  0.00     0.010 A 
ATOM     78  C   UNL A   1      33.522  24.459  22.933  1.00  0.00     0.049 A 
ATOM     79  F   UNL A   1      32.149  25.462  21.319  1.00  0.00    -0.206 F 
ATOM     80  C   UNL A   1      33.866  24.225  24.274  1.00  0.00    -0.015 A 
BRANCH  80  81
ATOM     81  C   UNL A   1      35.161  23.627  24.602  1.00  0.00    -0.018 A 
ATOM     82  C   UNL A   1      35.875  24.140  25.699  1.00  0.00     0.010 A 
ATOM     83  C   UNL A   1      35.703  22.552  23.887  1.00  0.00     0.010 A 
ATOM     84  C   UNL A   1      37.102  23.600  26.076  1.00  0.00     0.021 A 
ATOM     85  C   UNL A   1      36.939  22.010  24.261  1.00  0.00     0.021 A 
ATOM     86  C   UNL A   1      37.631  22.537  25.353  1.00  0.00     0.041 A 
ATOM     87  Cl  UNL A   1      39.147  21.868  25.815  1.00  0.00    -0.084 Cl
ENDBRANCH  80  81
ENDBRANCH  72  74
ENDBRANCH  71  72
ENDBRANCH  70  71
ENDBRANCH  69  70
ENDBRANCH  68  69
ENDBRANCH   1  68
TORSDOF 18
ENDMDL
