MODEL 1
REMARK VINA RESULT:     -11.8      0.000      0.000
REMARK SMILES O=C(Cc1c(C(=O)c2cc3c(cn2)CCCC3)[nH]c2cc(Cl)ccc12)OCCOCCOC(=O)c1ccc(-c2c3nc(c(-c4ccc(S(=O)(=O)[O-])cc4)c4ccc([nH]4)c(-c4ccc(S(=O)(=O)[O-])cc4)c4nc(c(-c5ccc(S(=O)(=O)[O-])cc5)c5ccc2[nH]5)C=C4)C=C3)cc1
REMARK SMILES IDX 29 1 28 2 27 3 26 4 2 5 1 6 3 7 4 8 5 9 25 10 18 11 19 12
REMARK SMILES IDX 24 13 20 15 23 16 21 17 22 18 6 19 7 20 8 21 9 22 13 23
REMARK SMILES IDX 10 24 12 25 11 26 17 27 14 28 16 29 15 30 30 31 31 32 32 33
REMARK SMILES IDX 33 34 34 35 35 36 36 37 94 38 37 39 93 40 38 41 39 42 40 43
REMARK SMILES IDX 87 44 41 45 92 46 86 47 88 48 42 49 91 50 85 51 84 52 43 54
REMARK SMILES IDX 73 55 54 56 72 57 55 58 58 59 71 60 89 61 56 62 57 63 70 65
REMARK SMILES IDX 90 66 59 67 44 68 45 69 53 70 46 71 52 72 47 73 48 74 49 75
REMARK SMILES IDX 50 76 51 77 74 78 75 79 83 80 76 81 82 82 77 83 78 84 79 85
REMARK SMILES IDX 80 86 81 87 60 88 61 89 69 90 62 91 68 92 63 93 64 94 65 95
REMARK SMILES IDX 66 96 67 97
REMARK H PARENT 18 14 88 53 58 64
REMARK Flexibility Score: inf
ROOT
ATOM      1  O   UNL A   1      39.327  22.701  26.645  1.00  0.00    -0.374 OA
ENDROOT
BRANCH   1   2
ATOM      2  C   UNL A   1      38.604  21.899  25.726  1.00  0.00     0.202 C 
BRANCH   2   3
ATOM      3  C   UNL A   1      37.086  22.069  25.611  1.00  0.00     0.261 C 
BRANCH   3   4
ATOM      4  O   UNL A   1      36.579  22.514  24.348  1.00  0.00    -0.463 OA
BRANCH   4   5
ATOM      5  C   UNL A   1      35.652  23.482  24.150  1.00  0.00     0.310 C 
ATOM      6  O   UNL A   1      35.267  23.713  23.000  1.00  0.00    -0.252 OA
BRANCH   5   7
ATOM      7  C   UNL A   1      35.278  24.429  25.263  1.00  0.00     0.161 C 
BRANCH   7   8
ATOM      8  C   UNL A   1      33.847  24.789  25.541  1.00  0.00     0.000 A 
ATOM      9  C   UNL A   1      32.823  24.035  26.109  1.00  0.00     0.093 A 
ATOM     10  C   UNL A   1      33.275  26.048  25.156  1.00  0.00     0.004 A 
ATOM     11  N   UNL A   1      31.733  24.871  26.234  1.00  0.00    -0.351 N 
ATOM     12  C   UNL A   1      31.949  26.056  25.574  1.00  0.00     0.048 A 
ATOM     13  C   UNL A   1      33.770  27.172  24.459  1.00  0.00     0.012 A 
ATOM     14  H   UNL A   1      30.911  24.648  26.728  1.00  0.00     0.167 HD
ATOM     15  C   UNL A   1      31.078  27.122  25.315  1.00  0.00     0.047 A 
ATOM     16  C   UNL A   1      32.913  28.240  24.171  1.00  0.00     0.021 A 
ATOM     17  C   UNL A   1      31.587  28.205  24.589  1.00  0.00     0.043 A 
ATOM     18  Cl  UNL A   1      30.543  29.517  24.191  1.00  0.00    -0.084 Cl
BRANCH   9  19
ATOM     19  C   UNL A   1      32.843  22.640  26.520  1.00  0.00     0.227 C 
ATOM     20  O   UNL A   1      33.037  22.274  27.674  1.00  0.00    -0.285 OA
BRANCH  19  21
ATOM     21  C   UNL A   1      32.738  21.598  25.485  1.00  0.00     0.113 A 
ATOM     22  C   UNL A   1      33.139  20.328  25.853  1.00  0.00     0.036 A 
ATOM     23  N   UNL A   1      32.294  21.959  24.255  1.00  0.00    -0.252 NA
ATOM     24  C   UNL A   1      33.058  19.321  24.900  1.00  0.00    -0.041 A 
ATOM     25  C   UNL A   1      32.174  20.945  23.366  1.00  0.00     0.115 A 
ATOM     26  C   UNL A   1      32.555  19.627  23.626  1.00  0.00    -0.026 A 
ATOM     27  C   UNL A   1      33.563  17.951  25.259  1.00  0.00     0.036 C 
ATOM     28  C   UNL A   1      32.351  18.549  22.592  1.00  0.00     0.037 C 
ATOM     29  C   UNL A   1      33.068  16.867  24.313  1.00  0.00     0.005 C 
ATOM     30  C   UNL A   1      33.215  17.317  22.863  1.00  0.00     0.005 C 
ENDBRANCH  19  21
ENDBRANCH   9  19
ENDBRANCH   7   8
ENDBRANCH   5   7
ENDBRANCH   4   5
ENDBRANCH   3   4
ENDBRANCH   2   3
ENDBRANCH   1   2
BRANCH   1  31
ATOM     31  C   UNL A   1      40.588  22.245  27.133  1.00  0.00     0.202 C 
BRANCH  31  32
ATOM     32  C   UNL A   1      41.894  22.833  26.592  1.00  0.00     0.261 C 
BRANCH  32  33
ATOM     33  O   UNL A   1      42.351  23.997  27.293  1.00  0.00    -0.460 OA
BRANCH  33  34
ATOM     34  C   UNL A   1      42.138  25.173  26.660  1.00  0.00     0.338 C 
ATOM     35  O   UNL A   1      42.186  25.386  25.454  1.00  0.00    -0.246 OA
BRANCH  34  36
ATOM     36  C   UNL A   1      41.672  26.174  27.628  1.00  0.00     0.060 A 
ATOM     37  C   UNL A   1      40.558  25.910  28.425  1.00  0.00     0.016 A 
ATOM     38  C   UNL A   1      42.415  27.349  27.798  1.00  0.00     0.016 A 
ATOM     39  C   UNL A   1      40.204  26.818  29.422  1.00  0.00     0.010 A 
ATOM     40  C   UNL A   1      42.057  28.257  28.793  1.00  0.00     0.010 A 
ATOM     41  C   UNL A   1      40.964  27.984  29.628  1.00  0.00    -0.014 A 
BRANCH  41  42
ATOM     42  C   UNL A   1      40.700  28.832  30.814  1.00  0.00     0.031 A 
ATOM     43  C   UNL A   1      41.532  28.721  32.054  1.00  0.00     0.074 A 
ATOM     44  C   UNL A   1      39.687  29.718  30.746  1.00  0.00     0.049 A 
ATOM     45  N   UNL A   1      41.481  29.454  33.135  1.00  0.00    -0.248 NA
ATOM     46  C   UNL A   1      42.543  27.653  32.093  1.00  0.00     0.031 C 
ATOM     47  C   UNL A   1      38.804  29.886  29.589  1.00  0.00     0.029 A 
ATOM     48  N   UNL A   1      39.239  30.653  31.645  1.00  0.00    -0.354 N 
ATOM     49  C   UNL A   1      42.469  28.960  33.975  1.00  0.00     0.074 A 
ATOM     50  C   UNL A   1      43.066  27.825  33.302  1.00  0.00     0.031 C 
ATOM     51  C   UNL A   1      37.953  30.893  29.830  1.00  0.00     0.029 A 
ATOM     52  C   UNL A   1      38.198  31.419  31.170  1.00  0.00     0.049 A 
ATOM     53  H   UNL A   1      39.625  30.766  32.544  1.00  0.00     0.167 HD
ATOM     54  C   UNL A   1      42.852  29.433  35.185  1.00  0.00     0.031 A 
ATOM     55  C   UNL A   1      37.523  32.437  31.740  1.00  0.00     0.031 A 
ATOM     56  C   UNL A   1      42.236  30.561  35.840  1.00  0.00     0.049 A 
ATOM     57  C   UNL A   1      37.940  32.913  33.103  1.00  0.00     0.074 A 
ATOM     58  C   UNL A   1      42.579  31.135  37.052  1.00  0.00     0.029 A 
ATOM     59  N   UNL A   1      41.156  31.283  35.350  1.00  0.00    -0.354 N 
ATOM     60  N   UNL A   1      38.926  32.482  33.853  1.00  0.00    -0.248 NA
ATOM     61  C   UNL A   1      37.173  34.018  33.692  1.00  0.00     0.031 C 
ATOM     62  C   UNL A   1      41.658  32.145  37.333  1.00  0.00     0.029 A 
ATOM     63  C   UNL A   1      40.796  32.269  36.255  1.00  0.00     0.049 A 
ATOM     64  H   UNL A   1      40.712  31.119  34.486  1.00  0.00     0.167 HD
ATOM     65  C   UNL A   1      38.911  33.276  34.994  1.00  0.00     0.074 A 
ATOM     66  C   UNL A   1      37.831  34.227  34.826  1.00  0.00     0.031 C 
ATOM     67  C   UNL A   1      39.719  33.216  36.081  1.00  0.00     0.031 A 
BRANCH  54  68
ATOM     68  C   UNL A   1      44.002  28.758  35.890  1.00  0.00    -0.014 A 
ATOM     69  C   UNL A   1      43.751  27.727  36.814  1.00  0.00     0.010 A 
ATOM     70  C   UNL A   1      45.315  29.244  35.752  1.00  0.00     0.010 A 
ATOM     71  C   UNL A   1      44.780  27.219  37.612  1.00  0.00     0.020 A 
ATOM     72  C   UNL A   1      46.355  28.716  36.524  1.00  0.00     0.020 A 
ATOM     73  C   UNL A   1      46.074  27.724  37.467  1.00  0.00     0.054 A 
BRANCH  73  74
ATOM     74  S   UNL A   1      47.388  27.071  38.533  1.00  0.00     0.124 S 
ATOM     75  O   UNL A   1      47.537  25.706  38.041  1.00  0.00    -0.237 OA
ATOM     76  O   UNL A   1      48.500  27.977  38.246  1.00  0.00    -0.237 OA
ATOM     77  O   UNL A   1      46.832  27.196  39.879  1.00  0.00    -0.744 OA
ENDBRANCH  73  74
ENDBRANCH  54  68
BRANCH  55  78
ATOM     78  C   UNL A   1      36.424  33.095  30.976  1.00  0.00    -0.014 A 
ATOM     79  C   UNL A   1      36.715  33.891  29.852  1.00  0.00     0.010 A 
ATOM     80  C   UNL A   1      35.094  33.010  31.422  1.00  0.00     0.010 A 
ATOM     81  C   UNL A   1      35.713  34.639  29.230  1.00  0.00     0.020 A 
ATOM     82  C   UNL A   1      34.080  33.730  30.780  1.00  0.00     0.020 A 
ATOM     83  C   UNL A   1      34.403  34.565  29.709  1.00  0.00     0.054 A 
BRANCH  83  84
ATOM     84  S   UNL A   1      33.134  35.597  28.925  1.00  0.00     0.124 S 
ATOM     85  O   UNL A   1      32.422  34.624  28.101  1.00  0.00    -0.237 OA
ATOM     86  O   UNL A   1      32.390  36.113  30.071  1.00  0.00    -0.237 OA
ATOM     87  O   UNL A   1      33.907  36.592  28.187  1.00  0.00    -0.744 OA
ENDBRANCH  83  84
ENDBRANCH  55  78
BRANCH  67  88
ATOM     88  C   UNL A   1      39.485  34.198  37.204  1.00  0.00    -0.014 A 
ATOM     89  C   UNL A   1      40.139  35.445  37.188  1.00  0.00     0.010 A 
ATOM     90  C   UNL A   1      38.750  33.828  38.344  1.00  0.00     0.010 A 
ATOM     91  C   UNL A   1      40.112  36.277  38.310  1.00  0.00     0.020 A 
ATOM     92  C   UNL A   1      38.690  34.674  39.455  1.00  0.00     0.020 A 
ATOM     93  C   UNL A   1      39.400  35.878  39.443  1.00  0.00     0.054 A 
BRANCH  93  94
ATOM     94  S   UNL A   1      39.436  36.939  40.914  1.00  0.00     0.124 S 
ATOM     95  O   UNL A   1      38.692  36.141  41.885  1.00  0.00    -0.237 OA
ATOM     96  O   UNL A   1      40.866  37.077  41.175  1.00  0.00    -0.237 OA
ATOM     97  O   UNL A   1      38.769  38.162  40.473  1.00  0.00    -0.744 OA
ENDBRANCH  93  94
ENDBRANCH  67  88
ENDBRANCH  41  42
ENDBRANCH  34  36
ENDBRANCH  33  34
ENDBRANCH  32  33
ENDBRANCH  31  32
ENDBRANCH   1  31
TORSDOF 20
ENDMDL
MODEL 2
REMARK VINA RESULT:     -11.3      5.792      8.266
REMARK SMILES O=C(Cc1c(C(=O)c2cc3c(cn2)CCCC3)[nH]c2cc(Cl)ccc12)OCCOCCOC(=O)c1ccc(-c2c3nc(c(-c4ccc(S(=O)(=O)[O-])cc4)c4ccc([nH]4)c(-c4ccc(S(=O)(=O)[O-])cc4)c4nc(c(-c5ccc(S(=O)(=O)[O-])cc5)c5ccc2[nH]5)C=C4)C=C3)cc1
REMARK SMILES IDX 29 1 28 2 27 3 26 4 2 5 1 6 3 7 4 8 5 9 25 10 18 11 19 12
REMARK SMILES IDX 24 13 20 15 23 16 21 17 22 18 6 19 7 20 8 21 9 22 13 23
REMARK SMILES IDX 10 24 12 25 11 26 17 27 14 28 16 29 15 30 30 31 31 32 32 33
REMARK SMILES IDX 33 34 34 35 35 36 36 37 94 38 37 39 93 40 38 41 39 42 40 43
REMARK SMILES IDX 87 44 41 45 92 46 86 47 88 48 42 49 91 50 85 51 84 52 43 54
REMARK SMILES IDX 73 55 54 56 72 57 55 58 58 59 71 60 89 61 56 62 57 63 70 65
REMARK SMILES IDX 90 66 59 67 44 68 45 69 53 70 46 71 52 72 47 73 48 74 49 75
REMARK SMILES IDX 50 76 51 77 74 78 75 79 83 80 76 81 82 82 77 83 78 84 79 85
REMARK SMILES IDX 80 86 81 87 60 88 61 89 69 90 62 91 68 92 63 93 64 94 65 95
REMARK SMILES IDX 66 96 67 97
REMARK H PARENT 18 14 88 53 58 64
REMARK Flexibility Score: inf
ROOT
ATOM      1  O   UNL A   1      37.904  21.400  24.764  1.00  0.00    -0.374 OA
ENDROOT
BRANCH   1   2
ATOM      2  C   UNL A   1      37.469  22.262  25.803  1.00  0.00     0.202 C 
BRANCH   2   3
ATOM      3  C   UNL A   1      37.074  23.704  25.468  1.00  0.00     0.261 C 
BRANCH   3   4
ATOM      4  O   UNL A   1      35.987  23.879  24.553  1.00  0.00    -0.463 OA
BRANCH   4   5
ATOM      5  C   UNL A   1      34.890  24.652  24.745  1.00  0.00     0.310 C 
ATOM      6  O   UNL A   1      34.770  25.263  25.811  1.00  0.00    -0.252 OA
BRANCH   5   7
ATOM      7  C   UNL A   1      33.720  24.577  23.795  1.00  0.00     0.161 C 
BRANCH   7   8
ATOM      8  C   UNL A   1      32.306  24.711  24.280  1.00  0.00     0.000 A 
ATOM      9  C   UNL A   1      31.563  23.894  25.127  1.00  0.00     0.093 A 
ATOM     10  C   UNL A   1      31.430  25.759  23.835  1.00  0.00     0.004 A 
ATOM     11  N   UNL A   1      30.353  24.525  25.334  1.00  0.00    -0.351 N 
ATOM     12  C   UNL A   1      30.212  25.597  24.487  1.00  0.00     0.048 A 
ATOM     13  C   UNL A   1      31.565  26.816  22.909  1.00  0.00     0.012 A 
ATOM     14  H   UNL A   1      29.683  24.245  25.998  1.00  0.00     0.167 HD
ATOM     15  C   UNL A   1      29.107  26.424  24.247  1.00  0.00     0.047 A 
ATOM     16  C   UNL A   1      30.468  27.642  22.638  1.00  0.00     0.021 A 
ATOM     17  C   UNL A   1      29.260  27.438  23.296  1.00  0.00     0.043 A 
ATOM     18  Cl  UNL A   1      27.915  28.448  22.919  1.00  0.00    -0.084 Cl
BRANCH   9  19
ATOM     19  C   UNL A   1      31.938  22.618  25.718  1.00  0.00     0.227 C 
ATOM     20  O   UNL A   1      32.200  22.471  26.907  1.00  0.00    -0.285 OA
BRANCH  19  21
ATOM     21  C   UNL A   1      32.127  21.458  24.832  1.00  0.00     0.113 A 
ATOM     22  C   UNL A   1      32.538  20.286  25.437  1.00  0.00     0.036 A 
ATOM     23  N   UNL A   1      31.920  21.628  23.502  1.00  0.00    -0.252 NA
ATOM     24  C   UNL A   1      32.731  19.173  24.630  1.00  0.00    -0.041 A 
ATOM     25  C   UNL A   1      32.062  20.511  22.751  1.00  0.00     0.115 A 
ATOM     26  C   UNL A   1      32.479  19.277  23.254  1.00  0.00    -0.026 A 
ATOM     27  C   UNL A   1      33.254  17.912  25.261  1.00  0.00     0.036 C 
ATOM     28  C   UNL A   1      32.574  18.071  22.353  1.00  0.00     0.037 C 
ATOM     29  C   UNL A   1      33.047  16.681  24.390  1.00  0.00     0.005 C 
ATOM     30  C   UNL A   1      33.455  16.972  22.949  1.00  0.00     0.005 C 
ENDBRANCH  19  21
ENDBRANCH   9  19
ENDBRANCH   7   8
ENDBRANCH   5   7
ENDBRANCH   4   5
ENDBRANCH   3   4
ENDBRANCH   2   3
ENDBRANCH   1   2
BRANCH   1  31
ATOM     31  C   UNL A   1      37.839  19.987  24.951  1.00  0.00     0.202 C 
BRANCH  31  32
ATOM     32  C   UNL A   1      39.051  19.212  25.478  1.00  0.00     0.261 C 
BRANCH  32  33
ATOM     33  O   UNL A   1      39.944  19.992  26.284  1.00  0.00    -0.460 OA
BRANCH  33  34
ATOM     34  C   UNL A   1      41.253  19.675  26.169  1.00  0.00     0.338 C 
ATOM     35  O   UNL A   1      41.727  18.620  25.764  1.00  0.00    -0.246 OA
BRANCH  34  36
ATOM     36  C   UNL A   1      42.072  20.858  26.460  1.00  0.00     0.060 A 
ATOM     37  C   UNL A   1      42.559  21.645  25.415  1.00  0.00     0.016 A 
ATOM     38  C   UNL A   1      42.277  21.229  27.794  1.00  0.00     0.016 A 
ATOM     39  C   UNL A   1      43.230  22.830  25.713  1.00  0.00     0.010 A 
ATOM     40  C   UNL A   1      42.951  22.413  28.089  1.00  0.00     0.010 A 
ATOM     41  C   UNL A   1      43.409  23.234  27.049  1.00  0.00    -0.014 A 
BRANCH  41  42
ATOM     42  C   UNL A   1      43.939  24.586  27.343  1.00  0.00     0.031 A 
ATOM     43  C   UNL A   1      45.378  24.928  27.106  1.00  0.00     0.074 A 
ATOM     44  C   UNL A   1      43.086  25.509  27.826  1.00  0.00     0.049 A 
ATOM     45  N   UNL A   1      45.967  26.088  27.228  1.00  0.00    -0.248 NA
ATOM     46  C   UNL A   1      46.269  23.836  26.685  1.00  0.00     0.031 C 
ATOM     47  C   UNL A   1      41.670  25.266  28.113  1.00  0.00     0.029 A 
ATOM     48  N   UNL A   1      43.267  26.832  28.144  1.00  0.00    -0.354 N 
ATOM     49  C   UNL A   1      47.293  25.879  26.874  1.00  0.00     0.074 A 
ATOM     50  C   UNL A   1      47.434  24.466  26.587  1.00  0.00     0.031 C 
ATOM     51  C   UNL A   1      41.101  26.410  28.518  1.00  0.00     0.029 A 
ATOM     52  C   UNL A   1      42.115  27.461  28.559  1.00  0.00     0.049 A 
ATOM     53  H   UNL A   1      44.137  27.289  28.080  1.00  0.00     0.167 HD
ATOM     54  C   UNL A   1      48.287  26.794  26.774  1.00  0.00     0.031 A 
ATOM     55  C   UNL A   1      41.892  28.740  28.923  1.00  0.00     0.031 A 
ATOM     56  C   UNL A   1      48.123  28.195  27.074  1.00  0.00     0.049 A 
ATOM     57  C   UNL A   1      43.025  29.725  28.847  1.00  0.00     0.074 A 
ATOM     58  C   UNL A   1      49.064  29.205  26.969  1.00  0.00     0.029 A 
ATOM     59  N   UNL A   1      46.955  28.787  27.535  1.00  0.00    -0.354 N 
ATOM     60  N   UNL A   1      44.255  29.526  28.438  1.00  0.00    -0.248 NA
ATOM     61  C   UNL A   1      42.743  31.105  29.261  1.00  0.00     0.031 C 
ATOM     62  C   UNL A   1      48.494  30.386  27.445  1.00  0.00     0.029 A 
ATOM     63  C   UNL A   1      47.166  30.139  27.759  1.00  0.00     0.049 A 
ATOM     64  H   UNL A   1      46.103  28.316  27.681  1.00  0.00     0.167 HD
ATOM     65  C   UNL A   1      44.890  30.760  28.526  1.00  0.00     0.074 A 
ATOM     66  C   UNL A   1      43.901  31.703  29.007  1.00  0.00     0.031 C 
ATOM     67  C   UNL A   1      46.176  31.076  28.237  1.00  0.00     0.031 A 
BRANCH  54  68
ATOM     68  C   UNL A   1      49.645  26.333  26.309  1.00  0.00    -0.014 A 
ATOM     69  C   UNL A   1      50.576  25.836  27.240  1.00  0.00     0.010 A 
ATOM     70  C   UNL A   1      50.053  26.529  24.977  1.00  0.00     0.010 A 
ATOM     71  C   UNL A   1      51.896  25.581  26.861  1.00  0.00     0.020 A 
ATOM     72  C   UNL A   1      51.365  26.243  24.584  1.00  0.00     0.020 A 
ATOM     73  C   UNL A   1      52.284  25.794  25.536  1.00  0.00     0.054 A 
BRANCH  73  74
ATOM     74  S   UNL A   1      54.009  25.484  25.073  1.00  0.00     0.124 S 
ATOM     75  O   UNL A   1      54.108  26.150  23.778  1.00  0.00    -0.237 OA
ATOM     76  O   UNL A   1      54.743  26.114  26.170  1.00  0.00    -0.237 OA
ATOM     77  O   UNL A   1      54.100  24.025  25.037  1.00  0.00    -0.744 OA
ENDBRANCH  73  74
ENDBRANCH  54  68
BRANCH  55  78
ATOM     78  C   UNL A   1      40.518  29.148  29.332  1.00  0.00    -0.014 A 
ATOM     79  C   UNL A   1      39.572  29.539  28.365  1.00  0.00     0.010 A 
ATOM     80  C   UNL A   1      40.175  29.241  30.693  1.00  0.00     0.010 A 
ATOM     81  C   UNL A   1      38.341  30.075  28.748  1.00  0.00     0.020 A 
ATOM     82  C   UNL A   1      38.929  29.744  31.081  1.00  0.00     0.020 A 
ATOM     83  C   UNL A   1      38.033  30.189  30.106  1.00  0.00     0.054 A 
BRANCH  83  84
ATOM     84  S   UNL A   1      36.455  30.949  30.577  1.00  0.00     0.124 S 
ATOM     85  O   UNL A   1      36.059  30.134  31.722  1.00  0.00    -0.237 OA
ATOM     86  O   UNL A   1      36.843  32.322  30.887  1.00  0.00    -0.237 OA
ATOM     87  O   UNL A   1      35.628  30.792  29.383  1.00  0.00    -0.744 OA
ENDBRANCH  83  84
ENDBRANCH  55  78
BRANCH  67  88
ATOM     88  C   UNL A   1      46.624  32.505  28.429  1.00  0.00    -0.014 A 
ATOM     89  C   UNL A   1      46.532  33.415  27.359  1.00  0.00     0.010 A 
ATOM     90  C   UNL A   1      47.279  32.903  29.609  1.00  0.00     0.010 A 
ATOM     91  C   UNL A   1      47.134  34.673  27.441  1.00  0.00     0.020 A 
ATOM     92  C   UNL A   1      47.851  34.174  29.709  1.00  0.00     0.020 A 
ATOM     93  C   UNL A   1      47.804  35.038  28.612  1.00  0.00     0.054 A 
BRANCH  93  94
ATOM     94  S   UNL A   1      48.641  36.647  28.672  1.00  0.00     0.124 S 
ATOM     95  O   UNL A   1      49.973  36.318  28.171  1.00  0.00    -0.237 OA
ATOM     96  O   UNL A   1      47.819  37.468  27.787  1.00  0.00    -0.237 OA
ATOM     97  O   UNL A   1      48.579  37.013  30.085  1.00  0.00    -0.744 OA
ENDBRANCH  93  94
ENDBRANCH  67  88
ENDBRANCH  41  42
ENDBRANCH  34  36
ENDBRANCH  33  34
ENDBRANCH  32  33
ENDBRANCH  31  32
ENDBRANCH   1  31
TORSDOF 20
ENDMDL
MODEL 3
REMARK VINA RESULT:     -11.3      0.669      7.865
REMARK SMILES O=C(Cc1c(C(=O)c2cc3c(cn2)CCCC3)[nH]c2cc(Cl)ccc12)OCCOCCOC(=O)c1ccc(-c2c3nc(c(-c4ccc(S(=O)(=O)[O-])cc4)c4ccc([nH]4)c(-c4ccc(S(=O)(=O)[O-])cc4)c4nc(c(-c5ccc(S(=O)(=O)[O-])cc5)c5ccc2[nH]5)C=C4)C=C3)cc1
REMARK SMILES IDX 29 1 28 2 27 3 26 4 2 5 1 6 3 7 4 8 5 9 25 10 18 11 19 12
REMARK SMILES IDX 24 13 20 15 23 16 21 17 22 18 6 19 7 20 8 21 9 22 13 23
REMARK SMILES IDX 10 24 12 25 11 26 17 27 14 28 16 29 15 30 30 31 31 32 32 33
REMARK SMILES IDX 33 34 34 35 35 36 36 37 94 38 37 39 93 40 38 41 39 42 40 43
REMARK SMILES IDX 87 44 41 45 92 46 86 47 88 48 42 49 91 50 85 51 84 52 43 54
REMARK SMILES IDX 73 55 54 56 72 57 55 58 58 59 71 60 89 61 56 62 57 63 70 65
REMARK SMILES IDX 90 66 59 67 44 68 45 69 53 70 46 71 52 72 47 73 48 74 49 75
REMARK SMILES IDX 50 76 51 77 74 78 75 79 83 80 76 81 82 82 77 83 78 84 79 85
REMARK SMILES IDX 80 86 81 87 60 88 61 89 69 90 62 91 68 92 63 93 64 94 65 95
REMARK SMILES IDX 66 96 67 97
REMARK H PARENT 18 14 88 53 58 64
REMARK Flexibility Score: inf
ROOT
ATOM      1  O   UNL A   1      39.775  21.500  25.688  1.00  0.00    -0.374 OA
ENDROOT
BRANCH   1   2
ATOM      2  C   UNL A   1      38.390  21.721  25.895  1.00  0.00     0.202 C 
BRANCH   2   3
ATOM      3  C   UNL A   1      37.416  21.540  24.727  1.00  0.00     0.261 C 
BRANCH   3   4
ATOM      4  O   UNL A   1      36.120  22.130  24.869  1.00  0.00    -0.463 OA
BRANCH   4   5
ATOM      5  C   UNL A   1      35.717  23.320  24.361  1.00  0.00     0.310 C 
ATOM      6  O   UNL A   1      35.879  23.541  23.158  1.00  0.00    -0.252 OA
BRANCH   5   7
ATOM      7  C   UNL A   1      35.314  24.450  25.277  1.00  0.00     0.161 C 
BRANCH   7   8
ATOM      8  C   UNL A   1      33.871  24.782  25.524  1.00  0.00     0.000 A 
ATOM      9  C   UNL A   1      32.851  24.011  26.076  1.00  0.00     0.093 A 
ATOM     10  C   UNL A   1      33.282  26.029  25.122  1.00  0.00     0.004 A 
ATOM     11  N   UNL A   1      31.742  24.826  26.175  1.00  0.00    -0.351 N 
ATOM     12  C   UNL A   1      31.948  26.012  25.514  1.00  0.00     0.048 A 
ATOM     13  C   UNL A   1      33.769  27.159  24.430  1.00  0.00     0.012 A 
ATOM     14  H   UNL A   1      30.915  24.589  26.654  1.00  0.00     0.167 HD
ATOM     15  C   UNL A   1      31.061  27.060  25.232  1.00  0.00     0.047 A 
ATOM     16  C   UNL A   1      32.896  28.208  24.119  1.00  0.00     0.021 A 
ATOM     17  C   UNL A   1      31.563  28.149  24.512  1.00  0.00     0.043 A 
ATOM     18  Cl  UNL A   1      30.502  29.438  24.087  1.00  0.00    -0.084 Cl
BRANCH   9  19
ATOM     19  C   UNL A   1      32.890  22.618  26.494  1.00  0.00     0.227 C 
ATOM     20  O   UNL A   1      33.110  22.261  27.646  1.00  0.00    -0.285 OA
BRANCH  19  21
ATOM     21  C   UNL A   1      32.773  21.570  25.467  1.00  0.00     0.113 A 
ATOM     22  C   UNL A   1      33.172  20.301  25.840  1.00  0.00     0.036 A 
ATOM     23  N   UNL A   1      32.319  21.924  24.239  1.00  0.00    -0.252 NA
ATOM     24  C   UNL A   1      33.080  19.288  24.895  1.00  0.00    -0.041 A 
ATOM     25  C   UNL A   1      32.188  20.905  23.358  1.00  0.00     0.115 A 
ATOM     26  C   UNL A   1      32.567  19.588  23.623  1.00  0.00    -0.026 A 
ATOM     27  C   UNL A   1      33.585  17.919  25.259  1.00  0.00     0.036 C 
ATOM     28  C   UNL A   1      32.350  18.503  22.598  1.00  0.00     0.037 C 
ATOM     29  C   UNL A   1      33.078  16.830  24.324  1.00  0.00     0.005 C 
ATOM     30  C   UNL A   1      33.213  17.270  22.870  1.00  0.00     0.005 C 
ENDBRANCH  19  21
ENDBRANCH   9  19
ENDBRANCH   7   8
ENDBRANCH   5   7
ENDBRANCH   4   5
ENDBRANCH   3   4
ENDBRANCH   2   3
ENDBRANCH   1   2
BRANCH   1  31
ATOM     31  C   UNL A   1      40.663  21.510  26.804  1.00  0.00     0.202 C 
BRANCH  31  32
ATOM     32  C   UNL A   1      40.862  22.782  27.633  1.00  0.00     0.261 C 
BRANCH  32  33
ATOM     33  O   UNL A   1      41.161  23.950  26.856  1.00  0.00    -0.460 OA
BRANCH  33  34
ATOM     34  C   UNL A   1      40.190  24.890  26.829  1.00  0.00     0.338 C 
ATOM     35  O   UNL A   1      39.245  24.958  26.052  1.00  0.00    -0.246 OA
BRANCH  34  36
ATOM     36  C   UNL A   1      40.329  25.773  27.994  1.00  0.00     0.060 A 
ATOM     37  C   UNL A   1      41.439  26.610  28.108  1.00  0.00     0.016 A 
ATOM     38  C   UNL A   1      39.291  25.824  28.932  1.00  0.00     0.016 A 
ATOM     39  C   UNL A   1      41.494  27.528  29.157  1.00  0.00     0.010 A 
ATOM     40  C   UNL A   1      39.349  26.741  29.980  1.00  0.00     0.010 A 
ATOM     41  C   UNL A   1      40.440  27.616  30.084  1.00  0.00    -0.014 A 
BRANCH  41  42
ATOM     42  C   UNL A   1      40.416  28.726  31.065  1.00  0.00     0.031 A 
ATOM     43  C   UNL A   1      39.425  29.843  30.956  1.00  0.00     0.074 A 
ATOM     44  C   UNL A   1      41.313  28.702  32.070  1.00  0.00     0.049 A 
ATOM     45  N   UNL A   1      39.222  30.833  31.785  1.00  0.00    -0.248 NA
ATOM     46  C   UNL A   1      38.556  29.859  29.769  1.00  0.00     0.031 C 
ATOM     47  C   UNL A   1      42.335  27.667  32.250  1.00  0.00     0.029 A 
ATOM     48  N   UNL A   1      41.504  29.545  33.135  1.00  0.00    -0.354 N 
ATOM     49  C   UNL A   1      38.185  31.577  31.241  1.00  0.00     0.074 A 
ATOM     50  C   UNL A   1      37.838  30.957  29.979  1.00  0.00     0.031 C 
ATOM     51  C   UNL A   1      43.013  27.911  33.380  1.00  0.00     0.029 A 
ATOM     52  C   UNL A   1      42.504  29.138  33.988  1.00  0.00     0.049 A 
ATOM     53  H   UNL A   1      40.975  30.364  33.277  1.00  0.00     0.167 HD
ATOM     54  C   UNL A   1      37.568  32.662  31.767  1.00  0.00     0.031 A 
ATOM     55  C   UNL A   1      42.958  29.680  35.137  1.00  0.00     0.031 A 
ATOM     56  C   UNL A   1      37.938  33.268  33.023  1.00  0.00     0.049 A 
ATOM     57  C   UNL A   1      42.284  30.911  35.675  1.00  0.00     0.074 A 
ATOM     58  C   UNL A   1      37.348  34.349  33.654  1.00  0.00     0.029 A 
ATOM     59  N   UNL A   1      38.984  32.856  33.837  1.00  0.00    -0.354 N 
ATOM     60  N   UNL A   1      41.254  31.560  35.185  1.00  0.00    -0.248 NA
ATOM     61  C   UNL A   1      42.814  31.475  36.922  1.00  0.00     0.031 C 
ATOM     62  C   UNL A   1      38.086  34.642  34.801  1.00  0.00     0.029 A 
ATOM     63  C   UNL A   1      39.081  33.688  34.941  1.00  0.00     0.049 A 
ATOM     64  H   UNL A   1      39.570  32.086  33.656  1.00  0.00     0.167 HD
ATOM     65  C   UNL A   1      41.000  32.597  36.075  1.00  0.00     0.074 A 
ATOM     66  C   UNL A   1      41.971  32.476  37.144  1.00  0.00     0.031 C 
ATOM     67  C   UNL A   1      40.049  33.562  36.005  1.00  0.00     0.031 A 
BRANCH  54  68
ATOM     68  C   UNL A   1      36.415  33.271  31.010  1.00  0.00    -0.014 A 
ATOM     69  C   UNL A   1      36.642  33.907  29.775  1.00  0.00     0.010 A 
ATOM     70  C   UNL A   1      35.134  33.346  31.589  1.00  0.00     0.010 A 
ATOM     71  C   UNL A   1      35.626  34.636  29.152  1.00  0.00     0.020 A 
ATOM     72  C   UNL A   1      34.105  34.047  30.953  1.00  0.00     0.020 A 
ATOM     73  C   UNL A   1      34.366  34.708  29.750  1.00  0.00     0.054 A 
BRANCH  73  74
ATOM     74  S   UNL A   1      33.071  35.684  28.938  1.00  0.00     0.124 S 
ATOM     75  O   UNL A   1      32.300  36.182  30.072  1.00  0.00    -0.237 OA
ATOM     76  O   UNL A   1      33.848  36.685  28.209  1.00  0.00    -0.237 OA
ATOM     77  O   UNL A   1      32.385  34.710  28.091  1.00  0.00    -0.744 OA
ENDBRANCH  73  74
ENDBRANCH  54  68
BRANCH  55  78
ATOM     78  C   UNL A   1      44.072  29.008  35.864  1.00  0.00    -0.014 A 
ATOM     79  C   UNL A   1      45.411  29.325  35.565  1.00  0.00     0.010 A 
ATOM     80  C   UNL A   1      43.807  27.981  36.787  1.00  0.00     0.010 A 
ATOM     81  C   UNL A   1      46.459  28.588  36.122  1.00  0.00     0.020 A 
ATOM     82  C   UNL A   1      44.855  27.264  37.375  1.00  0.00     0.020 A 
ATOM     83  C   UNL A   1      46.172  27.551  37.013  1.00  0.00     0.054 A 
BRANCH  83  84
ATOM     84  S   UNL A   1      47.548  26.568  37.670  1.00  0.00     0.124 S 
ATOM     85  O   UNL A   1      48.698  27.184  37.013  1.00  0.00    -0.237 OA
ATOM     86  O   UNL A   1      47.447  26.800  39.108  1.00  0.00    -0.237 OA
ATOM     87  O   UNL A   1      47.236  25.208  37.237  1.00  0.00    -0.744 OA
ENDBRANCH  83  84
ENDBRANCH  55  78
BRANCH  67  88
ATOM     88  C   UNL A   1      39.990  34.590  37.109  1.00  0.00    -0.014 A 
ATOM     89  C   UNL A   1      40.790  35.747  37.029  1.00  0.00     0.010 A 
ATOM     90  C   UNL A   1      39.270  34.340  38.291  1.00  0.00     0.010 A 
ATOM     91  C   UNL A   1      40.917  36.601  38.127  1.00  0.00     0.020 A 
ATOM     92  C   UNL A   1      39.366  35.211  39.379  1.00  0.00     0.020 A 
ATOM     93  C   UNL A   1      40.215  36.318  39.301  1.00  0.00     0.054 A 
BRANCH  93  94
ATOM     94  S   UNL A   1      40.450  37.400  40.739  1.00  0.00     0.124 S 
ATOM     95  O   UNL A   1      41.113  36.509  41.687  1.00  0.00    -0.237 OA
ATOM     96  O   UNL A   1      41.278  38.475  40.199  1.00  0.00    -0.237 OA
ATOM     97  O   UNL A   1      39.089  37.792  41.100  1.00  0.00    -0.744 OA
ENDBRANCH  93  94
ENDBRANCH  67  88
ENDBRANCH  41  42
ENDBRANCH  34  36
ENDBRANCH  33  34
ENDBRANCH  32  33
ENDBRANCH  31  32
ENDBRANCH   1  31
TORSDOF 20
ENDMDL
