MODEL 1
REMARK VINA RESULT:     -10.2      0.000      0.000
REMARK SMILES COC(=O)c1cccc(-c2cnc(Cl)cc2C(=O)OCCOCCOC(=O)c2ccc(-c3c4nc(c(-c5ccc(S(=O)(=O)[O-])cc5)c5ccc([nH]5)c(-c5ccc(S(=O)(=O)[O-])cc5)c5nc(c(-c6ccc(S(=O)(=O)[O-])cc6)c6ccc3[nH]6)C=C5)C=C4)cc2)c1
REMARK SMILES IDX 22 1 21 2 20 3 19 4 17 5 18 6 16 7 10 8 11 9 12 10 15 11
REMARK SMILES IDX 13 12 14 13 9 14 5 15 6 16 88 17 7 18 8 19 3 20 4 21 2 22
REMARK SMILES IDX 1 23 23 24 24 25 25 26 26 27 27 28 28 29 29 30 87 31 30 32
REMARK SMILES IDX 86 33 31 34 32 35 33 36 80 37 34 38 85 39 79 40 81 41 35 42
REMARK SMILES IDX 84 43 78 44 77 45 36 47 66 48 47 49 65 50 48 51 51 52 64 53
REMARK SMILES IDX 82 54 49 55 50 56 63 58 83 59 52 60 37 61 38 62 46 63 39 64
REMARK SMILES IDX 45 65 40 66 41 67 42 68 43 69 44 70 67 71 68 72 76 73 69 74
REMARK SMILES IDX 75 75 70 76 71 77 72 78 73 79 74 80 53 81 54 82 62 83 55 84
REMARK SMILES IDX 61 85 56 86 57 87 58 88 59 89 60 90
REMARK H PARENT 81 46 51 57
REMARK Flexibility Score: inf
ROOT
ATOM      1  O   UNL A   1      37.824  21.620  24.719  1.00  0.00    -0.374 OA
ENDROOT
BRANCH   1   2
ATOM      2  C   UNL A   1      37.291  22.490  25.718  1.00  0.00     0.202 C 
BRANCH   2   3
ATOM      3  C   UNL A   1      36.468  23.686  25.233  1.00  0.00     0.261 C 
BRANCH   3   4
ATOM      4  O   UNL A   1      35.106  23.289  24.980  1.00  0.00    -0.460 OA
BRANCH   4   5
ATOM      5  C   UNL A   1      34.369  24.145  24.231  1.00  0.00     0.339 C 
ATOM      6  O   UNL A   1      34.626  24.538  23.105  1.00  0.00    -0.246 OA
BRANCH   5   7
ATOM      7  C   UNL A   1      33.122  24.478  24.961  1.00  0.00     0.072 A 
ATOM      8  C   UNL A   1      31.992  23.633  24.893  1.00  0.00     0.015 A 
ATOM      9  C   UNL A   1      30.850  24.094  25.541  1.00  0.00     0.122 A 
ATOM     10  N   UNL A   1      30.774  25.249  26.243  1.00  0.00    -0.244 NA
ATOM     11  C   UNL A   1      33.085  25.663  25.702  1.00  0.00     0.057 A 
ATOM     12  C   UNL A   1      31.896  25.992  26.314  1.00  0.00     0.129 A 
ATOM     13  Cl  UNL A   1      31.746  27.427  27.240  1.00  0.00    -0.062 Cl
BRANCH   8  14
ATOM     14  C   UNL A   1      31.988  22.317  24.234  1.00  0.00    -0.015 A 
ATOM     15  C   UNL A   1      32.441  19.912  24.316  1.00  0.00     0.060 A 
ATOM     16  C   UNL A   1      32.285  19.843  22.928  1.00  0.00     0.016 A 
ATOM     17  C   UNL A   1      32.242  21.141  24.968  1.00  0.00     0.024 A 
ATOM     18  C   UNL A   1      31.946  20.983  22.201  1.00  0.00     0.002 A 
ATOM     19  C   UNL A   1      31.809  22.212  22.848  1.00  0.00     0.009 A 
BRANCH  15  20
ATOM     20  C   UNL A   1      32.934  18.691  25.018  1.00  0.00     0.337 C 
ATOM     21  O   UNL A   1      32.400  18.241  26.019  1.00  0.00    -0.246 OA
BRANCH  20  22
ATOM     22  O   UNL A   1      33.994  18.142  24.371  1.00  0.00    -0.465 OA
ATOM     23  C   UNL A   1      33.891  16.724  24.183  1.00  0.00     0.282 C 
ENDBRANCH  20  22
ENDBRANCH  15  20
ENDBRANCH   8  14
ENDBRANCH   5   7
ENDBRANCH   4   5
ENDBRANCH   3   4
ENDBRANCH   2   3
ENDBRANCH   1   2
BRANCH   1  24
ATOM     24  C   UNL A   1      38.022  20.260  25.074  1.00  0.00     0.202 C 
BRANCH  24  25
ATOM     25  C   UNL A   1      39.386  19.820  25.613  1.00  0.00     0.261 C 
BRANCH  25  26
ATOM     26  O   UNL A   1      40.253  20.914  25.896  1.00  0.00    -0.460 OA
BRANCH  26  27
ATOM     27  C   UNL A   1      40.715  20.909  27.171  1.00  0.00     0.338 C 
ATOM     28  O   UNL A   1      40.985  19.938  27.859  1.00  0.00    -0.246 OA
BRANCH  27  29
ATOM     29  C   UNL A   1      41.024  22.290  27.561  1.00  0.00     0.060 A 
ATOM     30  C   UNL A   1      40.453  23.319  26.802  1.00  0.00     0.016 A 
ATOM     31  C   UNL A   1      41.869  22.567  28.637  1.00  0.00     0.016 A 
ATOM     32  C   UNL A   1      40.765  24.641  27.092  1.00  0.00     0.010 A 
ATOM     33  C   UNL A   1      42.189  23.893  28.919  1.00  0.00     0.010 A 
ATOM     34  C   UNL A   1      41.666  24.930  28.125  1.00  0.00    -0.014 A 
BRANCH  34  35
ATOM     35  C   UNL A   1      42.192  26.303  28.273  1.00  0.00     0.031 A 
ATOM     36  C   UNL A   1      43.626  26.563  27.901  1.00  0.00     0.074 A 
ATOM     37  C   UNL A   1      41.399  27.294  28.716  1.00  0.00     0.049 A 
ATOM     38  N   UNL A   1      44.315  27.668  27.999  1.00  0.00    -0.248 NA
ATOM     39  C   UNL A   1      44.386  25.426  27.354  1.00  0.00     0.031 C 
ATOM     40  C   UNL A   1      39.983  27.157  29.056  1.00  0.00     0.029 A 
ATOM     41  N   UNL A   1      41.678  28.613  28.960  1.00  0.00    -0.354 N 
ATOM     42  C   UNL A   1      45.593  27.355  27.550  1.00  0.00     0.074 A 
ATOM     43  C   UNL A   1      45.591  25.954  27.195  1.00  0.00     0.031 C 
ATOM     44  C   UNL A   1      39.517  28.349  29.471  1.00  0.00     0.029 A 
ATOM     45  C   UNL A   1      40.610  29.317  29.465  1.00  0.00     0.049 A 
ATOM     46  H   UNL A   1      42.560  29.019  28.791  1.00  0.00     0.167 HD
ATOM     47  C   UNL A   1      46.668  28.167  27.445  1.00  0.00     0.031 A 
ATOM     48  C   UNL A   1      40.539  30.592  29.895  1.00  0.00     0.031 A 
ATOM     49  C   UNL A   1      46.653  29.562  27.797  1.00  0.00     0.049 A 
ATOM     50  C   UNL A   1      41.775  31.454  29.829  1.00  0.00     0.074 A 
ATOM     51  C   UNL A   1      47.679  30.484  27.689  1.00  0.00     0.029 A 
ATOM     52  N   UNL A   1      45.564  30.232  28.329  1.00  0.00    -0.354 N 
ATOM     53  N   UNL A   1      42.964  31.157  29.360  1.00  0.00    -0.248 NA
ATOM     54  C   UNL A   1      41.655  32.825  30.342  1.00  0.00     0.031 C 
ATOM     55  C   UNL A   1      47.232  31.694  28.225  1.00  0.00     0.029 A 
ATOM     56  C   UNL A   1      45.903  31.547  28.593  1.00  0.00     0.049 A 
ATOM     57  H   UNL A   1      44.679  29.832  28.497  1.00  0.00     0.167 HD
ATOM     58  C   UNL A   1      43.721  32.317  29.486  1.00  0.00     0.074 A 
ATOM     59  C   UNL A   1      42.852  33.322  30.063  1.00  0.00     0.031 C 
ATOM     60  C   UNL A   1      45.017  32.535  29.153  1.00  0.00     0.031 A 
BRANCH  47  61
ATOM     61  C   UNL A   1      47.966  27.571  26.972  1.00  0.00    -0.014 A 
ATOM     62  C   UNL A   1      48.314  27.552  25.610  1.00  0.00     0.010 A 
ATOM     63  C   UNL A   1      48.890  27.097  27.921  1.00  0.00     0.010 A 
ATOM     64  C   UNL A   1      49.558  27.060  25.206  1.00  0.00     0.020 A 
ATOM     65  C   UNL A   1      50.146  26.629  27.525  1.00  0.00     0.020 A 
ATOM     66  C   UNL A   1      50.469  26.608  26.167  1.00  0.00     0.054 A 
BRANCH  66  67
ATOM     67  S   UNL A   1      52.102  26.041  25.618  1.00  0.00     0.124 S 
ATOM     68  O   UNL A   1      52.996  26.869  26.425  1.00  0.00    -0.237 OA
ATOM     69  O   UNL A   1      52.079  24.622  25.963  1.00  0.00    -0.237 OA
ATOM     70  O   UNL A   1      52.109  26.333  24.187  1.00  0.00    -0.744 OA
ENDBRANCH  66  67
ENDBRANCH  47  61
BRANCH  48  71
ATOM     71  C   UNL A   1      39.268  31.132  30.454  1.00  0.00    -0.014 A 
ATOM     72  C   UNL A   1      38.363  31.830  29.635  1.00  0.00     0.010 A 
ATOM     73  C   UNL A   1      38.976  30.986  31.823  1.00  0.00     0.010 A 
ATOM     74  C   UNL A   1      37.213  32.408  30.181  1.00  0.00     0.020 A 
ATOM     75  C   UNL A   1      37.810  31.533  32.367  1.00  0.00     0.020 A 
ATOM     76  C   UNL A   1      36.947  32.259  31.545  1.00  0.00     0.054 A 
BRANCH  76  77
ATOM     77  S   UNL A   1      35.446  33.014  32.231  1.00  0.00     0.124 S 
ATOM     78  O   UNL A   1      35.705  34.436  32.032  1.00  0.00    -0.237 OA
ATOM     79  O   UNL A   1      34.395  32.439  31.398  1.00  0.00    -0.237 OA
ATOM     80  O   UNL A   1      35.444  32.566  33.622  1.00  0.00    -0.744 OA
ENDBRANCH  76  77
ENDBRANCH  48  71
BRANCH  60  81
ATOM     81  C   UNL A   1      45.564  33.926  29.344  1.00  0.00    -0.014 A 
ATOM     82  C   UNL A   1      45.441  34.908  28.345  1.00  0.00     0.010 A 
ATOM     83  C   UNL A   1      46.149  34.271  30.577  1.00  0.00     0.010 A 
ATOM     84  C   UNL A   1      45.924  36.201  28.565  1.00  0.00     0.020 A 
ATOM     85  C   UNL A   1      46.601  35.570  30.813  1.00  0.00     0.020 A 
ATOM     86  C   UNL A   1      46.497  36.524  29.800  1.00  0.00     0.054 A 
BRANCH  86  87
ATOM     87  S   UNL A   1      47.067  38.223  30.077  1.00  0.00     0.124 S 
ATOM     88  O   UNL A   1      47.391  38.660  28.722  1.00  0.00    -0.237 OA
ATOM     89  O   UNL A   1      45.897  38.858  30.680  1.00  0.00    -0.237 OA
ATOM     90  O   UNL A   1      48.212  38.064  30.970  1.00  0.00    -0.744 OA
ENDBRANCH  86  87
ENDBRANCH  60  81
ENDBRANCH  34  35
ENDBRANCH  27  29
ENDBRANCH  26  27
ENDBRANCH  25  26
ENDBRANCH  24  25
ENDBRANCH   1  24
TORSDOF 20
ENDMDL
MODEL 2
REMARK VINA RESULT:     -10.2      2.366      8.879
REMARK SMILES COC(=O)c1cccc(-c2cnc(Cl)cc2C(=O)OCCOCCOC(=O)c2ccc(-c3c4nc(c(-c5ccc(S(=O)(=O)[O-])cc5)c5ccc([nH]5)c(-c5ccc(S(=O)(=O)[O-])cc5)c5nc(c(-c6ccc(S(=O)(=O)[O-])cc6)c6ccc3[nH]6)C=C5)C=C4)cc2)c1
REMARK SMILES IDX 22 1 21 2 20 3 19 4 17 5 18 6 16 7 10 8 11 9 12 10 15 11
REMARK SMILES IDX 13 12 14 13 9 14 5 15 6 16 88 17 7 18 8 19 3 20 4 21 2 22
REMARK SMILES IDX 1 23 23 24 24 25 25 26 26 27 27 28 28 29 29 30 87 31 30 32
REMARK SMILES IDX 86 33 31 34 32 35 33 36 80 37 34 38 85 39 79 40 81 41 35 42
REMARK SMILES IDX 84 43 78 44 77 45 36 47 66 48 47 49 65 50 48 51 51 52 64 53
REMARK SMILES IDX 82 54 49 55 50 56 63 58 83 59 52 60 37 61 38 62 46 63 39 64
REMARK SMILES IDX 45 65 40 66 41 67 42 68 43 69 44 70 67 71 68 72 76 73 69 74
REMARK SMILES IDX 75 75 70 76 71 77 72 78 73 79 74 80 53 81 54 82 62 83 55 84
REMARK SMILES IDX 61 85 56 86 57 87 58 88 59 89 60 90
REMARK H PARENT 81 46 51 57
REMARK Flexibility Score: inf
ROOT
ATOM      1  O   UNL A   1      38.020  20.430  24.797  1.00  0.00    -0.374 OA
ENDROOT
BRANCH   1   2
ATOM      2  C   UNL A   1      38.085  21.681  25.483  1.00  0.00     0.202 C 
BRANCH   2   3
ATOM      3  C   UNL A   1      36.758  22.388  25.769  1.00  0.00     0.261 C 
BRANCH   3   4
ATOM      4  O   UNL A   1      35.700  21.810  24.980  1.00  0.00    -0.460 OA
BRANCH   4   5
ATOM      5  C   UNL A   1      34.714  21.192  25.674  1.00  0.00     0.339 C 
ATOM      6  O   UNL A   1      34.393  21.400  26.832  1.00  0.00    -0.246 OA
BRANCH   5   7
ATOM      7  C   UNL A   1      33.997  20.259  24.770  1.00  0.00     0.072 A 
ATOM      8  C   UNL A   1      32.846  20.672  24.063  1.00  0.00     0.015 A 
ATOM      9  C   UNL A   1      32.204  19.686  23.320  1.00  0.00     0.122 A 
ATOM     10  N   UNL A   1      32.627  18.405  23.209  1.00  0.00    -0.244 NA
ATOM     11  C   UNL A   1      34.476  18.951  24.655  1.00  0.00     0.057 A 
ATOM     12  C   UNL A   1      33.757  18.079  23.868  1.00  0.00     0.129 A 
ATOM     13  Cl  UNL A   1      34.258  16.452  23.666  1.00  0.00    -0.062 Cl
BRANCH   8  14
ATOM     14  C   UNL A   1      32.349  22.057  24.040  1.00  0.00    -0.015 A 
ATOM     15  C   UNL A   1      32.665  24.406  23.425  1.00  0.00     0.060 A 
ATOM     16  C   UNL A   1      31.584  24.757  24.238  1.00  0.00     0.016 A 
ATOM     17  C   UNL A   1      33.010  23.050  23.290  1.00  0.00     0.024 A 
ATOM     18  C   UNL A   1      30.865  23.774  24.916  1.00  0.00     0.002 A 
ATOM     19  C   UNL A   1      31.252  22.436  24.826  1.00  0.00     0.009 A 
BRANCH  15  20
ATOM     20  C   UNL A   1      33.474  25.513  22.835  1.00  0.00     0.337 C 
ATOM     21  O   UNL A   1      33.972  26.401  23.508  1.00  0.00    -0.246 OA
BRANCH  20  22
ATOM     22  O   UNL A   1      33.614  25.362  21.493  1.00  0.00    -0.465 OA
ATOM     23  C   UNL A   1      32.443  25.708  20.742  1.00  0.00     0.282 C 
ENDBRANCH  20  22
ENDBRANCH  15  20
ENDBRANCH   8  14
ENDBRANCH   5   7
ENDBRANCH   4   5
ENDBRANCH   3   4
ENDBRANCH   2   3
ENDBRANCH   1   2
BRANCH   1  24
ATOM     24  C   UNL A   1      38.745  19.343  25.351  1.00  0.00     0.202 C 
BRANCH  24  25
ATOM     25  C   UNL A   1      40.029  19.623  26.137  1.00  0.00     0.261 C 
BRANCH  25  26
ATOM     26  O   UNL A   1      41.210  19.285  25.415  1.00  0.00    -0.460 OA
BRANCH  26  27
ATOM     27  C   UNL A   1      42.330  19.333  26.177  1.00  0.00     0.338 C 
ATOM     28  O   UNL A   1      43.082  18.412  26.452  1.00  0.00    -0.246 OA
BRANCH  27  29
ATOM     29  C   UNL A   1      42.619  20.738  26.494  1.00  0.00     0.060 A 
ATOM     30  C   UNL A   1      42.895  21.598  25.425  1.00  0.00     0.016 A 
ATOM     31  C   UNL A   1      42.635  21.193  27.813  1.00  0.00     0.016 A 
ATOM     32  C   UNL A   1      43.236  22.920  25.677  1.00  0.00     0.010 A 
ATOM     33  C   UNL A   1      42.988  22.517  28.064  1.00  0.00     0.010 A 
ATOM     34  C   UNL A   1      43.324  23.373  27.000  1.00  0.00    -0.014 A 
BRANCH  34  35
ATOM     35  C   UNL A   1      43.925  24.693  27.281  1.00  0.00     0.031 A 
ATOM     36  C   UNL A   1      43.034  25.789  27.796  1.00  0.00     0.074 A 
ATOM     37  C   UNL A   1      45.241  24.899  27.093  1.00  0.00     0.049 A 
ATOM     38  N   UNL A   1      43.327  27.034  28.059  1.00  0.00    -0.248 NA
ATOM     39  C   UNL A   1      41.624  25.438  28.041  1.00  0.00     0.031 C 
ATOM     40  C   UNL A   1      46.200  23.889  26.643  1.00  0.00     0.029 A 
ATOM     41  N   UNL A   1      45.994  26.032  27.251  1.00  0.00    -0.354 N 
ATOM     42  C   UNL A   1      42.137  27.620  28.475  1.00  0.00     0.074 A 
ATOM     43  C   UNL A   1      41.114  26.602  28.415  1.00  0.00     0.031 C 
ATOM     44  C   UNL A   1      47.418  24.453  26.558  1.00  0.00     0.029 A 
ATOM     45  C   UNL A   1      47.315  25.868  26.906  1.00  0.00     0.049 A 
ATOM     46  H   UNL A   1      45.625  26.883  27.582  1.00  0.00     0.167 HD
ATOM     47  C   UNL A   1      41.923  28.895  28.871  1.00  0.00     0.031 A 
ATOM     48  C   UNL A   1      48.315  26.769  26.853  1.00  0.00     0.031 A 
ATOM     49  C   UNL A   1      42.954  29.897  28.931  1.00  0.00     0.049 A 
ATOM     50  C   UNL A   1      48.028  28.199  27.236  1.00  0.00     0.074 A 
ATOM     51  C   UNL A   1      42.850  31.209  29.358  1.00  0.00     0.029 A 
ATOM     52  N   UNL A   1      44.271  29.701  28.547  1.00  0.00    -0.354 N 
ATOM     53  N   UNL A   1      46.909  28.729  27.671  1.00  0.00    -0.248 NA
ATOM     54  C   UNL A   1      49.142  29.151  27.128  1.00  0.00     0.031 C 
ATOM     55  C   UNL A   1      44.087  31.827  29.163  1.00  0.00     0.029 A 
ATOM     56  C   UNL A   1      44.982  30.880  28.690  1.00  0.00     0.049 A 
ATOM     57  H   UNL A   1      44.645  28.851  28.221  1.00  0.00     0.167 HD
ATOM     58  C   UNL A   1      47.197  30.065  27.926  1.00  0.00     0.074 A 
ATOM     59  C   UNL A   1      48.596  30.259  27.608  1.00  0.00     0.031 C 
ATOM     60  C   UNL A   1      46.380  31.046  28.384  1.00  0.00     0.031 A 
BRANCH  47  61
ATOM     61  C   UNL A   1      40.520  29.302  29.231  1.00  0.00    -0.014 A 
ATOM     62  C   UNL A   1      40.083  29.333  30.567  1.00  0.00     0.010 A 
ATOM     63  C   UNL A   1      39.650  29.741  28.215  1.00  0.00     0.010 A 
ATOM     64  C   UNL A   1      38.798  29.786  30.878  1.00  0.00     0.020 A 
ATOM     65  C   UNL A   1      38.375  30.219  28.524  1.00  0.00     0.020 A 
ATOM     66  C   UNL A   1      37.954  30.233  29.855  1.00  0.00     0.054 A 
BRANCH  66  67
ATOM     67  S   UNL A   1      36.319  30.881  30.297  1.00  0.00     0.124 S 
ATOM     68  O   UNL A   1      36.028  30.152  31.529  1.00  0.00    -0.237 OA
ATOM     69  O   UNL A   1      36.576  32.310  30.458  1.00  0.00    -0.237 OA
ATOM     70  O   UNL A   1      35.483  30.525  29.153  1.00  0.00    -0.744 OA
ENDBRANCH  66  67
ENDBRANCH  47  61
BRANCH  48  71
ATOM     71  C   UNL A   1      49.674  26.365  26.396  1.00  0.00    -0.014 A 
ATOM     72  C   UNL A   1      50.605  25.825  27.302  1.00  0.00     0.010 A 
ATOM     73  C   UNL A   1      50.060  26.558  25.057  1.00  0.00     0.010 A 
ATOM     74  C   UNL A   1      51.906  25.526  26.888  1.00  0.00     0.020 A 
ATOM     75  C   UNL A   1      51.350  26.229  24.631  1.00  0.00     0.020 A 
ATOM     76  C   UNL A   1      52.271  25.734  25.555  1.00  0.00     0.054 A 
BRANCH  76  77
ATOM     77  S   UNL A   1      53.965  25.336  25.039  1.00  0.00     0.124 S 
ATOM     78  O   UNL A   1      54.111  26.146  23.833  1.00  0.00    -0.237 OA
ATOM     79  O   UNL A   1      54.753  25.766  26.190  1.00  0.00    -0.237 OA
ATOM     80  O   UNL A   1      53.925  23.892  24.824  1.00  0.00    -0.744 OA
ENDBRANCH  76  77
ENDBRANCH  48  71
BRANCH  60  81
ATOM     81  C   UNL A   1      46.986  32.403  28.630  1.00  0.00    -0.014 A 
ATOM     82  C   UNL A   1      47.602  32.722  29.853  1.00  0.00     0.010 A 
ATOM     83  C   UNL A   1      46.997  33.350  27.589  1.00  0.00     0.010 A 
ATOM     84  C   UNL A   1      48.190  33.976  30.040  1.00  0.00     0.020 A 
ATOM     85  C   UNL A   1      47.613  34.590  27.759  1.00  0.00     0.020 A 
ATOM     86  C   UNL A   1      48.194  34.901  28.989  1.00  0.00     0.054 A 
BRANCH  86  87
ATOM     87  S   UNL A   1      49.010  36.501  29.241  1.00  0.00     0.124 S 
ATOM     88  O   UNL A   1      50.349  36.096  29.661  1.00  0.00    -0.237 OA
ATOM     89  O   UNL A   1      48.926  37.114  27.917  1.00  0.00    -0.237 OA
ATOM     90  O   UNL A   1      48.201  37.145  30.272  1.00  0.00    -0.744 OA
ENDBRANCH  86  87
ENDBRANCH  60  81
ENDBRANCH  34  35
ENDBRANCH  27  29
ENDBRANCH  26  27
ENDBRANCH  25  26
ENDBRANCH  24  25
ENDBRANCH   1  24
TORSDOF 20
ENDMDL
MODEL 3
REMARK VINA RESULT:     -10.2      2.994      4.086
REMARK SMILES COC(=O)c1cccc(-c2cnc(Cl)cc2C(=O)OCCOCCOC(=O)c2ccc(-c3c4nc(c(-c5ccc(S(=O)(=O)[O-])cc5)c5ccc([nH]5)c(-c5ccc(S(=O)(=O)[O-])cc5)c5nc(c(-c6ccc(S(=O)(=O)[O-])cc6)c6ccc3[nH]6)C=C5)C=C4)cc2)c1
REMARK SMILES IDX 22 1 21 2 20 3 19 4 17 5 18 6 16 7 10 8 11 9 12 10 15 11
REMARK SMILES IDX 13 12 14 13 9 14 5 15 6 16 88 17 7 18 8 19 3 20 4 21 2 22
REMARK SMILES IDX 1 23 23 24 24 25 25 26 26 27 27 28 28 29 29 30 87 31 30 32
REMARK SMILES IDX 86 33 31 34 32 35 33 36 80 37 34 38 85 39 79 40 81 41 35 42
REMARK SMILES IDX 84 43 78 44 77 45 36 47 66 48 47 49 65 50 48 51 51 52 64 53
REMARK SMILES IDX 82 54 49 55 50 56 63 58 83 59 52 60 37 61 38 62 46 63 39 64
REMARK SMILES IDX 45 65 40 66 41 67 42 68 43 69 44 70 67 71 68 72 76 73 69 74
REMARK SMILES IDX 75 75 70 76 71 77 72 78 73 79 74 80 53 81 54 82 62 83 55 84
REMARK SMILES IDX 61 85 56 86 57 87 58 88 59 89 60 90
REMARK H PARENT 81 46 51 57
REMARK Flexibility Score: inf
ROOT
ATOM      1  O   UNL A   1      34.845  24.089  23.322  1.00  0.00    -0.374 OA
ENDROOT
BRANCH   1   2
ATOM      2  C   UNL A   1      34.445  25.213  24.106  1.00  0.00     0.202 C 
BRANCH   2   3
ATOM      3  C   UNL A   1      33.723  26.349  23.377  1.00  0.00     0.261 C 
BRANCH   3   4
ATOM      4  O   UNL A   1      33.486  27.452  24.274  1.00  0.00    -0.460 OA
BRANCH   4   5
ATOM      5  C   UNL A   1      32.535  27.254  25.218  1.00  0.00     0.339 C 
ATOM      6  O   UNL A   1      32.715  27.066  26.410  1.00  0.00    -0.246 OA
BRANCH   5   7
ATOM      7  C   UNL A   1      31.196  27.393  24.594  1.00  0.00     0.072 A 
ATOM      8  C   UNL A   1      30.325  26.285  24.488  1.00  0.00     0.015 A 
ATOM      9  C   UNL A   1      29.136  26.513  23.801  1.00  0.00     0.122 A 
ATOM     10  N   UNL A   1      28.762  27.704  23.279  1.00  0.00    -0.244 NA
ATOM     11  C   UNL A   1      30.827  28.644  24.091  1.00  0.00     0.057 A 
ATOM     12  C   UNL A   1      29.611  28.737  23.451  1.00  0.00     0.129 A 
ATOM     13  Cl  UNL A   1      29.070  30.224  22.794  1.00  0.00    -0.062 Cl
BRANCH   8  14
ATOM     14  C   UNL A   1      30.591  24.971  25.094  1.00  0.00    -0.015 A 
ATOM     15  C   UNL A   1      31.377  22.662  24.873  1.00  0.00     0.060 A 
ATOM     16  C   UNL A   1      30.832  22.365  26.126  1.00  0.00     0.016 A 
ATOM     17  C   UNL A   1      31.297  23.978  24.387  1.00  0.00     0.024 A 
ATOM     18  C   UNL A   1      30.208  23.360  26.876  1.00  0.00     0.002 A 
ATOM     19  C   UNL A   1      30.079  24.651  26.359  1.00  0.00     0.009 A 
BRANCH  15  20
ATOM     20  C   UNL A   1      31.910  21.528  24.065  1.00  0.00     0.337 C 
ATOM     21  O   UNL A   1      32.263  21.650  22.902  1.00  0.00    -0.246 OA
BRANCH  20  22
ATOM     22  O   UNL A   1      31.994  20.390  24.801  1.00  0.00    -0.465 OA
ATOM     23  C   UNL A   1      33.331  19.900  24.968  1.00  0.00     0.282 C 
ENDBRANCH  20  22
ENDBRANCH  15  20
ENDBRANCH   8  14
ENDBRANCH   5   7
ENDBRANCH   4   5
ENDBRANCH   3   4
ENDBRANCH   2   3
ENDBRANCH   1   2
BRANCH   1  24
ATOM     24  C   UNL A   1      35.470  23.009  23.997  1.00  0.00     0.202 C 
BRANCH  24  25
ATOM     25  C   UNL A   1      36.966  23.094  24.318  1.00  0.00     0.261 C 
BRANCH  25  26
ATOM     26  O   UNL A   1      37.235  23.756  25.550  1.00  0.00    -0.460 OA
BRANCH  26  27
ATOM     27  C   UNL A   1      38.347  23.290  26.171  1.00  0.00     0.338 C 
ATOM     28  O   UNL A   1      38.811  22.163  26.115  1.00  0.00    -0.246 OA
BRANCH  27  29
ATOM     29  C   UNL A   1      39.037  24.421  26.804  1.00  0.00     0.060 A 
ATOM     30  C   UNL A   1      38.751  24.682  28.149  1.00  0.00     0.016 A 
ATOM     31  C   UNL A   1      39.932  25.216  26.086  1.00  0.00     0.016 A 
ATOM     32  C   UNL A   1      39.330  25.779  28.775  1.00  0.00     0.010 A 
ATOM     33  C   UNL A   1      40.503  26.321  26.712  1.00  0.00     0.010 A 
ATOM     34  C   UNL A   1      40.176  26.625  28.047  1.00  0.00    -0.014 A 
BRANCH  34  35
ATOM     35  C   UNL A   1      40.589  27.920  28.627  1.00  0.00     0.031 A 
ATOM     36  C   UNL A   1      42.002  28.062  29.121  1.00  0.00     0.074 A 
ATOM     37  C   UNL A   1      39.722  28.945  28.696  1.00  0.00     0.049 A 
ATOM     38  N   UNL A   1      42.570  29.078  29.713  1.00  0.00    -0.248 NA
ATOM     39  C   UNL A   1      42.893  26.904  28.928  1.00  0.00     0.031 C 
ATOM     40  C   UNL A   1      38.346  28.925  28.201  1.00  0.00     0.029 A 
ATOM     41  N   UNL A   1      39.875  30.203  29.218  1.00  0.00    -0.354 N 
ATOM     42  C   UNL A   1      43.872  28.676  29.985  1.00  0.00     0.074 A 
ATOM     43  C   UNL A   1      44.008  27.318  29.510  1.00  0.00     0.031 C 
ATOM     44  C   UNL A   1      37.777  30.118  28.449  1.00  0.00     0.029 A 
ATOM     45  C   UNL A   1      38.734  30.967  29.154  1.00  0.00     0.049 A 
ATOM     46  H   UNL A   1      40.721  30.529  29.602  1.00  0.00     0.167 HD
ATOM     47  C   UNL A   1      44.861  29.379  30.580  1.00  0.00     0.031 A 
ATOM     48  C   UNL A   1      38.489  32.201  29.638  1.00  0.00     0.031 A 
ATOM     49  C   UNL A   1      44.712  30.733  31.042  1.00  0.00     0.049 A 
ATOM     50  C   UNL A   1      39.594  32.934  30.356  1.00  0.00     0.074 A 
ATOM     51  C   UNL A   1      45.666  31.551  31.621  1.00  0.00     0.029 A 
ATOM     52  N   UNL A   1      43.535  31.463  30.986  1.00  0.00    -0.354 N 
ATOM     53  N   UNL A   1      40.834  32.558  30.566  1.00  0.00    -0.248 NA
ATOM     54  C   UNL A   1      39.268  34.262  30.894  1.00  0.00     0.031 C 
ATOM     55  C   UNL A   1      45.047  32.750  31.982  1.00  0.00     0.029 A 
ATOM     56  C   UNL A   1      43.728  32.710  31.556  1.00  0.00     0.049 A 
ATOM     57  H   UNL A   1      42.688  31.143  30.599  1.00  0.00     0.167 HD
ATOM     58  C   UNL A   1      41.444  33.620  31.226  1.00  0.00     0.074 A 
ATOM     59  C   UNL A   1      40.442  34.655  31.368  1.00  0.00     0.031 C 
ATOM     60  C   UNL A   1      42.720  33.732  31.672  1.00  0.00     0.031 A 
BRANCH  47  61
ATOM     61  C   UNL A   1      46.182  28.696  30.807  1.00  0.00    -0.014 A 
ATOM     62  C   UNL A   1      46.395  27.854  31.912  1.00  0.00     0.010 A 
ATOM     63  C   UNL A   1      47.202  28.837  29.847  1.00  0.00     0.010 A 
ATOM     64  C   UNL A   1      47.607  27.174  32.059  1.00  0.00     0.020 A 
ATOM     65  C   UNL A   1      48.405  28.138  29.975  1.00  0.00     0.020 A 
ATOM     66  C   UNL A   1      48.602  27.315  31.085  1.00  0.00     0.054 A 
BRANCH  66  67
ATOM     67  S   UNL A   1      50.136  26.365  31.265  1.00  0.00     0.124 S 
ATOM     68  O   UNL A   1      49.801  25.118  30.582  1.00  0.00    -0.237 OA
ATOM     69  O   UNL A   1      51.115  27.210  30.586  1.00  0.00    -0.237 OA
ATOM     70  O   UNL A   1      50.309  26.253  32.711  1.00  0.00    -0.744 OA
ENDBRANCH  66  67
ENDBRANCH  47  61
BRANCH  48  71
ATOM     71  C   UNL A   1      37.142  32.818  29.489  1.00  0.00    -0.014 A 
ATOM     72  C   UNL A   1      36.614  33.093  28.214  1.00  0.00     0.010 A 
ATOM     73  C   UNL A   1      36.394  33.174  30.627  1.00  0.00     0.010 A 
ATOM     74  C   UNL A   1      35.387  33.749  28.081  1.00  0.00     0.020 A 
ATOM     75  C   UNL A   1      35.151  33.800  30.498  1.00  0.00     0.020 A 
ATOM     76  C   UNL A   1      34.666  34.102  29.225  1.00  0.00     0.054 A 
BRANCH  76  77
ATOM     77  S   UNL A   1      33.073  34.950  29.028  1.00  0.00     0.124 S 
ATOM     78  O   UNL A   1      33.490  36.278  28.588  1.00  0.00    -0.237 OA
ATOM     79  O   UNL A   1      32.403  34.131  28.023  1.00  0.00    -0.237 OA
ATOM     80  O   UNL A   1      32.487  34.888  30.365  1.00  0.00    -0.744 OA
ENDBRANCH  76  77
ENDBRANCH  48  71
BRANCH  60  81
ATOM     81  C   UNL A   1      43.128  35.038  32.303  1.00  0.00    -0.014 A 
ATOM     82  C   UNL A   1      43.703  36.072  31.544  1.00  0.00     0.010 A 
ATOM     83  C   UNL A   1      42.864  35.254  33.668  1.00  0.00     0.010 A 
ATOM     84  C   UNL A   1      44.037  37.287  32.147  1.00  0.00     0.020 A 
ATOM     85  C   UNL A   1      43.164  36.479  34.267  1.00  0.00     0.020 A 
ATOM     86  C   UNL A   1      43.761  37.484  33.505  1.00  0.00     0.054 A 
BRANCH  86  87
ATOM     87  S   UNL A   1      44.156  39.088  34.251  1.00  0.00     0.124 S 
ATOM     88  O   UNL A   1      45.379  39.459  33.545  1.00  0.00    -0.237 OA
ATOM     89  O   UNL A   1      42.977  39.890  33.928  1.00  0.00    -0.237 OA
ATOM     90  O   UNL A   1      44.323  38.781  35.669  1.00  0.00    -0.744 OA
ENDBRANCH  86  87
ENDBRANCH  60  81
ENDBRANCH  34  35
ENDBRANCH  27  29
ENDBRANCH  26  27
ENDBRANCH  25  26
ENDBRANCH  24  25
ENDBRANCH   1  24
TORSDOF 20
ENDMDL
