MODEL 1
REMARK VINA RESULT:      -7.5      0.000      0.000
REMARK SMILES CC(=O)Oc1ccccc1SCCCCCC(=O)OCCOCCOC(=O)c1ccc(-c2c3nc(c(-c4ccc(S(=O)(=O)[O-])cc4)c4ccc([nH]4)c(-c4ccc(S(=O)(=O)[O-])cc4)c4nc(c(-c5ccc(S(=O)(=O)[O-])cc5)c5ccc2[nH]5)C=C4)C=C3)cc1
REMARK SMILES IDX 20 1 19 2 17 3 18 4 16 5 15 6 14 7 13 8 12 9 11 10 10 11
REMARK SMILES IDX 5 12 6 13 7 14 9 15 8 16 4 17 2 18 1 19 3 20 21 21 22 22
REMARK SMILES IDX 23 23 24 24 25 25 26 26 27 27 28 28 29 29 87 30 30 31 86 32
REMARK SMILES IDX 31 33 32 34 33 35 80 36 34 37 85 38 79 39 81 40 35 41 84 42
REMARK SMILES IDX 78 43 77 44 36 46 66 47 47 48 65 49 48 50 51 51 64 52 82 53
REMARK SMILES IDX 49 54 50 55 63 57 83 58 52 59 37 60 38 61 46 62 39 63 45 64
REMARK SMILES IDX 40 65 41 66 42 67 43 68 44 69 67 70 68 71 76 72 69 73 75 74
REMARK SMILES IDX 70 75 71 76 72 77 73 78 74 79 53 80 54 81 62 82 55 83 61 84
REMARK SMILES IDX 56 85 57 86 58 87 59 88 60 89
REMARK H PARENT 81 45 51 56
REMARK Flexibility Score: inf
ROOT
ATOM      1  C   UNL A   1      43.879  19.255  25.190  1.00  0.00     0.261 C 
ENDROOT
BRANCH   1   2
ATOM      2  O   UNL A   1      43.673  20.672  25.090  1.00  0.00    -0.463 OA
BRANCH   2   3
ATOM      3  C   UNL A   1      44.771  21.432  24.876  1.00  0.00     0.305 C 
ATOM      4  O   UNL A   1      45.894  21.199  25.303  1.00  0.00    -0.252 OA
BRANCH   3   5
ATOM      5  C   UNL A   1      44.432  22.576  23.944  1.00  0.00     0.123 C 
BRANCH   5   6
ATOM      6  C   UNL A   1      44.402  23.934  24.677  1.00  0.00     0.012 C 
BRANCH   6   7
ATOM      7  C   UNL A   1      45.291  24.227  25.910  1.00  0.00     0.001 C 
BRANCH   7   8
ATOM      8  C   UNL A   1      46.665  24.924  25.923  1.00  0.00     0.011 C 
BRANCH   8   9
ATOM      9  C   UNL A   1      47.003  26.412  26.216  1.00  0.00     0.075 C 
BRANCH   9  10
ATOM     10  S   UNL A   1      46.788  27.411  27.761  1.00  0.00    -0.122 SA
BRANCH  10  11
ATOM     11  C   UNL A   1      45.547  28.661  27.504  1.00  0.00     0.050 A 
ATOM     12  C   UNL A   1      45.648  30.052  27.669  1.00  0.00     0.144 A 
ATOM     13  C   UNL A   1      44.607  30.897  27.240  1.00  0.00     0.048 A 
ATOM     14  C   UNL A   1      43.411  30.353  26.764  1.00  0.00     0.004 A 
ATOM     15  C   UNL A   1      44.280  28.146  27.173  1.00  0.00     0.019 A 
ATOM     16  C   UNL A   1      43.221  28.977  26.804  1.00  0.00     0.001 A 
BRANCH  12  17
ATOM     17  O   UNL A   1      46.710  30.656  28.376  1.00  0.00    -0.426 OA
BRANCH  17  18
ATOM     18  C   UNL A   1      47.634  31.144  27.506  1.00  0.00     0.308 C 
ATOM     19  C   UNL A   1      48.366  32.361  27.924  1.00  0.00     0.139 C 
ATOM     20  O   UNL A   1      47.896  30.646  26.426  1.00  0.00    -0.252 OA
ENDBRANCH  17  18
ENDBRANCH  12  17
ENDBRANCH  10  11
ENDBRANCH   9  10
ENDBRANCH   8   9
ENDBRANCH   7   8
ENDBRANCH   6   7
ENDBRANCH   5   6
ENDBRANCH   3   5
ENDBRANCH   2   3
ENDBRANCH   1   2
BRANCH   1  21
ATOM     21  C   UNL A   1      43.028  18.716  26.346  1.00  0.00     0.202 C 
BRANCH  21  22
ATOM     22  O   UNL A   1      41.656  18.447  26.054  1.00  0.00    -0.374 OA
BRANCH  22  23
ATOM     23  C   UNL A   1      40.782  19.559  25.874  1.00  0.00     0.202 C 
BRANCH  23  24
ATOM     24  C   UNL A   1      40.850  20.704  26.913  1.00  0.00     0.261 C 
BRANCH  24  25
ATOM     25  O   UNL A   1      40.847  22.031  26.352  1.00  0.00    -0.460 OA
BRANCH  25  26
ATOM     26  C   UNL A   1      39.649  22.666  26.390  1.00  0.00     0.338 C 
ATOM     27  O   UNL A   1      38.562  22.192  26.099  1.00  0.00    -0.246 OA
BRANCH  26  28
ATOM     28  C   UNL A   1      39.787  23.987  27.038  1.00  0.00     0.060 A 
ATOM     29  C   UNL A   1      40.880  24.776  26.654  1.00  0.00     0.016 A 
ATOM     30  C   UNL A   1      38.926  24.422  28.046  1.00  0.00     0.016 A 
ATOM     31  C   UNL A   1      41.132  25.989  27.290  1.00  0.00     0.010 A 
ATOM     32  C   UNL A   1      39.193  25.635  28.698  1.00  0.00     0.010 A 
ATOM     33  C   UNL A   1      40.309  26.414  28.340  1.00  0.00    -0.014 A 
BRANCH  33  34
ATOM     34  C   UNL A   1      40.687  27.617  29.124  1.00  0.00     0.031 A 
ATOM     35  C   UNL A   1      41.994  27.635  29.870  1.00  0.00     0.074 A 
ATOM     36  C   UNL A   1      39.887  28.699  29.145  1.00  0.00     0.049 A 
ATOM     37  N   UNL A   1      42.492  28.566  30.642  1.00  0.00    -0.248 NA
ATOM     38  C   UNL A   1      42.851  26.449  29.725  1.00  0.00     0.031 C 
ATOM     39  C   UNL A   1      38.624  28.828  28.419  1.00  0.00     0.029 A 
ATOM     40  N   UNL A   1      40.017  29.895  29.809  1.00  0.00    -0.354 N 
ATOM     41  C   UNL A   1      43.714  28.073  31.090  1.00  0.00     0.074 A 
ATOM     42  C   UNL A   1      43.870  26.753  30.517  1.00  0.00     0.031 C 
ATOM     43  C   UNL A   1      38.085  30.028  28.692  1.00  0.00     0.029 A 
ATOM     44  C   UNL A   1      38.942  30.735  29.643  1.00  0.00     0.049 A 
ATOM     45  H   UNL A   1      40.804  30.127  30.352  1.00  0.00     0.167 HD
ATOM     46  C   UNL A   1      44.620  28.665  31.905  1.00  0.00     0.031 A 
ATOM     47  C   UNL A   1      38.660  31.921  30.219  1.00  0.00     0.031 A 
ATOM     48  C   UNL A   1      44.450  29.973  32.486  1.00  0.00     0.049 A 
ATOM     49  C   UNL A   1      39.640  32.523  31.192  1.00  0.00     0.074 A 
ATOM     50  C   UNL A   1      45.323  30.669  33.304  1.00  0.00     0.029 A 
ATOM     51  N   UNL A   1      43.329  30.773  32.327  1.00  0.00    -0.354 N 
ATOM     52  N   UNL A   1      40.807  32.061  31.576  1.00  0.00    -0.248 NA
ATOM     53  C   UNL A   1      39.269  33.805  31.805  1.00  0.00     0.031 C 
ATOM     54  C   UNL A   1      44.699  31.855  33.699  1.00  0.00     0.029 A 
ATOM     55  C   UNL A   1      43.468  31.935  33.068  1.00  0.00     0.049 A 
ATOM     56  H   UNL A   1      42.549  30.548  31.771  1.00  0.00     0.167 HD
ATOM     57  C   UNL A   1      41.316  33.006  32.462  1.00  0.00     0.074 A 
ATOM     58  C   UNL A   1      40.339  34.073  32.542  1.00  0.00     0.031 C 
ATOM     59  C   UNL A   1      42.487  32.990  33.147  1.00  0.00     0.031 A 
BRANCH  46  60
ATOM     60  C   UNL A   1      45.856  27.880  32.265  1.00  0.00    -0.014 A 
ATOM     61  C   UNL A   1      45.868  26.981  33.347  1.00  0.00     0.010 A 
ATOM     62  C   UNL A   1      47.015  28.017  31.479  1.00  0.00     0.010 A 
ATOM     63  C   UNL A   1      47.031  26.270  33.663  1.00  0.00     0.020 A 
ATOM     64  C   UNL A   1      48.168  27.285  31.772  1.00  0.00     0.020 A 
ATOM     65  C   UNL A   1      48.175  26.429  32.874  1.00  0.00     0.054 A 
BRANCH  65  66
ATOM     66  S   UNL A   1      49.664  25.486  33.300  1.00  0.00     0.124 S 
ATOM     67  O   UNL A   1      49.189  24.658  34.407  1.00  0.00    -0.237 OA
ATOM     68  O   UNL A   1      49.955  24.771  32.062  1.00  0.00    -0.237 OA
ATOM     69  O   UNL A   1      50.635  26.515  33.667  1.00  0.00    -0.744 OA
ENDBRANCH  65  66
ENDBRANCH  46  60
BRANCH  47  70
ATOM     70  C   UNL A   1      37.364  32.593  29.923  1.00  0.00    -0.014 A 
ATOM     71  C   UNL A   1      36.234  32.377  30.730  1.00  0.00     0.010 A 
ATOM     72  C   UNL A   1      37.262  33.474  28.828  1.00  0.00     0.010 A 
ATOM     73  C   UNL A   1      35.027  33.025  30.446  1.00  0.00     0.020 A 
ATOM     74  C   UNL A   1      36.068  34.147  28.560  1.00  0.00     0.020 A 
ATOM     75  C   UNL A   1      34.954  33.911  29.367  1.00  0.00     0.054 A 
BRANCH  75  76
ATOM     76  S   UNL A   1      33.399  34.795  29.062  1.00  0.00     0.124 S 
ATOM     77  O   UNL A   1      33.873  36.077  28.553  1.00  0.00    -0.237 OA
ATOM     78  O   UNL A   1      32.734  33.931  28.088  1.00  0.00    -0.237 OA
ATOM     79  O   UNL A   1      32.765  34.837  30.379  1.00  0.00    -0.744 OA
ENDBRANCH  75  76
ENDBRANCH  47  70
BRANCH  59  80
ATOM     80  C   UNL A   1      42.798  34.169  34.033  1.00  0.00    -0.014 A 
ATOM     81  C   UNL A   1      42.531  34.136  35.413  1.00  0.00     0.010 A 
ATOM     82  C   UNL A   1      43.443  35.296  33.489  1.00  0.00     0.010 A 
ATOM     83  C   UNL A   1      42.885  35.215  36.228  1.00  0.00     0.020 A 
ATOM     84  C   UNL A   1      43.825  36.363  34.306  1.00  0.00     0.020 A 
ATOM     85  C   UNL A   1      43.535  36.320  35.671  1.00  0.00     0.054 A 
BRANCH  85  86
ATOM     86  S   UNL A   1      44.044  37.676  36.763  1.00  0.00     0.124 S 
ATOM     87  O   UNL A   1      45.270  37.145  37.356  1.00  0.00    -0.237 OA
ATOM     88  O   UNL A   1      44.226  38.786  35.831  1.00  0.00    -0.237 OA
ATOM     89  O   UNL A   1      42.920  37.821  37.685  1.00  0.00    -0.744 OA
ENDBRANCH  85  86
ENDBRANCH  59  80
ENDBRANCH  33  34
ENDBRANCH  26  28
ENDBRANCH  25  26
ENDBRANCH  24  25
ENDBRANCH  23  24
ENDBRANCH  22  23
ENDBRANCH  21  22
ENDBRANCH   1  21
TORSDOF 25
ENDMDL
MODEL 2
REMARK VINA RESULT:      -7.5      4.188     11.068
REMARK SMILES CC(=O)Oc1ccccc1SCCCCCC(=O)OCCOCCOC(=O)c1ccc(-c2c3nc(c(-c4ccc(S(=O)(=O)[O-])cc4)c4ccc([nH]4)c(-c4ccc(S(=O)(=O)[O-])cc4)c4nc(c(-c5ccc(S(=O)(=O)[O-])cc5)c5ccc2[nH]5)C=C4)C=C3)cc1
REMARK SMILES IDX 20 1 19 2 17 3 18 4 16 5 15 6 14 7 13 8 12 9 11 10 10 11
REMARK SMILES IDX 5 12 6 13 7 14 9 15 8 16 4 17 2 18 1 19 3 20 21 21 22 22
REMARK SMILES IDX 23 23 24 24 25 25 26 26 27 27 28 28 29 29 87 30 30 31 86 32
REMARK SMILES IDX 31 33 32 34 33 35 80 36 34 37 85 38 79 39 81 40 35 41 84 42
REMARK SMILES IDX 78 43 77 44 36 46 66 47 47 48 65 49 48 50 51 51 64 52 82 53
REMARK SMILES IDX 49 54 50 55 63 57 83 58 52 59 37 60 38 61 46 62 39 63 45 64
REMARK SMILES IDX 40 65 41 66 42 67 43 68 44 69 67 70 68 71 76 72 69 73 75 74
REMARK SMILES IDX 70 75 71 76 72 77 73 78 74 79 53 80 54 81 62 82 55 83 61 84
REMARK SMILES IDX 56 85 57 86 58 87 59 88 60 89
REMARK H PARENT 81 45 51 56
REMARK Flexibility Score: inf
ROOT
ATOM      1  C   UNL A   1      31.038  25.877  24.778  1.00  0.00     0.261 C 
ENDROOT
BRANCH   1   2
ATOM      2  O   UNL A   1      32.295  25.945  24.088  1.00  0.00    -0.463 OA
BRANCH   2   3
ATOM      3  C   UNL A   1      32.480  25.071  23.074  1.00  0.00     0.305 C 
ATOM      4  O   UNL A   1      33.452  25.038  22.331  1.00  0.00    -0.252 OA
BRANCH   3   5
ATOM      5  C   UNL A   1      31.349  24.067  23.044  1.00  0.00     0.123 C 
BRANCH   5   6
ATOM      6  C   UNL A   1      31.796  22.671  23.526  1.00  0.00     0.012 C 
BRANCH   6   7
ATOM      7  C   UNL A   1      32.172  21.537  22.540  1.00  0.00     0.001 C 
BRANCH   7   8
ATOM      8  C   UNL A   1      32.142  20.021  22.810  1.00  0.00     0.011 C 
BRANCH   8   9
ATOM      9  C   UNL A   1      33.151  19.151  23.609  1.00  0.00     0.075 C 
BRANCH   9  10
ATOM     10  S   UNL A   1      33.813  19.351  25.327  1.00  0.00    -0.122 SA
BRANCH  10  11
ATOM     11  C   UNL A   1      34.124  21.073  25.658  1.00  0.00     0.050 A 
ATOM     12  C   UNL A   1      35.009  21.949  25.009  1.00  0.00     0.144 A 
ATOM     13  C   UNL A   1      34.982  23.327  25.296  1.00  0.00     0.048 A 
ATOM     14  C   UNL A   1      34.167  23.818  26.319  1.00  0.00     0.004 A 
ATOM     15  C   UNL A   1      33.437  21.570  26.780  1.00  0.00     0.019 A 
ATOM     16  C   UNL A   1      33.453  22.927  27.111  1.00  0.00     0.001 A 
BRANCH  12  17
ATOM     17  O   UNL A   1      36.037  21.495  24.156  1.00  0.00    -0.426 OA
BRANCH  17  18
ATOM     18  C   UNL A   1      37.056  20.968  24.887  1.00  0.00     0.308 C 
ATOM     19  C   UNL A   1      37.892  21.922  25.648  1.00  0.00     0.139 C 
ATOM     20  O   UNL A   1      37.313  19.779  24.955  1.00  0.00    -0.252 OA
ENDBRANCH  17  18
ENDBRANCH  12  17
ENDBRANCH  10  11
ENDBRANCH   9  10
ENDBRANCH   8   9
ENDBRANCH   7   8
ENDBRANCH   6   7
ENDBRANCH   5   6
ENDBRANCH   3   5
ENDBRANCH   2   3
ENDBRANCH   1   2
BRANCH   1  21
ATOM     21  C   UNL A   1      31.003  26.981  25.841  1.00  0.00     0.202 C 
BRANCH  21  22
ATOM     22  O   UNL A   1      31.847  28.110  25.614  1.00  0.00    -0.374 OA
BRANCH  22  23
ATOM     23  C   UNL A   1      32.865  28.387  26.575  1.00  0.00     0.202 C 
BRANCH  23  24
ATOM     24  C   UNL A   1      32.883  29.794  27.218  1.00  0.00     0.261 C 
BRANCH  24  25
ATOM     25  O   UNL A   1      34.088  30.549  26.988  1.00  0.00    -0.460 OA
BRANCH  25  26
ATOM     26  C   UNL A   1      34.568  31.207  28.073  1.00  0.00     0.338 C 
ATOM     27  O   UNL A   1      33.977  32.037  28.745  1.00  0.00    -0.246 OA
BRANCH  26  28
ATOM     28  C   UNL A   1      35.868  30.637  28.485  1.00  0.00     0.060 A 
ATOM     29  C   UNL A   1      35.886  29.866  29.655  1.00  0.00     0.016 A 
ATOM     30  C   UNL A   1      37.055  30.903  27.799  1.00  0.00     0.016 A 
ATOM     31  C   UNL A   1      37.090  29.378  30.159  1.00  0.00     0.010 A 
ATOM     32  C   UNL A   1      38.268  30.426  28.320  1.00  0.00     0.010 A 
ATOM     33  C   UNL A   1      38.294  29.681  29.514  1.00  0.00    -0.014 A 
BRANCH  33  34
ATOM     34  C   UNL A   1      39.582  29.306  30.154  1.00  0.00     0.031 A 
ATOM     35  C   UNL A   1      40.083  30.099  31.330  1.00  0.00     0.074 A 
ATOM     36  C   UNL A   1      40.282  28.246  29.710  1.00  0.00     0.049 A 
ATOM     37  N   UNL A   1      41.195  29.963  32.005  1.00  0.00    -0.248 NA
ATOM     38  C   UNL A   1      39.216  31.186  31.809  1.00  0.00     0.031 C 
ATOM     39  C   UNL A   1      39.876  27.364  28.616  1.00  0.00     0.029 A 
ATOM     40  N   UNL A   1      41.489  27.736  30.123  1.00  0.00    -0.354 N 
ATOM     41  C   UNL A   1      41.172  30.956  32.978  1.00  0.00     0.074 A 
ATOM     42  C   UNL A   1      39.943  31.698  32.792  1.00  0.00     0.031 C 
ATOM     43  C   UNL A   1      40.825  26.432  28.432  1.00  0.00     0.029 A 
ATOM     44  C   UNL A   1      41.925  26.676  29.364  1.00  0.00     0.049 A 
ATOM     45  H   UNL A   1      41.993  28.095  30.888  1.00  0.00     0.167 HD
ATOM     46  C   UNL A   1      42.091  31.226  33.937  1.00  0.00     0.031 A 
ATOM     47  C   UNL A   1      43.092  26.001  29.391  1.00  0.00     0.031 A 
ATOM     48  C   UNL A   1      43.320  30.494  34.106  1.00  0.00     0.049 A 
ATOM     49  C   UNL A   1      44.140  26.375  30.408  1.00  0.00     0.074 A 
ATOM     50  C   UNL A   1      44.303  30.676  35.063  1.00  0.00     0.029 A 
ATOM     51  N   UNL A   1      43.744  29.455  33.291  1.00  0.00    -0.354 N 
ATOM     52  N   UNL A   1      44.087  27.292  31.345  1.00  0.00    -0.248 NA
ATOM     53  C   UNL A   1      45.400  25.621  30.374  1.00  0.00     0.031 C 
ATOM     54  C   UNL A   1      45.354  29.798  34.782  1.00  0.00     0.029 A 
ATOM     55  C   UNL A   1      44.995  29.017  33.695  1.00  0.00     0.049 A 
ATOM     56  H   UNL A   1      43.233  29.085  32.536  1.00  0.00     0.167 HD
ATOM     57  C   UNL A   1      45.300  27.212  32.022  1.00  0.00     0.074 A 
ATOM     58  C   UNL A   1      46.057  26.145  31.401  1.00  0.00     0.031 C 
ATOM     59  C   UNL A   1      45.744  27.957  33.066  1.00  0.00     0.031 A 
BRANCH  46  60
ATOM     60  C   UNL A   1      41.830  32.400  34.846  1.00  0.00    -0.014 A 
ATOM     61  C   UNL A   1      42.103  33.720  34.442  1.00  0.00     0.010 A 
ATOM     62  C   UNL A   1      41.263  32.179  36.115  1.00  0.00     0.010 A 
ATOM     63  C   UNL A   1      41.856  34.790  35.308  1.00  0.00     0.020 A 
ATOM     64  C   UNL A   1      40.987  33.248  36.971  1.00  0.00     0.020 A 
ATOM     65  C   UNL A   1      41.302  34.547  36.569  1.00  0.00     0.054 A 
BRANCH  65  66
ATOM     66  S   UNL A   1      40.984  35.955  37.666  1.00  0.00     0.124 S 
ATOM     67  O   UNL A   1      42.256  36.671  37.614  1.00  0.00    -0.237 OA
ATOM     68  O   UNL A   1      39.860  36.621  37.013  1.00  0.00    -0.237 OA
ATOM     69  O   UNL A   1      40.674  35.332  38.952  1.00  0.00    -0.744 OA
ENDBRANCH  65  66
ENDBRANCH  46  60
BRANCH  47  70
ATOM     70  C   UNL A   1      43.348  24.933  28.385  1.00  0.00    -0.014 A 
ATOM     71  C   UNL A   1      42.956  23.604  28.623  1.00  0.00     0.010 A 
ATOM     72  C   UNL A   1      43.976  25.251  27.165  1.00  0.00     0.010 A 
ATOM     73  C   UNL A   1      43.192  22.614  27.663  1.00  0.00     0.020 A 
ATOM     74  C   UNL A   1      44.185  24.271  26.192  1.00  0.00     0.020 A 
ATOM     75  C   UNL A   1      43.798  22.956  26.450  1.00  0.00     0.054 A 
BRANCH  75  76
ATOM     76  S   UNL A   1      44.028  21.670  25.192  1.00  0.00     0.124 S 
ATOM     77  O   UNL A   1      45.403  21.248  25.435  1.00  0.00    -0.237 OA
ATOM     78  O   UNL A   1      42.994  20.699  25.544  1.00  0.00    -0.237 OA
ATOM     79  O   UNL A   1      43.803  22.378  23.933  1.00  0.00    -0.744 OA
ENDBRANCH  75  76
ENDBRANCH  47  70
BRANCH  59  80
ATOM     80  C   UNL A   1      47.107  27.638  33.625  1.00  0.00    -0.014 A 
ATOM     81  C   UNL A   1      47.295  26.581  34.533  1.00  0.00     0.010 A 
ATOM     82  C   UNL A   1      48.230  28.357  33.172  1.00  0.00     0.010 A 
ATOM     83  C   UNL A   1      48.577  26.261  34.992  1.00  0.00     0.020 A 
ATOM     84  C   UNL A   1      49.515  28.021  33.606  1.00  0.00     0.020 A 
ATOM     85  C   UNL A   1      49.680  26.980  34.521  1.00  0.00     0.054 A 
BRANCH  85  86
ATOM     86  S   UNL A   1      51.338  26.500  35.080  1.00  0.00     0.124 S 
ATOM     87  O   UNL A   1      52.164  27.577  34.541  1.00  0.00    -0.237 OA
ATOM     88  O   UNL A   1      51.192  26.487  36.534  1.00  0.00    -0.237 OA
ATOM     89  O   UNL A   1      51.546  25.191  34.468  1.00  0.00    -0.744 OA
ENDBRANCH  85  86
ENDBRANCH  59  80
ENDBRANCH  33  34
ENDBRANCH  26  28
ENDBRANCH  25  26
ENDBRANCH  24  25
ENDBRANCH  23  24
ENDBRANCH  22  23
ENDBRANCH  21  22
ENDBRANCH   1  21
TORSDOF 25
ENDMDL
MODEL 3
REMARK VINA RESULT:      -7.4      4.199     11.438
REMARK SMILES CC(=O)Oc1ccccc1SCCCCCC(=O)OCCOCCOC(=O)c1ccc(-c2c3nc(c(-c4ccc(S(=O)(=O)[O-])cc4)c4ccc([nH]4)c(-c4ccc(S(=O)(=O)[O-])cc4)c4nc(c(-c5ccc(S(=O)(=O)[O-])cc5)c5ccc2[nH]5)C=C4)C=C3)cc1
REMARK SMILES IDX 20 1 19 2 17 3 18 4 16 5 15 6 14 7 13 8 12 9 11 10 10 11
REMARK SMILES IDX 5 12 6 13 7 14 9 15 8 16 4 17 2 18 1 19 3 20 21 21 22 22
REMARK SMILES IDX 23 23 24 24 25 25 26 26 27 27 28 28 29 29 87 30 30 31 86 32
REMARK SMILES IDX 31 33 32 34 33 35 80 36 34 37 85 38 79 39 81 40 35 41 84 42
REMARK SMILES IDX 78 43 77 44 36 46 66 47 47 48 65 49 48 50 51 51 64 52 82 53
REMARK SMILES IDX 49 54 50 55 63 57 83 58 52 59 37 60 38 61 46 62 39 63 45 64
REMARK SMILES IDX 40 65 41 66 42 67 43 68 44 69 67 70 68 71 76 72 69 73 75 74
REMARK SMILES IDX 70 75 71 76 72 77 73 78 74 79 53 80 54 81 62 82 55 83 61 84
REMARK SMILES IDX 56 85 57 86 58 87 59 88 60 89
REMARK H PARENT 81 45 51 56
REMARK Flexibility Score: inf
ROOT
ATOM      1  C   UNL A   1      31.927  27.398  26.311  1.00  0.00     0.261 C 
ENDROOT
BRANCH   1   2
ATOM      2  O   UNL A   1      32.924  27.757  25.343  1.00  0.00    -0.463 OA
BRANCH   2   3
ATOM      3  C   UNL A   1      32.500  27.941  24.072  1.00  0.00     0.305 C 
ATOM      4  O   UNL A   1      33.190  27.824  23.068  1.00  0.00    -0.252 OA
BRANCH   3   5
ATOM      5  C   UNL A   1      31.013  28.221  24.059  1.00  0.00     0.123 C 
BRANCH   5   6
ATOM      6  C   UNL A   1      30.262  27.335  23.044  1.00  0.00     0.012 C 
BRANCH   6   7
ATOM      7  C   UNL A   1      30.649  25.857  22.792  1.00  0.00     0.001 C 
BRANCH   7   8
ATOM      8  C   UNL A   1      30.911  24.769  23.851  1.00  0.00     0.011 C 
BRANCH   8   9
ATOM      9  C   UNL A   1      32.259  24.128  24.280  1.00  0.00     0.075 C 
BRANCH   9  10
ATOM     10  S   UNL A   1      33.920  24.163  23.462  1.00  0.00    -0.122 SA
BRANCH  10  11
ATOM     11  C   UNL A   1      35.030  23.053  24.302  1.00  0.00     0.050 A 
ATOM     12  C   UNL A   1      34.938  21.660  24.454  1.00  0.00     0.144 A 
ATOM     13  C   UNL A   1      36.012  20.931  24.997  1.00  0.00     0.048 A 
ATOM     14  C   UNL A   1      37.128  21.598  25.509  1.00  0.00     0.004 A 
ATOM     15  C   UNL A   1      36.089  23.701  24.965  1.00  0.00     0.019 A 
ATOM     16  C   UNL A   1      37.131  22.987  25.562  1.00  0.00     0.001 A 
BRANCH  12  17
ATOM     17  O   UNL A   1      33.746  20.947  24.202  1.00  0.00    -0.426 OA
BRANCH  17  18
ATOM     18  C   UNL A   1      33.233  20.464  25.365  1.00  0.00     0.308 C 
ATOM     19  C   UNL A   1      32.908  19.021  25.400  1.00  0.00     0.139 C 
ATOM     20  O   UNL A   1      33.034  21.134  26.362  1.00  0.00    -0.252 OA
ENDBRANCH  17  18
ENDBRANCH  12  17
ENDBRANCH  10  11
ENDBRANCH   9  10
ENDBRANCH   8   9
ENDBRANCH   7   8
ENDBRANCH   6   7
ENDBRANCH   5   6
ENDBRANCH   3   5
ENDBRANCH   2   3
ENDBRANCH   1   2
BRANCH   1  21
ATOM     21  C   UNL A   1      32.013  28.376  27.489  1.00  0.00     0.202 C 
BRANCH  21  22
ATOM     22  O   UNL A   1      31.789  29.754  27.188  1.00  0.00    -0.374 OA
BRANCH  22  23
ATOM     23  C   UNL A   1      32.927  30.579  26.948  1.00  0.00     0.202 C 
BRANCH  23  24
ATOM     24  C   UNL A   1      32.802  32.089  27.264  1.00  0.00     0.261 C 
BRANCH  24  25
ATOM     25  O   UNL A   1      33.613  32.546  28.362  1.00  0.00    -0.460 OA
BRANCH  25  26
ATOM     26  C   UNL A   1      34.730  33.229  28.005  1.00  0.00     0.338 C 
ATOM     27  O   UNL A   1      34.777  34.332  27.487  1.00  0.00    -0.246 OA
BRANCH  26  28
ATOM     28  C   UNL A   1      35.936  32.543  28.515  1.00  0.00     0.060 A 
ATOM     29  C   UNL A   1      35.758  31.274  29.082  1.00  0.00     0.016 A 
ATOM     30  C   UNL A   1      37.196  33.142  28.514  1.00  0.00     0.016 A 
ATOM     31  C   UNL A   1      36.830  30.608  29.671  1.00  0.00     0.010 A 
ATOM     32  C   UNL A   1      38.271  32.478  29.125  1.00  0.00     0.010 A 
ATOM     33  C   UNL A   1      38.089  31.219  29.727  1.00  0.00    -0.014 A 
BRANCH  33  34
ATOM     34  C   UNL A   1      39.178  30.579  30.509  1.00  0.00     0.031 A 
ATOM     35  C   UNL A   1      39.509  31.100  31.881  1.00  0.00     0.074 A 
ATOM     36  C   UNL A   1      39.845  29.521  30.013  1.00  0.00     0.049 A 
ATOM     37  N   UNL A   1      40.444  30.712  32.709  1.00  0.00    -0.248 NA
ATOM     38  C   UNL A   1      38.674  32.201  32.386  1.00  0.00     0.031 C 
ATOM     39  C   UNL A   1      39.582  28.888  28.721  1.00  0.00     0.029 A 
ATOM     40  N   UNL A   1      40.889  28.797  30.536  1.00  0.00    -0.354 N 
ATOM     41  C   UNL A   1      40.324  31.531  33.827  1.00  0.00     0.074 A 
ATOM     42  C   UNL A   1      39.236  32.449  33.561  1.00  0.00     0.031 C 
ATOM     43  C   UNL A   1      40.453  27.880  28.544  1.00  0.00     0.029 A 
ATOM     44  C   UNL A   1      41.362  27.824  29.689  1.00  0.00     0.049 A 
ATOM     45  H   UNL A   1      41.262  28.960  31.433  1.00  0.00     0.167 HD
ATOM     46  C   UNL A   1      41.054  31.521  34.969  1.00  0.00     0.031 A 
ATOM     47  C   UNL A   1      42.428  27.006  29.802  1.00  0.00     0.031 A 
ATOM     48  C   UNL A   1      42.146  30.616  35.220  1.00  0.00     0.049 A 
ATOM     49  C   UNL A   1      43.281  27.071  31.042  1.00  0.00     0.074 A 
ATOM     50  C   UNL A   1      42.930  30.510  36.356  1.00  0.00     0.029 A 
ATOM     51  N   UNL A   1      42.621  29.674  34.319  1.00  0.00    -0.354 N 
ATOM     52  N   UNL A   1      43.133  27.825  32.106  1.00  0.00    -0.248 NA
ATOM     53  C   UNL A   1      44.443  26.172  31.099  1.00  0.00     0.031 C 
ATOM     54  C   UNL A   1      43.924  29.558  36.114  1.00  0.00     0.029 A 
ATOM     55  C   UNL A   1      43.715  29.015  34.856  1.00  0.00     0.049 A 
ATOM     56  H   UNL A   1      42.237  29.500  33.430  1.00  0.00     0.167 HD
ATOM     57  C   UNL A   1      44.171  27.478  32.965  1.00  0.00     0.074 A 
ATOM     58  C   UNL A   1      44.929  26.435  32.305  1.00  0.00     0.031 C 
ATOM     59  C   UNL A   1      44.468  27.981  34.189  1.00  0.00     0.031 A 
BRANCH  46  60
ATOM     60  C   UNL A   1      40.732  32.558  36.014  1.00  0.00    -0.014 A 
ATOM     61  C   UNL A   1      41.419  33.785  36.071  1.00  0.00     0.010 A 
ATOM     62  C   UNL A   1      39.695  32.314  36.934  1.00  0.00     0.010 A 
ATOM     63  C   UNL A   1      41.104  34.727  37.056  1.00  0.00     0.020 A 
ATOM     64  C   UNL A   1      39.357  33.265  37.900  1.00  0.00     0.020 A 
ATOM     65  C   UNL A   1      40.076  34.459  37.967  1.00  0.00     0.054 A 
BRANCH  65  66
ATOM     66  S   UNL A   1      39.684  35.704  39.226  1.00  0.00     0.124 S 
ATOM     67  O   UNL A   1      40.961  35.844  39.920  1.00  0.00    -0.237 OA
ATOM     68  O   UNL A   1      39.275  36.853  38.423  1.00  0.00    -0.237 OA
ATOM     69  O   UNL A   1      38.617  35.083  40.008  1.00  0.00    -0.744 OA
ENDBRANCH  65  66
ENDBRANCH  46  60
BRANCH  47  70
ATOM     70  C   UNL A   1      42.774  26.089  28.681  1.00  0.00    -0.014 A 
ATOM     71  C   UNL A   1      43.786  26.415  27.762  1.00  0.00     0.010 A 
ATOM     72  C   UNL A   1      42.092  24.864  28.539  1.00  0.00     0.010 A 
ATOM     73  C   UNL A   1      44.107  25.537  26.721  1.00  0.00     0.020 A 
ATOM     74  C   UNL A   1      42.432  23.971  27.520  1.00  0.00     0.020 A 
ATOM     75  C   UNL A   1      43.433  24.317  26.612  1.00  0.00     0.054 A 
BRANCH  75  76
ATOM     76  S   UNL A   1      43.916  23.163  25.298  1.00  0.00     0.124 S 
ATOM     77  O   UNL A   1      42.654  22.495  24.999  1.00  0.00    -0.237 OA
ATOM     78  O   UNL A   1      44.420  24.062  24.262  1.00  0.00    -0.237 OA
ATOM     79  O   UNL A   1      44.933  22.327  25.933  1.00  0.00    -0.744 OA
ENDBRANCH  75  76
ENDBRANCH  47  70
BRANCH  59  80
ATOM     80  C   UNL A   1      45.653  27.400  34.918  1.00  0.00    -0.014 A 
ATOM     81  C   UNL A   1      45.517  26.280  35.757  1.00  0.00     0.010 A 
ATOM     82  C   UNL A   1      46.936  27.935  34.695  1.00  0.00     0.010 A 
ATOM     83  C   UNL A   1      46.638  25.718  36.374  1.00  0.00     0.020 A 
ATOM     84  C   UNL A   1      48.063  27.357  35.286  1.00  0.00     0.020 A 
ATOM     85  C   UNL A   1      47.906  26.256  36.130  1.00  0.00     0.054 A 
BRANCH  85  86
ATOM     86  S   UNL A   1      49.351  25.465  36.890  1.00  0.00     0.124 S 
ATOM     87  O   UNL A   1      49.558  26.288  38.079  1.00  0.00    -0.237 OA
ATOM     88  O   UNL A   1      48.876  24.106  37.140  1.00  0.00    -0.237 OA
ATOM     89  O   UNL A   1      50.388  25.578  35.867  1.00  0.00    -0.744 OA
ENDBRANCH  85  86
ENDBRANCH  59  80
ENDBRANCH  33  34
ENDBRANCH  26  28
ENDBRANCH  25  26
ENDBRANCH  24  25
ENDBRANCH  23  24
ENDBRANCH  22  23
ENDBRANCH  21  22
ENDBRANCH   1  21
TORSDOF 25
ENDMDL
