MODEL 1
REMARK VINA RESULT:      -9.4      0.000      0.000
REMARK SMILES CCCCCCNC(=O)Oc1cccc(-c2ccc([C@@H](C)C(=O)OCCOCCOC(=O)c3ccc(-c4c5nc(c(-c6ccc(S(=O)(=O)[O-])cc6)c6ccc([nH]6)c(-c6ccc(S(=O)(=O)[O-])cc6)c6nc(c(-c7ccc(S(=O)(=O)[O-])cc7)c7ccc4[nH]7)C=C6)C=C5)cc3)cc2N)c1
REMARK SMILES IDX 24 1 22 2 23 3 20 4 21 5 19 6 16 7 17 8 94 9 18 10 93 11
REMARK SMILES IDX 15 12 11 13 12 14 96 15 13 16 14 17 10 18 8 19 7 20 9 22
REMARK SMILES IDX 6 23 5 24 4 25 3 26 2 27 1 28 95 29 25 32 26 33 27 34 28 35
REMARK SMILES IDX 29 36 30 37 31 38 32 39 33 40 34 41 92 42 35 43 91 44 36 45
REMARK SMILES IDX 37 46 38 47 85 48 39 49 90 50 84 51 86 52 40 53 89 54 83 55
REMARK SMILES IDX 82 56 41 58 71 59 52 60 70 61 53 62 56 63 69 64 87 65 54 66
REMARK SMILES IDX 55 67 68 69 88 70 57 71 42 72 43 73 51 74 44 75 50 76 45 77
REMARK SMILES IDX 46 78 47 79 48 80 49 81 72 82 73 83 81 84 74 85 80 86 75 87
REMARK SMILES IDX 76 88 77 89 78 90 79 91 58 92 59 93 67 94 60 95 66 96 61 97
REMARK SMILES IDX 62 98 63 99 64 100 65 101
REMARK H PARENT 7 21 95 30 95 31 86 57 56 68
REMARK Flexibility Score: inf
ROOT
ATOM      1  O   UNL A   1      33.799  32.578  27.995  1.00  0.00    -0.463 OA
ENDROOT
BRANCH   1   2
ATOM      2  C   UNL A   1      34.041  31.309  27.579  1.00  0.00     0.313 C 
ATOM      3  O   UNL A   1      34.936  30.592  28.019  1.00  0.00    -0.252 OA
BRANCH   2   4
ATOM      4  C   UNL A   1      33.113  30.833  26.473  1.00  0.00     0.126 C 
ATOM      5  C   UNL A   1      31.666  31.059  26.900  1.00  0.00     0.025 C 
BRANCH   4   6
ATOM      6  C   UNL A   1      33.329  29.435  25.901  1.00  0.00    -0.032 A 
ATOM      7  C   UNL A   1      33.513  26.873  24.654  1.00  0.00     0.005 A 
ATOM      8  C   UNL A   1      33.175  27.013  26.015  1.00  0.00     0.011 A 
ATOM      9  C   UNL A   1      33.817  28.043  23.923  1.00  0.00     0.040 A 
ATOM     10  C   UNL A   1      33.078  28.269  26.629  1.00  0.00     0.005 A 
ATOM     11  C   UNL A   1      33.712  29.296  24.554  1.00  0.00     0.030 A 
BRANCH   7  12
ATOM     12  C   UNL A   1      33.492  25.526  24.035  1.00  0.00    -0.013 A 
ATOM     13  C   UNL A   1      34.566  23.418  23.472  1.00  0.00     0.133 A 
ATOM     14  C   UNL A   1      33.465  23.028  22.712  1.00  0.00     0.047 A 
ATOM     15  C   UNL A   1      34.585  24.647  24.137  1.00  0.00     0.056 A 
ATOM     16  C   UNL A   1      32.361  23.871  22.629  1.00  0.00     0.004 A 
ATOM     17  C   UNL A   1      32.380  25.109  23.278  1.00  0.00     0.009 A 
BRANCH  13  18
ATOM     18  O   UNL A   1      35.693  22.577  23.408  1.00  0.00    -0.410 OA
BRANCH  18  19
ATOM     19  C   UNL A   1      36.523  22.445  24.510  1.00  0.00     0.412 C 
ATOM     20  N   UNL A   1      36.166  21.415  25.335  1.00  0.00    -0.321 N 
ATOM     21  H   UNL A   1      36.718  21.290  26.142  1.00  0.00     0.167 HD
ATOM     22  O   UNL A   1      37.493  23.153  24.768  1.00  0.00    -0.224 OA
BRANCH  20  23
ATOM     23  C   UNL A   1      35.067  20.488  25.155  1.00  0.00     0.119 C 
BRANCH  23  24
ATOM     24  C   UNL A   1      33.856  20.862  26.013  1.00  0.00     0.021 C 
BRANCH  24  25
ATOM     25  C   UNL A   1      34.030  22.130  26.860  1.00  0.00     0.002 C 
BRANCH  25  26
ATOM     26  C   UNL A   1      32.750  22.680  27.498  1.00  0.00    -0.000 C 
BRANCH  26  27
ATOM     27  C   UNL A   1      31.522  22.717  26.584  1.00  0.00    -0.003 C 
ATOM     28  C   UNL A   1      30.987  24.120  26.349  1.00  0.00     0.004 C 
ENDBRANCH  26  27
ENDBRANCH  25  26
ENDBRANCH  24  25
ENDBRANCH  23  24
ENDBRANCH  20  23
ENDBRANCH  18  19
ENDBRANCH  13  18
ENDBRANCH   7  12
BRANCH   9  29
ATOM     29  N   UNL A   1      34.065  28.026  22.550  1.00  0.00    -0.398 N 
ATOM     30  H   UNL A   1      33.689  28.731  21.974  1.00  0.00     0.156 HD
ATOM     31  H   UNL A   1      34.615  27.311  22.158  1.00  0.00     0.156 HD
ENDBRANCH   9  29
ENDBRANCH   4   6
ENDBRANCH   2   4
ENDBRANCH   1   2
BRANCH   1  32
ATOM     32  C   UNL A   1      34.878  33.514  27.831  1.00  0.00     0.261 C 
BRANCH  32  33
ATOM     33  C   UNL A   1      34.969  34.474  29.020  1.00  0.00     0.202 C 
BRANCH  33  34
ATOM     34  O   UNL A   1      34.158  34.166  30.154  1.00  0.00    -0.374 OA
BRANCH  34  35
ATOM     35  C   UNL A   1      34.688  33.253  31.116  1.00  0.00     0.202 C 
BRANCH  35  36
ATOM     36  C   UNL A   1      36.194  32.972  31.069  1.00  0.00     0.261 C 
BRANCH  36  37
ATOM     37  O   UNL A   1      36.547  31.702  31.642  1.00  0.00    -0.460 OA
BRANCH  37  38
ATOM     38  C   UNL A   1      37.760  31.681  32.243  1.00  0.00     0.338 C 
ATOM     39  O   UNL A   1      38.037  32.100  33.354  1.00  0.00    -0.246 OA
BRANCH  38  40
ATOM     40  C   UNL A   1      38.717  30.887  31.447  1.00  0.00     0.060 A 
ATOM     41  C   UNL A   1      39.769  30.281  32.145  1.00  0.00     0.016 A 
ATOM     42  C   UNL A   1      38.656  30.813  30.053  1.00  0.00     0.016 A 
ATOM     43  C   UNL A   1      40.809  29.671  31.450  1.00  0.00     0.010 A 
ATOM     44  C   UNL A   1      39.704  30.198  29.355  1.00  0.00     0.010 A 
ATOM     45  C   UNL A   1      40.810  29.671  30.049  1.00  0.00    -0.014 A 
BRANCH  45  46
ATOM     46  C   UNL A   1      42.057  29.282  29.342  1.00  0.00     0.031 A 
ATOM     47  C   UNL A   1      43.181  30.282  29.246  1.00  0.00     0.074 A 
ATOM     48  C   UNL A   1      42.230  28.028  28.884  1.00  0.00     0.049 A 
ATOM     49  N   UNL A   1      44.381  30.134  28.744  1.00  0.00    -0.248 NA
ATOM     50  C   UNL A   1      42.922  31.623  29.795  1.00  0.00     0.031 C 
ATOM     51  C   UNL A   1      41.241  26.954  28.967  1.00  0.00     0.029 A 
ATOM     52  N   UNL A   1      43.312  27.443  28.275  1.00  0.00    -0.354 N 
ATOM     53  C   UNL A   1      45.019  31.358  28.921  1.00  0.00     0.074 A 
ATOM     54  C   UNL A   1      44.062  32.249  29.537  1.00  0.00     0.031 C 
ATOM     55  C   UNL A   1      41.768  25.835  28.439  1.00  0.00     0.029 A 
ATOM     56  C   UNL A   1      43.119  26.119  27.959  1.00  0.00     0.049 A 
ATOM     57  H   UNL A   1      44.148  27.926  28.083  1.00  0.00     0.167 HD
ATOM     58  C   UNL A   1      46.292  31.706  28.614  1.00  0.00     0.031 A 
ATOM     59  C   UNL A   1      43.935  25.239  27.346  1.00  0.00     0.031 A 
ATOM     60  C   UNL A   1      47.243  30.825  27.990  1.00  0.00     0.049 A 
ATOM     61  C   UNL A   1      45.317  25.676  26.934  1.00  0.00     0.074 A 
ATOM     62  C   UNL A   1      48.555  31.085  27.637  1.00  0.00     0.029 A 
ATOM     63  N   UNL A   1      46.983  29.513  27.623  1.00  0.00    -0.354 N 
ATOM     64  N   UNL A   1      45.908  26.833  27.123  1.00  0.00    -0.248 NA
ATOM     65  C   UNL A   1      46.145  24.685  26.233  1.00  0.00     0.031 C 
ATOM     66  C   UNL A   1      49.072  29.948  27.007  1.00  0.00     0.029 A 
ATOM     67  C   UNL A   1      48.102  28.959  27.024  1.00  0.00     0.049 A 
ATOM     68  H   UNL A   1      46.129  29.044  27.768  1.00  0.00     0.167 HD
ATOM     69  C   UNL A   1      47.186  26.697  26.589  1.00  0.00     0.074 A 
ATOM     70  C   UNL A   1      47.288  25.343  26.086  1.00  0.00     0.031 C 
ATOM     71  C   UNL A   1      48.187  27.610  26.524  1.00  0.00     0.031 A 
BRANCH  58  72
ATOM     72  C   UNL A   1      46.721  33.116  28.928  1.00  0.00    -0.014 A 
ATOM     73  C   UNL A   1      46.071  33.869  29.924  1.00  0.00     0.010 A 
ATOM     74  C   UNL A   1      47.812  33.682  28.245  1.00  0.00     0.010 A 
ATOM     75  C   UNL A   1      46.482  35.176  30.203  1.00  0.00     0.020 A 
ATOM     76  C   UNL A   1      48.243  34.979  28.541  1.00  0.00     0.020 A 
ATOM     77  C   UNL A   1      47.564  35.723  29.508  1.00  0.00     0.054 A 
BRANCH  77  78
ATOM     78  S   UNL A   1      48.092  37.412  29.908  1.00  0.00     0.124 S 
ATOM     79  O   UNL A   1      49.399  37.482  29.259  1.00  0.00    -0.237 OA
ATOM     80  O   UNL A   1      47.045  38.229  29.300  1.00  0.00    -0.237 OA
ATOM     81  O   UNL A   1      48.122  37.430  31.369  1.00  0.00    -0.744 OA
ENDBRANCH  77  78
ENDBRANCH  58  72
BRANCH  59  82
ATOM     82  C   UNL A   1      43.468  23.852  27.069  1.00  0.00    -0.014 A 
ATOM     83  C   UNL A   1      43.084  23.464  25.773  1.00  0.00     0.010 A 
ATOM     84  C   UNL A   1      43.384  22.914  28.115  1.00  0.00     0.010 A 
ATOM     85  C   UNL A   1      42.603  22.173  25.533  1.00  0.00     0.020 A 
ATOM     86  C   UNL A   1      42.930  21.614  27.873  1.00  0.00     0.020 A 
ATOM     87  C   UNL A   1      42.528  21.257  26.585  1.00  0.00     0.054 A 
BRANCH  87  88
ATOM     88  S   UNL A   1      41.933  19.577  26.246  1.00  0.00     0.124 S 
ATOM     89  O   UNL A   1      42.638  19.249  25.010  1.00  0.00    -0.237 OA
ATOM     90  O   UNL A   1      42.362  18.843  27.434  1.00  0.00    -0.237 OA
ATOM     91  O   UNL A   1      40.487  19.746  26.117  1.00  0.00    -0.744 OA
ENDBRANCH  87  88
ENDBRANCH  59  82
BRANCH  71  92
ATOM     92  C   UNL A   1      49.492  27.169  25.912  1.00  0.00    -0.014 A 
ATOM     93  C   UNL A   1      49.714  27.255  24.527  1.00  0.00     0.010 A 
ATOM     94  C   UNL A   1      50.527  26.703  26.744  1.00  0.00     0.010 A 
ATOM     95  C   UNL A   1      50.935  26.849  23.980  1.00  0.00     0.020 A 
ATOM     96  C   UNL A   1      51.759  26.324  26.204  1.00  0.00     0.020 A 
ATOM     97  C   UNL A   1      51.949  26.384  24.823  1.00  0.00     0.054 A 
BRANCH  97  98
ATOM     98  S   UNL A   1      53.537  25.897  24.093  1.00  0.00     0.124 S 
ATOM     99  O   UNL A   1      54.426  26.956  24.563  1.00  0.00    -0.237 OA
ATOM    100  O   UNL A   1      53.768  24.578  24.677  1.00  0.00    -0.237 OA
ATOM    101  O   UNL A   1      53.273  25.898  22.656  1.00  0.00    -0.744 OA
ENDBRANCH  97  98
ENDBRANCH  71  92
ENDBRANCH  45  46
ENDBRANCH  38  40
ENDBRANCH  37  38
ENDBRANCH  36  37
ENDBRANCH  35  36
ENDBRANCH  34  35
ENDBRANCH  33  34
ENDBRANCH  32  33
ENDBRANCH   1  32
TORSDOF 27
ENDMDL
MODEL 2
REMARK VINA RESULT:      -8.4      8.526     15.989
REMARK SMILES CCCCCCNC(=O)Oc1cccc(-c2ccc([C@@H](C)C(=O)OCCOCCOC(=O)c3ccc(-c4c5nc(c(-c6ccc(S(=O)(=O)[O-])cc6)c6ccc([nH]6)c(-c6ccc(S(=O)(=O)[O-])cc6)c6nc(c(-c7ccc(S(=O)(=O)[O-])cc7)c7ccc4[nH]7)C=C6)C=C5)cc3)cc2N)c1
REMARK SMILES IDX 24 1 22 2 23 3 20 4 21 5 19 6 16 7 17 8 94 9 18 10 93 11
REMARK SMILES IDX 15 12 11 13 12 14 96 15 13 16 14 17 10 18 8 19 7 20 9 22
REMARK SMILES IDX 6 23 5 24 4 25 3 26 2 27 1 28 95 29 25 32 26 33 27 34 28 35
REMARK SMILES IDX 29 36 30 37 31 38 32 39 33 40 34 41 92 42 35 43 91 44 36 45
REMARK SMILES IDX 37 46 38 47 85 48 39 49 90 50 84 51 86 52 40 53 89 54 83 55
REMARK SMILES IDX 82 56 41 58 71 59 52 60 70 61 53 62 56 63 69 64 87 65 54 66
REMARK SMILES IDX 55 67 68 69 88 70 57 71 42 72 43 73 51 74 44 75 50 76 45 77
REMARK SMILES IDX 46 78 47 79 48 80 49 81 72 82 73 83 81 84 74 85 80 86 75 87
REMARK SMILES IDX 76 88 77 89 78 90 79 91 58 92 59 93 67 94 60 95 66 96 61 97
REMARK SMILES IDX 62 98 63 99 64 100 65 101
REMARK H PARENT 7 21 95 30 95 31 86 57 56 68
REMARK Flexibility Score: inf
ROOT
ATOM      1  O   UNL A   1      43.939  34.268  27.737  1.00  0.00    -0.463 OA
ENDROOT
BRANCH   1   2
ATOM      2  C   UNL A   1      43.307  35.183  26.959  1.00  0.00     0.313 C 
ATOM      3  O   UNL A   1      43.268  35.146  25.733  1.00  0.00    -0.252 OA
BRANCH   2   4
ATOM      4  C   UNL A   1      42.655  36.313  27.742  1.00  0.00     0.126 C 
ATOM      5  C   UNL A   1      41.143  36.109  27.751  1.00  0.00     0.025 C 
BRANCH   4   6
ATOM      6  C   UNL A   1      43.037  37.748  27.390  1.00  0.00    -0.032 A 
ATOM      7  C   UNL A   1      43.575  40.408  26.502  1.00  0.00     0.005 A 
ATOM      8  C   UNL A   1      44.579  39.420  26.536  1.00  0.00     0.011 A 
ATOM      9  C   UNL A   1      42.289  40.063  26.976  1.00  0.00     0.040 A 
ATOM     10  C   UNL A   1      44.317  38.112  26.966  1.00  0.00     0.005 A 
ATOM     11  C   UNL A   1      42.043  38.744  27.401  1.00  0.00     0.030 A 
BRANCH   7  12
ATOM     12  C   UNL A   1      43.886  41.742  25.936  1.00  0.00    -0.013 A 
ATOM     13  C   UNL A   1      43.946  43.314  24.081  1.00  0.00     0.133 A 
ATOM     14  C   UNL A   1      44.634  44.246  24.856  1.00  0.00     0.047 A 
ATOM     15  C   UNL A   1      43.565  42.077  24.609  1.00  0.00     0.056 A 
ATOM     16  C   UNL A   1      44.929  43.944  26.181  1.00  0.00     0.004 A 
ATOM     17  C   UNL A   1      44.565  42.702  26.712  1.00  0.00     0.009 A 
BRANCH  13  18
ATOM     18  O   UNL A   1      43.794  43.631  22.718  1.00  0.00    -0.410 OA
BRANCH  18  19
ATOM     19  C   UNL A   1      44.668  43.103  21.781  1.00  0.00     0.412 C 
ATOM     20  N   UNL A   1      44.036  42.555  20.700  1.00  0.00    -0.321 N 
ATOM     21  H   UNL A   1      44.614  42.153  20.012  1.00  0.00     0.167 HD
ATOM     22  O   UNL A   1      45.894  43.099  21.863  1.00  0.00    -0.224 OA
BRANCH  20  23
ATOM     23  C   UNL A   1      42.608  42.502  20.454  1.00  0.00     0.119 C 
BRANCH  23  24
ATOM     24  C   UNL A   1      42.236  43.116  19.102  1.00  0.00     0.021 C 
BRANCH  24  25
ATOM     25  C   UNL A   1      41.883  44.609  19.145  1.00  0.00     0.002 C 
BRANCH  25  26
ATOM     26  C   UNL A   1      42.533  45.475  18.060  1.00  0.00    -0.000 C 
BRANCH  26  27
ATOM     27  C   UNL A   1      41.591  46.444  17.340  1.00  0.00    -0.003 C 
ATOM     28  C   UNL A   1      42.311  47.392  16.394  1.00  0.00     0.004 C 
ENDBRANCH  26  27
ENDBRANCH  25  26
ENDBRANCH  24  25
ENDBRANCH  23  24
ENDBRANCH  20  23
ENDBRANCH  18  19
ENDBRANCH  13  18
ENDBRANCH   7  12
BRANCH   9  29
ATOM     29  N   UNL A   1      41.201  40.932  26.894  1.00  0.00    -0.398 N 
ATOM     30  H   UNL A   1      41.282  41.775  26.391  1.00  0.00     0.156 HD
ATOM     31  H   UNL A   1      40.353  40.703  27.338  1.00  0.00     0.156 HD
ENDBRANCH   9  29
ENDBRANCH   4   6
ENDBRANCH   2   4
ENDBRANCH   1   2
BRANCH   1  32
ATOM     32  C   UNL A   1      45.372  34.375  27.803  1.00  0.00     0.261 C 
BRANCH  32  33
ATOM     33  C   UNL A   1      46.052  33.224  27.057  1.00  0.00     0.202 C 
BRANCH  33  34
ATOM     34  O   UNL A   1      46.532  33.509  25.743  1.00  0.00    -0.374 OA
BRANCH  34  35
ATOM     35  C   UNL A   1      46.785  34.875  25.414  1.00  0.00     0.202 C 
BRANCH  35  36
ATOM     36  C   UNL A   1      47.925  35.581  26.157  1.00  0.00     0.261 C 
BRANCH  36  37
ATOM     37  O   UNL A   1      47.493  36.756  26.862  1.00  0.00    -0.460 OA
BRANCH  37  38
ATOM     38  C   UNL A   1      48.360  37.188  27.809  1.00  0.00     0.338 C 
ATOM     39  O   UNL A   1      49.463  37.675  27.628  1.00  0.00    -0.246 OA
BRANCH  38  40
ATOM     40  C   UNL A   1      47.718  37.179  29.139  1.00  0.00     0.060 A 
ATOM     41  C   UNL A   1      48.032  36.108  29.984  1.00  0.00     0.016 A 
ATOM     42  C   UNL A   1      46.766  38.127  29.520  1.00  0.00     0.016 A 
ATOM     43  C   UNL A   1      47.336  35.931  31.176  1.00  0.00     0.010 A 
ATOM     44  C   UNL A   1      46.065  37.947  30.721  1.00  0.00     0.010 A 
ATOM     45  C   UNL A   1      46.311  36.819  31.527  1.00  0.00    -0.014 A 
BRANCH  45  46
ATOM     46  C   UNL A   1      45.399  36.445  32.637  1.00  0.00     0.031 A 
ATOM     47  C   UNL A   1      45.765  36.841  34.046  1.00  0.00     0.074 A 
ATOM     48  C   UNL A   1      44.214  35.855  32.390  1.00  0.00     0.049 A 
ATOM     49  N   UNL A   1      45.084  36.687  35.153  1.00  0.00    -0.248 NA
ATOM     50  C   UNL A   1      47.065  37.508  34.229  1.00  0.00     0.031 C 
ATOM     51  C   UNL A   1      43.720  35.472  31.068  1.00  0.00     0.029 A 
ATOM     52  N   UNL A   1      43.203  35.493  33.245  1.00  0.00    -0.354 N 
ATOM     53  C   UNL A   1      45.870  37.239  36.160  1.00  0.00     0.074 A 
ATOM     54  C   UNL A   1      47.094  37.694  35.540  1.00  0.00     0.031 C 
ATOM     55  C   UNL A   1      42.492  34.940  31.199  1.00  0.00     0.029 A 
ATOM     56  C   UNL A   1      42.124  34.921  32.613  1.00  0.00     0.049 A 
ATOM     57  H   UNL A   1      43.246  35.631  34.218  1.00  0.00     0.167 HD
ATOM     58  C   UNL A   1      45.592  37.371  37.480  1.00  0.00     0.031 A 
ATOM     59  C   UNL A   1      40.975  34.430  33.119  1.00  0.00     0.031 A 
ATOM     60  C   UNL A   1      44.379  36.910  38.101  1.00  0.00     0.049 A 
ATOM     61  C   UNL A   1      40.727  34.510  34.603  1.00  0.00     0.074 A 
ATOM     62  C   UNL A   1      44.006  36.995  39.431  1.00  0.00     0.029 A 
ATOM     63  N   UNL A   1      43.343  36.271  37.436  1.00  0.00    -0.354 N 
ATOM     64  N   UNL A   1      41.475  35.049  35.537  1.00  0.00    -0.248 NA
ATOM     65  C   UNL A   1      39.475  33.921  35.099  1.00  0.00     0.031 C 
ATOM     66  C   UNL A   1      42.768  36.361  39.579  1.00  0.00     0.029 A 
ATOM     67  C   UNL A   1      42.342  35.935  38.331  1.00  0.00     0.049 A 
ATOM     68  H   UNL A   1      43.322  36.086  36.469  1.00  0.00     0.167 HD
ATOM     69  C   UNL A   1      40.769  34.889  36.726  1.00  0.00     0.074 A 
ATOM     70  C   UNL A   1      39.530  34.219  36.391  1.00  0.00     0.031 C 
ATOM     71  C   UNL A   1      41.115  35.265  37.983  1.00  0.00     0.031 A 
BRANCH  58  72
ATOM     72  C   UNL A   1      46.637  38.024  38.347  1.00  0.00    -0.014 A 
ATOM     73  C   UNL A   1      46.643  39.415  38.558  1.00  0.00     0.010 A 
ATOM     74  C   UNL A   1      47.605  37.231  38.990  1.00  0.00     0.010 A 
ATOM     75  C   UNL A   1      47.619  40.005  39.365  1.00  0.00     0.020 A 
ATOM     76  C   UNL A   1      48.567  37.815  39.820  1.00  0.00     0.020 A 
ATOM     77  C   UNL A   1      48.577  39.200  39.990  1.00  0.00     0.054 A 
BRANCH  77  78
ATOM     78  S   UNL A   1      49.818  39.989  41.052  1.00  0.00     0.124 S 
ATOM     79  O   UNL A   1      50.723  38.877  41.337  1.00  0.00    -0.237 OA
ATOM     80  O   UNL A   1      50.362  41.035  40.190  1.00  0.00    -0.237 OA
ATOM     81  O   UNL A   1      49.043  40.469  42.195  1.00  0.00    -0.744 OA
ENDBRANCH  77  78
ENDBRANCH  58  72
BRANCH  59  82
ATOM     82  C   UNL A   1      39.967  33.806  32.217  1.00  0.00    -0.014 A 
ATOM     83  C   UNL A   1      40.134  32.491  31.748  1.00  0.00     0.010 A 
ATOM     84  C   UNL A   1      38.839  34.540  31.803  1.00  0.00     0.010 A 
ATOM     85  C   UNL A   1      39.206  31.931  30.864  1.00  0.00     0.020 A 
ATOM     86  C   UNL A   1      37.895  33.973  30.943  1.00  0.00     0.020 A 
ATOM     87  C   UNL A   1      38.093  32.676  30.467  1.00  0.00     0.054 A 
BRANCH  87  88
ATOM     88  S   UNL A   1      36.883  31.918  29.348  1.00  0.00     0.124 S 
ATOM     89  O   UNL A   1      37.616  30.760  28.847  1.00  0.00    -0.237 OA
ATOM     90  O   UNL A   1      35.766  31.623  30.242  1.00  0.00    -0.237 OA
ATOM     91  O   UNL A   1      36.622  32.968  28.365  1.00  0.00    -0.744 OA
ENDBRANCH  87  88
ENDBRANCH  59  82
BRANCH  71  92
ATOM     92  C   UNL A   1      40.127  34.988  39.087  1.00  0.00    -0.014 A 
ATOM     93  C   UNL A   1      39.894  33.680  39.546  1.00  0.00     0.010 A 
ATOM     94  C   UNL A   1      39.457  36.060  39.705  1.00  0.00     0.010 A 
ATOM     95  C   UNL A   1      38.981  33.445  40.579  1.00  0.00     0.020 A 
ATOM     96  C   UNL A   1      38.566  35.833  40.757  1.00  0.00     0.020 A 
ATOM     97  C   UNL A   1      38.321  34.524  41.176  1.00  0.00     0.054 A 
BRANCH  97  98
ATOM     98  S   UNL A   1      37.168  34.197  42.537  1.00  0.00     0.124 S 
ATOM     99  O   UNL A   1      37.268  35.423  43.323  1.00  0.00    -0.237 OA
ATOM    100  O   UNL A   1      35.898  33.999  41.842  1.00  0.00    -0.237 OA
ATOM    101  O   UNL A   1      37.714  33.001  43.175  1.00  0.00    -0.744 OA
ENDBRANCH  97  98
ENDBRANCH  71  92
ENDBRANCH  45  46
ENDBRANCH  38  40
ENDBRANCH  37  38
ENDBRANCH  36  37
ENDBRANCH  35  36
ENDBRANCH  34  35
ENDBRANCH  33  34
ENDBRANCH  32  33
ENDBRANCH   1  32
TORSDOF 27
ENDMDL
MODEL 3
REMARK VINA RESULT:      -8.0      6.290     12.380
REMARK SMILES CCCCCCNC(=O)Oc1cccc(-c2ccc([C@@H](C)C(=O)OCCOCCOC(=O)c3ccc(-c4c5nc(c(-c6ccc(S(=O)(=O)[O-])cc6)c6ccc([nH]6)c(-c6ccc(S(=O)(=O)[O-])cc6)c6nc(c(-c7ccc(S(=O)(=O)[O-])cc7)c7ccc4[nH]7)C=C6)C=C5)cc3)cc2N)c1
REMARK SMILES IDX 24 1 22 2 23 3 20 4 21 5 19 6 16 7 17 8 94 9 18 10 93 11
REMARK SMILES IDX 15 12 11 13 12 14 96 15 13 16 14 17 10 18 8 19 7 20 9 22
REMARK SMILES IDX 6 23 5 24 4 25 3 26 2 27 1 28 95 29 25 32 26 33 27 34 28 35
REMARK SMILES IDX 29 36 30 37 31 38 32 39 33 40 34 41 92 42 35 43 91 44 36 45
REMARK SMILES IDX 37 46 38 47 85 48 39 49 90 50 84 51 86 52 40 53 89 54 83 55
REMARK SMILES IDX 82 56 41 58 71 59 52 60 70 61 53 62 56 63 69 64 87 65 54 66
REMARK SMILES IDX 55 67 68 69 88 70 57 71 42 72 43 73 51 74 44 75 50 76 45 77
REMARK SMILES IDX 46 78 47 79 48 80 49 81 72 82 73 83 81 84 74 85 80 86 75 87
REMARK SMILES IDX 76 88 77 89 78 90 79 91 58 92 59 93 67 94 60 95 66 96 61 97
REMARK SMILES IDX 62 98 63 99 64 100 65 101
REMARK H PARENT 7 21 95 30 95 31 86 57 56 68
REMARK Flexibility Score: inf
ROOT
ATOM      1  O   UNL A   1      45.970  33.869  27.010  1.00  0.00    -0.463 OA
ENDROOT
BRANCH   1   2
ATOM      2  C   UNL A   1      45.095  32.850  26.818  1.00  0.00     0.313 C 
ATOM      3  O   UNL A   1      44.507  32.626  25.763  1.00  0.00    -0.252 OA
BRANCH   2   4
ATOM      4  C   UNL A   1      44.864  31.993  28.054  1.00  0.00     0.126 C 
ATOM      5  C   UNL A   1      44.689  30.538  27.630  1.00  0.00     0.025 C 
BRANCH   4   6
ATOM      6  C   UNL A   1      43.792  32.433  29.047  1.00  0.00    -0.032 A 
ATOM      7  C   UNL A   1      41.631  33.029  30.816  1.00  0.00     0.005 A 
ATOM      8  C   UNL A   1      41.989  33.896  29.764  1.00  0.00     0.011 A 
ATOM      9  C   UNL A   1      42.412  31.867  31.012  1.00  0.00     0.040 A 
ATOM     10  C   UNL A   1      43.045  33.603  28.890  1.00  0.00     0.005 A 
ATOM     11  C   UNL A   1      43.467  31.588  30.124  1.00  0.00     0.030 A 
BRANCH   7  12
ATOM     12  C   UNL A   1      40.437  33.337  31.638  1.00  0.00    -0.013 A 
ATOM     13  C   UNL A   1      38.083  33.053  32.176  1.00  0.00     0.133 A 
ATOM     14  C   UNL A   1      38.150  34.066  33.131  1.00  0.00     0.047 A 
ATOM     15  C   UNL A   1      39.210  32.680  31.439  1.00  0.00     0.056 A 
ATOM     16  C   UNL A   1      39.364  34.703  33.364  1.00  0.00     0.004 A 
ATOM     17  C   UNL A   1      40.493  34.346  32.620  1.00  0.00     0.009 A 
BRANCH  13  18
ATOM     18  O   UNL A   1      36.800  32.542  31.902  1.00  0.00    -0.410 OA
BRANCH  18  19
ATOM     19  C   UNL A   1      36.088  33.006  30.807  1.00  0.00     0.412 C 
ATOM     20  N   UNL A   1      35.988  32.089  29.799  1.00  0.00    -0.321 N 
ATOM     21  H   UNL A   1      35.503  32.377  28.991  1.00  0.00     0.167 HD
ATOM     22  O   UNL A   1      35.577  34.118  30.701  1.00  0.00    -0.224 OA
BRANCH  20  23
ATOM     23  C   UNL A   1      36.517  30.739  29.786  1.00  0.00     0.119 C 
BRANCH  23  24
ATOM     24  C   UNL A   1      37.909  30.676  29.152  1.00  0.00     0.021 C 
BRANCH  24  25
ATOM     25  C   UNL A   1      38.024  29.748  27.935  1.00  0.00     0.002 C 
BRANCH  25  26
ATOM     26  C   UNL A   1      39.369  29.032  27.774  1.00  0.00    -0.000 C 
BRANCH  26  27
ATOM     27  C   UNL A   1      40.458  29.446  28.768  1.00  0.00    -0.003 C 
ATOM     28  C   UNL A   1      41.714  28.593  28.677  1.00  0.00     0.004 C 
ENDBRANCH  26  27
ENDBRANCH  25  26
ENDBRANCH  24  25
ENDBRANCH  23  24
ENDBRANCH  20  23
ENDBRANCH  18  19
ENDBRANCH  13  18
ENDBRANCH   7  12
BRANCH   9  29
ATOM     29  N   UNL A   1      42.085  30.895  31.958  1.00  0.00    -0.398 N 
ATOM     30  H   UNL A   1      42.799  30.394  32.415  1.00  0.00     0.156 HD
ATOM     31  H   UNL A   1      41.142  30.709  32.167  1.00  0.00     0.156 HD
ENDBRANCH   9  29
ENDBRANCH   4   6
ENDBRANCH   2   4
ENDBRANCH   1   2
BRANCH   1  32
ATOM     32  C   UNL A   1      45.984  34.889  25.995  1.00  0.00     0.261 C 
BRANCH  32  33
ATOM     33  C   UNL A   1      46.778  36.117  26.450  1.00  0.00     0.202 C 
BRANCH  33  34
ATOM     34  O   UNL A   1      47.647  36.710  25.485  1.00  0.00    -0.374 OA
BRANCH  34  35
ATOM     35  C   UNL A   1      48.964  36.171  25.363  1.00  0.00     0.202 C 
BRANCH  35  36
ATOM     36  C   UNL A   1      49.880  36.262  26.589  1.00  0.00     0.261 C 
BRANCH  36  37
ATOM     37  O   UNL A   1      50.153  34.981  27.181  1.00  0.00    -0.460 OA
BRANCH  37  38
ATOM     38  C   UNL A   1      50.762  35.046  28.389  1.00  0.00     0.338 C 
ATOM     39  O   UNL A   1      51.798  35.631  28.660  1.00  0.00    -0.246 OA
BRANCH  38  40
ATOM     40  C   UNL A   1      49.899  34.461  29.435  1.00  0.00     0.060 A 
ATOM     41  C   UNL A   1      48.659  33.960  29.022  1.00  0.00     0.016 A 
ATOM     42  C   UNL A   1      50.237  34.487  30.790  1.00  0.00     0.016 A 
ATOM     43  C   UNL A   1      47.717  33.560  29.966  1.00  0.00     0.010 A 
ATOM     44  C   UNL A   1      49.288  34.084  31.740  1.00  0.00     0.010 A 
ATOM     45  C   UNL A   1      48.006  33.669  31.332  1.00  0.00    -0.014 A 
BRANCH  45  46
ATOM     46  C   UNL A   1      46.893  33.518  32.305  1.00  0.00     0.031 A 
ATOM     47  C   UNL A   1      46.187  34.755  32.800  1.00  0.00     0.074 A 
ATOM     48  C   UNL A   1      46.448  32.300  32.663  1.00  0.00     0.049 A 
ATOM     49  N   UNL A   1      45.146  34.856  33.587  1.00  0.00    -0.248 NA
ATOM     50  C   UNL A   1      46.717  36.049  32.339  1.00  0.00     0.031 C 
ATOM     51  C   UNL A   1      47.010  31.027  32.211  1.00  0.00     0.029 A 
ATOM     52  N   UNL A   1      45.406  31.936  33.478  1.00  0.00    -0.354 N 
ATOM     53  C   UNL A   1      44.896  36.218  33.712  1.00  0.00     0.074 A 
ATOM     54  C   UNL A   1      45.917  36.907  32.955  1.00  0.00     0.031 C 
ATOM     55  C   UNL A   1      46.296  30.021  32.745  1.00  0.00     0.029 A 
ATOM     56  C   UNL A   1      45.245  30.575  33.596  1.00  0.00     0.049 A 
ATOM     57  H   UNL A   1      44.826  32.587  33.935  1.00  0.00     0.167 HD
ATOM     58  C   UNL A   1      43.898  36.842  34.383  1.00  0.00     0.031 A 
ATOM     59  C   UNL A   1      44.357  29.859  34.314  1.00  0.00     0.031 A 
ATOM     60  C   UNL A   1      42.887  36.160  35.146  1.00  0.00     0.049 A 
ATOM     61  C   UNL A   1      43.309  30.579  35.123  1.00  0.00     0.074 A 
ATOM     62  C   UNL A   1      41.836  36.704  35.863  1.00  0.00     0.029 A 
ATOM     63  N   UNL A   1      42.804  34.784  35.297  1.00  0.00    -0.354 N 
ATOM     64  N   UNL A   1      43.079  31.867  35.217  1.00  0.00    -0.248 NA
ATOM     65  C   UNL A   1      42.396  29.745  35.917  1.00  0.00     0.031 C 
ATOM     66  C   UNL A   1      41.148  35.660  36.490  1.00  0.00     0.029 A 
ATOM     67  C   UNL A   1      41.734  34.461  36.115  1.00  0.00     0.049 A 
ATOM     68  H   UNL A   1      43.414  34.132  34.881  1.00  0.00     0.167 HD
ATOM     69  C   UNL A   1      41.977  31.995  36.057  1.00  0.00     0.074 A 
ATOM     70  C   UNL A   1      41.577  30.654  36.431  1.00  0.00     0.031 C 
ATOM     71  C   UNL A   1      41.350  33.121  36.480  1.00  0.00     0.031 A 
BRANCH  58  72
ATOM     72  C   UNL A   1      43.867  38.348  34.339  1.00  0.00    -0.014 A 
ATOM     73  C   UNL A   1      43.224  39.033  33.291  1.00  0.00     0.010 A 
ATOM     74  C   UNL A   1      44.457  39.089  35.378  1.00  0.00     0.010 A 
ATOM     75  C   UNL A   1      43.205  40.430  33.265  1.00  0.00     0.020 A 
ATOM     76  C   UNL A   1      44.416  40.487  35.370  1.00  0.00     0.020 A 
ATOM     77  C   UNL A   1      43.803  41.148  34.304  1.00  0.00     0.054 A 
BRANCH  77  78
ATOM     78  S   UNL A   1      43.742  42.961  34.258  1.00  0.00     0.124 S 
ATOM     79  O   UNL A   1      44.608  43.321  35.379  1.00  0.00    -0.237 OA
ATOM     80  O   UNL A   1      44.273  43.267  32.933  1.00  0.00    -0.237 OA
ATOM     81  O   UNL A   1      42.325  43.266  34.444  1.00  0.00    -0.744 OA
ENDBRANCH  77  78
ENDBRANCH  58  72
BRANCH  59  82
ATOM     82  C   UNL A   1      44.421  28.371  34.314  1.00  0.00    -0.014 A 
ATOM     83  C   UNL A   1      45.156  27.680  35.293  1.00  0.00     0.010 A 
ATOM     84  C   UNL A   1      43.760  27.636  33.312  1.00  0.00     0.010 A 
ATOM     85  C   UNL A   1      45.249  26.285  35.257  1.00  0.00     0.020 A 
ATOM     86  C   UNL A   1      43.826  26.240  33.289  1.00  0.00     0.020 A 
ATOM     87  C   UNL A   1      44.584  25.574  34.255  1.00  0.00     0.054 A 
BRANCH  87  88
ATOM     88  S   UNL A   1      44.688  23.763  34.245  1.00  0.00     0.124 S 
ATOM     89  O   UNL A   1      46.098  23.542  33.943  1.00  0.00    -0.237 OA
ATOM     90  O   UNL A   1      44.268  23.415  35.601  1.00  0.00    -0.237 OA
ATOM     91  O   UNL A   1      43.753  23.372  33.192  1.00  0.00    -0.744 OA
ENDBRANCH  87  88
ENDBRANCH  59  82
BRANCH  71  92
ATOM     92  C   UNL A   1      40.147  32.954  37.371  1.00  0.00    -0.014 A 
ATOM     93  C   UNL A   1      40.260  33.024  38.771  1.00  0.00     0.010 A 
ATOM     94  C   UNL A   1      38.876  32.768  36.796  1.00  0.00     0.010 A 
ATOM     95  C   UNL A   1      39.129  32.876  39.580  1.00  0.00     0.020 A 
ATOM     96  C   UNL A   1      37.740  32.648  37.601  1.00  0.00     0.020 A 
ATOM     97  C   UNL A   1      37.876  32.687  38.989  1.00  0.00     0.054 A 
BRANCH  97  98
ATOM     98  S   UNL A   1      36.420  32.532  40.060  1.00  0.00     0.124 S 
ATOM     99  O   UNL A   1      36.600  31.199  40.628  1.00  0.00    -0.237 OA
ATOM    100  O   UNL A   1      36.590  33.642  40.995  1.00  0.00    -0.237 OA
ATOM    101  O   UNL A   1      35.295  32.670  39.137  1.00  0.00    -0.744 OA
ENDBRANCH  97  98
ENDBRANCH  71  92
ENDBRANCH  45  46
ENDBRANCH  38  40
ENDBRANCH  37  38
ENDBRANCH  36  37
ENDBRANCH  35  36
ENDBRANCH  34  35
ENDBRANCH  33  34
ENDBRANCH  32  33
ENDBRANCH   1  32
TORSDOF 27
ENDMDL
