MODEL 1
REMARK VINA RESULT:      -9.4      0.000      0.000
REMARK SMILES Cc1cc(N[C@@H]2C=C[C@@H](C(=O)OCCOCCOC(=O)c3ccc(-c4c5nc(c(-c6ccc(S(=O)(=O)[O-])cc6)c6ccc([nH]6)c(-c6ccc(S(=O)(=O)[O-])cc6)c6nc(c(-c7ccc(S(=O)(=O)[O-])cc7)c7ccc4[nH]7)C=C6)C=C5)cc3)C2)nc(C)n1
REMARK SMILES IDX 16 1 15 2 14 3 13 4 12 5 10 6 11 7 9 8 6 9 7 10 81 11 8 12
REMARK SMILES IDX 5 13 4 15 1 16 2 17 3 18 85 19 83 20 82 21 84 22 17 23 18 24
REMARK SMILES IDX 19 25 20 26 21 27 22 28 80 29 23 30 79 31 24 32 25 33 26 34
REMARK SMILES IDX 73 35 27 36 78 37 72 38 74 39 28 40 77 41 71 42 70 43 29 45
REMARK SMILES IDX 59 46 40 47 58 48 41 49 44 50 57 51 75 52 42 53 43 54 56 56
REMARK SMILES IDX 76 57 45 58 30 59 31 60 39 61 32 62 38 63 33 64 34 65 35 66
REMARK SMILES IDX 36 67 37 68 60 69 61 70 69 71 62 72 68 73 63 74 64 75 65 76
REMARK SMILES IDX 66 77 67 78 46 79 47 80 55 81 48 82 54 83 49 84 50 85 51 86
REMARK SMILES IDX 52 87 53 88
REMARK H PARENT 5 14 74 44 44 55
REMARK Flexibility Score: inf
ROOT
ATOM      1  C   UNL A   1      34.531  34.737  28.023  1.00  0.00     0.202 C 
ENDROOT
BRANCH   1   2
ATOM      2  O   UNL A   1      33.489  34.953  28.978  1.00  0.00    -0.374 OA
BRANCH   2   3
ATOM      3  C   UNL A   1      33.262  36.288  29.423  1.00  0.00     0.202 C 
BRANCH   3   4
ATOM      4  C   UNL A   1      33.155  36.498  30.937  1.00  0.00     0.261 C 
BRANCH   4   5
ATOM      5  O   UNL A   1      33.631  35.360  31.670  1.00  0.00    -0.463 OA
BRANCH   5   6
ATOM      6  C   UNL A   1      34.520  35.649  32.652  1.00  0.00     0.312 C 
ATOM      7  O   UNL A   1      34.574  36.718  33.256  1.00  0.00    -0.252 OA
BRANCH   6   8
ATOM      8  C   UNL A   1      35.391  34.472  33.054  1.00  0.00     0.124 C 
ATOM      9  C   UNL A   1      35.831  32.084  32.676  1.00  0.00     0.104 C 
ATOM     10  C   UNL A   1      36.699  32.945  31.826  1.00  0.00    -0.006 C 
ATOM     11  C   UNL A   1      34.799  33.068  33.253  1.00  0.00     0.048 C 
ATOM     12  C   UNL A   1      36.456  34.245  32.017  1.00  0.00    -0.014 C 
BRANCH   9  13
ATOM     13  N   UNL A   1      36.611  31.343  33.650  1.00  0.00    -0.364 N 
ATOM     14  H   UNL A   1      36.055  30.771  34.227  1.00  0.00     0.162 HD
BRANCH  13  15
ATOM     15  C   UNL A   1      37.940  31.261  33.945  1.00  0.00     0.130 A 
ATOM     16  C   UNL A   1      40.718  32.807  35.923  1.00  0.00     0.067 C 
ATOM     17  C   UNL A   1      39.957  31.885  35.017  1.00  0.00     0.043 A 
ATOM     18  C   UNL A   1      38.648  32.173  34.686  1.00  0.00     0.070 A 
ATOM     19  N   UNL A   1      40.593  30.808  34.536  1.00  0.00    -0.238 NA
ATOM     20  C   UNL A   1      39.866  30.005  33.741  1.00  0.00     0.127 A 
ATOM     21  N   UNL A   1      38.557  30.173  33.456  1.00  0.00    -0.216 NA
ATOM     22  C   UNL A   1      40.579  28.866  33.085  1.00  0.00     0.090 C 
ENDBRANCH  13  15
ENDBRANCH   9  13
ENDBRANCH   6   8
ENDBRANCH   5   6
ENDBRANCH   4   5
ENDBRANCH   3   4
ENDBRANCH   2   3
ENDBRANCH   1   2
BRANCH   1  23
ATOM     23  C   UNL A   1      35.258  33.385  28.060  1.00  0.00     0.261 C 
BRANCH  23  24
ATOM     24  O   UNL A   1      34.575  32.420  28.885  1.00  0.00    -0.460 OA
BRANCH  24  25
ATOM     25  C   UNL A   1      34.433  31.194  28.329  1.00  0.00     0.338 C 
ATOM     26  O   UNL A   1      33.483  30.783  27.674  1.00  0.00    -0.246 OA
BRANCH  25  27
ATOM     27  C   UNL A   1      35.677  30.424  28.468  1.00  0.00     0.060 A 
ATOM     28  C   UNL A   1      36.084  30.043  29.752  1.00  0.00     0.016 A 
ATOM     29  C   UNL A   1      36.505  30.213  27.364  1.00  0.00     0.016 A 
ATOM     30  C   UNL A   1      37.343  29.475  29.943  1.00  0.00     0.010 A 
ATOM     31  C   UNL A   1      37.775  29.661  27.561  1.00  0.00     0.010 A 
ATOM     32  C   UNL A   1      38.210  29.324  28.855  1.00  0.00    -0.014 A 
BRANCH  32  33
ATOM     33  C   UNL A   1      39.629  28.976  29.098  1.00  0.00     0.031 A 
ATOM     34  C   UNL A   1      40.527  29.999  29.736  1.00  0.00     0.074 A 
ATOM     35  C   UNL A   1      40.101  27.755  28.790  1.00  0.00     0.049 A 
ATOM     36  N   UNL A   1      41.801  29.914  30.023  1.00  0.00    -0.248 NA
ATOM     37  C   UNL A   1      39.908  31.283  30.110  1.00  0.00     0.031 C 
ATOM     38  C   UNL A   1      39.314  26.661  28.226  1.00  0.00     0.029 A 
ATOM     39  N   UNL A   1      41.365  27.234  28.914  1.00  0.00    -0.354 N 
ATOM     40  C   UNL A   1      42.135  31.128  30.609  1.00  0.00     0.074 A 
ATOM     41  C   UNL A   1      40.939  31.940  30.623  1.00  0.00     0.031 C 
ATOM     42  C   UNL A   1      40.114  25.595  28.048  1.00  0.00     0.029 A 
ATOM     43  C   UNL A   1      41.474  25.942  28.461  1.00  0.00     0.049 A 
ATOM     44  H   UNL A   1      42.121  27.738  29.294  1.00  0.00     0.167 HD
ATOM     45  C   UNL A   1      43.332  31.528  31.098  1.00  0.00     0.031 A 
ATOM     46  C   UNL A   1      42.551  25.137  28.372  1.00  0.00     0.031 A 
ATOM     47  C   UNL A   1      44.525  30.727  31.069  1.00  0.00     0.049 A 
ATOM     48  C   UNL A   1      43.892  25.635  28.837  1.00  0.00     0.074 A 
ATOM     49  C   UNL A   1      45.786  31.051  31.537  1.00  0.00     0.029 A 
ATOM     50  N   UNL A   1      44.606  29.449  30.542  1.00  0.00    -0.354 N 
ATOM     51  N   UNL A   1      44.195  26.790  29.379  1.00  0.00    -0.248 NA
ATOM     52  C   UNL A   1      45.036  24.726  28.677  1.00  0.00     0.031 C 
ATOM     53  C   UNL A   1      46.642  29.984  31.253  1.00  0.00     0.029 A 
ATOM     54  C   UNL A   1      45.902  28.978  30.652  1.00  0.00     0.049 A 
ATOM     55  H   UNL A   1      43.854  28.951  30.147  1.00  0.00     0.167 HD
ATOM     56  C   UNL A   1      45.559  26.739  29.643  1.00  0.00     0.074 A 
ATOM     57  C   UNL A   1      46.024  25.440  29.203  1.00  0.00     0.031 C 
ATOM     58  C   UNL A   1      46.352  27.683  30.205  1.00  0.00     0.031 A 
BRANCH  45  59
ATOM     59  C   UNL A   1      43.420  32.907  31.687  1.00  0.00    -0.014 A 
ATOM     60  C   UNL A   1      42.980  33.160  32.998  1.00  0.00     0.010 A 
ATOM     61  C   UNL A   1      44.017  33.944  30.948  1.00  0.00     0.010 A 
ATOM     62  C   UNL A   1      43.123  34.433  33.555  1.00  0.00     0.020 A 
ATOM     63  C   UNL A   1      44.178  35.213  31.509  1.00  0.00     0.020 A 
ATOM     64  C   UNL A   1      43.727  35.450  32.809  1.00  0.00     0.054 A 
BRANCH  64  65
ATOM     65  S   UNL A   1      43.929  37.082  33.576  1.00  0.00     0.124 S 
ATOM     66  O   UNL A   1      44.098  37.947  32.411  1.00  0.00    -0.237 OA
ATOM     67  O   UNL A   1      42.673  37.244  34.301  1.00  0.00    -0.237 OA
ATOM     68  O   UNL A   1      45.118  36.930  34.411  1.00  0.00    -0.744 OA
ENDBRANCH  64  65
ENDBRANCH  45  59
BRANCH  46  69
ATOM     69  C   UNL A   1      42.395  23.772  27.804  1.00  0.00    -0.014 A 
ATOM     70  C   UNL A   1      42.516  23.557  26.421  1.00  0.00     0.010 A 
ATOM     71  C   UNL A   1      42.171  22.674  28.655  1.00  0.00     0.010 A 
ATOM     72  C   UNL A   1      42.429  22.262  25.899  1.00  0.00     0.020 A 
ATOM     73  C   UNL A   1      42.102  21.377  28.139  1.00  0.00     0.020 A 
ATOM     74  C   UNL A   1      42.236  21.180  26.764  1.00  0.00     0.054 A 
BRANCH  74  75
ATOM     75  S   UNL A   1      42.202  19.505  26.064  1.00  0.00     0.124 S 
ATOM     76  O   UNL A   1      43.149  19.613  24.959  1.00  0.00    -0.237 OA
ATOM     77  O   UNL A   1      42.639  18.692  27.197  1.00  0.00    -0.237 OA
ATOM     78  O   UNL A   1      40.805  19.323  25.675  1.00  0.00    -0.744 OA
ENDBRANCH  74  75
ENDBRANCH  46  69
BRANCH  58  79
ATOM     79  C   UNL A   1      47.807  27.361  30.400  1.00  0.00    -0.014 A 
ATOM     80  C   UNL A   1      48.748  27.647  29.398  1.00  0.00     0.010 A 
ATOM     81  C   UNL A   1      48.249  26.882  31.647  1.00  0.00     0.010 A 
ATOM     82  C   UNL A   1      50.112  27.459  29.639  1.00  0.00     0.020 A 
ATOM     83  C   UNL A   1      49.613  26.710  31.898  1.00  0.00     0.020 A 
ATOM     84  C   UNL A   1      50.535  27.003  30.892  1.00  0.00     0.054 A 
BRANCH  84  85
ATOM     85  S   UNL A   1      52.316  26.836  31.196  1.00  0.00     0.124 S 
ATOM     86  O   UNL A   1      52.469  25.391  31.347  1.00  0.00    -0.237 OA
ATOM     87  O   UNL A   1      52.896  27.406  29.984  1.00  0.00    -0.237 OA
ATOM     88  O   UNL A   1      52.536  27.613  32.414  1.00  0.00    -0.744 OA
ENDBRANCH  84  85
ENDBRANCH  58  79
ENDBRANCH  32  33
ENDBRANCH  25  27
ENDBRANCH  24  25
ENDBRANCH  23  24
ENDBRANCH   1  23
TORSDOF 19
ENDMDL
MODEL 2
REMARK VINA RESULT:      -9.0      4.153     10.694
REMARK SMILES Cc1cc(N[C@@H]2C=C[C@@H](C(=O)OCCOCCOC(=O)c3ccc(-c4c5nc(c(-c6ccc(S(=O)(=O)[O-])cc6)c6ccc([nH]6)c(-c6ccc(S(=O)(=O)[O-])cc6)c6nc(c(-c7ccc(S(=O)(=O)[O-])cc7)c7ccc4[nH]7)C=C6)C=C5)cc3)C2)nc(C)n1
REMARK SMILES IDX 16 1 15 2 14 3 13 4 12 5 10 6 11 7 9 8 6 9 7 10 81 11 8 12
REMARK SMILES IDX 5 13 4 15 1 16 2 17 3 18 85 19 83 20 82 21 84 22 17 23 18 24
REMARK SMILES IDX 19 25 20 26 21 27 22 28 80 29 23 30 79 31 24 32 25 33 26 34
REMARK SMILES IDX 73 35 27 36 78 37 72 38 74 39 28 40 77 41 71 42 70 43 29 45
REMARK SMILES IDX 59 46 40 47 58 48 41 49 44 50 57 51 75 52 42 53 43 54 56 56
REMARK SMILES IDX 76 57 45 58 30 59 31 60 39 61 32 62 38 63 33 64 34 65 35 66
REMARK SMILES IDX 36 67 37 68 60 69 61 70 69 71 62 72 68 73 63 74 64 75 65 76
REMARK SMILES IDX 66 77 67 78 46 79 47 80 55 81 48 82 54 83 49 84 50 85 51 86
REMARK SMILES IDX 52 87 53 88
REMARK H PARENT 5 14 74 44 44 55
REMARK Flexibility Score: inf
ROOT
ATOM      1  C   UNL A   1      35.246  22.629  24.706  1.00  0.00     0.202 C 
ENDROOT
BRANCH   1   2
ATOM      2  O   UNL A   1      35.089  21.697  25.780  1.00  0.00    -0.374 OA
BRANCH   2   3
ATOM      3  C   UNL A   1      33.767  21.281  26.111  1.00  0.00     0.202 C 
BRANCH   3   4
ATOM      4  C   UNL A   1      32.857  22.332  26.754  1.00  0.00     0.261 C 
BRANCH   4   5
ATOM      5  O   UNL A   1      31.550  22.345  26.160  1.00  0.00    -0.463 OA
BRANCH   5   6
ATOM      6  C   UNL A   1      30.738  23.338  26.599  1.00  0.00     0.312 C 
ATOM      7  O   UNL A   1      29.843  23.196  27.428  1.00  0.00    -0.252 OA
BRANCH   6   8
ATOM      8  C   UNL A   1      31.111  24.711  26.068  1.00  0.00     0.124 C 
ATOM      9  C   UNL A   1      31.134  26.151  24.076  1.00  0.00     0.104 C 
ATOM     10  C   UNL A   1      29.910  26.364  24.896  1.00  0.00    -0.006 C 
ATOM     11  C   UNL A   1      31.763  24.886  24.687  1.00  0.00     0.048 C 
ATOM     12  C   UNL A   1      29.884  25.574  25.974  1.00  0.00    -0.014 C 
BRANCH   9  13
ATOM     13  N   UNL A   1      31.977  27.332  24.065  1.00  0.00    -0.364 N 
ATOM     14  H   UNL A   1      32.403  27.488  23.192  1.00  0.00     0.162 HD
BRANCH  13  15
ATOM     15  C   UNL A   1      32.310  28.276  24.992  1.00  0.00     0.130 A 
ATOM     16  C   UNL A   1      34.816  29.219  27.608  1.00  0.00     0.067 C 
ATOM     17  C   UNL A   1      33.633  29.266  26.688  1.00  0.00     0.043 A 
ATOM     18  C   UNL A   1      33.330  28.171  25.904  1.00  0.00     0.070 A 
ATOM     19  N   UNL A   1      32.888  30.380  26.675  1.00  0.00    -0.238 NA
ATOM     20  C   UNL A   1      31.849  30.380  25.824  1.00  0.00     0.127 A 
ATOM     21  N   UNL A   1      31.552  29.385  24.960  1.00  0.00    -0.216 NA
ATOM     22  C   UNL A   1      30.922  31.552  25.877  1.00  0.00     0.090 C 
ENDBRANCH  13  15
ENDBRANCH   9  13
ENDBRANCH   6   8
ENDBRANCH   5   6
ENDBRANCH   4   5
ENDBRANCH   3   4
ENDBRANCH   2   3
ENDBRANCH   1   2
BRANCH   1  23
ATOM     23  C   UNL A   1      36.609  23.319  24.560  1.00  0.00     0.261 C 
BRANCH  23  24
ATOM     24  O   UNL A   1      37.133  23.768  25.826  1.00  0.00    -0.460 OA
BRANCH  24  25
ATOM     25  C   UNL A   1      38.355  23.279  26.143  1.00  0.00     0.338 C 
ATOM     26  O   UNL A   1      38.828  22.198  25.814  1.00  0.00    -0.246 OA
BRANCH  25  27
ATOM     27  C   UNL A   1      39.153  24.306  26.826  1.00  0.00     0.060 A 
ATOM     28  C   UNL A   1      38.923  24.531  28.189  1.00  0.00     0.016 A 
ATOM     29  C   UNL A   1      40.009  25.136  26.100  1.00  0.00     0.016 A 
ATOM     30  C   UNL A   1      39.525  25.614  28.827  1.00  0.00     0.010 A 
ATOM     31  C   UNL A   1      40.596  26.233  26.737  1.00  0.00     0.010 A 
ATOM     32  C   UNL A   1      40.328  26.495  28.092  1.00  0.00    -0.014 A 
BRANCH  32  33
ATOM     33  C   UNL A   1      40.743  27.780  28.701  1.00  0.00     0.031 A 
ATOM     34  C   UNL A   1      42.162  27.931  29.176  1.00  0.00     0.074 A 
ATOM     35  C   UNL A   1      39.882  28.808  28.796  1.00  0.00     0.049 A 
ATOM     36  N   UNL A   1      42.733  28.956  29.754  1.00  0.00    -0.248 NA
ATOM     37  C   UNL A   1      43.058  26.780  28.965  1.00  0.00     0.031 C 
ATOM     38  C   UNL A   1      38.501  28.802  28.316  1.00  0.00     0.029 A 
ATOM     39  N   UNL A   1      40.049  30.060  29.331  1.00  0.00    -0.354 N 
ATOM     40  C   UNL A   1      44.051  28.577  29.973  1.00  0.00     0.074 A 
ATOM     41  C   UNL A   1      44.194  27.224  29.486  1.00  0.00     0.031 C 
ATOM     42  C   UNL A   1      37.944  29.997  28.581  1.00  0.00     0.029 A 
ATOM     43  C   UNL A   1      38.919  30.839  29.273  1.00  0.00     0.049 A 
ATOM     44  H   UNL A   1      40.900  30.372  29.719  1.00  0.00     0.167 HD
ATOM     45  C   UNL A   1      45.055  29.295  30.529  1.00  0.00     0.031 A 
ATOM     46  C   UNL A   1      38.691  32.082  29.741  1.00  0.00     0.031 A 
ATOM     47  C   UNL A   1      44.909  30.635  31.029  1.00  0.00     0.049 A 
ATOM     48  C   UNL A   1      39.796  32.829  30.436  1.00  0.00     0.074 A 
ATOM     49  C   UNL A   1      45.871  31.441  31.613  1.00  0.00     0.029 A 
ATOM     50  N   UNL A   1      43.731  31.362  31.009  1.00  0.00    -0.354 N 
ATOM     51  N   UNL A   1      41.034  32.452  30.646  1.00  0.00    -0.248 NA
ATOM     52  C   UNL A   1      39.474  34.164  30.960  1.00  0.00     0.031 C 
ATOM     53  C   UNL A   1      45.262  32.641  31.986  1.00  0.00     0.029 A 
ATOM     54  C   UNL A   1      43.934  32.600  31.592  1.00  0.00     0.049 A 
ATOM     55  H   UNL A   1      42.876  31.044  30.637  1.00  0.00     0.167 HD
ATOM     56  C   UNL A   1      41.645  33.511  31.309  1.00  0.00     0.074 A 
ATOM     57  C   UNL A   1      40.643  34.544  31.464  1.00  0.00     0.031 C 
ATOM     58  C   UNL A   1      42.924  33.617  31.743  1.00  0.00     0.031 A 
BRANCH  45  59
ATOM     59  C   UNL A   1      46.401  28.639  30.647  1.00  0.00    -0.014 A 
ATOM     60  C   UNL A   1      46.728  27.864  31.774  1.00  0.00     0.010 A 
ATOM     61  C   UNL A   1      47.320  28.738  29.588  1.00  0.00     0.010 A 
ATOM     62  C   UNL A   1      47.959  27.210  31.844  1.00  0.00     0.020 A 
ATOM     63  C   UNL A   1      48.545  28.069  29.647  1.00  0.00     0.020 A 
ATOM     64  C   UNL A   1      48.858  27.311  30.777  1.00  0.00     0.054 A 
BRANCH  64  65
ATOM     65  S   UNL A   1      50.434  26.420  30.886  1.00  0.00     0.124 S 
ATOM     66  O   UNL A   1      51.088  27.092  32.006  1.00  0.00    -0.237 OA
ATOM     67  O   UNL A   1      50.003  25.049  31.141  1.00  0.00    -0.237 OA
ATOM     68  O   UNL A   1      51.054  26.647  29.583  1.00  0.00    -0.744 OA
ENDBRANCH  64  65
ENDBRANCH  45  59
BRANCH  46  69
ATOM     69  C   UNL A   1      37.344  32.689  29.569  1.00  0.00    -0.014 A 
ATOM     70  C   UNL A   1      36.386  32.599  30.593  1.00  0.00     0.010 A 
ATOM     71  C   UNL A   1      37.035  33.402  28.397  1.00  0.00     0.010 A 
ATOM     72  C   UNL A   1      35.144  33.224  30.451  1.00  0.00     0.020 A 
ATOM     73  C   UNL A   1      35.801  34.043  28.259  1.00  0.00     0.020 A 
ATOM     74  C   UNL A   1      34.865  33.953  29.290  1.00  0.00     0.054 A 
BRANCH  74  75
ATOM     75  S   UNL A   1      33.272  34.814  29.167  1.00  0.00     0.124 S 
ATOM     76  O   UNL A   1      33.667  36.123  28.654  1.00  0.00    -0.237 OA
ATOM     77  O   UNL A   1      32.535  33.964  28.235  1.00  0.00    -0.237 OA
ATOM     78  O   UNL A   1      32.770  34.807  30.539  1.00  0.00    -0.744 OA
ENDBRANCH  74  75
ENDBRANCH  46  69
BRANCH  58  79
ATOM     79  C   UNL A   1      43.339  34.895  32.418  1.00  0.00    -0.014 A 
ATOM     80  C   UNL A   1      43.785  35.994  31.666  1.00  0.00     0.010 A 
ATOM     81  C   UNL A   1      43.162  35.035  33.806  1.00  0.00     0.010 A 
ATOM     82  C   UNL A   1      44.048  37.215  32.292  1.00  0.00     0.020 A 
ATOM     83  C   UNL A   1      43.407  36.259  34.434  1.00  0.00     0.020 A 
ATOM     84  C   UNL A   1      43.846  37.342  33.671  1.00  0.00     0.054 A 
BRANCH  84  85
ATOM     85  S   UNL A   1      44.130  38.960  34.441  1.00  0.00     0.124 S 
ATOM     86  O   UNL A   1      44.047  38.641  35.865  1.00  0.00    -0.237 OA
ATOM     87  O   UNL A   1      45.459  39.312  33.953  1.00  0.00    -0.237 OA
ATOM     88  O   UNL A   1      43.040  39.787  33.927  1.00  0.00    -0.744 OA
ENDBRANCH  84  85
ENDBRANCH  58  79
ENDBRANCH  32  33
ENDBRANCH  25  27
ENDBRANCH  24  25
ENDBRANCH  23  24
ENDBRANCH   1  23
TORSDOF 19
ENDMDL
MODEL 3
REMARK VINA RESULT:      -9.0      3.998      6.600
REMARK SMILES Cc1cc(N[C@@H]2C=C[C@@H](C(=O)OCCOCCOC(=O)c3ccc(-c4c5nc(c(-c6ccc(S(=O)(=O)[O-])cc6)c6ccc([nH]6)c(-c6ccc(S(=O)(=O)[O-])cc6)c6nc(c(-c7ccc(S(=O)(=O)[O-])cc7)c7ccc4[nH]7)C=C6)C=C5)cc3)C2)nc(C)n1
REMARK SMILES IDX 16 1 15 2 14 3 13 4 12 5 10 6 11 7 9 8 6 9 7 10 81 11 8 12
REMARK SMILES IDX 5 13 4 15 1 16 2 17 3 18 85 19 83 20 82 21 84 22 17 23 18 24
REMARK SMILES IDX 19 25 20 26 21 27 22 28 80 29 23 30 79 31 24 32 25 33 26 34
REMARK SMILES IDX 73 35 27 36 78 37 72 38 74 39 28 40 77 41 71 42 70 43 29 45
REMARK SMILES IDX 59 46 40 47 58 48 41 49 44 50 57 51 75 52 42 53 43 54 56 56
REMARK SMILES IDX 76 57 45 58 30 59 31 60 39 61 32 62 38 63 33 64 34 65 35 66
REMARK SMILES IDX 36 67 37 68 60 69 61 70 69 71 62 72 68 73 63 74 64 75 65 76
REMARK SMILES IDX 66 77 67 78 46 79 47 80 55 81 48 82 54 83 49 84 50 85 51 86
REMARK SMILES IDX 52 87 53 88
REMARK H PARENT 5 14 74 44 44 55
REMARK Flexibility Score: inf
ROOT
ATOM      1  C   UNL A   1      31.650  30.308  26.594  1.00  0.00     0.202 C 
ENDROOT
BRANCH   1   2
ATOM      2  O   UNL A   1      31.267  30.339  25.216  1.00  0.00    -0.374 OA
BRANCH   2   3
ATOM      3  C   UNL A   1      31.826  29.357  24.348  1.00  0.00     0.202 C 
BRANCH   3   4
ATOM      4  C   UNL A   1      31.057  28.039  24.217  1.00  0.00     0.261 C 
BRANCH   4   5
ATOM      5  O   UNL A   1      31.602  27.015  25.062  1.00  0.00    -0.463 OA
BRANCH   5   6
ATOM      6  C   UNL A   1      32.503  26.202  24.459  1.00  0.00     0.312 C 
ATOM      7  O   UNL A   1      33.383  26.579  23.688  1.00  0.00    -0.252 OA
BRANCH   6   8
ATOM      8  C   UNL A   1      32.425  24.756  24.919  1.00  0.00     0.124 C 
ATOM      9  C   UNL A   1      31.617  23.259  26.692  1.00  0.00     0.104 C 
ATOM     10  C   UNL A   1      30.637  23.372  25.578  1.00  0.00    -0.006 C 
ATOM     11  C   UNL A   1      32.636  24.371  26.392  1.00  0.00     0.048 C 
ATOM     12  C   UNL A   1      31.064  24.195  24.615  1.00  0.00    -0.014 C 
BRANCH   9  13
ATOM     13  N   UNL A   1      32.159  21.916  26.788  1.00  0.00    -0.364 N 
ATOM     14  H   UNL A   1      31.867  21.445  27.602  1.00  0.00     0.162 HD
BRANCH  13  15
ATOM     15  C   UNL A   1      32.979  21.159  26.003  1.00  0.00     0.130 A 
ATOM     16  C   UNL A   1      36.544  20.537  25.042  1.00  0.00     0.067 C 
ATOM     17  C   UNL A   1      35.051  20.419  25.129  1.00  0.00     0.043 A 
ATOM     18  C   UNL A   1      34.330  21.349  25.849  1.00  0.00     0.070 A 
ATOM     19  N   UNL A   1      34.460  19.409  24.475  1.00  0.00    -0.238 NA
ATOM     20  C   UNL A   1      33.124  19.337  24.594  1.00  0.00     0.127 A 
ATOM     21  N   UNL A   1      32.367  20.152  25.360  1.00  0.00    -0.216 NA
ATOM     22  C   UNL A   1      32.420  18.302  23.775  1.00  0.00     0.090 C 
ENDBRANCH  13  15
ENDBRANCH   9  13
ENDBRANCH   6   8
ENDBRANCH   5   6
ENDBRANCH   4   5
ENDBRANCH   3   4
ENDBRANCH   2   3
ENDBRANCH   1   2
BRANCH   1  23
ATOM     23  C   UNL A   1      32.924  31.065  26.993  1.00  0.00     0.261 C 
BRANCH  23  24
ATOM     24  O   UNL A   1      33.845  30.237  27.730  1.00  0.00    -0.460 OA
BRANCH  24  25
ATOM     25  C   UNL A   1      34.783  30.914  28.433  1.00  0.00     0.338 C 
ATOM     26  O   UNL A   1      34.634  31.963  29.048  1.00  0.00    -0.246 OA
BRANCH  25  27
ATOM     27  C   UNL A   1      36.022  30.129  28.515  1.00  0.00     0.060 A 
ATOM     28  C   UNL A   1      36.381  29.578  29.752  1.00  0.00     0.016 A 
ATOM     29  C   UNL A   1      36.893  30.065  27.425  1.00  0.00     0.016 A 
ATOM     30  C   UNL A   1      37.632  28.986  29.913  1.00  0.00     0.010 A 
ATOM     31  C   UNL A   1      38.155  29.487  27.596  1.00  0.00     0.010 A 
ATOM     32  C   UNL A   1      38.541  28.979  28.849  1.00  0.00    -0.014 A 
BRANCH  32  33
ATOM     33  C   UNL A   1      39.950  28.596  29.098  1.00  0.00     0.031 A 
ATOM     34  C   UNL A   1      40.859  29.582  29.778  1.00  0.00     0.074 A 
ATOM     35  C   UNL A   1      40.404  27.377  28.757  1.00  0.00     0.049 A 
ATOM     36  N   UNL A   1      42.127  29.465  30.076  1.00  0.00    -0.248 NA
ATOM     37  C   UNL A   1      40.260  30.866  30.184  1.00  0.00     0.031 C 
ATOM     38  C   UNL A   1      39.603  26.316  28.150  1.00  0.00     0.029 A 
ATOM     39  N   UNL A   1      41.656  26.829  28.880  1.00  0.00    -0.354 N 
ATOM     40  C   UNL A   1      42.476  30.653  30.705  1.00  0.00     0.074 A 
ATOM     41  C   UNL A   1      41.296  31.487  30.730  1.00  0.00     0.031 C 
ATOM     42  C   UNL A   1      40.386  25.241  27.949  1.00  0.00     0.029 A 
ATOM     43  C   UNL A   1      41.747  25.550  28.387  1.00  0.00     0.049 A 
ATOM     44  H   UNL A   1      42.417  27.307  29.284  1.00  0.00     0.167 HD
ATOM     45  C   UNL A   1      43.675  31.016  31.219  1.00  0.00     0.031 A 
ATOM     46  C   UNL A   1      42.810  24.728  28.286  1.00  0.00     0.031 A 
ATOM     47  C   UNL A   1      44.853  30.194  31.180  1.00  0.00     0.049 A 
ATOM     48  C   UNL A   1      44.154  25.186  28.783  1.00  0.00     0.074 A 
ATOM     49  C   UNL A   1      46.114  30.479  31.673  1.00  0.00     0.029 A 
ATOM     50  N   UNL A   1      44.917  28.931  30.614  1.00  0.00    -0.354 N 
ATOM     51  N   UNL A   1      44.471  26.318  29.364  1.00  0.00    -0.248 NA
ATOM     52  C   UNL A   1      45.283  24.261  28.608  1.00  0.00     0.031 C 
ATOM     53  C   UNL A   1      46.953  29.405  31.365  1.00  0.00     0.029 A 
ATOM     54  C   UNL A   1      46.203  28.432  30.724  1.00  0.00     0.049 A 
ATOM     55  H   UNL A   1      44.161  28.460  30.195  1.00  0.00     0.167 HD
ATOM     56  C   UNL A   1      45.831  26.233  29.642  1.00  0.00     0.074 A 
ATOM     57  C   UNL A   1      46.277  24.940  29.167  1.00  0.00     0.031 C 
ATOM     58  C   UNL A   1      46.634  27.144  30.242  1.00  0.00     0.031 A 
BRANCH  45  59
ATOM     59  C   UNL A   1      43.781  32.374  31.852  1.00  0.00    -0.014 A 
ATOM     60  C   UNL A   1      44.046  33.514  31.072  1.00  0.00     0.010 A 
ATOM     61  C   UNL A   1      43.541  32.521  33.230  1.00  0.00     0.010 A 
ATOM     62  C   UNL A   1      44.082  34.778  31.664  1.00  0.00     0.020 A 
ATOM     63  C   UNL A   1      43.559  33.787  33.821  1.00  0.00     0.020 A 
ATOM     64  C   UNL A   1      43.832  34.908  33.035  1.00  0.00     0.054 A 
BRANCH  64  65
ATOM     65  S   UNL A   1      43.852  36.568  33.764  1.00  0.00     0.124 S 
ATOM     66  O   UNL A   1      44.497  37.354  32.715  1.00  0.00    -0.237 OA
ATOM     67  O   UNL A   1      42.433  36.838  33.969  1.00  0.00    -0.237 OA
ATOM     68  O   UNL A   1      44.639  36.403  34.984  1.00  0.00    -0.744 OA
ENDBRANCH  64  65
ENDBRANCH  45  59
BRANCH  46  69
ATOM     69  C   UNL A   1      42.636  23.384  27.674  1.00  0.00    -0.014 A 
ATOM     70  C   UNL A   1      42.939  23.173  26.319  1.00  0.00     0.010 A 
ATOM     71  C   UNL A   1      42.209  22.299  28.462  1.00  0.00     0.010 A 
ATOM     72  C   UNL A   1      42.832  21.894  25.764  1.00  0.00     0.020 A 
ATOM     73  C   UNL A   1      42.118  21.016  27.915  1.00  0.00     0.020 A 
ATOM     74  C   UNL A   1      42.435  20.822  26.570  1.00  0.00     0.054 A 
BRANCH  74  75
ATOM     75  S   UNL A   1      42.377  19.162  25.839  1.00  0.00     0.124 S 
ATOM     76  O   UNL A   1      40.949  18.983  25.591  1.00  0.00    -0.237 OA
ATOM     77  O   UNL A   1      43.211  19.322  24.649  1.00  0.00    -0.237 OA
ATOM     78  O   UNL A   1      42.943  18.307  26.880  1.00  0.00    -0.744 OA
ENDBRANCH  74  75
ENDBRANCH  46  69
BRANCH  58  79
ATOM     79  C   UNL A   1      48.080  26.789  30.445  1.00  0.00    -0.014 A 
ATOM     80  C   UNL A   1      49.052  27.164  29.502  1.00  0.00     0.010 A 
ATOM     81  C   UNL A   1      48.483  26.184  31.648  1.00  0.00     0.010 A 
ATOM     82  C   UNL A   1      50.407  26.938  29.761  1.00  0.00     0.020 A 
ATOM     83  C   UNL A   1      49.838  25.973  31.919  1.00  0.00     0.020 A 
ATOM     84  C   UNL A   1      50.791  26.355  30.973  1.00  0.00     0.054 A 
BRANCH  84  85
ATOM     85  S   UNL A   1      52.561  26.140  31.308  1.00  0.00     0.124 S 
ATOM     86  O   UNL A   1      53.139  26.216  29.968  1.00  0.00    -0.237 OA
ATOM     87  O   UNL A   1      52.854  27.271  32.184  1.00  0.00    -0.237 OA
ATOM     88  O   UNL A   1      52.639  24.826  31.943  1.00  0.00    -0.744 OA
ENDBRANCH  84  85
ENDBRANCH  58  79
ENDBRANCH  32  33
ENDBRANCH  25  27
ENDBRANCH  24  25
ENDBRANCH  23  24
ENDBRANCH   1  23
TORSDOF 19
ENDMDL
