MODEL 1
REMARK VINA RESULT:      -8.7      0.000      0.000
REMARK SMILES C[C@@H](CCCO)Nc1ccc(Cl)cc1C(=O)OCCOCCOC(=O)c1ccc(-c2c3nc(c(-c4ccc(S(=O)(=O)[O-])cc4)c4ccc([nH]4)c(-c4ccc(S(=O)(=O)[O-])cc4)c4nc(c(-c5ccc(S(=O)(=O)[O-])cc5)c5ccc2[nH]5)C=C4)C=C3)cc1
REMARK SMILES IDX 18 1 17 2 15 3 16 4 14 5 8 6 9 7 10 8 13 9 11 10 12 11 7 12
REMARK SMILES IDX 2 14 1 15 3 16 4 17 5 18 6 19 19 21 20 22 21 23 22 24 23 25
REMARK SMILES IDX 24 26 25 27 26 28 27 29 85 30 28 31 84 32 29 33 30 34 31 35
REMARK SMILES IDX 78 36 32 37 83 38 77 39 79 40 33 41 82 42 76 43 75 44 34 46
REMARK SMILES IDX 64 47 45 48 63 49 46 50 49 51 62 52 80 53 47 54 48 55 61 57
REMARK SMILES IDX 81 58 50 59 35 60 36 61 44 62 37 63 43 64 38 65 39 66 40 67
REMARK SMILES IDX 41 68 42 69 65 70 66 71 74 72 67 73 73 74 68 75 69 76 70 77
REMARK SMILES IDX 71 78 72 79 51 80 52 81 60 82 53 83 59 84 54 85 55 86 56 87
REMARK SMILES IDX 57 88 58 89
REMARK H PARENT 7 13 6 20 79 45 49 56
REMARK Flexibility Score: inf
ROOT
ATOM      1  C   UNL A   1      33.668  26.592  24.541  1.00  0.00     0.261 C 
ENDROOT
BRANCH   1   2
ATOM      2  O   UNL A   1      34.603  25.601  25.007  1.00  0.00    -0.460 OA
BRANCH   2   3
ATOM      3  C   UNL A   1      34.588  24.429  24.323  1.00  0.00     0.340 C 
ATOM      4  O   UNL A   1      33.915  24.194  23.330  1.00  0.00    -0.246 OA
BRANCH   3   5
ATOM      5  C   UNL A   1      35.622  23.474  24.823  1.00  0.00     0.084 A 
ATOM      6  C   UNL A   1      35.499  22.062  24.848  1.00  0.00     0.049 A 
ATOM      7  C   UNL A   1      36.633  21.331  25.244  1.00  0.00     0.028 A 
ATOM      8  C   UNL A   1      37.789  21.958  25.720  1.00  0.00     0.022 A 
ATOM      9  C   UNL A   1      36.780  24.099  25.327  1.00  0.00     0.038 A 
ATOM     10  C   UNL A   1      37.845  23.341  25.791  1.00  0.00     0.042 A 
ATOM     11  Cl  UNL A   1      39.233  24.115  26.445  1.00  0.00    -0.084 Cl
BRANCH   6  12
ATOM     12  N   UNL A   1      34.334  21.411  24.453  1.00  0.00    -0.382 N 
ATOM     13  H   UNL A   1      34.221  21.222  23.492  1.00  0.00     0.160 HD
BRANCH  12  14
ATOM     14  C   UNL A   1      33.263  20.983  25.361  1.00  0.00     0.076 C 
ATOM     15  C   UNL A   1      33.750  21.098  26.801  1.00  0.00     0.031 C 
BRANCH  14  16
ATOM     16  C   UNL A   1      31.974  21.782  25.119  1.00  0.00     0.027 C 
BRANCH  16  17
ATOM     17  C   UNL A   1      31.710  22.996  26.020  1.00  0.00     0.030 C 
BRANCH  17  18
ATOM     18  C   UNL A   1      30.255  23.260  26.399  1.00  0.00     0.156 C 
BRANCH  18  19
ATOM     19  O   UNL A   1      29.555  22.056  26.672  1.00  0.00    -0.396 OA
ATOM     20  H   UNL A   1      30.186  21.368  26.934  1.00  0.00     0.210 HD
ENDBRANCH  18  19
ENDBRANCH  17  18
ENDBRANCH  16  17
ENDBRANCH  14  16
ENDBRANCH  12  14
ENDBRANCH   6  12
ENDBRANCH   3   5
ENDBRANCH   2   3
ENDBRANCH   1   2
BRANCH   1  21
ATOM     21  C   UNL A   1      32.459  26.682  25.475  1.00  0.00     0.202 C 
BRANCH  21  22
ATOM     22  O   UNL A   1      31.956  27.991  25.743  1.00  0.00    -0.374 OA
BRANCH  22  23
ATOM     23  C   UNL A   1      32.894  29.066  25.744  1.00  0.00     0.202 C 
BRANCH  23  24
ATOM     24  C   UNL A   1      32.581  30.266  26.648  1.00  0.00     0.261 C 
BRANCH  24  25
ATOM     25  O   UNL A   1      33.443  30.339  27.795  1.00  0.00    -0.460 OA
BRANCH  25  26
ATOM     26  C   UNL A   1      34.276  31.407  27.821  1.00  0.00     0.338 C 
ATOM     27  O   UNL A   1      33.983  32.576  27.624  1.00  0.00    -0.246 OA
BRANCH  26  28
ATOM     28  C   UNL A   1      35.600  30.981  28.311  1.00  0.00     0.060 A 
ATOM     29  C   UNL A   1      35.722  29.693  28.847  1.00  0.00     0.016 A 
ATOM     30  C   UNL A   1      36.696  31.844  28.286  1.00  0.00     0.016 A 
ATOM     31  C   UNL A   1      36.934  29.278  29.399  1.00  0.00     0.010 A 
ATOM     32  C   UNL A   1      37.915  31.421  28.826  1.00  0.00     0.010 A 
ATOM     33  C   UNL A   1      38.030  30.151  29.423  1.00  0.00    -0.014 A 
BRANCH  33  34
ATOM     34  C   UNL A   1      39.237  29.818  30.224  1.00  0.00     0.031 A 
ATOM     35  C   UNL A   1      40.133  28.705  29.745  1.00  0.00     0.074 A 
ATOM     36  C   UNL A   1      39.549  30.501  31.341  1.00  0.00     0.049 A 
ATOM     37  N   UNL A   1      41.192  28.189  30.314  1.00  0.00    -0.248 NA
ATOM     38  C   UNL A   1      39.784  28.084  28.455  1.00  0.00     0.031 C 
ATOM     39  C   UNL A   1      38.798  31.633  31.884  1.00  0.00     0.029 A 
ATOM     40  N   UNL A   1      40.589  30.336  32.224  1.00  0.00    -0.354 N 
ATOM     41  C   UNL A   1      41.629  27.183  29.458  1.00  0.00     0.074 A 
ATOM     42  C   UNL A   1      40.695  27.129  28.356  1.00  0.00     0.031 C 
ATOM     43  C   UNL A   1      39.405  32.062  33.006  1.00  0.00     0.029 A 
ATOM     44  C   UNL A   1      40.561  31.211  33.284  1.00  0.00     0.049 A 
ATOM     45  H   UNL A   1      41.289  29.654  32.108  1.00  0.00     0.167 HD
ATOM     46  C   UNL A   1      42.719  26.386  29.569  1.00  0.00     0.031 A 
ATOM     47  C   UNL A   1      41.363  31.303  34.364  1.00  0.00     0.031 A 
ATOM     48  C   UNL A   1      43.649  26.440  30.664  1.00  0.00     0.049 A 
ATOM     49  C   UNL A   1      42.518  30.339  34.511  1.00  0.00     0.074 A 
ATOM     50  C   UNL A   1      44.781  25.671  30.867  1.00  0.00     0.029 A 
ATOM     51  N   UNL A   1      43.561  27.314  31.734  1.00  0.00    -0.354 N 
ATOM     52  N   UNL A   1      42.915  29.395  33.691  1.00  0.00    -0.248 NA
ATOM     53  C   UNL A   1      43.334  30.460  35.727  1.00  0.00     0.031 C 
ATOM     54  C   UNL A   1      45.348  26.044  32.089  1.00  0.00     0.029 A 
ATOM     55  C   UNL A   1      44.609  27.093  32.612  1.00  0.00     0.049 A 
ATOM     56  H   UNL A   1      42.858  27.992  31.855  1.00  0.00     0.167 HD
ATOM     57  C   UNL A   1      44.055  28.844  34.273  1.00  0.00     0.074 A 
ATOM     58  C   UNL A   1      44.286  29.565  35.506  1.00  0.00     0.031 C 
ATOM     59  C   UNL A   1      44.841  27.833  33.824  1.00  0.00     0.031 A 
BRANCH  46  60
ATOM     60  C   UNL A   1      42.960  25.377  28.477  1.00  0.00    -0.014 A 
ATOM     61  C   UNL A   1      43.856  25.646  27.426  1.00  0.00     0.010 A 
ATOM     62  C   UNL A   1      42.330  24.121  28.533  1.00  0.00     0.010 A 
ATOM     63  C   UNL A   1      44.095  24.690  26.438  1.00  0.00     0.020 A 
ATOM     64  C   UNL A   1      42.590  23.148  27.564  1.00  0.00     0.020 A 
ATOM     65  C   UNL A   1      43.463  23.445  26.515  1.00  0.00     0.054 A 
BRANCH  65  66
ATOM     66  S   UNL A   1      43.830  22.205  25.242  1.00  0.00     0.124 S 
ATOM     67  O   UNL A   1      45.275  22.043  25.388  1.00  0.00    -0.237 OA
ATOM     68  O   UNL A   1      43.024  21.064  25.668  1.00  0.00    -0.237 OA
ATOM     69  O   UNL A   1      43.399  22.842  24.002  1.00  0.00    -0.744 OA
ENDBRANCH  65  66
ENDBRANCH  46  60
BRANCH  47  70
ATOM     70  C   UNL A   1      41.108  32.328  35.416  1.00  0.00    -0.014 A 
ATOM     71  C   UNL A   1      39.996  32.215  36.272  1.00  0.00     0.010 A 
ATOM     72  C   UNL A   1      41.944  33.452  35.533  1.00  0.00     0.010 A 
ATOM     73  C   UNL A   1      39.702  33.226  37.192  1.00  0.00     0.020 A 
ATOM     74  C   UNL A   1      41.674  34.449  36.476  1.00  0.00     0.020 A 
ATOM     75  C   UNL A   1      40.542  34.339  37.284  1.00  0.00     0.054 A 
BRANCH  75  76
ATOM     76  S   UNL A   1      40.142  35.638  38.487  1.00  0.00     0.124 S 
ATOM     77  O   UNL A   1      41.452  35.932  39.061  1.00  0.00    -0.237 OA
ATOM     78  O   UNL A   1      39.572  36.684  37.641  1.00  0.00    -0.237 OA
ATOM     79  O   UNL A   1      39.194  34.988  39.388  1.00  0.00    -0.744 OA
ENDBRANCH  75  76
ENDBRANCH  47  70
BRANCH  59  80
ATOM     80  C   UNL A   1      46.067  27.485  34.629  1.00  0.00    -0.014 A 
ATOM     81  C   UNL A   1      47.212  28.301  34.620  1.00  0.00     0.010 A 
ATOM     82  C   UNL A   1      46.042  26.352  35.464  1.00  0.00     0.010 A 
ATOM     83  C   UNL A   1      48.319  27.973  35.408  1.00  0.00     0.020 A 
ATOM     84  C   UNL A   1      47.134  26.039  36.277  1.00  0.00     0.020 A 
ATOM     85  C   UNL A   1      48.272  26.845  36.234  1.00  0.00     0.054 A 
BRANCH  85  86
ATOM     86  S   UNL A   1      49.703  26.474  37.285  1.00  0.00     0.124 S 
ATOM     87  O   UNL A   1      50.811  26.985  36.483  1.00  0.00    -0.237 OA
ATOM     88  O   UNL A   1      49.409  27.225  38.502  1.00  0.00    -0.237 OA
ATOM     89  O   UNL A   1      49.659  25.021  37.431  1.00  0.00    -0.744 OA
ENDBRANCH  85  86
ENDBRANCH  59  80
ENDBRANCH  33  34
ENDBRANCH  26  28
ENDBRANCH  25  26
ENDBRANCH  24  25
ENDBRANCH  23  24
ENDBRANCH  22  23
ENDBRANCH  21  22
ENDBRANCH   1  21
TORSDOF 23
ENDMDL
MODEL 2
REMARK VINA RESULT:      -8.5      5.962      7.593
REMARK SMILES C[C@@H](CCCO)Nc1ccc(Cl)cc1C(=O)OCCOCCOC(=O)c1ccc(-c2c3nc(c(-c4ccc(S(=O)(=O)[O-])cc4)c4ccc([nH]4)c(-c4ccc(S(=O)(=O)[O-])cc4)c4nc(c(-c5ccc(S(=O)(=O)[O-])cc5)c5ccc2[nH]5)C=C4)C=C3)cc1
REMARK SMILES IDX 18 1 17 2 15 3 16 4 14 5 8 6 9 7 10 8 13 9 11 10 12 11 7 12
REMARK SMILES IDX 2 14 1 15 3 16 4 17 5 18 6 19 19 21 20 22 21 23 22 24 23 25
REMARK SMILES IDX 24 26 25 27 26 28 27 29 85 30 28 31 84 32 29 33 30 34 31 35
REMARK SMILES IDX 78 36 32 37 83 38 77 39 79 40 33 41 82 42 76 43 75 44 34 46
REMARK SMILES IDX 64 47 45 48 63 49 46 50 49 51 62 52 80 53 47 54 48 55 61 57
REMARK SMILES IDX 81 58 50 59 35 60 36 61 44 62 37 63 43 64 38 65 39 66 40 67
REMARK SMILES IDX 41 68 42 69 65 70 66 71 74 72 67 73 73 74 68 75 69 76 70 77
REMARK SMILES IDX 71 78 72 79 51 80 52 81 60 82 53 83 59 84 54 85 55 86 56 87
REMARK SMILES IDX 57 88 58 89
REMARK H PARENT 7 13 6 20 79 45 49 56
REMARK Flexibility Score: inf
ROOT
ATOM      1  C   UNL A   1      33.401  28.439  25.157  1.00  0.00     0.261 C 
ENDROOT
BRANCH   1   2
ATOM      2  O   UNL A   1      34.041  27.250  24.657  1.00  0.00    -0.460 OA
BRANCH   2   3
ATOM      3  C   UNL A   1      33.596  26.822  23.449  1.00  0.00     0.340 C 
ATOM      4  O   UNL A   1      33.626  27.467  22.411  1.00  0.00    -0.246 OA
BRANCH   3   5
ATOM      5  C   UNL A   1      33.196  25.382  23.476  1.00  0.00     0.084 A 
ATOM      6  C   UNL A   1      31.891  24.883  23.238  1.00  0.00     0.049 A 
ATOM      7  C   UNL A   1      31.743  23.486  23.187  1.00  0.00     0.028 A 
ATOM      8  C   UNL A   1      32.797  22.618  23.489  1.00  0.00     0.022 A 
ATOM      9  C   UNL A   1      34.248  24.503  23.803  1.00  0.00     0.038 A 
ATOM     10  C   UNL A   1      34.039  23.132  23.829  1.00  0.00     0.042 A 
ATOM     11  Cl  UNL A   1      35.318  22.075  24.272  1.00  0.00    -0.084 Cl
BRANCH   6  12
ATOM     12  N   UNL A   1      30.804  25.724  23.010  1.00  0.00    -0.382 N 
ATOM     13  H   UNL A   1      30.744  26.162  22.130  1.00  0.00     0.160 HD
BRANCH  12  14
ATOM     14  C   UNL A   1      29.742  26.002  23.983  1.00  0.00     0.076 C 
ATOM     15  C   UNL A   1      30.295  25.833  25.394  1.00  0.00     0.031 C 
BRANCH  14  16
ATOM     16  C   UNL A   1      29.136  27.397  23.763  1.00  0.00     0.027 C 
BRANCH  16  17
ATOM     17  C   UNL A   1      29.626  28.202  22.552  1.00  0.00     0.030 C 
BRANCH  17  18
ATOM     18  C   UNL A   1      30.449  29.452  22.854  1.00  0.00     0.156 C 
BRANCH  18  19
ATOM     19  O   UNL A   1      30.387  30.392  21.792  1.00  0.00    -0.396 OA
ATOM     20  H   UNL A   1      30.467  29.929  20.944  1.00  0.00     0.210 HD
ENDBRANCH  18  19
ENDBRANCH  17  18
ENDBRANCH  16  17
ENDBRANCH  14  16
ENDBRANCH  12  14
ENDBRANCH   6  12
ENDBRANCH   3   5
ENDBRANCH   2   3
ENDBRANCH   1   2
BRANCH   1  21
ATOM     21  C   UNL A   1      32.923  28.235  26.597  1.00  0.00     0.202 C 
BRANCH  21  22
ATOM     22  O   UNL A   1      33.740  28.796  27.625  1.00  0.00    -0.374 OA
BRANCH  22  23
ATOM     23  C   UNL A   1      34.755  29.717  27.228  1.00  0.00     0.202 C 
BRANCH  23  24
ATOM     24  C   UNL A   1      35.793  30.112  28.286  1.00  0.00     0.261 C 
BRANCH  24  25
ATOM     25  O   UNL A   1      36.570  28.996  28.749  1.00  0.00    -0.460 OA
BRANCH  25  26
ATOM     26  C   UNL A   1      37.492  29.291  29.696  1.00  0.00     0.338 C 
ATOM     27  O   UNL A   1      37.282  29.612  30.856  1.00  0.00    -0.246 OA
BRANCH  26  28
ATOM     28  C   UNL A   1      38.839  28.992  29.176  1.00  0.00     0.060 A 
ATOM     29  C   UNL A   1      39.798  28.498  30.070  1.00  0.00     0.016 A 
ATOM     30  C   UNL A   1      39.173  29.231  27.842  1.00  0.00     0.016 A 
ATOM     31  C   UNL A   1      41.107  28.281  29.641  1.00  0.00     0.010 A 
ATOM     32  C   UNL A   1      40.481  28.997  27.409  1.00  0.00     0.010 A 
ATOM     33  C   UNL A   1      41.467  28.561  28.315  1.00  0.00    -0.014 A 
BRANCH  33  34
ATOM     34  C   UNL A   1      42.898  28.574  27.914  1.00  0.00     0.031 A 
ATOM     35  C   UNL A   1      43.493  27.319  27.328  1.00  0.00     0.074 A 
ATOM     36  C   UNL A   1      43.653  29.681  28.042  1.00  0.00     0.049 A 
ATOM     37  N   UNL A   1      44.728  27.071  26.978  1.00  0.00    -0.248 NA
ATOM     38  C   UNL A   1      42.571  26.188  27.116  1.00  0.00     0.031 C 
ATOM     39  C   UNL A   1      43.188  30.975  28.542  1.00  0.00     0.029 A 
ATOM     40  N   UNL A   1      44.981  29.890  27.759  1.00  0.00    -0.354 N 
ATOM     41  C   UNL A   1      44.733  25.760  26.514  1.00  0.00     0.074 A 
ATOM     42  C   UNL A   1      43.390  25.249  26.670  1.00  0.00     0.031 C 
ATOM     43  C   UNL A   1      44.216  31.844  28.527  1.00  0.00     0.029 A 
ATOM     44  C   UNL A   1      45.419  31.159  28.057  1.00  0.00     0.049 A 
ATOM     45  H   UNL A   1      45.565  29.195  27.377  1.00  0.00     0.167 HD
ATOM     46  C   UNL A   1      45.759  25.048  25.988  1.00  0.00     0.031 A 
ATOM     47  C   UNL A   1      46.652  31.700  27.979  1.00  0.00     0.031 A 
ATOM     48  C   UNL A   1      47.095  25.555  25.830  1.00  0.00     0.049 A 
ATOM     49  C   UNL A   1      47.799  30.853  27.477  1.00  0.00     0.074 A 
ATOM     50  C   UNL A   1      48.203  24.909  25.312  1.00  0.00     0.029 A 
ATOM     51  N   UNL A   1      47.503  26.831  26.182  1.00  0.00    -0.354 N 
ATOM     52  N   UNL A   1      47.785  29.616  27.042  1.00  0.00    -0.248 NA
ATOM     53  C   UNL A   1      49.127  31.483  27.451  1.00  0.00     0.031 C 
ATOM     54  C   UNL A   1      49.295  25.777  25.400  1.00  0.00     0.029 A 
ATOM     55  C   UNL A   1      48.851  26.987  25.908  1.00  0.00     0.049 A 
ATOM     56  H   UNL A   1      46.922  27.525  26.569  1.00  0.00     0.167 HD
ATOM     57  C   UNL A   1      49.092  29.339  26.648  1.00  0.00     0.074 A 
ATOM     58  C   UNL A   1      49.866  30.538  26.888  1.00  0.00     0.031 C 
ATOM     59  C   UNL A   1      49.604  28.194  26.131  1.00  0.00     0.031 A 
BRANCH  46  60
ATOM     60  C   UNL A   1      45.476  23.634  25.550  1.00  0.00    -0.014 A 
ATOM     61  C   UNL A   1      45.641  22.554  26.436  1.00  0.00     0.010 A 
ATOM     62  C   UNL A   1      44.984  23.389  24.256  1.00  0.00     0.010 A 
ATOM     63  C   UNL A   1      45.344  21.253  26.027  1.00  0.00     0.020 A 
ATOM     64  C   UNL A   1      44.656  22.091  23.852  1.00  0.00     0.020 A 
ATOM     65  C   UNL A   1      44.850  21.030  24.738  1.00  0.00     0.054 A 
BRANCH  65  66
ATOM     66  S   UNL A   1      44.430  19.334  24.252  1.00  0.00     0.124 S 
ATOM     67  O   UNL A   1      43.066  19.204  24.759  1.00  0.00    -0.237 OA
ATOM     68  O   UNL A   1      44.557  19.379  22.797  1.00  0.00    -0.237 OA
ATOM     69  O   UNL A   1      45.428  18.518  24.937  1.00  0.00    -0.744 OA
ENDBRANCH  65  66
ENDBRANCH  46  60
BRANCH  47  70
ATOM     70  C   UNL A   1      46.892  33.109  28.401  1.00  0.00    -0.014 A 
ATOM     71  C   UNL A   1      46.837  34.157  27.464  1.00  0.00     0.010 A 
ATOM     72  C   UNL A   1      47.228  33.406  29.734  1.00  0.00     0.010 A 
ATOM     73  C   UNL A   1      47.158  35.465  27.841  1.00  0.00     0.020 A 
ATOM     74  C   UNL A   1      47.515  34.718  30.123  1.00  0.00     0.020 A 
ATOM     75  C   UNL A   1      47.499  35.735  29.168  1.00  0.00     0.054 A 
BRANCH  75  76
ATOM     76  S   UNL A   1      47.909  37.440  29.636  1.00  0.00     0.124 S 
ATOM     77  O   UNL A   1      48.028  38.091  28.334  1.00  0.00    -0.237 OA
ATOM     78  O   UNL A   1      46.752  37.833  30.437  1.00  0.00    -0.237 OA
ATOM     79  O   UNL A   1      49.157  37.298  30.382  1.00  0.00    -0.744 OA
ENDBRANCH  75  76
ENDBRANCH  47  70
BRANCH  59  80
ATOM     80  C   UNL A   1      51.055  28.195  25.721  1.00  0.00    -0.014 A 
ATOM     81  C   UNL A   1      52.079  27.885  26.634  1.00  0.00     0.010 A 
ATOM     82  C   UNL A   1      51.390  28.445  24.377  1.00  0.00     0.010 A 
ATOM     83  C   UNL A   1      53.413  27.856  26.215  1.00  0.00     0.020 A 
ATOM     84  C   UNL A   1      52.718  28.385  23.948  1.00  0.00     0.020 A 
ATOM     85  C   UNL A   1      53.724  28.103  24.874  1.00  0.00     0.054 A 
BRANCH  85  86
ATOM     86  S   UNL A   1      55.457  28.005  24.348  1.00  0.00     0.124 S 
ATOM     87  O   UNL A   1      56.169  28.216  25.605  1.00  0.00    -0.237 OA
ATOM     88  O   UNL A   1      55.547  26.657  23.793  1.00  0.00    -0.237 OA
ATOM     89  O   UNL A   1      55.585  29.084  23.371  1.00  0.00    -0.744 OA
ENDBRANCH  85  86
ENDBRANCH  59  80
ENDBRANCH  33  34
ENDBRANCH  26  28
ENDBRANCH  25  26
ENDBRANCH  24  25
ENDBRANCH  23  24
ENDBRANCH  22  23
ENDBRANCH  21  22
ENDBRANCH   1  21
TORSDOF 23
ENDMDL
MODEL 3
REMARK VINA RESULT:      -8.3      4.723      7.599
REMARK SMILES C[C@@H](CCCO)Nc1ccc(Cl)cc1C(=O)OCCOCCOC(=O)c1ccc(-c2c3nc(c(-c4ccc(S(=O)(=O)[O-])cc4)c4ccc([nH]4)c(-c4ccc(S(=O)(=O)[O-])cc4)c4nc(c(-c5ccc(S(=O)(=O)[O-])cc5)c5ccc2[nH]5)C=C4)C=C3)cc1
REMARK SMILES IDX 18 1 17 2 15 3 16 4 14 5 8 6 9 7 10 8 13 9 11 10 12 11 7 12
REMARK SMILES IDX 2 14 1 15 3 16 4 17 5 18 6 19 19 21 20 22 21 23 22 24 23 25
REMARK SMILES IDX 24 26 25 27 26 28 27 29 85 30 28 31 84 32 29 33 30 34 31 35
REMARK SMILES IDX 78 36 32 37 83 38 77 39 79 40 33 41 82 42 76 43 75 44 34 46
REMARK SMILES IDX 64 47 45 48 63 49 46 50 49 51 62 52 80 53 47 54 48 55 61 57
REMARK SMILES IDX 81 58 50 59 35 60 36 61 44 62 37 63 43 64 38 65 39 66 40 67
REMARK SMILES IDX 41 68 42 69 65 70 66 71 74 72 67 73 73 74 68 75 69 76 70 77
REMARK SMILES IDX 71 78 72 79 51 80 52 81 60 82 53 83 59 84 54 85 55 86 56 87
REMARK SMILES IDX 57 88 58 89
REMARK H PARENT 7 13 6 20 79 45 49 56
REMARK Flexibility Score: inf
ROOT
ATOM      1  C   UNL A   1      34.206  24.642  24.741  1.00  0.00     0.261 C 
ENDROOT
BRANCH   1   2
ATOM      2  O   UNL A   1      33.419  24.740  25.943  1.00  0.00    -0.460 OA
BRANCH   2   3
ATOM      3  C   UNL A   1      32.285  25.478  25.830  1.00  0.00     0.340 C 
ATOM      4  O   UNL A   1      31.151  25.075  26.041  1.00  0.00    -0.246 OA
BRANCH   3   5
ATOM      5  C   UNL A   1      32.578  26.919  25.567  1.00  0.00     0.084 A 
ATOM      6  C   UNL A   1      32.118  27.666  24.453  1.00  0.00     0.049 A 
ATOM      7  C   UNL A   1      32.400  29.042  24.449  1.00  0.00     0.028 A 
ATOM      8  C   UNL A   1      33.210  29.636  25.422  1.00  0.00     0.022 A 
ATOM      9  C   UNL A   1      33.414  27.518  26.531  1.00  0.00     0.038 A 
ATOM     10  C   UNL A   1      33.742  28.863  26.442  1.00  0.00     0.042 A 
ATOM     11  Cl  UNL A   1      34.797  29.569  27.599  1.00  0.00    -0.084 Cl
BRANCH   6  12
ATOM     12  N   UNL A   1      31.374  27.087  23.428  1.00  0.00    -0.382 N 
ATOM     13  H   UNL A   1      31.810  26.388  22.887  1.00  0.00     0.160 HD
BRANCH  12  14
ATOM     14  C   UNL A   1      29.989  27.439  23.096  1.00  0.00     0.076 C 
ATOM     15  C   UNL A   1      29.040  26.555  23.896  1.00  0.00     0.031 C 
BRANCH  14  16
ATOM     16  C   UNL A   1      29.722  28.934  23.329  1.00  0.00     0.027 C 
BRANCH  16  17
ATOM     17  C   UNL A   1      28.693  29.623  22.423  1.00  0.00     0.030 C 
BRANCH  17  18
ATOM     18  C   UNL A   1      27.302  29.841  23.015  1.00  0.00     0.156 C 
BRANCH  18  19
ATOM     19  O   UNL A   1      27.177  31.124  23.608  1.00  0.00    -0.396 OA
ATOM     20  H   UNL A   1      27.788  31.196  24.356  1.00  0.00     0.210 HD
ENDBRANCH  18  19
ENDBRANCH  17  18
ENDBRANCH  16  17
ENDBRANCH  14  16
ENDBRANCH  12  14
ENDBRANCH   6  12
ENDBRANCH   3   5
ENDBRANCH   2   3
ENDBRANCH   1   2
BRANCH   1  21
ATOM     21  C   UNL A   1      34.490  23.178  24.395  1.00  0.00     0.202 C 
BRANCH  21  22
ATOM     22  O   UNL A   1      35.107  22.391  25.413  1.00  0.00    -0.374 OA
BRANCH  22  23
ATOM     23  C   UNL A   1      36.046  21.400  24.999  1.00  0.00     0.202 C 
BRANCH  23  24
ATOM     24  C   UNL A   1      37.525  21.808  24.969  1.00  0.00     0.261 C 
BRANCH  24  25
ATOM     25  O   UNL A   1      37.983  22.336  26.224  1.00  0.00    -0.460 OA
BRANCH  25  26
ATOM     26  C   UNL A   1      39.275  22.060  26.526  1.00  0.00     0.338 C 
ATOM     27  O   UNL A   1      39.828  20.972  26.477  1.00  0.00    -0.246 OA
BRANCH  26  28
ATOM     28  C   UNL A   1      40.001  23.322  26.760  1.00  0.00     0.060 A 
ATOM     29  C   UNL A   1      41.036  23.322  27.704  1.00  0.00     0.016 A 
ATOM     30  C   UNL A   1      39.646  24.498  26.099  1.00  0.00     0.016 A 
ATOM     31  C   UNL A   1      41.694  24.512  28.019  1.00  0.00     0.010 A 
ATOM     32  C   UNL A   1      40.317  25.686  26.404  1.00  0.00     0.010 A 
ATOM     33  C   UNL A   1      41.316  25.709  27.396  1.00  0.00    -0.014 A 
BRANCH  33  34
ATOM     34  C   UNL A   1      41.829  27.009  27.898  1.00  0.00     0.031 A 
ATOM     35  C   UNL A   1      43.316  27.257  27.868  1.00  0.00     0.074 A 
ATOM     36  C   UNL A   1      40.997  27.966  28.352  1.00  0.00     0.049 A 
ATOM     37  N   UNL A   1      43.997  28.278  28.320  1.00  0.00    -0.248 NA
ATOM     38  C   UNL A   1      44.148  26.207  27.252  1.00  0.00     0.031 C 
ATOM     39  C   UNL A   1      39.537  27.877  28.385  1.00  0.00     0.029 A 
ATOM     40  N   UNL A   1      41.268  29.206  28.875  1.00  0.00    -0.354 N 
ATOM     41  C   UNL A   1      45.332  27.991  28.051  1.00  0.00     0.074 A 
ATOM     42  C   UNL A   1      45.369  26.682  27.439  1.00  0.00     0.031 C 
ATOM     43  C   UNL A   1      39.041  29.017  28.899  1.00  0.00     0.029 A 
ATOM     44  C   UNL A   1      40.147  29.899  29.270  1.00  0.00     0.049 A 
ATOM     45  H   UNL A   1      42.180  29.567  28.959  1.00  0.00     0.167 HD
ATOM     46  C   UNL A   1      46.427  28.755  28.275  1.00  0.00     0.031 A 
ATOM     47  C   UNL A   1      40.028  31.097  29.878  1.00  0.00     0.031 A 
ATOM     48  C   UNL A   1      46.392  30.058  28.881  1.00  0.00     0.049 A 
ATOM     49  C   UNL A   1      41.274  31.887  30.203  1.00  0.00     0.074 A 
ATOM     50  C   UNL A   1      47.449  30.908  29.155  1.00  0.00     0.029 A 
ATOM     51  N   UNL A   1      45.240  30.704  29.302  1.00  0.00    -0.354 N 
ATOM     52  N   UNL A   1      42.527  31.600  29.940  1.00  0.00    -0.248 NA
ATOM     53  C   UNL A   1      41.085  33.167  30.902  1.00  0.00     0.031 C 
ATOM     54  C   UNL A   1      46.942  32.045  29.789  1.00  0.00     0.029 A 
ATOM     55  C   UNL A   1      45.562  31.934  29.848  1.00  0.00     0.049 A 
ATOM     56  H   UNL A   1      44.328  30.342  29.224  1.00  0.00     0.167 HD
ATOM     57  C   UNL A   1      43.268  32.687  30.400  1.00  0.00     0.074 A 
ATOM     58  C   UNL A   1      42.324  33.636  30.948  1.00  0.00     0.031 C 
ATOM     59  C   UNL A   1      44.610  32.881  30.369  1.00  0.00     0.031 A 
BRANCH  46  60
ATOM     60  C   UNL A   1      47.765  28.194  27.869  1.00  0.00    -0.014 A 
ATOM     61  C   UNL A   1      48.506  27.380  28.744  1.00  0.00     0.010 A 
ATOM     62  C   UNL A   1      48.260  28.436  26.574  1.00  0.00     0.010 A 
ATOM     63  C   UNL A   1      49.730  26.840  28.343  1.00  0.00     0.020 A 
ATOM     64  C   UNL A   1      49.470  27.872  26.157  1.00  0.00     0.020 A 
ATOM     65  C   UNL A   1      50.202  27.087  27.050  1.00  0.00     0.054 A 
BRANCH  65  66
ATOM     66  S   UNL A   1      51.772  26.334  26.542  1.00  0.00     0.124 S 
ATOM     67  O   UNL A   1      52.729  27.022  27.406  1.00  0.00    -0.237 OA
ATOM     68  O   UNL A   1      51.560  24.920  26.843  1.00  0.00    -0.237 OA
ATOM     69  O   UNL A   1      51.872  26.659  25.123  1.00  0.00    -0.744 OA
ENDBRANCH  65  66
ENDBRANCH  46  60
BRANCH  47  70
ATOM     70  C   UNL A   1      38.686  31.631  30.247  1.00  0.00    -0.014 A 
ATOM     71  C   UNL A   1      37.958  32.427  29.343  1.00  0.00     0.010 A 
ATOM     72  C   UNL A   1      38.151  31.391  31.526  1.00  0.00     0.010 A 
ATOM     73  C   UNL A   1      36.745  33.008  29.725  1.00  0.00     0.020 A 
ATOM     74  C   UNL A   1      36.921  31.941  31.900  1.00  0.00     0.020 A 
ATOM     75  C   UNL A   1      36.237  32.764  31.004  1.00  0.00     0.054 A 
BRANCH  75  76
ATOM     76  S   UNL A   1      34.660  33.526  31.478  1.00  0.00     0.124 S 
ATOM     77  O   UNL A   1      35.102  34.744  32.152  1.00  0.00    -0.237 OA
ATOM     78  O   UNL A   1      34.004  33.720  30.187  1.00  0.00    -0.237 OA
ATOM     79  O   UNL A   1      34.041  32.522  32.340  1.00  0.00    -0.744 OA
ENDBRANCH  75  76
ENDBRANCH  47  70
BRANCH  59  80
ATOM     80  C   UNL A   1      45.143  34.196  30.878  1.00  0.00    -0.014 A 
ATOM     81  C   UNL A   1      45.263  35.318  30.038  1.00  0.00     0.010 A 
ATOM     82  C   UNL A   1      45.465  34.326  32.242  1.00  0.00     0.010 A 
ATOM     83  C   UNL A   1      45.724  36.535  30.549  1.00  0.00     0.020 A 
ATOM     84  C   UNL A   1      45.894  35.549  32.762  1.00  0.00     0.020 A 
ATOM     85  C   UNL A   1      46.033  36.644  31.908  1.00  0.00     0.054 A 
BRANCH  85  86
ATOM     86  S   UNL A   1      46.577  38.249  32.553  1.00  0.00     0.124 S 
ATOM     87  O   UNL A   1      45.757  38.389  33.754  1.00  0.00    -0.237 OA
ATOM     88  O   UNL A   1      48.002  38.034  32.788  1.00  0.00    -0.237 OA
ATOM     89  O   UNL A   1      46.262  39.183  31.473  1.00  0.00    -0.744 OA
ENDBRANCH  85  86
ENDBRANCH  59  80
ENDBRANCH  33  34
ENDBRANCH  26  28
ENDBRANCH  25  26
ENDBRANCH  24  25
ENDBRANCH  23  24
ENDBRANCH  22  23
ENDBRANCH  21  22
ENDBRANCH   1  21
TORSDOF 23
ENDMDL
