MODEL 1
REMARK VINA RESULT:     -11.2      0.000      0.000
REMARK SMILES O=C(OCCOCCOC(=O)c1ccc(N2C(=O)/C(=C/c3ccco3)SC2=S)cc1)c1ccc(-c2c3nc(c(-c4ccc(S(=O)(=O)[O-])cc4)c4ccc([nH]4)c(-c4ccc(S(=O)(=O)[O-])cc4)c4nc(c(-c5ccc(S(=O)(=O)[O-])cc5)c5ccc2[nH]5)C=C4)C=C3)cc1
REMARK SMILES IDX 5 1 4 2 3 3 2 4 1 5 31 6 32 7 90 8 33 9 89 10 34 11 35 12
REMARK SMILES IDX 36 13 83 14 37 15 88 16 82 17 84 18 38 19 87 20 81 21 80 22
REMARK SMILES IDX 39 24 69 25 50 26 68 27 51 28 54 29 67 30 85 31 52 32 53 33
REMARK SMILES IDX 66 35 86 36 55 37 40 38 41 39 49 40 42 41 48 42 43 43 44 44
REMARK SMILES IDX 45 45 46 46 47 47 70 48 71 49 79 50 72 51 78 52 73 53 74 54
REMARK SMILES IDX 75 55 76 56 77 57 56 58 57 59 65 60 58 61 64 62 59 63 60 64
REMARK SMILES IDX 61 65 62 66 63 67 6 68 7 69 8 70 9 71 10 72 11 73 12 74
REMARK SMILES IDX 13 75 30 76 14 77 29 78 15 79 16 80 17 81 27 82 18 83 19 84
REMARK SMILES IDX 26 85 28 86 20 87 21 88 22 89 25 90 23 91 24 92
REMARK H PARENT 84 23 54 34
REMARK Flexibility Score: inf
ROOT
ATOM      1  C   UNL A   1      33.986  30.930  27.859  1.00  0.00     0.202 C 
ENDROOT
BRANCH   1   2
ATOM      2  C   UNL A   1      35.495  30.818  27.630  1.00  0.00     0.261 C 
BRANCH   2   3
ATOM      3  O   UNL A   1      35.978  29.557  28.115  1.00  0.00    -0.460 OA
BRANCH   3   4
ATOM      4  C   UNL A   1      36.853  29.337  29.122  1.00  0.00     0.338 C 
ATOM      5  O   UNL A   1      36.424  29.327  30.276  1.00  0.00    -0.246 OA
BRANCH   4   6
ATOM      6  C   UNL A   1      38.314  29.097  28.917  1.00  0.00     0.060 A 
ATOM      7  C   UNL A   1      39.187  28.568  29.871  1.00  0.00     0.016 A 
ATOM      8  C   UNL A   1      38.810  29.326  27.625  1.00  0.00     0.016 A 
ATOM      9  C   UNL A   1      40.510  28.289  29.578  1.00  0.00     0.010 A 
ATOM     10  C   UNL A   1      40.138  29.038  27.311  1.00  0.00     0.010 A 
ATOM     11  C   UNL A   1      40.986  28.524  28.297  1.00  0.00    -0.014 A 
BRANCH  11  12
ATOM     12  C   UNL A   1      42.422  28.346  28.055  1.00  0.00     0.031 A 
ATOM     13  C   UNL A   1      43.323  29.489  28.383  1.00  0.00     0.074 A 
ATOM     14  C   UNL A   1      42.883  27.158  27.634  1.00  0.00     0.049 A 
ATOM     15  N   UNL A   1      44.593  29.633  28.139  1.00  0.00    -0.248 NA
ATOM     16  C   UNL A   1      42.702  30.626  29.086  1.00  0.00     0.031 C 
ATOM     17  C   UNL A   1      42.066  25.957  27.437  1.00  0.00     0.029 A 
ATOM     18  N   UNL A   1      44.147  26.765  27.297  1.00  0.00    -0.354 N 
ATOM     19  C   UNL A   1      44.916  30.899  28.610  1.00  0.00     0.074 A 
ATOM     20  C   UNL A   1      43.712  31.476  29.164  1.00  0.00     0.031 C 
ATOM     21  C   UNL A   1      42.851  24.964  26.993  1.00  0.00     0.029 A 
ATOM     22  C   UNL A   1      44.202  25.482  26.806  1.00  0.00     0.049 A 
ATOM     23  H   UNL A   1      44.939  27.341  27.395  1.00  0.00     0.167 HD
ATOM     24  C   UNL A   1      46.114  31.521  28.552  1.00  0.00     0.031 A 
ATOM     25  C   UNL A   1      45.222  24.833  26.212  1.00  0.00     0.031 A 
ATOM     26  C   UNL A   1      47.269  30.908  27.955  1.00  0.00     0.049 A 
ATOM     27  C   UNL A   1      46.522  25.572  26.067  1.00  0.00     0.074 A 
ATOM     28  C   UNL A   1      48.532  31.434  27.774  1.00  0.00     0.029 A 
ATOM     29  N   UNL A   1      47.285  29.620  27.430  1.00  0.00    -0.354 N 
ATOM     30  N   UNL A   1      46.818  26.792  26.457  1.00  0.00    -0.248 NA
ATOM     31  C   UNL A   1      47.623  24.866  25.403  1.00  0.00     0.031 C 
ATOM     32  C   UNL A   1      49.293  30.484  27.084  1.00  0.00     0.029 A 
ATOM     33  C   UNL A   1      48.528  29.338  26.902  1.00  0.00     0.049 A 
ATOM     34  H   UNL A   1      46.520  29.000  27.435  1.00  0.00     0.167 HD
ATOM     35  C   UNL A   1      48.146  26.996  26.107  1.00  0.00     0.074 A 
ATOM     36  C   UNL A   1      48.595  25.767  25.476  1.00  0.00     0.031 C 
ATOM     37  C   UNL A   1      48.926  28.089  26.293  1.00  0.00     0.031 A 
BRANCH  24  38
ATOM     38  C   UNL A   1      46.164  32.947  29.030  1.00  0.00    -0.014 A 
ATOM     39  C   UNL A   1      45.810  34.024  28.195  1.00  0.00     0.010 A 
ATOM     40  C   UNL A   1      46.659  33.217  30.318  1.00  0.00     0.010 A 
ATOM     41  C   UNL A   1      46.023  35.342  28.614  1.00  0.00     0.020 A 
ATOM     42  C   UNL A   1      46.842  34.532  30.752  1.00  0.00     0.020 A 
ATOM     43  C   UNL A   1      46.552  35.586  29.885  1.00  0.00     0.054 A 
BRANCH  43  44
ATOM     44  S   UNL A   1      46.870  37.300  30.384  1.00  0.00     0.124 S 
ATOM     45  O   UNL A   1      45.571  37.706  30.913  1.00  0.00    -0.237 OA
ATOM     46  O   UNL A   1      47.932  37.153  31.376  1.00  0.00    -0.237 OA
ATOM     47  O   UNL A   1      47.269  37.956  29.141  1.00  0.00    -0.744 OA
ENDBRANCH  43  44
ENDBRANCH  24  38
BRANCH  25  48
ATOM     48  C   UNL A   1      45.002  23.465  25.668  1.00  0.00    -0.014 A 
ATOM     49  C   UNL A   1      44.996  23.223  24.285  1.00  0.00     0.010 A 
ATOM     50  C   UNL A   1      44.880  22.371  26.549  1.00  0.00     0.010 A 
ATOM     51  C   UNL A   1      44.881  21.916  23.794  1.00  0.00     0.020 A 
ATOM     52  C   UNL A   1      44.795  21.063  26.065  1.00  0.00     0.020 A 
ATOM     53  C   UNL A   1      44.793  20.843  24.688  1.00  0.00     0.054 A 
BRANCH  53  54
ATOM     54  S   UNL A   1      44.738  19.153  24.029  1.00  0.00     0.124 S 
ATOM     55  O   UNL A   1      43.610  18.579  24.755  1.00  0.00    -0.237 OA
ATOM     56  O   UNL A   1      44.525  19.377  22.602  1.00  0.00    -0.237 OA
ATOM     57  O   UNL A   1      46.048  18.606  24.378  1.00  0.00    -0.744 OA
ENDBRANCH  53  54
ENDBRANCH  25  48
BRANCH  37  58
ATOM     58  C   UNL A   1      50.360  27.995  25.858  1.00  0.00    -0.014 A 
ATOM     59  C   UNL A   1      51.363  27.567  26.743  1.00  0.00     0.010 A 
ATOM     60  C   UNL A   1      50.672  28.203  24.501  1.00  0.00     0.010 A 
ATOM     61  C   UNL A   1      52.658  27.341  26.273  1.00  0.00     0.020 A 
ATOM     62  C   UNL A   1      51.957  27.952  24.024  1.00  0.00     0.020 A 
ATOM     63  C   UNL A   1      52.942  27.523  24.914  1.00  0.00     0.054 A 
BRANCH  63  64
ATOM     64  S   UNL A   1      54.601  27.109  24.309  1.00  0.00     0.124 S 
ATOM     65  O   UNL A   1      54.306  26.461  23.035  1.00  0.00    -0.237 OA
ATOM     66  O   UNL A   1      55.243  28.418  24.217  1.00  0.00    -0.237 OA
ATOM     67  O   UNL A   1      55.138  26.231  25.345  1.00  0.00    -0.744 OA
ENDBRANCH  63  64
ENDBRANCH  37  58
ENDBRANCH  11  12
ENDBRANCH   4   6
ENDBRANCH   3   4
ENDBRANCH   2   3
ENDBRANCH   1   2
BRANCH   1  68
ATOM     68  O   UNL A   1      33.210  31.028  26.666  1.00  0.00    -0.374 OA
BRANCH  68  69
ATOM     69  C   UNL A   1      31.929  30.386  26.677  1.00  0.00     0.202 C 
BRANCH  69  70
ATOM     70  C   UNL A   1      31.724  29.646  25.354  1.00  0.00     0.261 C 
BRANCH  70  71
ATOM     71  O   UNL A   1      32.995  29.135  24.934  1.00  0.00    -0.460 OA
BRANCH  71  72
ATOM     72  C   UNL A   1      32.960  28.482  23.742  1.00  0.00     0.338 C 
ATOM     73  O   UNL A   1      32.740  28.940  22.643  1.00  0.00    -0.246 OA
BRANCH  72  74
ATOM     74  C   UNL A   1      33.436  27.102  23.975  1.00  0.00     0.060 A 
ATOM     75  C   UNL A   1      33.630  26.265  22.867  1.00  0.00     0.018 A 
ATOM     76  C   UNL A   1      33.688  26.639  25.268  1.00  0.00     0.018 A 
ATOM     77  C   UNL A   1      34.022  24.940  23.053  1.00  0.00     0.028 A 
ATOM     78  C   UNL A   1      34.038  25.308  25.457  1.00  0.00     0.028 A 
ATOM     79  C   UNL A   1      34.155  24.450  24.354  1.00  0.00     0.051 A 
BRANCH  79  80
ATOM     80  N   UNL A   1      34.165  23.057  24.577  1.00  0.00    -0.261 N 
ATOM     81  C   UNL A   1      33.003  22.307  24.480  1.00  0.00     0.270 C 
ATOM     82  C   UNL A   1      35.332  22.390  24.921  1.00  0.00     0.152 C 
ATOM     83  O   UNL A   1      31.870  22.710  24.258  1.00  0.00    -0.268 OA
ATOM     84  C   UNL A   1      33.337  20.863  24.657  1.00  0.00     0.084 C 
ATOM     85  S   UNL A   1      35.001  20.679  25.059  1.00  0.00    -0.054 SA
ATOM     86  S   UNL A   1      36.858  23.000  25.238  1.00  0.00    -0.051 S 
ATOM     87  C   UNL A   1      32.445  19.889  24.424  1.00  0.00     0.068 C 
BRANCH  87  88
ATOM     88  C   UNL A   1      32.776  18.509  24.496  1.00  0.00     0.127 A 
ATOM     89  C   UNL A   1      33.595  17.731  23.682  1.00  0.00     0.050 A 
ATOM     90  O   UNL A   1      32.261  17.680  25.468  1.00  0.00    -0.465 OA
ATOM     91  C   UNL A   1      33.516  16.393  24.131  1.00  0.00     0.042 A 
ATOM     92  C   UNL A   1      32.689  16.417  25.224  1.00  0.00     0.195 A 
ENDBRANCH  87  88
ENDBRANCH  79  80
ENDBRANCH  72  74
ENDBRANCH  71  72
ENDBRANCH  70  71
ENDBRANCH  69  70
ENDBRANCH  68  69
ENDBRANCH   1  68
TORSDOF 19
ENDMDL
MODEL 2
REMARK VINA RESULT:     -10.8      6.539      8.622
REMARK SMILES O=C(OCCOCCOC(=O)c1ccc(N2C(=O)/C(=C/c3ccco3)SC2=S)cc1)c1ccc(-c2c3nc(c(-c4ccc(S(=O)(=O)[O-])cc4)c4ccc([nH]4)c(-c4ccc(S(=O)(=O)[O-])cc4)c4nc(c(-c5ccc(S(=O)(=O)[O-])cc5)c5ccc2[nH]5)C=C4)C=C3)cc1
REMARK SMILES IDX 5 1 4 2 3 3 2 4 1 5 31 6 32 7 90 8 33 9 89 10 34 11 35 12
REMARK SMILES IDX 36 13 83 14 37 15 88 16 82 17 84 18 38 19 87 20 81 21 80 22
REMARK SMILES IDX 39 24 69 25 50 26 68 27 51 28 54 29 67 30 85 31 52 32 53 33
REMARK SMILES IDX 66 35 86 36 55 37 40 38 41 39 49 40 42 41 48 42 43 43 44 44
REMARK SMILES IDX 45 45 46 46 47 47 70 48 71 49 79 50 72 51 78 52 73 53 74 54
REMARK SMILES IDX 75 55 76 56 77 57 56 58 57 59 65 60 58 61 64 62 59 63 60 64
REMARK SMILES IDX 61 65 62 66 63 67 6 68 7 69 8 70 9 71 10 72 11 73 12 74
REMARK SMILES IDX 13 75 30 76 14 77 29 78 15 79 16 80 17 81 27 82 18 83 19 84
REMARK SMILES IDX 26 85 28 86 20 87 21 88 22 89 25 90 23 91 24 92
REMARK H PARENT 84 23 54 34
REMARK Flexibility Score: inf
ROOT
ATOM      1  C   UNL A   1      33.366  34.056  28.381  1.00  0.00     0.202 C 
ENDROOT
BRANCH   1   2
ATOM      2  C   UNL A   1      33.685  35.519  28.695  1.00  0.00     0.261 C 
BRANCH   2   3
ATOM      3  O   UNL A   1      33.045  35.914  29.917  1.00  0.00    -0.460 OA
BRANCH   3   4
ATOM      4  C   UNL A   1      33.118  35.307  31.124  1.00  0.00     0.338 C 
ATOM      5  O   UNL A   1      32.143  35.376  31.871  1.00  0.00    -0.246 OA
BRANCH   4   6
ATOM      6  C   UNL A   1      34.314  34.550  31.603  1.00  0.00     0.060 A 
ATOM      7  C   UNL A   1      35.644  34.940  31.421  1.00  0.00     0.016 A 
ATOM      8  C   UNL A   1      34.062  33.415  32.389  1.00  0.00     0.016 A 
ATOM      9  C   UNL A   1      36.696  34.233  31.974  1.00  0.00     0.010 A 
ATOM     10  C   UNL A   1      35.112  32.700  32.964  1.00  0.00     0.010 A 
ATOM     11  C   UNL A   1      36.431  33.112  32.746  1.00  0.00    -0.014 A 
BRANCH  11  12
ATOM     12  C   UNL A   1      37.570  32.309  33.203  1.00  0.00     0.031 A 
ATOM     13  C   UNL A   1      38.162  32.644  34.531  1.00  0.00     0.074 A 
ATOM     14  C   UNL A   1      37.984  31.265  32.468  1.00  0.00     0.049 A 
ATOM     15  N   UNL A   1      39.241  32.182  35.092  1.00  0.00    -0.248 NA
ATOM     16  C   UNL A   1      37.431  33.640  35.337  1.00  0.00     0.031 C 
ATOM     17  C   UNL A   1      37.349  30.797  31.233  1.00  0.00     0.029 A 
ATOM     18  N   UNL A   1      39.033  30.409  32.653  1.00  0.00    -0.354 N 
ATOM     19  C   UNL A   1      39.351  32.867  36.295  1.00  0.00     0.074 A 
ATOM     20  C   UNL A   1      38.224  33.767  36.387  1.00  0.00     0.031 C 
ATOM     21  C   UNL A   1      38.038  29.747  30.760  1.00  0.00     0.029 A 
ATOM     22  C   UNL A   1      39.197  29.522  31.616  1.00  0.00     0.049 A 
ATOM     23  H   UNL A   1      39.613  30.426  33.448  1.00  0.00     0.167 HD
ATOM     24  C   UNL A   1      40.332  32.761  37.218  1.00  0.00     0.031 A 
ATOM     25  C   UNL A   1      40.211  28.673  31.365  1.00  0.00     0.031 A 
ATOM     26  C   UNL A   1      41.449  31.872  37.054  1.00  0.00     0.049 A 
ATOM     27  C   UNL A   1      41.343  28.635  32.353  1.00  0.00     0.074 A 
ATOM     28  C   UNL A   1      42.544  31.696  37.876  1.00  0.00     0.029 A 
ATOM     29  N   UNL A   1      41.608  31.011  35.973  1.00  0.00    -0.354 N 
ATOM     30  N   UNL A   1      41.484  29.324  33.463  1.00  0.00    -0.248 NA
ATOM     31  C   UNL A   1      42.453  27.721  32.063  1.00  0.00     0.031 C 
ATOM     32  C   UNL A   1      43.395  30.772  37.258  1.00  0.00     0.029 A 
ATOM     33  C   UNL A   1      42.795  30.317  36.090  1.00  0.00     0.049 A 
ATOM     34  H   UNL A   1      40.967  30.913  35.231  1.00  0.00     0.167 HD
ATOM     35  C   UNL A   1      42.686  28.913  34.020  1.00  0.00     0.074 A 
ATOM     36  C   UNL A   1      43.232  27.911  33.122  1.00  0.00     0.031 C 
ATOM     37  C   UNL A   1      43.285  29.318  35.168  1.00  0.00     0.031 A 
BRANCH  24  38
ATOM     38  C   UNL A   1      40.275  33.712  38.384  1.00  0.00    -0.014 A 
ATOM     39  C   UNL A   1      39.678  33.355  39.607  1.00  0.00     0.010 A 
ATOM     40  C   UNL A   1      40.757  35.023  38.217  1.00  0.00     0.010 A 
ATOM     41  C   UNL A   1      39.495  34.313  40.610  1.00  0.00     0.020 A 
ATOM     42  C   UNL A   1      40.606  35.974  39.230  1.00  0.00     0.020 A 
ATOM     43  C   UNL A   1      39.948  35.620  40.409  1.00  0.00     0.054 A 
BRANCH  43  44
ATOM     44  S   UNL A   1      39.652  36.857  41.701  1.00  0.00     0.124 S 
ATOM     45  O   UNL A   1      41.008  37.149  42.155  1.00  0.00    -0.237 OA
ATOM     46  O   UNL A   1      38.991  37.934  40.968  1.00  0.00    -0.237 OA
ATOM     47  O   UNL A   1      38.809  36.156  42.667  1.00  0.00    -0.744 OA
ENDBRANCH  43  44
ENDBRANCH  24  38
BRANCH  25  48
ATOM     48  C   UNL A   1      40.206  27.877  30.108  1.00  0.00    -0.014 A 
ATOM     49  C   UNL A   1      41.134  28.126  29.083  1.00  0.00     0.010 A 
ATOM     50  C   UNL A   1      39.312  26.796  29.965  1.00  0.00     0.010 A 
ATOM     51  C   UNL A   1      41.175  27.306  27.948  1.00  0.00     0.020 A 
ATOM     52  C   UNL A   1      39.368  25.958  28.847  1.00  0.00     0.020 A 
ATOM     53  C   UNL A   1      40.298  26.220  27.843  1.00  0.00     0.054 A 
BRANCH  53  54
ATOM     54  S   UNL A   1      40.432  25.119  26.406  1.00  0.00     0.124 S 
ATOM     55  O   UNL A   1      40.929  26.025  25.374  1.00  0.00    -0.237 OA
ATOM     56  O   UNL A   1      41.379  24.109  26.870  1.00  0.00    -0.237 OA
ATOM     57  O   UNL A   1      39.066  24.641  26.211  1.00  0.00    -0.744 OA
ENDBRANCH  53  54
ENDBRANCH  25  48
BRANCH  37  58
ATOM     58  C   UNL A   1      44.571  28.643  35.549  1.00  0.00    -0.014 A 
ATOM     59  C   UNL A   1      44.577  27.457  36.300  1.00  0.00     0.010 A 
ATOM     60  C   UNL A   1      45.779  29.138  35.020  1.00  0.00     0.010 A 
ATOM     61  C   UNL A   1      45.774  26.769  36.510  1.00  0.00     0.020 A 
ATOM     62  C   UNL A   1      46.971  28.438  35.204  1.00  0.00     0.020 A 
ATOM     63  C   UNL A   1      46.960  27.258  35.949  1.00  0.00     0.054 A 
BRANCH  63  64
ATOM     64  S   UNL A   1      48.478  26.284  36.136  1.00  0.00     0.124 S 
ATOM     65  O   UNL A   1      48.405  25.385  34.988  1.00  0.00    -0.237 OA
ATOM     66  O   UNL A   1      49.521  27.304  36.073  1.00  0.00    -0.237 OA
ATOM     67  O   UNL A   1      48.319  25.644  37.440  1.00  0.00    -0.744 OA
ENDBRANCH  63  64
ENDBRANCH  37  58
ENDBRANCH  11  12
ENDBRANCH   4   6
ENDBRANCH   3   4
ENDBRANCH   2   3
ENDBRANCH   1   2
BRANCH   1  68
ATOM     68  O   UNL A   1      34.510  33.238  28.138  1.00  0.00    -0.374 OA
BRANCH  68  69
ATOM     69  C   UNL A   1      34.312  31.820  28.199  1.00  0.00     0.202 C 
BRANCH  69  70
ATOM     70  C   UNL A   1      33.161  31.432  27.269  1.00  0.00     0.261 C 
BRANCH  70  71
ATOM     71  O   UNL A   1      33.105  30.000  27.213  1.00  0.00    -0.460 OA
BRANCH  71  72
ATOM     72  C   UNL A   1      32.213  29.519  26.308  1.00  0.00     0.338 C 
ATOM     73  O   UNL A   1      31.477  30.143  25.577  1.00  0.00    -0.246 OA
BRANCH  72  74
ATOM     74  C   UNL A   1      32.419  28.058  26.211  1.00  0.00     0.060 A 
ATOM     75  C   UNL A   1      33.699  27.583  25.889  1.00  0.00     0.018 A 
ATOM     76  C   UNL A   1      31.367  27.168  26.436  1.00  0.00     0.018 A 
ATOM     77  C   UNL A   1      33.917  26.215  25.731  1.00  0.00     0.028 A 
ATOM     78  C   UNL A   1      31.574  25.809  26.239  1.00  0.00     0.028 A 
ATOM     79  C   UNL A   1      32.833  25.341  25.838  1.00  0.00     0.051 A 
BRANCH  79  80
ATOM     80  N   UNL A   1      32.936  24.036  25.314  1.00  0.00    -0.261 N 
ATOM     81  C   UNL A   1      33.392  22.983  26.094  1.00  0.00     0.270 C 
ATOM     82  C   UNL A   1      32.604  23.759  23.996  1.00  0.00     0.152 C 
ATOM     83  O   UNL A   1      33.796  23.030  27.248  1.00  0.00    -0.268 OA
ATOM     84  C   UNL A   1      33.288  21.715  25.315  1.00  0.00     0.084 C 
ATOM     85  S   UNL A   1      32.785  22.045  23.701  1.00  0.00    -0.054 SA
ATOM     86  S   UNL A   1      32.145  24.800  22.768  1.00  0.00    -0.051 S 
ATOM     87  C   UNL A   1      33.478  20.513  25.876  1.00  0.00     0.068 C 
BRANCH  87  88
ATOM     88  C   UNL A   1      33.289  19.294  25.170  1.00  0.00     0.127 A 
ATOM     89  C   UNL A   1      34.109  18.642  24.253  1.00  0.00     0.050 A 
ATOM     90  O   UNL A   1      32.147  18.537  25.306  1.00  0.00    -0.465 OA
ATOM     91  C   UNL A   1      33.417  17.508  23.773  1.00  0.00     0.042 A 
ATOM     92  C   UNL A   1      32.224  17.488  24.449  1.00  0.00     0.195 A 
ENDBRANCH  87  88
ENDBRANCH  79  80
ENDBRANCH  72  74
ENDBRANCH  71  72
ENDBRANCH  70  71
ENDBRANCH  69  70
ENDBRANCH  68  69
ENDBRANCH   1  68
TORSDOF 19
ENDMDL
MODEL 3
REMARK VINA RESULT:     -10.7      6.764     12.065
REMARK SMILES O=C(OCCOCCOC(=O)c1ccc(N2C(=O)/C(=C/c3ccco3)SC2=S)cc1)c1ccc(-c2c3nc(c(-c4ccc(S(=O)(=O)[O-])cc4)c4ccc([nH]4)c(-c4ccc(S(=O)(=O)[O-])cc4)c4nc(c(-c5ccc(S(=O)(=O)[O-])cc5)c5ccc2[nH]5)C=C4)C=C3)cc1
REMARK SMILES IDX 5 1 4 2 3 3 2 4 1 5 31 6 32 7 90 8 33 9 89 10 34 11 35 12
REMARK SMILES IDX 36 13 83 14 37 15 88 16 82 17 84 18 38 19 87 20 81 21 80 22
REMARK SMILES IDX 39 24 69 25 50 26 68 27 51 28 54 29 67 30 85 31 52 32 53 33
REMARK SMILES IDX 66 35 86 36 55 37 40 38 41 39 49 40 42 41 48 42 43 43 44 44
REMARK SMILES IDX 45 45 46 46 47 47 70 48 71 49 79 50 72 51 78 52 73 53 74 54
REMARK SMILES IDX 75 55 76 56 77 57 56 58 57 59 65 60 58 61 64 62 59 63 60 64
REMARK SMILES IDX 61 65 62 66 63 67 6 68 7 69 8 70 9 71 10 72 11 73 12 74
REMARK SMILES IDX 13 75 30 76 14 77 29 78 15 79 16 80 17 81 27 82 18 83 19 84
REMARK SMILES IDX 26 85 28 86 20 87 21 88 22 89 25 90 23 91 24 92
REMARK H PARENT 84 23 54 34
REMARK Flexibility Score: inf
ROOT
ATOM      1  C   UNL A   1      38.423  23.496  26.670  1.00  0.00     0.202 C 
ENDROOT
BRANCH   1   2
ATOM      2  C   UNL A   1      39.923  23.636  26.399  1.00  0.00     0.261 C 
BRANCH   2   3
ATOM      3  O   UNL A   1      40.195  24.892  25.762  1.00  0.00    -0.460 OA
BRANCH   3   4
ATOM      4  C   UNL A   1      41.027  25.872  26.184  1.00  0.00     0.338 C 
ATOM      5  O   UNL A   1      42.003  26.149  25.488  1.00  0.00    -0.246 OA
BRANCH   4   6
ATOM      6  C   UNL A   1      40.827  26.646  27.447  1.00  0.00     0.060 A 
ATOM      7  C   UNL A   1      39.895  26.341  28.442  1.00  0.00     0.016 A 
ATOM      8  C   UNL A   1      41.728  27.695  27.686  1.00  0.00     0.016 A 
ATOM      9  C   UNL A   1      39.831  27.052  29.627  1.00  0.00     0.010 A 
ATOM     10  C   UNL A   1      41.683  28.412  28.882  1.00  0.00     0.010 A 
ATOM     11  C   UNL A   1      40.725  28.088  29.848  1.00  0.00    -0.014 A 
BRANCH  11  12
ATOM     12  C   UNL A   1      40.544  28.906  31.051  1.00  0.00     0.031 A 
ATOM     13  C   UNL A   1      39.454  29.924  31.036  1.00  0.00     0.074 A 
ATOM     14  C   UNL A   1      41.294  28.665  32.138  1.00  0.00     0.049 A 
ATOM     15  N   UNL A   1      39.179  30.851  31.907  1.00  0.00    -0.248 NA
ATOM     16  C   UNL A   1      38.546  29.888  29.874  1.00  0.00     0.031 C 
ATOM     17  C   UNL A   1      42.277  27.584  32.263  1.00  0.00     0.029 A 
ATOM     18  N   UNL A   1      41.347  29.309  33.342  1.00  0.00    -0.354 N 
ATOM     19  C   UNL A   1      38.099  31.545  31.376  1.00  0.00     0.074 A 
ATOM     20  C   UNL A   1      37.763  30.926  30.115  1.00  0.00     0.031 C 
ATOM     21  C   UNL A   1      42.850  27.654  33.475  1.00  0.00     0.029 A 
ATOM     22  C   UNL A   1      42.329  28.825  34.173  1.00  0.00     0.049 A 
ATOM     23  H   UNL A   1      40.744  30.046  33.590  1.00  0.00     0.167 HD
ATOM     24  C   UNL A   1      37.473  32.622  31.899  1.00  0.00     0.031 A 
ATOM     25  C   UNL A   1      42.791  29.320  35.336  1.00  0.00     0.031 A 
ATOM     26  C   UNL A   1      37.878  33.217  33.143  1.00  0.00     0.049 A 
ATOM     27  C   UNL A   1      42.149  30.575  35.858  1.00  0.00     0.074 A 
ATOM     28  C   UNL A   1      37.376  34.340  33.770  1.00  0.00     0.029 A 
ATOM     29  N   UNL A   1      38.902  32.726  33.946  1.00  0.00    -0.354 N 
ATOM     30  N   UNL A   1      41.167  31.272  35.332  1.00  0.00    -0.248 NA
ATOM     31  C   UNL A   1      42.670  31.120  37.116  1.00  0.00     0.031 C 
ATOM     32  C   UNL A   1      38.140  34.562  34.921  1.00  0.00     0.029 A 
ATOM     33  C   UNL A   1      39.068  33.535  35.052  1.00  0.00     0.049 A 
ATOM     34  H   UNL A   1      39.433  31.919  33.752  1.00  0.00     0.167 HD
ATOM     35  C   UNL A   1      40.933  32.326  36.203  1.00  0.00     0.074 A 
ATOM     36  C   UNL A   1      41.878  32.171  37.295  1.00  0.00     0.031 C 
ATOM     37  C   UNL A   1      40.021  33.326  36.117  1.00  0.00     0.031 A 
BRANCH  24  38
ATOM     38  C   UNL A   1      36.402  33.261  31.057  1.00  0.00    -0.014 A 
ATOM     39  C   UNL A   1      36.686  33.841  29.807  1.00  0.00     0.010 A 
ATOM     40  C   UNL A   1      35.096  33.354  31.572  1.00  0.00     0.010 A 
ATOM     41  C   UNL A   1      35.704  34.569  29.126  1.00  0.00     0.020 A 
ATOM     42  C   UNL A   1      34.104  34.052  30.879  1.00  0.00     0.020 A 
ATOM     43  C   UNL A   1      34.423  34.681  29.674  1.00  0.00     0.054 A 
BRANCH  43  44
ATOM     44  S   UNL A   1      33.182  35.674  28.801  1.00  0.00     0.124 S 
ATOM     45  O   UNL A   1      34.018  36.577  28.014  1.00  0.00    -0.237 OA
ATOM     46  O   UNL A   1      32.450  34.670  28.034  1.00  0.00    -0.237 OA
ATOM     47  O   UNL A   1      32.424  36.308  29.877  1.00  0.00    -0.744 OA
ENDBRANCH  43  44
ENDBRANCH  24  38
BRANCH  25  48
ATOM     48  C   UNL A   1      43.944  28.661  36.007  1.00  0.00    -0.014 A 
ATOM     49  C   UNL A   1      43.754  27.621  36.931  1.00  0.00     0.010 A 
ATOM     50  C   UNL A   1      45.261  29.024  35.656  1.00  0.00     0.010 A 
ATOM     51  C   UNL A   1      44.854  26.950  37.481  1.00  0.00     0.020 A 
ATOM     52  C   UNL A   1      46.361  28.340  36.181  1.00  0.00     0.020 A 
ATOM     53  C   UNL A   1      46.151  27.308  37.094  1.00  0.00     0.054 A 
BRANCH  53  54
ATOM     54  S   UNL A   1      47.555  26.363  37.751  1.00  0.00     0.124 S 
ATOM     55  O   UNL A   1      47.716  26.943  39.080  1.00  0.00    -0.237 OA
ATOM     56  O   UNL A   1      47.057  24.991  37.715  1.00  0.00    -0.237 OA
ATOM     57  O   UNL A   1      48.634  26.652  36.809  1.00  0.00    -0.744 OA
ENDBRANCH  53  54
ENDBRANCH  25  48
BRANCH  37  58
ATOM     58  C   UNL A   1      39.962  34.304  37.256  1.00  0.00    -0.014 A 
ATOM     59  C   UNL A   1      40.736  35.475  37.252  1.00  0.00     0.010 A 
ATOM     60  C   UNL A   1      39.005  34.105  38.270  1.00  0.00     0.010 A 
ATOM     61  C   UNL A   1      40.549  36.439  38.246  1.00  0.00     0.020 A 
ATOM     62  C   UNL A   1      38.797  35.077  39.247  1.00  0.00     0.020 A 
ATOM     63  C   UNL A   1      39.571  36.238  39.228  1.00  0.00     0.054 A 
BRANCH  63  64
ATOM     64  S   UNL A   1      39.268  37.557  40.434  1.00  0.00     0.124 S 
ATOM     65  O   UNL A   1      38.130  38.255  39.841  1.00  0.00    -0.237 OA
ATOM     66  O   UNL A   1      38.982  36.811  41.657  1.00  0.00    -0.237 OA
ATOM     67  O   UNL A   1      40.521  38.308  40.449  1.00  0.00    -0.744 OA
ENDBRANCH  63  64
ENDBRANCH  37  58
ENDBRANCH  11  12
ENDBRANCH   4   6
ENDBRANCH   3   4
ENDBRANCH   2   3
ENDBRANCH   1   2
BRANCH   1  68
ATOM     68  O   UNL A   1      37.680  22.901  25.607  1.00  0.00    -0.374 OA
BRANCH  68  69
ATOM     69  C   UNL A   1      37.818  21.485  25.440  1.00  0.00     0.202 C 
BRANCH  69  70
ATOM     70  C   UNL A   1      36.441  20.871  25.180  1.00  0.00     0.261 C 
BRANCH  70  71
ATOM     71  O   UNL A   1      35.489  21.566  25.996  1.00  0.00    -0.460 OA
BRANCH  71  72
ATOM     72  C   UNL A   1      34.243  21.630  25.455  1.00  0.00     0.338 C 
ATOM     73  O   UNL A   1      33.479  20.720  25.223  1.00  0.00    -0.246 OA
BRANCH  72  74
ATOM     74  C   UNL A   1      33.870  23.058  25.362  1.00  0.00     0.060 A 
ATOM     75  C   UNL A   1      32.829  23.531  26.173  1.00  0.00     0.018 A 
ATOM     76  C   UNL A   1      34.539  23.919  24.490  1.00  0.00     0.018 A 
ATOM     77  C   UNL A   1      32.411  24.857  26.070  1.00  0.00     0.028 A 
ATOM     78  C   UNL A   1      34.096  25.229  24.357  1.00  0.00     0.028 A 
ATOM     79  C   UNL A   1      33.002  25.680  25.109  1.00  0.00     0.051 A 
BRANCH  79  80
ATOM     80  N   UNL A   1      32.358  26.872  24.720  1.00  0.00    -0.261 N 
ATOM     81  C   UNL A   1      31.448  26.887  23.673  1.00  0.00     0.270 C 
ATOM     82  C   UNL A   1      32.624  28.077  25.354  1.00  0.00     0.152 C 
ATOM     83  O   UNL A   1      31.129  25.955  22.947  1.00  0.00    -0.268 OA
ATOM     84  C   UNL A   1      30.851  28.250  23.563  1.00  0.00     0.084 C 
ATOM     85  S   UNL A   1      31.613  29.328  24.669  1.00  0.00    -0.054 SA
ATOM     86  S   UNL A   1      33.739  28.431  26.551  1.00  0.00    -0.051 S 
ATOM     87  C   UNL A   1      29.804  28.510  22.766  1.00  0.00     0.068 C 
BRANCH  87  88
ATOM     88  C   UNL A   1      29.165  29.779  22.723  1.00  0.00     0.127 A 
ATOM     89  C   UNL A   1      28.659  30.502  21.645  1.00  0.00     0.050 A 
ATOM     90  O   UNL A   1      28.962  30.537  23.854  1.00  0.00    -0.465 OA
ATOM     91  C   UNL A   1      28.207  31.750  22.128  1.00  0.00     0.042 A 
ATOM     92  C   UNL A   1      28.413  31.720  23.483  1.00  0.00     0.195 A 
ENDBRANCH  87  88
ENDBRANCH  79  80
ENDBRANCH  72  74
ENDBRANCH  71  72
ENDBRANCH  70  71
ENDBRANCH  69  70
ENDBRANCH  68  69
ENDBRANCH   1  68
TORSDOF 19
ENDMDL
