MODEL 1
REMARK VINA RESULT:     -12.0      0.000      0.000
REMARK SMILES Cc1ccc(Nc2c(F)cccc2Cl)c(CC(=O)OCCOCCOC(=O)c2ccc(-c3c4nc(c(-c5ccc(S(=O)(=O)[O-])cc5)c5ccc([nH]5)c(-c5ccc(S(=O)(=O)[O-])cc5)c5nc(c(-c6ccc(S(=O)(=O)[O-])cc6)c6ccc3[nH]6)C=C5)C=C4)cc2)c1
REMARK SMILES IDX 22 1 21 2 20 3 19 4 17 5 18 6 16 7 15 8 1 9 2 10 3 11 88 12
REMARK SMILES IDX 4 13 5 14 6 15 7 17 8 18 13 19 9 20 10 21 12 22 14 23 11 24
REMARK SMILES IDX 23 25 24 26 25 27 26 28 27 29 28 30 29 31 87 32 30 33 86 34
REMARK SMILES IDX 31 35 32 36 33 37 80 38 34 39 85 40 79 41 81 42 35 43 84 44
REMARK SMILES IDX 78 45 77 46 36 48 66 49 47 50 65 51 48 52 51 53 64 54 82 55
REMARK SMILES IDX 49 56 50 57 63 59 83 60 52 61 37 62 38 63 46 64 39 65 45 66
REMARK SMILES IDX 40 67 41 68 42 69 43 70 44 71 67 72 68 73 76 74 69 75 75 76
REMARK SMILES IDX 70 77 71 78 72 79 73 80 74 81 53 82 54 83 62 84 55 85 61 86
REMARK SMILES IDX 56 87 57 88 58 89 59 90 60 91
REMARK H PARENT 6 16 81 47 51 58
REMARK Flexibility Score: inf
ROOT
ATOM      1  O   UNL A   1      32.743  31.519  27.576  1.00  0.00    -0.374 OA
ENDROOT
BRANCH   1   2
ATOM      2  C   UNL A   1      32.806  30.717  26.416  1.00  0.00     0.202 C 
BRANCH   2   3
ATOM      3  C   UNL A   1      31.731  29.666  26.574  1.00  0.00     0.261 C 
BRANCH   3   4
ATOM      4  O   UNL A   1      32.177  28.510  27.263  1.00  0.00    -0.463 OA
BRANCH   4   5
ATOM      5  C   UNL A   1      31.900  27.282  26.717  1.00  0.00     0.310 C 
ATOM      6  O   UNL A   1      30.888  26.627  26.850  1.00  0.00    -0.252 OA
BRANCH   5   7
ATOM      7  C   UNL A   1      33.092  26.794  25.906  1.00  0.00     0.160 C 
BRANCH   7   8
ATOM      8  C   UNL A   1      32.610  25.993  24.708  1.00  0.00    -0.013 A 
ATOM      9  C   UNL A   1      34.279  23.016  22.975  1.00  0.00     0.044 C 
ATOM     10  C   UNL A   1      33.361  24.170  23.245  1.00  0.00    -0.051 A 
ATOM     11  C   UNL A   1      32.624  24.738  22.215  1.00  0.00     0.005 A 
ATOM     12  C   UNL A   1      33.296  24.761  24.503  1.00  0.00     0.009 A 
ATOM     13  C   UNL A   1      31.883  25.907  22.433  1.00  0.00     0.026 A 
ATOM     14  C   UNL A   1      31.869  26.586  23.664  1.00  0.00     0.042 A 
BRANCH  14  15
ATOM     15  N   UNL A   1      31.197  27.833  23.821  1.00  0.00    -0.352 N 
ATOM     16  H   UNL A   1      31.524  28.405  24.552  1.00  0.00     0.167 HD
BRANCH  15  17
ATOM     17  C   UNL A   1      30.116  28.361  23.059  1.00  0.00     0.094 A 
ATOM     18  C   UNL A   1      30.291  29.447  22.191  1.00  0.00     0.148 A 
ATOM     19  C   UNL A   1      28.788  27.953  23.282  1.00  0.00     0.067 A 
ATOM     20  F   UNL A   1      31.521  29.788  21.776  1.00  0.00    -0.205 F 
ATOM     21  C   UNL A   1      29.223  30.227  21.752  1.00  0.00     0.041 A 
ATOM     22  C   UNL A   1      27.707  28.762  22.898  1.00  0.00     0.023 A 
ATOM     23  Cl  UNL A   1      28.422  26.411  23.974  1.00  0.00    -0.082 Cl
ATOM     24  C   UNL A   1      27.932  29.924  22.162  1.00  0.00     0.005 A 
ENDBRANCH  15  17
ENDBRANCH  14  15
ENDBRANCH   7   8
ENDBRANCH   5   7
ENDBRANCH   4   5
ENDBRANCH   3   4
ENDBRANCH   2   3
ENDBRANCH   1   2
BRANCH   1  25
ATOM     25  C   UNL A   1      33.861  32.334  27.807  1.00  0.00     0.202 C 
BRANCH  25  26
ATOM     26  C   UNL A   1      34.910  31.516  28.543  1.00  0.00     0.261 C 
BRANCH  26  27
ATOM     27  O   UNL A   1      36.008  31.110  27.685  1.00  0.00    -0.460 OA
BRANCH  27  28
ATOM     28  C   UNL A   1      36.354  29.785  27.694  1.00  0.00     0.338 C 
ATOM     29  O   UNL A   1      35.636  28.903  27.251  1.00  0.00    -0.246 OA
BRANCH  28  30
ATOM     30  C   UNL A   1      37.775  29.572  28.068  1.00  0.00     0.060 A 
ATOM     31  C   UNL A   1      38.766  29.400  27.087  1.00  0.00     0.016 A 
ATOM     32  C   UNL A   1      38.078  29.372  29.412  1.00  0.00     0.016 A 
ATOM     33  C   UNL A   1      40.015  28.866  27.438  1.00  0.00     0.010 A 
ATOM     34  C   UNL A   1      39.263  28.744  29.734  1.00  0.00     0.010 A 
ATOM     35  C   UNL A   1      40.232  28.469  28.752  1.00  0.00    -0.014 A 
BRANCH  35  36
ATOM     36  C   UNL A   1      41.406  27.765  29.270  1.00  0.00     0.031 A 
ATOM     37  C   UNL A   1      41.573  26.345  28.882  1.00  0.00     0.074 A 
ATOM     38  C   UNL A   1      42.441  28.430  29.836  1.00  0.00     0.049 A 
ATOM     39  N   UNL A   1      42.550  25.612  29.274  1.00  0.00    -0.248 NA
ATOM     40  C   UNL A   1      40.629  25.600  28.042  1.00  0.00     0.031 C 
ATOM     41  C   UNL A   1      43.860  28.061  29.853  1.00  0.00     0.029 A 
ATOM     42  N   UNL A   1      42.455  29.618  30.536  1.00  0.00    -0.354 N 
ATOM     43  C   UNL A   1      42.592  24.508  28.463  1.00  0.00     0.074 A 
ATOM     44  C   UNL A   1      41.311  24.474  27.805  1.00  0.00     0.031 C 
ATOM     45  C   UNL A   1      44.522  28.845  30.725  1.00  0.00     0.029 A 
ATOM     46  C   UNL A   1      43.530  29.654  31.413  1.00  0.00     0.049 A 
ATOM     47  H   UNL A   1      41.794  30.339  30.429  1.00  0.00     0.167 HD
ATOM     48  C   UNL A   1      43.775  23.846  28.364  1.00  0.00     0.031 A 
ATOM     49  C   UNL A   1      43.307  29.719  32.759  1.00  0.00     0.031 A 
ATOM     50  C   UNL A   1      44.732  24.326  29.375  1.00  0.00     0.049 A 
ATOM     51  C   UNL A   1      43.690  28.389  33.396  1.00  0.00     0.074 A 
ATOM     52  C   UNL A   1      45.913  25.046  29.340  1.00  0.00     0.029 A 
ATOM     53  N   UNL A   1      44.318  24.346  30.704  1.00  0.00    -0.354 N 
ATOM     54  N   UNL A   1      44.027  27.346  32.686  1.00  0.00    -0.248 NA
ATOM     55  C   UNL A   1      43.744  28.096  34.825  1.00  0.00     0.031 C 
ATOM     56  C   UNL A   1      46.170  25.531  30.665  1.00  0.00     0.029 A 
ATOM     57  C   UNL A   1      45.172  25.072  31.510  1.00  0.00     0.049 A 
ATOM     58  H   UNL A   1      43.509  23.894  31.032  1.00  0.00     0.167 HD
ATOM     59  C   UNL A   1      44.396  26.307  33.475  1.00  0.00     0.074 A 
ATOM     60  C   UNL A   1      44.123  26.801  34.820  1.00  0.00     0.031 C 
ATOM     61  C   UNL A   1      44.902  25.150  32.949  1.00  0.00     0.031 A 
BRANCH  48  62
ATOM     62  C   UNL A   1      44.126  22.874  27.260  1.00  0.00    -0.014 A 
ATOM     63  C   UNL A   1      43.161  21.936  26.844  1.00  0.00     0.010 A 
ATOM     64  C   UNL A   1      45.396  22.766  26.651  1.00  0.00     0.010 A 
ATOM     65  C   UNL A   1      43.445  20.948  25.887  1.00  0.00     0.020 A 
ATOM     66  C   UNL A   1      45.686  21.803  25.672  1.00  0.00     0.020 A 
ATOM     67  C   UNL A   1      44.708  20.888  25.302  1.00  0.00     0.054 A 
BRANCH  67  68
ATOM     68  S   UNL A   1      45.055  19.600  24.077  1.00  0.00     0.124 S 
ATOM     69  O   UNL A   1      46.514  19.526  24.106  1.00  0.00    -0.237 OA
ATOM     70  O   UNL A   1      44.355  18.442  24.628  1.00  0.00    -0.237 OA
ATOM     71  O   UNL A   1      44.490  20.133  22.839  1.00  0.00    -0.744 OA
ENDBRANCH  67  68
ENDBRANCH  48  62
BRANCH  49  72
ATOM     72  C   UNL A   1      42.151  30.637  33.063  1.00  0.00    -0.014 A 
ATOM     73  C   UNL A   1      40.858  30.114  32.792  1.00  0.00     0.010 A 
ATOM     74  C   UNL A   1      42.255  31.631  34.057  1.00  0.00     0.010 A 
ATOM     75  C   UNL A   1      39.750  30.442  33.592  1.00  0.00     0.020 A 
ATOM     76  C   UNL A   1      41.138  31.967  34.856  1.00  0.00     0.020 A 
ATOM     77  C   UNL A   1      39.903  31.342  34.643  1.00  0.00     0.054 A 
BRANCH  77  78
ATOM     78  S   UNL A   1      38.533  31.527  35.844  1.00  0.00     0.124 S 
ATOM     79  O   UNL A   1      37.382  31.715  34.970  1.00  0.00    -0.237 OA
ATOM     80  O   UNL A   1      38.563  30.257  36.569  1.00  0.00    -0.237 OA
ATOM     81  O   UNL A   1      38.931  32.691  36.627  1.00  0.00    -0.744 OA
ENDBRANCH  77  78
ENDBRANCH  49  72
BRANCH  61  82
ATOM     82  C   UNL A   1      45.155  23.929  33.781  1.00  0.00    -0.014 A 
ATOM     83  C   UNL A   1      44.156  23.009  34.111  1.00  0.00     0.010 A 
ATOM     84  C   UNL A   1      46.455  23.688  34.281  1.00  0.00     0.010 A 
ATOM     85  C   UNL A   1      44.473  21.817  34.765  1.00  0.00     0.020 A 
ATOM     86  C   UNL A   1      46.777  22.525  34.972  1.00  0.00     0.020 A 
ATOM     87  C   UNL A   1      45.788  21.573  35.167  1.00  0.00     0.054 A 
BRANCH  87  88
ATOM     88  S   UNL A   1      46.180  20.011  35.975  1.00  0.00     0.124 S 
ATOM     89  O   UNL A   1      45.695  20.230  37.335  1.00  0.00    -0.237 OA
ATOM     90  O   UNL A   1      45.409  19.060  35.178  1.00  0.00    -0.237 OA
ATOM     91  O   UNL A   1      47.630  19.905  35.844  1.00  0.00    -0.744 OA
ENDBRANCH  87  88
ENDBRANCH  61  82
ENDBRANCH  35  36
ENDBRANCH  28  30
ENDBRANCH  27  28
ENDBRANCH  26  27
ENDBRANCH  25  26
ENDBRANCH   1  25
TORSDOF 20
ENDMDL
MODEL 2
REMARK VINA RESULT:     -11.9      4.073     10.318
REMARK SMILES Cc1ccc(Nc2c(F)cccc2Cl)c(CC(=O)OCCOCCOC(=O)c2ccc(-c3c4nc(c(-c5ccc(S(=O)(=O)[O-])cc5)c5ccc([nH]5)c(-c5ccc(S(=O)(=O)[O-])cc5)c5nc(c(-c6ccc(S(=O)(=O)[O-])cc6)c6ccc3[nH]6)C=C5)C=C4)cc2)c1
REMARK SMILES IDX 22 1 21 2 20 3 19 4 17 5 18 6 16 7 15 8 1 9 2 10 3 11 88 12
REMARK SMILES IDX 4 13 5 14 6 15 7 17 8 18 13 19 9 20 10 21 12 22 14 23 11 24
REMARK SMILES IDX 23 25 24 26 25 27 26 28 27 29 28 30 29 31 87 32 30 33 86 34
REMARK SMILES IDX 31 35 32 36 33 37 80 38 34 39 85 40 79 41 81 42 35 43 84 44
REMARK SMILES IDX 78 45 77 46 36 48 66 49 47 50 65 51 48 52 51 53 64 54 82 55
REMARK SMILES IDX 49 56 50 57 63 59 83 60 52 61 37 62 38 63 46 64 39 65 45 66
REMARK SMILES IDX 40 67 41 68 42 69 43 70 44 71 67 72 68 73 76 74 69 75 75 76
REMARK SMILES IDX 70 77 71 78 72 79 73 80 74 81 53 82 54 83 62 84 55 85 61 86
REMARK SMILES IDX 56 87 57 88 58 89 59 90 60 91
REMARK H PARENT 6 16 81 47 51 58
REMARK Flexibility Score: inf
ROOT
ATOM      1  O   UNL A   1      35.619  21.919  25.218  1.00  0.00    -0.374 OA
ENDROOT
BRANCH   1   2
ATOM      2  C   UNL A   1      34.372  22.004  24.563  1.00  0.00     0.202 C 
BRANCH   2   3
ATOM      3  C   UNL A   1      33.920  23.439  24.703  1.00  0.00     0.261 C 
BRANCH   3   4
ATOM      4  O   UNL A   1      34.358  24.269  23.640  1.00  0.00    -0.463 OA
BRANCH   4   5
ATOM      5  C   UNL A   1      33.672  25.433  23.401  1.00  0.00     0.310 C 
ATOM      6  O   UNL A   1      33.678  26.098  22.387  1.00  0.00    -0.252 OA
BRANCH   5   7
ATOM      7  C   UNL A   1      32.884  25.834  24.640  1.00  0.00     0.160 C 
BRANCH   7   8
ATOM      8  C   UNL A   1      32.899  27.345  24.796  1.00  0.00    -0.013 A 
ATOM      9  C   UNL A   1      34.577  29.467  27.505  1.00  0.00     0.044 C 
ATOM     10  C   UNL A   1      33.698  29.062  26.359  1.00  0.00    -0.051 A 
ATOM     11  C   UNL A   1      32.633  29.863  25.972  1.00  0.00     0.005 A 
ATOM     12  C   UNL A   1      33.865  27.837  25.721  1.00  0.00     0.009 A 
ATOM     13  C   UNL A   1      31.724  29.416  25.004  1.00  0.00     0.026 A 
ATOM     14  C   UNL A   1      31.805  28.145  24.406  1.00  0.00     0.042 A 
BRANCH  14  15
ATOM     15  N   UNL A   1      30.800  27.677  23.510  1.00  0.00    -0.352 N 
ATOM     16  H   UNL A   1      30.871  26.732  23.246  1.00  0.00     0.167 HD
BRANCH  15  17
ATOM     17  C   UNL A   1      29.709  28.397  22.946  1.00  0.00     0.094 A 
ATOM     18  C   UNL A   1      29.912  29.530  22.147  1.00  0.00     0.148 A 
ATOM     19  C   UNL A   1      28.378  28.130  23.317  1.00  0.00     0.067 A 
ATOM     20  F   UNL A   1      31.113  29.760  21.594  1.00  0.00    -0.205 F 
ATOM     21  C   UNL A   1      28.907  30.468  21.918  1.00  0.00     0.041 A 
ATOM     22  C   UNL A   1      27.372  29.093  23.146  1.00  0.00     0.023 A 
ATOM     23  Cl  UNL A   1      27.906  26.585  23.933  1.00  0.00    -0.082 Cl
ATOM     24  C   UNL A   1      27.650  30.284  22.478  1.00  0.00     0.005 A 
ENDBRANCH  15  17
ENDBRANCH  14  15
ENDBRANCH   7   8
ENDBRANCH   5   7
ENDBRANCH   4   5
ENDBRANCH   3   4
ENDBRANCH   2   3
ENDBRANCH   1   2
BRANCH   1  25
ATOM     25  C   UNL A   1      36.332  20.729  25.008  1.00  0.00     0.202 C 
BRANCH  25  26
ATOM     26  C   UNL A   1      37.807  21.001  25.258  1.00  0.00     0.261 C 
BRANCH  26  27
ATOM     27  O   UNL A   1      38.052  22.338  25.768  1.00  0.00    -0.460 OA
BRANCH  27  28
ATOM     28  C   UNL A   1      39.214  22.540  26.463  1.00  0.00     0.338 C 
ATOM     29  O   UNL A   1      40.048  21.667  26.642  1.00  0.00    -0.246 OA
BRANCH  28  30
ATOM     30  C   UNL A   1      39.459  23.975  26.755  1.00  0.00     0.060 A 
ATOM     31  C   UNL A   1      40.181  24.785  25.864  1.00  0.00     0.016 A 
ATOM     32  C   UNL A   1      39.106  24.459  28.013  1.00  0.00     0.016 A 
ATOM     33  C   UNL A   1      40.696  26.017  26.295  1.00  0.00     0.010 A 
ATOM     34  C   UNL A   1      39.706  25.615  28.466  1.00  0.00     0.010 A 
ATOM     35  C   UNL A   1      40.519  26.394  27.621  1.00  0.00    -0.014 A 
BRANCH  35  36
ATOM     36  C   UNL A   1      41.101  27.561  28.284  1.00  0.00     0.031 A 
ATOM     37  C   UNL A   1      40.211  28.720  28.526  1.00  0.00     0.074 A 
ATOM     38  C   UNL A   1      42.302  27.498  28.906  1.00  0.00     0.049 A 
ATOM     39  N   UNL A   1      40.597  29.807  29.088  1.00  0.00    -0.248 NA
ATOM     40  C   UNL A   1      38.802  28.781  28.121  1.00  0.00     0.031 C 
ATOM     41  C   UNL A   1      42.768  28.265  30.066  1.00  0.00     0.029 A 
ATOM     42  N   UNL A   1      43.402  26.713  28.633  1.00  0.00    -0.354 N 
ATOM     43  C   UNL A   1      39.476  30.496  29.472  1.00  0.00     0.074 A 
ATOM     44  C   UNL A   1      38.393  29.894  28.740  1.00  0.00     0.031 C 
ATOM     45  C   UNL A   1      44.095  28.095  30.220  1.00  0.00     0.029 A 
ATOM     46  C   UNL A   1      44.563  27.329  29.077  1.00  0.00     0.049 A 
ATOM     47  H   UNL A   1      43.367  25.837  28.186  1.00  0.00     0.167 HD
ATOM     48  C   UNL A   1      39.610  31.404  30.474  1.00  0.00     0.031 A 
ATOM     49  C   UNL A   1      45.526  27.694  28.177  1.00  0.00     0.031 A 
ATOM     50  C   UNL A   1      41.031  31.643  30.780  1.00  0.00     0.049 A 
ATOM     51  C   UNL A   1      45.557  29.213  28.064  1.00  0.00     0.074 A 
ATOM     52  C   UNL A   1      41.863  31.360  31.848  1.00  0.00     0.029 A 
ATOM     53  N   UNL A   1      41.875  31.982  29.726  1.00  0.00    -0.354 N 
ATOM     54  N   UNL A   1      44.672  29.976  28.649  1.00  0.00    -0.248 NA
ATOM     55  C   UNL A   1      46.536  30.007  27.328  1.00  0.00     0.031 C 
ATOM     56  C   UNL A   1      43.218  31.493  31.397  1.00  0.00     0.029 A 
ATOM     57  C   UNL A   1      43.209  31.899  30.072  1.00  0.00     0.049 A 
ATOM     58  H   UNL A   1      41.557  32.252  28.835  1.00  0.00     0.167 HD
ATOM     59  C   UNL A   1      44.950  31.289  28.464  1.00  0.00     0.074 A 
ATOM     60  C   UNL A   1      46.090  31.260  27.555  1.00  0.00     0.031 C 
ATOM     61  C   UNL A   1      44.226  32.271  29.084  1.00  0.00     0.031 A 
BRANCH  48  62
ATOM     62  C   UNL A   1      38.464  31.965  31.286  1.00  0.00    -0.014 A 
ATOM     63  C   UNL A   1      37.785  33.104  30.811  1.00  0.00     0.010 A 
ATOM     64  C   UNL A   1      38.058  31.485  32.551  1.00  0.00     0.010 A 
ATOM     65  C   UNL A   1      36.770  33.731  31.553  1.00  0.00     0.020 A 
ATOM     66  C   UNL A   1      37.026  32.084  33.291  1.00  0.00     0.020 A 
ATOM     67  C   UNL A   1      36.393  33.215  32.790  1.00  0.00     0.054 A 
BRANCH  67  68
ATOM     68  S   UNL A   1      35.088  34.044  33.734  1.00  0.00     0.124 S 
ATOM     69  O   UNL A   1      33.877  33.419  33.209  1.00  0.00    -0.237 OA
ATOM     70  O   UNL A   1      35.428  33.701  35.112  1.00  0.00    -0.237 OA
ATOM     71  O   UNL A   1      35.251  35.455  33.391  1.00  0.00    -0.744 OA
ENDBRANCH  67  68
ENDBRANCH  48  62
BRANCH  49  72
ATOM     72  C   UNL A   1      45.680  26.643  27.109  1.00  0.00    -0.014 A 
ATOM     73  C   UNL A   1      46.287  25.427  27.520  1.00  0.00     0.010 A 
ATOM     74  C   UNL A   1      44.798  26.590  26.009  1.00  0.00     0.010 A 
ATOM     75  C   UNL A   1      45.903  24.191  26.973  1.00  0.00     0.020 A 
ATOM     76  C   UNL A   1      44.418  25.347  25.453  1.00  0.00     0.020 A 
ATOM     77  C   UNL A   1      44.944  24.154  25.964  1.00  0.00     0.054 A 
BRANCH  77  78
ATOM     78  S   UNL A   1      44.248  22.531  25.477  1.00  0.00     0.124 S 
ATOM     79  O   UNL A   1      45.424  21.671  25.507  1.00  0.00    -0.237 OA
ATOM     80  O   UNL A   1      43.261  22.274  26.526  1.00  0.00    -0.237 OA
ATOM     81  O   UNL A   1      43.687  22.793  24.157  1.00  0.00    -0.744 OA
ENDBRANCH  77  78
ENDBRANCH  49  72
BRANCH  61  82
ATOM     82  C   UNL A   1      44.401  33.725  28.765  1.00  0.00    -0.014 A 
ATOM     83  C   UNL A   1      45.418  34.511  29.316  1.00  0.00     0.010 A 
ATOM     84  C   UNL A   1      43.495  34.355  27.882  1.00  0.00     0.010 A 
ATOM     85  C   UNL A   1      45.624  35.820  28.875  1.00  0.00     0.020 A 
ATOM     86  C   UNL A   1      43.663  35.672  27.467  1.00  0.00     0.020 A 
ATOM     87  C   UNL A   1      44.759  36.381  27.934  1.00  0.00     0.054 A 
BRANCH  87  88
ATOM     88  S   UNL A   1      45.068  38.058  27.352  1.00  0.00     0.124 S 
ATOM     89  O   UNL A   1      46.139  37.861  26.379  1.00  0.00    -0.237 OA
ATOM     90  O   UNL A   1      43.768  38.424  26.793  1.00  0.00    -0.237 OA
ATOM     91  O   UNL A   1      45.454  38.781  28.561  1.00  0.00    -0.744 OA
ENDBRANCH  87  88
ENDBRANCH  61  82
ENDBRANCH  35  36
ENDBRANCH  28  30
ENDBRANCH  27  28
ENDBRANCH  26  27
ENDBRANCH  25  26
ENDBRANCH   1  25
TORSDOF 20
ENDMDL
MODEL 3
REMARK VINA RESULT:     -11.8      3.367      5.267
REMARK SMILES Cc1ccc(Nc2c(F)cccc2Cl)c(CC(=O)OCCOCCOC(=O)c2ccc(-c3c4nc(c(-c5ccc(S(=O)(=O)[O-])cc5)c5ccc([nH]5)c(-c5ccc(S(=O)(=O)[O-])cc5)c5nc(c(-c6ccc(S(=O)(=O)[O-])cc6)c6ccc3[nH]6)C=C5)C=C4)cc2)c1
REMARK SMILES IDX 22 1 21 2 20 3 19 4 17 5 18 6 16 7 15 8 1 9 2 10 3 11 88 12
REMARK SMILES IDX 4 13 5 14 6 15 7 17 8 18 13 19 9 20 10 21 12 22 14 23 11 24
REMARK SMILES IDX 23 25 24 26 25 27 26 28 27 29 28 30 29 31 87 32 30 33 86 34
REMARK SMILES IDX 31 35 32 36 33 37 80 38 34 39 85 40 79 41 81 42 35 43 84 44
REMARK SMILES IDX 78 45 77 46 36 48 66 49 47 50 65 51 48 52 51 53 64 54 82 55
REMARK SMILES IDX 49 56 50 57 63 59 83 60 52 61 37 62 38 63 46 64 39 65 45 66
REMARK SMILES IDX 40 67 41 68 42 69 43 70 44 71 67 72 68 73 76 74 69 75 75 76
REMARK SMILES IDX 70 77 71 78 72 79 73 80 74 81 53 82 54 83 62 84 55 85 61 86
REMARK SMILES IDX 56 87 57 88 58 89 59 90 60 91
REMARK H PARENT 6 16 81 47 51 58
REMARK Flexibility Score: inf
ROOT
ATOM      1  O   UNL A   1      31.758  27.117  26.247  1.00  0.00    -0.374 OA
ENDROOT
BRANCH   1   2
ATOM      2  C   UNL A   1      30.779  26.584  25.382  1.00  0.00     0.202 C 
BRANCH   2   3
ATOM      3  C   UNL A   1      30.852  25.083  25.540  1.00  0.00     0.261 C 
BRANCH   3   4
ATOM      4  O   UNL A   1      31.397  24.678  26.784  1.00  0.00    -0.463 OA
BRANCH   4   5
ATOM      5  C   UNL A   1      31.948  23.424  26.873  1.00  0.00     0.310 C 
ATOM      6  O   UNL A   1      32.089  22.751  27.872  1.00  0.00    -0.252 OA
BRANCH   5   7
ATOM      7  C   UNL A   1      32.418  22.965  25.500  1.00  0.00     0.160 C 
BRANCH   7   8
ATOM      8  C   UNL A   1      33.754  22.252  25.622  1.00  0.00    -0.013 A 
ATOM      9  C   UNL A   1      37.235  23.745  26.178  1.00  0.00     0.044 C 
ATOM     10  C   UNL A   1      36.143  22.771  25.850  1.00  0.00    -0.051 A 
ATOM     11  C   UNL A   1      36.429  21.598  25.165  1.00  0.00     0.005 A 
ATOM     12  C   UNL A   1      34.812  23.057  26.135  1.00  0.00     0.009 A 
ATOM     13  C   UNL A   1      35.394  20.762  24.727  1.00  0.00     0.026 A 
ATOM     14  C   UNL A   1      34.033  21.066  24.912  1.00  0.00     0.042 A 
BRANCH  14  15
ATOM     15  N   UNL A   1      33.004  20.252  24.356  1.00  0.00    -0.352 N 
ATOM     16  H   UNL A   1      32.306  20.730  23.854  1.00  0.00     0.167 HD
BRANCH  15  17
ATOM     17  C   UNL A   1      32.853  18.838  24.429  1.00  0.00     0.094 A 
ATOM     18  C   UNL A   1      32.884  18.159  25.655  1.00  0.00     0.148 A 
ATOM     19  C   UNL A   1      32.864  18.033  23.275  1.00  0.00     0.067 A 
ATOM     20  F   UNL A   1      32.692  18.829  26.802  1.00  0.00    -0.205 F 
ATOM     21  C   UNL A   1      33.140  16.792  25.742  1.00  0.00     0.041 A 
ATOM     22  C   UNL A   1      33.182  16.668  23.346  1.00  0.00     0.023 A 
ATOM     23  Cl  UNL A   1      32.420  18.667  21.729  1.00  0.00    -0.082 Cl
ATOM     24  C   UNL A   1      33.358  16.055  24.586  1.00  0.00     0.005 A 
ENDBRANCH  15  17
ENDBRANCH  14  15
ENDBRANCH   7   8
ENDBRANCH   5   7
ENDBRANCH   4   5
ENDBRANCH   3   4
ENDBRANCH   2   3
ENDBRANCH   1   2
BRANCH   1  25
ATOM     25  C   UNL A   1      31.751  28.515  26.379  1.00  0.00     0.202 C 
BRANCH  25  26
ATOM     26  C   UNL A   1      33.011  28.935  27.118  1.00  0.00     0.261 C 
BRANCH  26  27
ATOM     27  O   UNL A   1      33.563  30.182  26.620  1.00  0.00    -0.460 OA
BRANCH  27  28
ATOM     28  C   UNL A   1      34.324  30.921  27.486  1.00  0.00     0.338 C 
ATOM     29  O   UNL A   1      33.966  31.995  27.941  1.00  0.00    -0.246 OA
BRANCH  28  30
ATOM     30  C   UNL A   1      35.498  30.168  27.995  1.00  0.00     0.060 A 
ATOM     31  C   UNL A   1      35.574  29.760  29.337  1.00  0.00     0.016 A 
ATOM     32  C   UNL A   1      36.601  30.026  27.157  1.00  0.00     0.016 A 
ATOM     33  C   UNL A   1      36.804  29.366  29.883  1.00  0.00     0.010 A 
ATOM     34  C   UNL A   1      37.827  29.746  27.723  1.00  0.00     0.010 A 
ATOM     35  C   UNL A   1      37.944  29.433  29.089  1.00  0.00    -0.014 A 
BRANCH  35  36
ATOM     36  C   UNL A   1      39.324  29.205  29.520  1.00  0.00     0.031 A 
ATOM     37  C   UNL A   1      39.940  27.905  29.167  1.00  0.00     0.074 A 
ATOM     38  C   UNL A   1      40.106  30.217  29.964  1.00  0.00     0.049 A 
ATOM     39  N   UNL A   1      41.136  27.574  29.492  1.00  0.00    -0.248 NA
ATOM     40  C   UNL A   1      39.251  26.831  28.444  1.00  0.00     0.031 C 
ATOM     41  C   UNL A   1      41.562  30.354  29.863  1.00  0.00     0.029 A 
ATOM     42  N   UNL A   1      39.762  31.381  30.619  1.00  0.00    -0.354 N 
ATOM     43  C   UNL A   1      41.495  26.501  28.719  1.00  0.00     0.074 A 
ATOM     44  C   UNL A   1      40.259  25.992  28.183  1.00  0.00     0.031 C 
ATOM     45  C   UNL A   1      41.977  31.371  30.643  1.00  0.00     0.029 A 
ATOM     46  C   UNL A   1      40.821  31.836  31.391  1.00  0.00     0.049 A 
ATOM     47  H   UNL A   1      38.887  31.826  30.549  1.00  0.00     0.167 HD
ATOM     48  C   UNL A   1      42.822  26.276  28.533  1.00  0.00     0.031 A 
ATOM     49  C   UNL A   1      40.692  31.907  32.750  1.00  0.00     0.031 A 
ATOM     50  C   UNL A   1      43.629  27.117  29.434  1.00  0.00     0.049 A 
ATOM     51  C   UNL A   1      41.557  30.831  33.393  1.00  0.00     0.074 A 
ATOM     52  C   UNL A   1      44.483  28.191  29.266  1.00  0.00     0.029 A 
ATOM     53  N   UNL A   1      43.335  27.080  30.794  1.00  0.00    -0.354 N 
ATOM     54  N   UNL A   1      42.178  29.921  32.692  1.00  0.00    -0.248 NA
ATOM     55  C   UNL A   1      41.815  30.666  34.820  1.00  0.00     0.031 C 
ATOM     56  C   UNL A   1      44.657  28.818  30.544  1.00  0.00     0.029 A 
ATOM     57  C   UNL A   1      43.944  28.102  31.493  1.00  0.00     0.049 A 
ATOM     58  H   UNL A   1      42.758  26.401  31.212  1.00  0.00     0.167 HD
ATOM     59  C   UNL A   1      42.940  29.123  33.478  1.00  0.00     0.074 A 
ATOM     60  C   UNL A   1      42.615  29.579  34.825  1.00  0.00     0.031 C 
ATOM     61  C   UNL A   1      43.772  28.175  32.947  1.00  0.00     0.031 A 
BRANCH  48  62
ATOM     62  C   UNL A   1      43.403  25.413  27.435  1.00  0.00    -0.014 A 
ATOM     63  C   UNL A   1      43.533  24.028  27.653  1.00  0.00     0.010 A 
ATOM     64  C   UNL A   1      43.917  25.898  26.211  1.00  0.00     0.010 A 
ATOM     65  C   UNL A   1      44.143  23.179  26.714  1.00  0.00     0.020 A 
ATOM     66  C   UNL A   1      44.502  25.058  25.252  1.00  0.00     0.020 A 
ATOM     67  C   UNL A   1      44.622  23.699  25.515  1.00  0.00     0.054 A 
BRANCH  67  68
ATOM     68  S   UNL A   1      45.413  22.588  24.322  1.00  0.00     0.124 S 
ATOM     69  O   UNL A   1      44.361  22.395  23.328  1.00  0.00    -0.237 OA
ATOM     70  O   UNL A   1      46.564  23.370  23.877  1.00  0.00    -0.237 OA
ATOM     71  O   UNL A   1      45.740  21.403  25.112  1.00  0.00    -0.744 OA
ENDBRANCH  67  68
ENDBRANCH  48  62
BRANCH  49  72
ATOM     72  C   UNL A   1      39.317  32.394  33.128  1.00  0.00    -0.014 A 
ATOM     73  C   UNL A   1      39.027  33.745  32.797  1.00  0.00     0.010 A 
ATOM     74  C   UNL A   1      38.230  31.501  33.224  1.00  0.00     0.010 A 
ATOM     75  C   UNL A   1      37.736  34.146  32.412  1.00  0.00     0.020 A 
ATOM     76  C   UNL A   1      36.930  31.907  32.845  1.00  0.00     0.020 A 
ATOM     77  C   UNL A   1      36.700  33.216  32.405  1.00  0.00     0.054 A 
BRANCH  77  78
ATOM     78  S   UNL A   1      35.110  33.683  31.624  1.00  0.00     0.124 S 
ATOM     79  O   UNL A   1      34.290  32.503  31.868  1.00  0.00    -0.237 OA
ATOM     80  O   UNL A   1      34.720  34.878  32.371  1.00  0.00    -0.237 OA
ATOM     81  O   UNL A   1      35.480  33.921  30.233  1.00  0.00    -0.744 OA
ENDBRANCH  77  78
ENDBRANCH  49  72
BRANCH  61  82
ATOM     82  C   UNL A   1      44.492  27.169  33.794  1.00  0.00    -0.014 A 
ATOM     83  C   UNL A   1      43.861  26.418  34.789  1.00  0.00     0.010 A 
ATOM     84  C   UNL A   1      45.878  26.969  33.605  1.00  0.00     0.010 A 
ATOM     85  C   UNL A   1      44.544  25.394  35.449  1.00  0.00     0.020 A 
ATOM     86  C   UNL A   1      46.582  25.981  34.286  1.00  0.00     0.020 A 
ATOM     87  C   UNL A   1      45.893  25.167  35.172  1.00  0.00     0.054 A 
BRANCH  87  88
ATOM     88  S   UNL A   1      46.743  23.815  36.008  1.00  0.00     0.124 S 
ATOM     89  O   UNL A   1      47.430  23.147  34.905  1.00  0.00    -0.237 OA
ATOM     90  O   UNL A   1      47.605  24.536  36.942  1.00  0.00    -0.237 OA
ATOM     91  O   UNL A   1      45.661  23.048  36.619  1.00  0.00    -0.744 OA
ENDBRANCH  87  88
ENDBRANCH  61  82
ENDBRANCH  35  36
ENDBRANCH  28  30
ENDBRANCH  27  28
ENDBRANCH  26  27
ENDBRANCH  25  26
ENDBRANCH   1  25
TORSDOF 20
ENDMDL
