MODEL 1
REMARK VINA RESULT:      -9.6      0.000      0.000
REMARK SMILES CCCCCCNC(=O)Oc1cccc(-c2ccc([C@@H](C)C(=O)OCCOCCOC(=O)c3ccc(-c4c5nc(c(-c6ccc(S(=O)(=O)[O-])cc6)c6ccc([nH]6)c(-c6ccc(S(=O)(=O)[O-])cc6)c6nc(c(-c7ccc(S(=O)(=O)[O-])cc7)c7ccc4[nH]7)C=C6)C=C5)cc3)cc2F)c1
REMARK SMILES IDX 24 1 22 2 23 3 20 4 21 5 19 6 16 7 17 8 94 9 18 10 93 11
REMARK SMILES IDX 95 12 15 13 11 14 12 15 96 16 13 17 14 18 10 19 8 20 7 21
REMARK SMILES IDX 9 23 6 24 5 25 4 26 3 27 2 28 1 29 25 30 26 31 27 32 28 33
REMARK SMILES IDX 29 34 30 35 31 36 32 37 33 38 34 39 92 40 35 41 91 42 36 43
REMARK SMILES IDX 37 44 38 45 85 46 39 47 90 48 84 49 86 50 40 51 89 52 83 53
REMARK SMILES IDX 82 54 41 56 71 57 52 58 70 59 53 60 56 61 69 62 87 63 54 64
REMARK SMILES IDX 55 65 68 67 88 68 57 69 42 70 43 71 51 72 44 73 50 74 45 75
REMARK SMILES IDX 46 76 47 77 48 78 49 79 72 80 73 81 81 82 74 83 80 84 75 85
REMARK SMILES IDX 76 86 77 87 78 88 79 89 58 90 59 91 67 92 60 93 66 94 61 95
REMARK SMILES IDX 62 96 63 97 64 98 65 99
REMARK H PARENT 7 22 86 55 56 66
REMARK Flexibility Score: inf
ROOT
ATOM      1  O   UNL A   1      31.186  29.884  24.233  1.00  0.00    -0.463 OA
ENDROOT
BRANCH   1   2
ATOM      2  C   UNL A   1      29.938  30.028  23.719  1.00  0.00     0.313 C 
ATOM      3  O   UNL A   1      29.206  30.992  23.925  1.00  0.00    -0.252 OA
BRANCH   2   4
ATOM      4  C   UNL A   1      29.487  28.853  22.863  1.00  0.00     0.126 C 
ATOM      5  C   UNL A   1      27.972  28.713  22.960  1.00  0.00     0.025 C 
BRANCH   4   6
ATOM      6  C   UNL A   1      30.199  27.517  23.051  1.00  0.00    -0.031 A 
ATOM      7  C   UNL A   1      31.444  24.949  23.199  1.00  0.00     0.018 A 
ATOM      8  C   UNL A   1      30.432  25.324  24.098  1.00  0.00     0.012 A 
ATOM      9  C   UNL A   1      31.842  25.902  22.254  1.00  0.00     0.131 A 
ATOM     10  C   UNL A   1      29.818  26.585  24.025  1.00  0.00     0.005 A 
ATOM     11  C   UNL A   1      31.238  27.159  22.175  1.00  0.00     0.044 A 
ATOM     12  F   UNL A   1      32.804  25.613  21.362  1.00  0.00    -0.206 F 
BRANCH   7  13
ATOM     13  C   UNL A   1      32.028  23.597  23.232  1.00  0.00    -0.012 A 
ATOM     14  C   UNL A   1      33.877  22.084  23.680  1.00  0.00     0.133 A 
ATOM     15  C   UNL A   1      33.126  20.990  23.261  1.00  0.00     0.047 A 
ATOM     16  C   UNL A   1      33.351  23.379  23.649  1.00  0.00     0.056 A 
ATOM     17  C   UNL A   1      31.816  21.190  22.836  1.00  0.00     0.004 A 
ATOM     18  C   UNL A   1      31.273  22.479  22.826  1.00  0.00     0.009 A 
BRANCH  14  19
ATOM     19  O   UNL A   1      35.212  21.840  24.043  1.00  0.00    -0.410 OA
BRANCH  19  20
ATOM     20  C   UNL A   1      36.155  22.769  23.636  1.00  0.00     0.412 C 
ATOM     21  N   UNL A   1      36.886  23.294  24.662  1.00  0.00    -0.321 N 
ATOM     22  H   UNL A   1      37.572  23.956  24.417  1.00  0.00     0.167 HD
ATOM     23  O   UNL A   1      36.360  23.131  22.476  1.00  0.00    -0.224 OA
BRANCH  21  24
ATOM     24  C   UNL A   1      36.763  22.984  26.073  1.00  0.00     0.119 C 
BRANCH  24  25
ATOM     25  C   UNL A   1      35.337  23.197  26.584  1.00  0.00     0.021 C 
BRANCH  25  26
ATOM     26  C   UNL A   1      34.730  21.996  27.323  1.00  0.00     0.002 C 
BRANCH  26  27
ATOM     27  C   UNL A   1      33.325  22.211  27.895  1.00  0.00    -0.000 C 
BRANCH  27  28
ATOM     28  C   UNL A   1      32.259  22.634  26.881  1.00  0.00    -0.003 C 
ATOM     29  C   UNL A   1      31.869  24.099  26.990  1.00  0.00     0.004 C 
ENDBRANCH  27  28
ENDBRANCH  26  27
ENDBRANCH  25  26
ENDBRANCH  24  25
ENDBRANCH  21  24
ENDBRANCH  19  20
ENDBRANCH  14  19
ENDBRANCH   7  13
ENDBRANCH   4   6
ENDBRANCH   2   4
ENDBRANCH   1   2
BRANCH   1  30
ATOM     30  C   UNL A   1      31.407  30.480  25.524  1.00  0.00     0.261 C 
BRANCH  30  31
ATOM     31  C   UNL A   1      32.133  29.524  26.472  1.00  0.00     0.202 C 
BRANCH  31  32
ATOM     32  O   UNL A   1      33.194  28.747  25.917  1.00  0.00    -0.374 OA
BRANCH  32  33
ATOM     33  C   UNL A   1      34.300  28.439  26.766  1.00  0.00     0.202 C 
BRANCH  33  34
ATOM     34  C   UNL A   1      35.038  29.613  27.424  1.00  0.00     0.261 C 
BRANCH  34  35
ATOM     35  O   UNL A   1      36.118  29.189  28.273  1.00  0.00    -0.460 OA
BRANCH  35  36
ATOM     36  C   UNL A   1      37.037  30.150  28.543  1.00  0.00     0.338 C 
ATOM     37  O   UNL A   1      36.842  31.224  29.087  1.00  0.00    -0.246 OA
BRANCH  36  38
ATOM     38  C   UNL A   1      38.393  29.632  28.279  1.00  0.00     0.060 A 
ATOM     39  C   UNL A   1      39.236  29.439  29.383  1.00  0.00     0.016 A 
ATOM     40  C   UNL A   1      38.857  29.406  26.982  1.00  0.00     0.016 A 
ATOM     41  C   UNL A   1      40.561  29.055  29.192  1.00  0.00     0.010 A 
ATOM     42  C   UNL A   1      40.192  29.030  26.794  1.00  0.00     0.010 A 
ATOM     43  C   UNL A   1      41.058  28.882  27.895  1.00  0.00    -0.014 A 
BRANCH  43  44
ATOM     44  C   UNL A   1      42.511  28.667  27.684  1.00  0.00     0.031 A 
ATOM     45  C   UNL A   1      43.462  29.809  27.911  1.00  0.00     0.074 A 
ATOM     46  C   UNL A   1      42.979  27.464  27.305  1.00  0.00     0.049 A 
ATOM     47  N   UNL A   1      44.755  29.858  27.724  1.00  0.00    -0.248 NA
ATOM     48  C   UNL A   1      42.877  31.062  28.414  1.00  0.00     0.031 C 
ATOM     49  C   UNL A   1      42.164  26.266  27.102  1.00  0.00     0.029 A 
ATOM     50  N   UNL A   1      44.256  27.056  27.010  1.00  0.00    -0.354 N 
ATOM     51  C   UNL A   1      45.138  31.150  28.066  1.00  0.00     0.074 A 
ATOM     52  C   UNL A   1      43.937  31.857  28.456  1.00  0.00     0.031 C 
ATOM     53  C   UNL A   1      42.959  25.262  26.696  1.00  0.00     0.029 A 
ATOM     54  C   UNL A   1      44.331  25.756  26.570  1.00  0.00     0.049 A 
ATOM     55  H   UNL A   1      45.043  27.640  27.105  1.00  0.00     0.167 HD
ATOM     56  C   UNL A   1      46.377  31.696  28.054  1.00  0.00     0.031 A 
ATOM     57  C   UNL A   1      45.375  25.054  26.085  1.00  0.00     0.031 A 
ATOM     58  C   UNL A   1      47.565  30.991  27.653  1.00  0.00     0.049 A 
ATOM     59  C   UNL A   1      46.729  25.708  26.001  1.00  0.00     0.074 A 
ATOM     60  C   UNL A   1      48.872  31.448  27.641  1.00  0.00     0.029 A 
ATOM     61  N   UNL A   1      47.592  29.689  27.178  1.00  0.00    -0.354 N 
ATOM     62  N   UNL A   1      47.083  26.916  26.367  1.00  0.00    -0.248 NA
ATOM     63  C   UNL A   1      47.823  24.905  25.435  1.00  0.00     0.031 C 
ATOM     64  C   UNL A   1      49.678  30.446  27.091  1.00  0.00     0.029 A 
ATOM     65  C   UNL A   1      48.885  29.341  26.825  1.00  0.00     0.049 A 
ATOM     66  H   UNL A   1      46.808  29.098  27.103  1.00  0.00     0.167 HD
ATOM     67  C   UNL A   1      48.443  27.014  26.090  1.00  0.00     0.074 A 
ATOM     68  C   UNL A   1      48.851  25.736  25.543  1.00  0.00     0.031 C 
ATOM     69  C   UNL A   1      49.277  28.068  26.271  1.00  0.00     0.031 A 
BRANCH  56  70
ATOM     70  C   UNL A   1      46.503  33.149  28.436  1.00  0.00    -0.014 A 
ATOM     71  C   UNL A   1      46.783  33.540  29.758  1.00  0.00     0.010 A 
ATOM     72  C   UNL A   1      46.376  34.138  27.444  1.00  0.00     0.010 A 
ATOM     73  C   UNL A   1      46.893  34.894  30.086  1.00  0.00     0.020 A 
ATOM     74  C   UNL A   1      46.512  35.491  27.762  1.00  0.00     0.020 A 
ATOM     75  C   UNL A   1      46.752  35.862  29.086  1.00  0.00     0.054 A 
BRANCH  75  76
ATOM     76  S   UNL A   1      46.915  37.612  29.538  1.00  0.00     0.124 S 
ATOM     77  O   UNL A   1      45.934  38.242  28.657  1.00  0.00    -0.237 OA
ATOM     78  O   UNL A   1      46.573  37.608  30.958  1.00  0.00    -0.237 OA
ATOM     79  O   UNL A   1      48.310  37.921  29.236  1.00  0.00    -0.744 OA
ENDBRANCH  75  76
ENDBRANCH  56  70
BRANCH  57  80
ATOM     80  C   UNL A   1      45.163  23.664  25.597  1.00  0.00    -0.014 A 
ATOM     81  C   UNL A   1      44.562  23.418  24.351  1.00  0.00     0.010 A 
ATOM     82  C   UNL A   1      45.584  22.571  26.380  1.00  0.00     0.010 A 
ATOM     83  C   UNL A   1      44.385  22.106  23.898  1.00  0.00     0.020 A 
ATOM     84  C   UNL A   1      45.434  21.261  25.919  1.00  0.00     0.020 A 
ATOM     85  C   UNL A   1      44.828  21.037  24.682  1.00  0.00     0.054 A 
BRANCH  85  86
ATOM     86  S   UNL A   1      44.654  19.349  24.040  1.00  0.00     0.124 S 
ATOM     87  O   UNL A   1      45.876  18.713  24.520  1.00  0.00    -0.237 OA
ATOM     88  O   UNL A   1      43.415  18.899  24.673  1.00  0.00    -0.237 OA
ATOM     89  O   UNL A   1      44.570  19.539  22.594  1.00  0.00    -0.744 OA
ENDBRANCH  85  86
ENDBRANCH  57  80
BRANCH  69  90
ATOM     90  C   UNL A   1      50.723  27.893  25.885  1.00  0.00    -0.014 A 
ATOM     91  C   UNL A   1      51.166  28.191  24.584  1.00  0.00     0.010 A 
ATOM     92  C   UNL A   1      51.664  27.510  26.858  1.00  0.00     0.010 A 
ATOM     93  C   UNL A   1      52.523  28.097  24.261  1.00  0.00     0.020 A 
ATOM     94  C   UNL A   1      53.025  27.443  26.547  1.00  0.00     0.020 A 
ATOM     95  C   UNL A   1      53.445  27.731  25.246  1.00  0.00     0.054 A 
BRANCH  95  96
ATOM     96  S   UNL A   1      55.208  27.689  24.818  1.00  0.00     0.124 S 
ATOM     97  O   UNL A   1      55.293  26.487  23.993  1.00  0.00    -0.237 OA
ATOM     98  O   UNL A   1      55.394  28.953  24.109  1.00  0.00    -0.237 OA
ATOM     99  O   UNL A   1      55.878  27.604  26.114  1.00  0.00    -0.744 OA
ENDBRANCH  95  96
ENDBRANCH  69  90
ENDBRANCH  43  44
ENDBRANCH  36  38
ENDBRANCH  35  36
ENDBRANCH  34  35
ENDBRANCH  33  34
ENDBRANCH  32  33
ENDBRANCH  31  32
ENDBRANCH  30  31
ENDBRANCH   1  30
TORSDOF 26
ENDMDL
MODEL 2
REMARK VINA RESULT:      -9.2      3.751      8.969
REMARK SMILES CCCCCCNC(=O)Oc1cccc(-c2ccc([C@@H](C)C(=O)OCCOCCOC(=O)c3ccc(-c4c5nc(c(-c6ccc(S(=O)(=O)[O-])cc6)c6ccc([nH]6)c(-c6ccc(S(=O)(=O)[O-])cc6)c6nc(c(-c7ccc(S(=O)(=O)[O-])cc7)c7ccc4[nH]7)C=C6)C=C5)cc3)cc2F)c1
REMARK SMILES IDX 24 1 22 2 23 3 20 4 21 5 19 6 16 7 17 8 94 9 18 10 93 11
REMARK SMILES IDX 95 12 15 13 11 14 12 15 96 16 13 17 14 18 10 19 8 20 7 21
REMARK SMILES IDX 9 23 6 24 5 25 4 26 3 27 2 28 1 29 25 30 26 31 27 32 28 33
REMARK SMILES IDX 29 34 30 35 31 36 32 37 33 38 34 39 92 40 35 41 91 42 36 43
REMARK SMILES IDX 37 44 38 45 85 46 39 47 90 48 84 49 86 50 40 51 89 52 83 53
REMARK SMILES IDX 82 54 41 56 71 57 52 58 70 59 53 60 56 61 69 62 87 63 54 64
REMARK SMILES IDX 55 65 68 67 88 68 57 69 42 70 43 71 51 72 44 73 50 74 45 75
REMARK SMILES IDX 46 76 47 77 48 78 49 79 72 80 73 81 81 82 74 83 80 84 75 85
REMARK SMILES IDX 76 86 77 87 78 88 79 89 58 90 59 91 67 92 60 93 66 94 61 95
REMARK SMILES IDX 62 96 63 97 64 98 65 99
REMARK H PARENT 7 22 86 55 56 66
REMARK Flexibility Score: inf
ROOT
ATOM      1  O   UNL A   1      42.563  20.384  26.878  1.00  0.00    -0.463 OA
ENDROOT
BRANCH   1   2
ATOM      2  C   UNL A   1      41.469  20.997  27.398  1.00  0.00     0.313 C 
ATOM      3  O   UNL A   1      40.781  20.544  28.309  1.00  0.00    -0.252 OA
BRANCH   2   4
ATOM      4  C   UNL A   1      41.130  22.320  26.726  1.00  0.00     0.126 C 
ATOM      5  C   UNL A   1      41.744  23.463  27.527  1.00  0.00     0.025 C 
BRANCH   4   6
ATOM      6  C   UNL A   1      39.671  22.589  26.372  1.00  0.00    -0.031 A 
ATOM      7  C   UNL A   1      36.997  23.073  25.486  1.00  0.00     0.018 A 
ATOM      8  C   UNL A   1      37.746  24.072  26.130  1.00  0.00     0.012 A 
ATOM      9  C   UNL A   1      37.604  21.821  25.334  1.00  0.00     0.131 A 
ATOM     10  C   UNL A   1      39.062  23.836  26.564  1.00  0.00     0.005 A 
ATOM     11  C   UNL A   1      38.910  21.577  25.764  1.00  0.00     0.044 A 
ATOM     12  F   UNL A   1      36.946  20.819  24.728  1.00  0.00    -0.206 F 
BRANCH   7  13
ATOM     13  C   UNL A   1      35.648  23.352  24.964  1.00  0.00    -0.012 A 
ATOM     14  C   UNL A   1      33.343  24.055  25.282  1.00  0.00     0.133 A 
ATOM     15  C   UNL A   1      33.064  23.857  23.932  1.00  0.00     0.047 A 
ATOM     16  C   UNL A   1      34.612  23.788  25.805  1.00  0.00     0.056 A 
ATOM     17  C   UNL A   1      34.078  23.419  23.087  1.00  0.00     0.004 A 
ATOM     18  C   UNL A   1      35.356  23.173  23.598  1.00  0.00     0.009 A 
BRANCH  14  19
ATOM     19  O   UNL A   1      32.273  24.441  26.105  1.00  0.00    -0.410 OA
BRANCH  19  20
ATOM     20  C   UNL A   1      31.096  23.720  25.987  1.00  0.00     0.412 C 
ATOM     21  N   UNL A   1      30.001  24.496  25.740  1.00  0.00    -0.321 N 
ATOM     22  H   UNL A   1      29.143  24.024  25.644  1.00  0.00     0.167 HD
ATOM     23  O   UNL A   1      30.983  22.497  26.091  1.00  0.00    -0.224 OA
BRANCH  21  24
ATOM     24  C   UNL A   1      29.962  25.938  25.602  1.00  0.00     0.119 C 
BRANCH  24  25
ATOM     25  C   UNL A   1      29.762  26.369  24.148  1.00  0.00     0.021 C 
BRANCH  25  26
ATOM     26  C   UNL A   1      31.042  26.811  23.424  1.00  0.00     0.002 C 
BRANCH  26  27
ATOM     27  C   UNL A   1      31.039  28.248  22.891  1.00  0.00    -0.000 C 
BRANCH  27  28
ATOM     28  C   UNL A   1      30.470  29.302  23.843  1.00  0.00    -0.003 C 
ATOM     29  C   UNL A   1      31.397  29.633  25.002  1.00  0.00     0.004 C 
ENDBRANCH  27  28
ENDBRANCH  26  27
ENDBRANCH  25  26
ENDBRANCH  24  25
ENDBRANCH  21  24
ENDBRANCH  19  20
ENDBRANCH  14  19
ENDBRANCH   7  13
ENDBRANCH   4   6
ENDBRANCH   2   4
ENDBRANCH   1   2
BRANCH   1  30
ATOM     30  C   UNL A   1      42.308  19.414  25.846  1.00  0.00     0.261 C 
BRANCH  30  31
ATOM     31  C   UNL A   1      43.437  18.387  25.746  1.00  0.00     0.202 C 
BRANCH  31  32
ATOM     32  O   UNL A   1      44.389  18.575  24.699  1.00  0.00    -0.374 OA
BRANCH  32  33
ATOM     33  C   UNL A   1      45.742  18.835  25.076  1.00  0.00     0.202 C 
BRANCH  33  34
ATOM     34  C   UNL A   1      46.316  20.220  24.745  1.00  0.00     0.261 C 
BRANCH  34  35
ATOM     35  O   UNL A   1      46.014  21.205  25.746  1.00  0.00    -0.460 OA
BRANCH  35  36
ATOM     36  C   UNL A   1      45.331  22.285  25.291  1.00  0.00     0.338 C 
ATOM     37  O   UNL A   1      44.218  22.297  24.792  1.00  0.00    -0.246 OA
BRANCH  36  38
ATOM     38  C   UNL A   1      46.038  23.521  25.677  1.00  0.00     0.060 A 
ATOM     39  C   UNL A   1      46.623  24.277  24.651  1.00  0.00     0.016 A 
ATOM     40  C   UNL A   1      46.186  23.901  27.011  1.00  0.00     0.016 A 
ATOM     41  C   UNL A   1      47.395  25.395  24.959  1.00  0.00     0.010 A 
ATOM     42  C   UNL A   1      46.970  25.019  27.318  1.00  0.00     0.010 A 
ATOM     43  C   UNL A   1      47.601  25.754  26.296  1.00  0.00    -0.014 A 
BRANCH  43  44
ATOM     44  C   UNL A   1      48.577  26.821  26.631  1.00  0.00     0.031 A 
ATOM     45  C   UNL A   1      48.088  28.233  26.806  1.00  0.00     0.074 A 
ATOM     46  C   UNL A   1      49.881  26.534  26.788  1.00  0.00     0.049 A 
ATOM     47  N   UNL A   1      48.774  29.322  27.034  1.00  0.00    -0.248 NA
ATOM     48  C   UNL A   1      46.634  28.443  26.709  1.00  0.00     0.031 C 
ATOM     49  C   UNL A   1      50.469  25.198  26.694  1.00  0.00     0.029 A 
ATOM     50  N   UNL A   1      50.950  27.355  27.047  1.00  0.00    -0.354 N 
ATOM     51  C   UNL A   1      47.840  30.351  27.089  1.00  0.00     0.074 A 
ATOM     52  C   UNL A   1      46.542  29.757  26.853  1.00  0.00     0.031 C 
ATOM     53  C   UNL A   1      51.798  25.293  26.873  1.00  0.00     0.029 A 
ATOM     54  C   UNL A   1      52.159  26.700  27.052  1.00  0.00     0.049 A 
ATOM     55  H   UNL A   1      50.860  28.321  27.213  1.00  0.00     0.167 HD
ATOM     56  C   UNL A   1      48.048  31.671  27.313  1.00  0.00     0.031 A 
ATOM     57  C   UNL A   1      53.415  27.180  27.152  1.00  0.00     0.031 A 
ATOM     58  C   UNL A   1      49.343  32.257  27.535  1.00  0.00     0.049 A 
ATOM     59  C   UNL A   1      53.629  28.661  27.316  1.00  0.00     0.074 A 
ATOM     60  C   UNL A   1      49.652  33.579  27.807  1.00  0.00     0.029 A 
ATOM     61  N   UNL A   1      50.543  31.565  27.495  1.00  0.00    -0.354 N 
ATOM     62  N   UNL A   1      52.734  29.617  27.408  1.00  0.00    -0.248 NA
ATOM     63  C   UNL A   1      55.020  29.131  27.388  1.00  0.00     0.031 C 
ATOM     64  C   UNL A   1      51.044  33.698  27.860  1.00  0.00     0.029 A 
ATOM     65  C   UNL A   1      51.600  32.439  27.689  1.00  0.00     0.049 A 
ATOM     66  H   UNL A   1      50.632  30.596  27.350  1.00  0.00     0.167 HD
ATOM     67  C   UNL A   1      53.454  30.797  27.562  1.00  0.00     0.074 A 
ATOM     68  C   UNL A   1      54.856  30.434  27.571  1.00  0.00     0.031 C 
ATOM     69  C   UNL A   1      52.993  32.067  27.685  1.00  0.00     0.031 A 
BRANCH  56  70
ATOM     70  C   UNL A   1      46.848  32.582  27.276  1.00  0.00    -0.014 A 
ATOM     71  C   UNL A   1      46.009  32.740  28.393  1.00  0.00     0.010 A 
ATOM     72  C   UNL A   1      46.580  33.323  26.110  1.00  0.00     0.010 A 
ATOM     73  C   UNL A   1      44.902  33.591  28.331  1.00  0.00     0.020 A 
ATOM     74  C   UNL A   1      45.490  34.194  26.053  1.00  0.00     0.020 A 
ATOM     75  C   UNL A   1      44.646  34.310  27.159  1.00  0.00     0.054 A 
BRANCH  75  76
ATOM     76  S   UNL A   1      43.210  35.418  27.111  1.00  0.00     0.124 S 
ATOM     77  O   UNL A   1      43.835  36.727  27.282  1.00  0.00    -0.237 OA
ATOM     78  O   UNL A   1      42.650  35.158  25.787  1.00  0.00    -0.237 OA
ATOM     79  O   UNL A   1      42.388  34.970  28.232  1.00  0.00    -0.744 OA
ENDBRANCH  75  76
ENDBRANCH  56  70
BRANCH  57  80
ATOM     80  C   UNL A   1      54.569  26.245  27.049  1.00  0.00    -0.014 A 
ATOM     81  C   UNL A   1      55.142  25.673  28.197  1.00  0.00     0.010 A 
ATOM     82  C   UNL A   1      55.091  25.908  25.784  1.00  0.00     0.010 A 
ATOM     83  C   UNL A   1      56.215  24.784  28.084  1.00  0.00     0.020 A 
ATOM     84  C   UNL A   1      56.145  24.999  25.665  1.00  0.00     0.020 A 
ATOM     85  C   UNL A   1      56.706  24.448  26.819  1.00  0.00     0.054 A 
BRANCH  85  86
ATOM     86  S   UNL A   1      58.050  23.236  26.693  1.00  0.00     0.124 S 
ATOM     87  O   UNL A   1      57.454  22.206  25.849  1.00  0.00    -0.237 OA
ATOM     88  O   UNL A   1      59.121  24.018  26.078  1.00  0.00    -0.237 OA
ATOM     89  O   UNL A   1      58.293  22.848  28.081  1.00  0.00    -0.744 OA
ENDBRANCH  85  86
ENDBRANCH  57  80
BRANCH  69  90
ATOM     90  C   UNL A   1      54.008  33.169  27.848  1.00  0.00    -0.014 A 
ATOM     91  C   UNL A   1      54.504  33.514  29.117  1.00  0.00     0.010 A 
ATOM     92  C   UNL A   1      54.535  33.806  26.710  1.00  0.00     0.010 A 
ATOM     93  C   UNL A   1      55.501  34.486  29.245  1.00  0.00     0.020 A 
ATOM     94  C   UNL A   1      55.551  34.757  26.831  1.00  0.00     0.020 A 
ATOM     95  C   UNL A   1      56.024  35.097  28.101  1.00  0.00     0.054 A 
BRANCH  95  96
ATOM     96  S   UNL A   1      57.368  36.300  28.292  1.00  0.00     0.124 S 
ATOM     97  O   UNL A   1      58.409  35.733  27.438  1.00  0.00    -0.237 OA
ATOM     98  O   UNL A   1      56.761  37.537  27.806  1.00  0.00    -0.237 OA
ATOM     99  O   UNL A   1      57.656  36.274  29.724  1.00  0.00    -0.744 OA
ENDBRANCH  95  96
ENDBRANCH  69  90
ENDBRANCH  43  44
ENDBRANCH  36  38
ENDBRANCH  35  36
ENDBRANCH  34  35
ENDBRANCH  33  34
ENDBRANCH  32  33
ENDBRANCH  31  32
ENDBRANCH  30  31
ENDBRANCH   1  30
TORSDOF 26
ENDMDL
MODEL 3
REMARK VINA RESULT:      -8.9      1.406      8.039
REMARK SMILES CCCCCCNC(=O)Oc1cccc(-c2ccc([C@@H](C)C(=O)OCCOCCOC(=O)c3ccc(-c4c5nc(c(-c6ccc(S(=O)(=O)[O-])cc6)c6ccc([nH]6)c(-c6ccc(S(=O)(=O)[O-])cc6)c6nc(c(-c7ccc(S(=O)(=O)[O-])cc7)c7ccc4[nH]7)C=C6)C=C5)cc3)cc2F)c1
REMARK SMILES IDX 24 1 22 2 23 3 20 4 21 5 19 6 16 7 17 8 94 9 18 10 93 11
REMARK SMILES IDX 95 12 15 13 11 14 12 15 96 16 13 17 14 18 10 19 8 20 7 21
REMARK SMILES IDX 9 23 6 24 5 25 4 26 3 27 2 28 1 29 25 30 26 31 27 32 28 33
REMARK SMILES IDX 29 34 30 35 31 36 32 37 33 38 34 39 92 40 35 41 91 42 36 43
REMARK SMILES IDX 37 44 38 45 85 46 39 47 90 48 84 49 86 50 40 51 89 52 83 53
REMARK SMILES IDX 82 54 41 56 71 57 52 58 70 59 53 60 56 61 69 62 87 63 54 64
REMARK SMILES IDX 55 65 68 67 88 68 57 69 42 70 43 71 51 72 44 73 50 74 45 75
REMARK SMILES IDX 46 76 47 77 48 78 49 79 72 80 73 81 81 82 74 83 80 84 75 85
REMARK SMILES IDX 76 86 77 87 78 88 79 89 58 90 59 91 67 92 60 93 66 94 61 95
REMARK SMILES IDX 62 96 63 97 64 98 65 99
REMARK H PARENT 7 22 86 55 56 66
REMARK Flexibility Score: inf
ROOT
ATOM      1  O   UNL A   1      31.969  29.332  24.880  1.00  0.00    -0.463 OA
ENDROOT
BRANCH   1   2
ATOM      2  C   UNL A   1      31.180  28.458  24.205  1.00  0.00     0.313 C 
ATOM      3  O   UNL A   1      30.020  28.190  24.504  1.00  0.00    -0.252 OA
BRANCH   2   4
ATOM      4  C   UNL A   1      31.873  27.791  23.025  1.00  0.00     0.126 C 
ATOM      5  C   UNL A   1      30.829  27.396  21.987  1.00  0.00     0.025 C 
BRANCH   4   6
ATOM      6  C   UNL A   1      32.848  26.656  23.317  1.00  0.00    -0.031 A 
ATOM      7  C   UNL A   1      34.495  24.403  23.935  1.00  0.00     0.018 A 
ATOM      8  C   UNL A   1      34.602  25.605  24.653  1.00  0.00     0.012 A 
ATOM      9  C   UNL A   1      33.576  24.370  22.880  1.00  0.00     0.131 A 
ATOM     10  C   UNL A   1      33.791  26.712  24.352  1.00  0.00     0.005 A 
ATOM     11  C   UNL A   1      32.767  25.467  22.572  1.00  0.00     0.044 A 
ATOM     12  F   UNL A   1      33.420  23.253  22.151  1.00  0.00    -0.206 F 
BRANCH   7  13
ATOM     13  C   UNL A   1      35.292  23.221  24.308  1.00  0.00    -0.012 A 
ATOM     14  C   UNL A   1      35.462  20.895  24.995  1.00  0.00     0.133 A 
ATOM     15  C   UNL A   1      36.851  20.978  25.042  1.00  0.00     0.047 A 
ATOM     16  C   UNL A   1      34.682  22.004  24.654  1.00  0.00     0.056 A 
ATOM     17  C   UNL A   1      37.471  22.179  24.710  1.00  0.00     0.004 A 
ATOM     18  C   UNL A   1      36.698  23.286  24.344  1.00  0.00     0.009 A 
BRANCH  14  19
ATOM     19  O   UNL A   1      34.882  19.681  25.396  1.00  0.00    -0.410 OA
BRANCH  19  20
ATOM     20  C   UNL A   1      34.109  19.014  24.460  1.00  0.00     0.412 C 
ATOM     21  N   UNL A   1      32.778  19.304  24.542  1.00  0.00    -0.321 N 
ATOM     22  H   UNL A   1      32.190  18.855  23.893  1.00  0.00     0.167 HD
ATOM     23  O   UNL A   1      34.522  18.220  23.613  1.00  0.00    -0.224 OA
BRANCH  21  24
ATOM     24  C   UNL A   1      32.133  20.201  25.481  1.00  0.00     0.119 C 
BRANCH  24  25
ATOM     25  C   UNL A   1      31.564  21.441  24.790  1.00  0.00     0.021 C 
BRANCH  25  26
ATOM     26  C   UNL A   1      30.753  22.373  25.702  1.00  0.00     0.002 C 
BRANCH  26  27
ATOM     27  C   UNL A   1      31.207  23.837  25.724  1.00  0.00    -0.000 C 
BRANCH  27  28
ATOM     28  C   UNL A   1      32.276  24.179  26.765  1.00  0.00    -0.003 C 
ATOM     29  C   UNL A   1      32.583  23.032  27.715  1.00  0.00     0.004 C 
ENDBRANCH  27  28
ENDBRANCH  26  27
ENDBRANCH  25  26
ENDBRANCH  24  25
ENDBRANCH  21  24
ENDBRANCH  19  20
ENDBRANCH  14  19
ENDBRANCH   7  13
ENDBRANCH   4   6
ENDBRANCH   2   4
ENDBRANCH   1   2
BRANCH   1  30
ATOM     30  C   UNL A   1      31.282  30.302  25.691  1.00  0.00     0.261 C 
BRANCH  30  31
ATOM     31  C   UNL A   1      32.243  31.045  26.620  1.00  0.00     0.202 C 
BRANCH  31  32
ATOM     32  O   UNL A   1      33.617  30.661  26.569  1.00  0.00    -0.374 OA
BRANCH  32  33
ATOM     33  C   UNL A   1      34.294  30.462  27.811  1.00  0.00     0.202 C 
BRANCH  33  34
ATOM     34  C   UNL A   1      35.459  29.465  27.832  1.00  0.00     0.261 C 
BRANCH  34  35
ATOM     35  O   UNL A   1      36.723  30.087  28.115  1.00  0.00    -0.460 OA
BRANCH  35  36
ATOM     36  C   UNL A   1      37.433  29.500  29.111  1.00  0.00     0.338 C 
ATOM     37  O   UNL A   1      37.014  29.123  30.192  1.00  0.00    -0.246 OA
BRANCH  36  38
ATOM     38  C   UNL A   1      38.788  29.167  28.629  1.00  0.00     0.060 A 
ATOM     39  C   UNL A   1      39.756  28.851  29.593  1.00  0.00     0.016 A 
ATOM     40  C   UNL A   1      39.126  29.228  27.276  1.00  0.00     0.016 A 
ATOM     41  C   UNL A   1      41.078  28.632  29.211  1.00  0.00     0.010 A 
ATOM     42  C   UNL A   1      40.456  29.018  26.897  1.00  0.00     0.010 A 
ATOM     43  C   UNL A   1      41.443  28.748  27.865  1.00  0.00    -0.014 A 
BRANCH  43  44
ATOM     44  C   UNL A   1      42.877  28.710  27.485  1.00  0.00     0.031 A 
ATOM     45  C   UNL A   1      43.460  27.431  26.948  1.00  0.00     0.074 A 
ATOM     46  C   UNL A   1      43.649  29.805  27.606  1.00  0.00     0.049 A 
ATOM     47  N   UNL A   1      44.696  27.161  26.618  1.00  0.00    -0.248 NA
ATOM     48  C   UNL A   1      42.525  26.310  26.760  1.00  0.00     0.031 C 
ATOM     49  C   UNL A   1      43.189  31.116  28.064  1.00  0.00     0.029 A 
ATOM     50  N   UNL A   1      44.988  29.983  27.363  1.00  0.00    -0.354 N 
ATOM     51  C   UNL A   1      44.694  25.834  26.203  1.00  0.00     0.074 A 
ATOM     52  C   UNL A   1      43.337  25.351  26.339  1.00  0.00     0.031 C 
ATOM     53  C   UNL A   1      44.235  31.960  28.090  1.00  0.00     0.029 A 
ATOM     54  C   UNL A   1      45.444  31.239  27.690  1.00  0.00     0.049 A 
ATOM     55  H   UNL A   1      45.567  29.280  26.992  1.00  0.00     0.167 HD
ATOM     56  C   UNL A   1      45.730  25.087  25.752  1.00  0.00     0.031 A 
ATOM     57  C   UNL A   1      46.696  31.741  27.702  1.00  0.00     0.031 A 
ATOM     58  C   UNL A   1      47.080  25.571  25.631  1.00  0.00     0.049 A 
ATOM     59  C   UNL A   1      47.846  30.867  27.277  1.00  0.00     0.074 A 
ATOM     60  C   UNL A   1      48.192  24.901  25.150  1.00  0.00     0.029 A 
ATOM     61  N   UNL A   1      47.506  26.835  26.008  1.00  0.00    -0.354 N 
ATOM     62  N   UNL A   1      47.823  29.627  26.847  1.00  0.00    -0.248 NA
ATOM     63  C   UNL A   1      49.191  31.457  27.341  1.00  0.00     0.031 C 
ATOM     64  C   UNL A   1      49.303  25.736  25.304  1.00  0.00     0.029 A 
ATOM     65  C   UNL A   1      48.872  26.950  25.816  1.00  0.00     0.049 A 
ATOM     66  H   UNL A   1      46.923  27.546  26.360  1.00  0.00     0.167 HD
ATOM     67  C   UNL A   1      49.146  29.295  26.577  1.00  0.00     0.074 A 
ATOM     68  C   UNL A   1      49.941  30.468  26.872  1.00  0.00     0.031 C 
ATOM     69  C   UNL A   1      49.655  28.122  26.124  1.00  0.00     0.031 A 
BRANCH  56  70
ATOM     70  C   UNL A   1      45.454  23.646  25.406  1.00  0.00    -0.014 A 
ATOM     71  C   UNL A   1      45.015  23.269  24.124  1.00  0.00     0.010 A 
ATOM     72  C   UNL A   1      45.675  22.649  26.374  1.00  0.00     0.010 A 
ATOM     73  C   UNL A   1      44.764  21.926  23.830  1.00  0.00     0.020 A 
ATOM     74  C   UNL A   1      45.451  21.303  26.076  1.00  0.00     0.020 A 
ATOM     75  C   UNL A   1      44.979  20.951  24.810  1.00  0.00     0.054 A 
BRANCH  75  76
ATOM     76  S   UNL A   1      44.660  19.214  24.396  1.00  0.00     0.124 S 
ATOM     77  O   UNL A   1      43.239  19.085  24.713  1.00  0.00    -0.237 OA
ATOM     78  O   UNL A   1      44.994  19.157  22.975  1.00  0.00    -0.237 OA
ATOM     79  O   UNL A   1      45.562  18.475  25.276  1.00  0.00    -0.744 OA
ENDBRANCH  75  76
ENDBRANCH  56  70
BRANCH  57  80
ATOM     80  C   UNL A   1      46.925  33.131  28.181  1.00  0.00    -0.014 A 
ATOM     81  C   UNL A   1      47.148  33.400  29.543  1.00  0.00     0.010 A 
ATOM     82  C   UNL A   1      46.940  34.198  27.262  1.00  0.00     0.010 A 
ATOM     83  C   UNL A   1      47.379  34.710  29.975  1.00  0.00     0.020 A 
ATOM     84  C   UNL A   1      47.198  35.504  27.687  1.00  0.00     0.020 A 
ATOM     85  C   UNL A   1      47.409  35.752  29.045  1.00  0.00     0.054 A 
BRANCH  85  86
ATOM     86  S   UNL A   1      47.784  37.432  29.620  1.00  0.00     0.124 S 
ATOM     87  O   UNL A   1      46.453  37.967  29.884  1.00  0.00    -0.237 OA
ATOM     88  O   UNL A   1      48.613  37.182  30.798  1.00  0.00    -0.237 OA
ATOM     89  O   UNL A   1      48.489  38.032  28.490  1.00  0.00    -0.744 OA
ENDBRANCH  85  86
ENDBRANCH  57  80
BRANCH  69  90
ATOM     90  C   UNL A   1      51.145  28.040  25.909  1.00  0.00    -0.014 A 
ATOM     91  C   UNL A   1      51.724  28.443  24.694  1.00  0.00     0.010 A 
ATOM     92  C   UNL A   1      51.980  27.636  26.966  1.00  0.00     0.010 A 
ATOM     93  C   UNL A   1      53.113  28.433  24.536  1.00  0.00     0.020 A 
ATOM     94  C   UNL A   1      53.370  27.652  26.822  1.00  0.00     0.020 A 
ATOM     95  C   UNL A   1      53.928  28.044  25.603  1.00  0.00     0.054 A 
BRANCH  95  96
ATOM     96  S   UNL A   1      55.729  28.112  25.394  1.00  0.00     0.124 S 
ATOM     97  O   UNL A   1      56.083  29.293  26.178  1.00  0.00    -0.237 OA
ATOM     98  O   UNL A   1      56.164  26.833  25.951  1.00  0.00    -0.237 OA
ATOM     99  O   UNL A   1      55.906  28.249  23.950  1.00  0.00    -0.744 OA
ENDBRANCH  95  96
ENDBRANCH  69  90
ENDBRANCH  43  44
ENDBRANCH  36  38
ENDBRANCH  35  36
ENDBRANCH  34  35
ENDBRANCH  33  34
ENDBRANCH  32  33
ENDBRANCH  31  32
ENDBRANCH  30  31
ENDBRANCH   1  30
TORSDOF 26
ENDMDL
