MODEL 1
REMARK VINA RESULT:     -10.4      0.000      0.000
REMARK SMILES Cc1nc2nc(CNC(=O)OC(C)(C)C)nn2c(C)c1CCC(=O)OCCOCCOC(=O)c1ccc(-c2c3nc(c(-c4ccc(S(=O)(=O)[O-])cc4)c4ccc([nH]4)c(-c4ccc(S(=O)(=O)[O-])cc4)c4nc(c(-c5ccc(S(=O)(=O)[O-])cc5)c5ccc2[nH]5)C=C4)C=C3)cc1
REMARK SMILES IDX 26 1 25 2 23 3 24 4 22 5 21 6 20 7 1 8 2 9 3 10 4 11 18 12
REMARK SMILES IDX 5 13 17 14 19 15 6 16 16 17 7 18 8 19 9 20 10 22 11 23 12 24
REMARK SMILES IDX 13 25 14 26 15 27 27 28 28 29 29 30 30 31 31 32 32 33 33 34
REMARK SMILES IDX 34 35 35 36 93 37 36 38 92 39 37 40 38 41 39 42 86 43 40 44
REMARK SMILES IDX 91 45 85 46 87 47 41 48 90 49 84 50 83 51 42 53 72 54 53 55
REMARK SMILES IDX 71 56 54 57 57 58 70 59 88 60 55 61 56 62 69 64 89 65 58 66
REMARK SMILES IDX 43 67 44 68 52 69 45 70 51 71 46 72 47 73 48 74 49 75 50 76
REMARK SMILES IDX 73 77 74 78 82 79 75 80 81 81 76 82 77 83 78 84 79 85 80 86
REMARK SMILES IDX 59 87 60 88 68 89 61 90 67 91 62 92 63 93 64 94 65 95 66 96
REMARK H PARENT 8 21 87 52 57 63
REMARK Flexibility Score: inf
ROOT
ATOM      1  C   UNL A   1      41.295  19.076  26.135  1.00  0.00     0.261 C 
ENDROOT
BRANCH   1   2
ATOM      2  O   UNL A   1      41.398  20.468  25.712  1.00  0.00    -0.463 OA
BRANCH   2   3
ATOM      3  C   UNL A   1      40.882  21.463  26.466  1.00  0.00     0.306 C 
ATOM      4  O   UNL A   1      41.559  22.276  27.083  1.00  0.00    -0.252 OA
BRANCH   3   5
ATOM      5  C   UNL A   1      39.350  21.441  26.518  1.00  0.00     0.127 C 
BRANCH   5   6
ATOM      6  C   UNL A   1      38.513  22.168  25.431  1.00  0.00     0.051 C 
BRANCH   6   7
ATOM      7  C   UNL A   1      37.025  21.857  25.365  1.00  0.00    -0.005 A 
ATOM      8  C   UNL A   1      37.381  19.327  24.835  1.00  0.00     0.067 C 
ATOM      9  C   UNL A   1      36.426  20.488  25.019  1.00  0.00     0.046 A 
ATOM     10  N   UNL A   1      35.149  20.201  24.944  1.00  0.00    -0.216 NA
ATOM     11  C   UNL A   1      34.263  21.199  25.240  1.00  0.00     0.252 A 
ATOM     12  C   UNL A   1      36.072  22.720  25.752  1.00  0.00     0.048 A 
ATOM     13  N   UNL A   1      32.947  21.211  25.396  1.00  0.00    -0.192 NA
ATOM     14  N   UNL A   1      34.734  22.444  25.591  1.00  0.00    -0.201 N 
ATOM     15  C   UNL A   1      36.271  23.994  26.459  1.00  0.00     0.067 C 
ATOM     16  C   UNL A   1      32.679  22.505  25.793  1.00  0.00     0.172 A 
ATOM     17  N   UNL A   1      33.732  23.308  25.794  1.00  0.00    -0.148 NA
BRANCH  16  18
ATOM     18  C   UNL A   1      31.372  23.071  26.201  1.00  0.00     0.199 C 
BRANCH  18  19
ATOM     19  N   UNL A   1      31.591  24.322  26.893  1.00  0.00    -0.314 N 
ATOM     20  C   UNL A   1      31.297  25.530  26.354  1.00  0.00     0.408 C 
ATOM     21  H   UNL A   1      31.973  24.295  27.801  1.00  0.00     0.167 HD
ATOM     22  O   UNL A   1      31.588  26.578  26.908  1.00  0.00    -0.225 OA
BRANCH  20  23
ATOM     23  O   UNL A   1      30.695  25.386  25.156  1.00  0.00    -0.444 OA
BRANCH  23  24
ATOM     24  C   UNL A   1      31.214  26.012  23.965  1.00  0.00     0.106 C 
ATOM     25  C   UNL A   1      30.377  27.220  23.547  1.00  0.00     0.056 C 
ATOM     26  C   UNL A   1      32.690  26.359  24.175  1.00  0.00     0.056 C 
ATOM     27  C   UNL A   1      31.102  24.923  22.888  1.00  0.00     0.056 C 
ENDBRANCH  23  24
ENDBRANCH  20  23
ENDBRANCH  18  19
ENDBRANCH  16  18
ENDBRANCH   6   7
ENDBRANCH   5   6
ENDBRANCH   3   5
ENDBRANCH   2   3
ENDBRANCH   1   2
BRANCH   1  28
ATOM     28  C   UNL A   1      42.623  18.272  26.134  1.00  0.00     0.202 C 
BRANCH  28  29
ATOM     29  O   UNL A   1      43.805  19.069  26.150  1.00  0.00    -0.374 OA
BRANCH  29  30
ATOM     30  C   UNL A   1      44.890  18.633  25.339  1.00  0.00     0.202 C 
BRANCH  30  31
ATOM     31  C   UNL A   1      44.953  19.249  23.945  1.00  0.00     0.261 C 
BRANCH  31  32
ATOM     32  O   UNL A   1      44.637  20.638  23.966  1.00  0.00    -0.460 OA
BRANCH  32  33
ATOM     33  C   UNL A   1      45.562  21.488  24.479  1.00  0.00     0.338 C 
ATOM     34  O   UNL A   1      46.762  21.407  24.384  1.00  0.00    -0.246 OA
BRANCH  33  35
ATOM     35  C   UNL A   1      44.822  22.509  25.261  1.00  0.00     0.060 A 
ATOM     36  C   UNL A   1      43.922  23.344  24.596  1.00  0.00     0.016 A 
ATOM     37  C   UNL A   1      45.105  22.691  26.629  1.00  0.00     0.016 A 
ATOM     38  C   UNL A   1      43.459  24.472  25.252  1.00  0.00     0.010 A 
ATOM     39  C   UNL A   1      44.612  23.783  27.294  1.00  0.00     0.010 A 
ATOM     40  C   UNL A   1      43.893  24.715  26.561  1.00  0.00    -0.014 A 
BRANCH  40  41
ATOM     41  C   UNL A   1      43.647  25.996  27.178  1.00  0.00     0.031 A 
ATOM     42  C   UNL A   1      44.658  27.025  26.871  1.00  0.00     0.074 A 
ATOM     43  C   UNL A   1      42.511  26.231  27.864  1.00  0.00     0.049 A 
ATOM     44  N   UNL A   1      45.608  27.425  27.644  1.00  0.00    -0.248 NA
ATOM     45  C   UNL A   1      44.741  27.539  25.495  1.00  0.00     0.031 C 
ATOM     46  C   UNL A   1      41.318  25.386  27.995  1.00  0.00     0.029 A 
ATOM     47  N   UNL A   1      42.155  27.352  28.537  1.00  0.00    -0.354 N 
ATOM     48  C   UNL A   1      46.261  28.431  26.943  1.00  0.00     0.074 A 
ATOM     49  C   UNL A   1      45.834  28.301  25.573  1.00  0.00     0.031 C 
ATOM     50  C   UNL A   1      40.303  26.118  28.515  1.00  0.00     0.029 A 
ATOM     51  C   UNL A   1      40.815  27.423  28.895  1.00  0.00     0.049 A 
ATOM     52  H   UNL A   1      42.799  28.064  28.756  1.00  0.00     0.167 HD
ATOM     53  C   UNL A   1      46.880  29.453  27.596  1.00  0.00     0.031 A 
ATOM     54  C   UNL A   1      40.183  28.497  29.439  1.00  0.00     0.031 A 
ATOM     55  C   UNL A   1      47.027  29.168  29.004  1.00  0.00     0.049 A 
ATOM     56  C   UNL A   1      41.241  29.335  30.064  1.00  0.00     0.074 A 
ATOM     57  C   UNL A   1      47.666  28.183  29.732  1.00  0.00     0.029 A 
ATOM     58  N   UNL A   1      46.098  29.724  29.856  1.00  0.00    -0.354 N 
ATOM     59  N   UNL A   1      41.954  28.930  31.079  1.00  0.00    -0.248 NA
ATOM     60  C   UNL A   1      41.851  30.380  29.253  1.00  0.00     0.031 C 
ATOM     61  C   UNL A   1      46.769  27.874  30.798  1.00  0.00     0.029 A 
ATOM     62  C   UNL A   1      45.675  28.738  30.713  1.00  0.00     0.049 A 
ATOM     63  H   UNL A   1      45.792  30.660  29.852  1.00  0.00     0.167 HD
ATOM     64  C   UNL A   1      43.251  29.338  30.793  1.00  0.00     0.074 A 
ATOM     65  C   UNL A   1      43.110  30.300  29.698  1.00  0.00     0.031 C 
ATOM     66  C   UNL A   1      44.337  28.652  31.266  1.00  0.00     0.031 A 
BRANCH  53  67
ATOM     67  C   UNL A   1      46.969  30.856  27.052  1.00  0.00    -0.014 A 
ATOM     68  C   UNL A   1      48.209  31.523  27.106  1.00  0.00     0.010 A 
ATOM     69  C   UNL A   1      45.835  31.635  26.743  1.00  0.00     0.010 A 
ATOM     70  C   UNL A   1      48.294  32.910  26.939  1.00  0.00     0.020 A 
ATOM     71  C   UNL A   1      45.915  33.013  26.532  1.00  0.00     0.020 A 
ATOM     72  C   UNL A   1      47.140  33.648  26.669  1.00  0.00     0.054 A 
BRANCH  72  73
ATOM     73  S   UNL A   1      47.242  35.450  26.577  1.00  0.00     0.124 S 
ATOM     74  O   UNL A   1      45.930  35.798  26.044  1.00  0.00    -0.237 OA
ATOM     75  O   UNL A   1      47.480  35.816  27.971  1.00  0.00    -0.237 OA
ATOM     76  O   UNL A   1      48.367  35.684  25.675  1.00  0.00    -0.744 OA
ENDBRANCH  72  73
ENDBRANCH  53  67
BRANCH  54  77
ATOM     77  C   UNL A   1      38.813  28.993  29.140  1.00  0.00    -0.014 A 
ATOM     78  C   UNL A   1      37.837  29.137  30.146  1.00  0.00     0.010 A 
ATOM     79  C   UNL A   1      38.547  29.590  27.890  1.00  0.00     0.010 A 
ATOM     80  C   UNL A   1      36.662  29.881  29.919  1.00  0.00     0.020 A 
ATOM     81  C   UNL A   1      37.382  30.333  27.657  1.00  0.00     0.020 A 
ATOM     82  C   UNL A   1      36.450  30.490  28.679  1.00  0.00     0.054 A 
BRANCH  82  83
ATOM     83  S   UNL A   1      35.000  31.563  28.434  1.00  0.00     0.124 S 
ATOM     84  O   UNL A   1      34.711  32.015  29.792  1.00  0.00    -0.237 OA
ATOM     85  O   UNL A   1      35.510  32.586  27.524  1.00  0.00    -0.237 OA
ATOM     86  O   UNL A   1      34.000  30.667  27.854  1.00  0.00    -0.744 OA
ENDBRANCH  82  83
ENDBRANCH  54  77
BRANCH  66  87
ATOM     87  C   UNL A   1      44.108  27.555  32.287  1.00  0.00    -0.014 A 
ATOM     88  C   UNL A   1      44.071  26.182  31.963  1.00  0.00     0.010 A 
ATOM     89  C   UNL A   1      44.115  27.916  33.645  1.00  0.00     0.010 A 
ATOM     90  C   UNL A   1      44.028  25.204  32.971  1.00  0.00     0.020 A 
ATOM     91  C   UNL A   1      44.087  26.947  34.653  1.00  0.00     0.020 A 
ATOM     92  C   UNL A   1      44.041  25.595  34.313  1.00  0.00     0.054 A 
BRANCH  92  93
ATOM     93  S   UNL A   1      44.040  24.329  35.615  1.00  0.00     0.124 S 
ATOM     94  O   UNL A   1      43.064  24.852  36.568  1.00  0.00    -0.237 OA
ATOM     95  O   UNL A   1      43.632  23.124  34.895  1.00  0.00    -0.237 OA
ATOM     96  O   UNL A   1      45.422  24.317  36.092  1.00  0.00    -0.744 OA
ENDBRANCH  92  93
ENDBRANCH  66  87
ENDBRANCH  40  41
ENDBRANCH  33  35
ENDBRANCH  32  33
ENDBRANCH  31  32
ENDBRANCH  30  31
ENDBRANCH  29  30
ENDBRANCH  28  29
ENDBRANCH   1  28
TORSDOF 23
ENDMDL
MODEL 2
REMARK VINA RESULT:      -9.9      2.684      9.813
REMARK SMILES Cc1nc2nc(CNC(=O)OC(C)(C)C)nn2c(C)c1CCC(=O)OCCOCCOC(=O)c1ccc(-c2c3nc(c(-c4ccc(S(=O)(=O)[O-])cc4)c4ccc([nH]4)c(-c4ccc(S(=O)(=O)[O-])cc4)c4nc(c(-c5ccc(S(=O)(=O)[O-])cc5)c5ccc2[nH]5)C=C4)C=C3)cc1
REMARK SMILES IDX 26 1 25 2 23 3 24 4 22 5 21 6 20 7 1 8 2 9 3 10 4 11 18 12
REMARK SMILES IDX 5 13 17 14 19 15 6 16 16 17 7 18 8 19 9 20 10 22 11 23 12 24
REMARK SMILES IDX 13 25 14 26 15 27 27 28 28 29 29 30 30 31 31 32 32 33 33 34
REMARK SMILES IDX 34 35 35 36 93 37 36 38 92 39 37 40 38 41 39 42 86 43 40 44
REMARK SMILES IDX 91 45 85 46 87 47 41 48 90 49 84 50 83 51 42 53 72 54 53 55
REMARK SMILES IDX 71 56 54 57 57 58 70 59 88 60 55 61 56 62 69 64 89 65 58 66
REMARK SMILES IDX 43 67 44 68 52 69 45 70 51 71 46 72 47 73 48 74 49 75 50 76
REMARK SMILES IDX 73 77 74 78 82 79 75 80 81 81 76 82 77 83 78 84 79 85 80 86
REMARK SMILES IDX 59 87 60 88 68 89 61 90 67 91 62 92 63 93 64 94 65 95 66 96
REMARK H PARENT 8 21 87 52 57 63
REMARK Flexibility Score: inf
ROOT
ATOM      1  C   UNL A   1      31.179  28.882  25.724  1.00  0.00     0.261 C 
ENDROOT
BRANCH   1   2
ATOM      2  O   UNL A   1      30.859  27.658  24.999  1.00  0.00    -0.463 OA
BRANCH   2   3
ATOM      3  C   UNL A   1      30.858  27.631  23.649  1.00  0.00     0.306 C 
ATOM      4  O   UNL A   1      29.949  27.162  22.974  1.00  0.00    -0.252 OA
BRANCH   3   5
ATOM      5  C   UNL A   1      32.143  28.201  23.038  1.00  0.00     0.127 C 
BRANCH   5   6
ATOM      6  C   UNL A   1      33.500  27.470  23.227  1.00  0.00     0.051 C 
BRANCH   6   7
ATOM      7  C   UNL A   1      33.491  25.949  23.174  1.00  0.00    -0.005 A 
ATOM      8  C   UNL A   1      32.776  25.847  20.667  1.00  0.00     0.067 C 
ATOM      9  C   UNL A   1      33.087  25.112  21.954  1.00  0.00     0.046 A 
ATOM     10  N   UNL A   1      33.060  23.803  21.892  1.00  0.00    -0.216 NA
ATOM     11  C   UNL A   1      33.467  23.113  22.999  1.00  0.00     0.252 A 
ATOM     12  C   UNL A   1      33.983  25.173  24.154  1.00  0.00     0.048 A 
ATOM     13  N   UNL A   1      33.692  21.825  23.219  1.00  0.00    -0.192 NA
ATOM     14  N   UNL A   1      33.875  23.803  24.117  1.00  0.00    -0.201 N 
ATOM     15  C   UNL A   1      34.762  25.616  25.320  1.00  0.00     0.067 C 
ATOM     16  C   UNL A   1      34.188  21.798  24.506  1.00  0.00     0.172 A 
ATOM     17  N   UNL A   1      34.187  22.971  25.119  1.00  0.00    -0.148 NA
BRANCH  16  18
ATOM     18  C   UNL A   1      34.701  20.624  25.251  1.00  0.00     0.199 C 
BRANCH  18  19
ATOM     19  N   UNL A   1      33.601  19.974  25.929  1.00  0.00    -0.314 N 
ATOM     20  C   UNL A   1      33.183  18.720  25.631  1.00  0.00     0.408 C 
ATOM     21  H   UNL A   1      33.134  20.466  26.643  1.00  0.00     0.167 HD
ATOM     22  O   UNL A   1      32.187  18.228  26.138  1.00  0.00    -0.225 OA
BRANCH  20  23
ATOM     23  O   UNL A   1      33.986  18.154  24.708  1.00  0.00    -0.444 OA
BRANCH  23  24
ATOM     24  C   UNL A   1      33.489  17.194  23.754  1.00  0.00     0.106 C 
ATOM     25  C   UNL A   1      32.902  15.961  24.439  1.00  0.00     0.056 C 
ATOM     26  C   UNL A   1      32.490  17.880  22.817  1.00  0.00     0.056 C 
ATOM     27  C   UNL A   1      34.731  16.782  22.950  1.00  0.00     0.056 C 
ENDBRANCH  23  24
ENDBRANCH  20  23
ENDBRANCH  18  19
ENDBRANCH  16  18
ENDBRANCH   6   7
ENDBRANCH   5   6
ENDBRANCH   3   5
ENDBRANCH   2   3
ENDBRANCH   1   2
BRANCH   1  28
ATOM     28  C   UNL A   1      32.314  28.764  26.776  1.00  0.00     0.202 C 
BRANCH  28  29
ATOM     29  O   UNL A   1      32.609  29.971  27.475  1.00  0.00    -0.374 OA
BRANCH  29  30
ATOM     30  C   UNL A   1      33.791  30.667  27.094  1.00  0.00     0.202 C 
BRANCH  30  31
ATOM     31  C   UNL A   1      34.178  31.839  27.989  1.00  0.00     0.261 C 
BRANCH  31  32
ATOM     32  O   UNL A   1      35.435  31.625  28.625  1.00  0.00    -0.460 OA
BRANCH  32  33
ATOM     33  C   UNL A   1      35.520  31.880  29.955  1.00  0.00     0.338 C 
ATOM     34  O   UNL A   1      34.849  32.651  30.597  1.00  0.00    -0.246 OA
BRANCH  33  35
ATOM     35  C   UNL A   1      36.662  31.086  30.474  1.00  0.00     0.060 A 
ATOM     36  C   UNL A   1      37.855  31.743  30.779  1.00  0.00     0.016 A 
ATOM     37  C   UNL A   1      36.564  29.683  30.556  1.00  0.00     0.016 A 
ATOM     38  C   UNL A   1      38.995  30.983  30.977  1.00  0.00     0.010 A 
ATOM     39  C   UNL A   1      37.683  28.929  30.795  1.00  0.00     0.010 A 
ATOM     40  C   UNL A   1      38.899  29.589  30.886  1.00  0.00    -0.014 A 
BRANCH  40  41
ATOM     41  C   UNL A   1      40.095  28.785  30.826  1.00  0.00     0.031 A 
ATOM     42  C   UNL A   1      40.777  28.606  32.122  1.00  0.00     0.074 A 
ATOM     43  C   UNL A   1      40.457  28.160  29.688  1.00  0.00     0.049 A 
ATOM     44  N   UNL A   1      41.838  29.216  32.524  1.00  0.00    -0.248 NA
ATOM     45  C   UNL A   1      40.113  27.801  33.158  1.00  0.00     0.031 C 
ATOM     46  C   UNL A   1      39.717  28.034  28.426  1.00  0.00     0.029 A 
ATOM     47  N   UNL A   1      41.567  27.418  29.455  1.00  0.00    -0.354 N 
ATOM     48  C   UNL A   1      42.124  28.683  33.773  1.00  0.00     0.074 A 
ATOM     49  C   UNL A   1      40.929  27.998  34.196  1.00  0.00     0.031 C 
ATOM     50  C   UNL A   1      40.300  27.085  27.655  1.00  0.00     0.029 A 
ATOM     51  C   UNL A   1      41.532  26.656  28.294  1.00  0.00     0.049 A 
ATOM     52  H   UNL A   1      42.340  27.417  30.065  1.00  0.00     0.167 HD
ATOM     53  C   UNL A   1      43.405  28.616  34.231  1.00  0.00     0.031 A 
ATOM     54  C   UNL A   1      42.446  25.724  27.916  1.00  0.00     0.031 A 
ATOM     55  C   UNL A   1      44.296  29.420  33.429  1.00  0.00     0.049 A 
ATOM     56  C   UNL A   1      43.703  26.047  28.643  1.00  0.00     0.074 A 
ATOM     57  C   UNL A   1      44.372  30.765  33.118  1.00  0.00     0.029 A 
ATOM     58  N   UNL A   1      45.034  28.769  32.466  1.00  0.00    -0.354 N 
ATOM     59  N   UNL A   1      44.374  27.148  28.437  1.00  0.00    -0.248 NA
ATOM     60  C   UNL A   1      43.922  25.420  29.939  1.00  0.00     0.031 C 
ATOM     61  C   UNL A   1      44.730  30.802  31.738  1.00  0.00     0.029 A 
ATOM     62  C   UNL A   1      44.933  29.491  31.302  1.00  0.00     0.049 A 
ATOM     63  H   UNL A   1      45.542  27.934  32.589  1.00  0.00     0.167 HD
ATOM     64  C   UNL A   1      44.752  27.582  29.701  1.00  0.00     0.074 A 
ATOM     65  C   UNL A   1      44.519  26.432  30.579  1.00  0.00     0.031 C 
ATOM     66  C   UNL A   1      44.944  28.909  29.974  1.00  0.00     0.031 A 
BRANCH  53  67
ATOM     67  C   UNL A   1      43.913  27.513  35.124  1.00  0.00    -0.014 A 
ATOM     68  C   UNL A   1      44.688  27.858  36.249  1.00  0.00     0.010 A 
ATOM     69  C   UNL A   1      43.889  26.151  34.757  1.00  0.00     0.010 A 
ATOM     70  C   UNL A   1      45.462  26.903  36.918  1.00  0.00     0.020 A 
ATOM     71  C   UNL A   1      44.623  25.183  35.444  1.00  0.00     0.020 A 
ATOM     72  C   UNL A   1      45.435  25.572  36.498  1.00  0.00     0.054 A 
BRANCH  72  73
ATOM     73  S   UNL A   1      46.530  24.371  37.291  1.00  0.00     0.124 S 
ATOM     74  O   UNL A   1      46.595  23.316  36.286  1.00  0.00    -0.237 OA
ATOM     75  O   UNL A   1      47.752  25.148  37.478  1.00  0.00    -0.237 OA
ATOM     76  O   UNL A   1      45.823  24.023  38.521  1.00  0.00    -0.744 OA
ENDBRANCH  72  73
ENDBRANCH  53  67
BRANCH  54  77
ATOM     77  C   UNL A   1      42.191  24.411  27.265  1.00  0.00    -0.014 A 
ATOM     78  C   UNL A   1      43.023  23.910  26.245  1.00  0.00     0.010 A 
ATOM     79  C   UNL A   1      41.269  23.515  27.846  1.00  0.00     0.010 A 
ATOM     80  C   UNL A   1      42.961  22.558  25.851  1.00  0.00     0.020 A 
ATOM     81  C   UNL A   1      41.201  22.169  27.462  1.00  0.00     0.020 A 
ATOM     82  C   UNL A   1      42.060  21.691  26.476  1.00  0.00     0.054 A 
BRANCH  82  83
ATOM     83  S   UNL A   1      42.076  19.918  26.062  1.00  0.00     0.124 S 
ATOM     84  O   UNL A   1      42.351  19.297  27.355  1.00  0.00    -0.237 OA
ATOM     85  O   UNL A   1      40.732  19.702  25.533  1.00  0.00    -0.237 OA
ATOM     86  O   UNL A   1      43.152  19.802  25.079  1.00  0.00    -0.744 OA
ENDBRANCH  82  83
ENDBRANCH  54  77
BRANCH  66  87
ATOM     87  C   UNL A   1      44.943  29.890  28.818  1.00  0.00    -0.014 A 
ATOM     88  C   UNL A   1      43.769  30.337  28.174  1.00  0.00     0.010 A 
ATOM     89  C   UNL A   1      46.157  30.520  28.496  1.00  0.00     0.010 A 
ATOM     90  C   UNL A   1      43.816  31.374  27.226  1.00  0.00     0.020 A 
ATOM     91  C   UNL A   1      46.208  31.562  27.565  1.00  0.00     0.020 A 
ATOM     92  C   UNL A   1      45.039  31.983  26.931  1.00  0.00     0.054 A 
BRANCH  92  93
ATOM     93  S   UNL A   1      45.091  33.359  25.746  1.00  0.00     0.124 S 
ATOM     94  O   UNL A   1      46.512  33.694  25.707  1.00  0.00    -0.237 OA
ATOM     95  O   UNL A   1      44.553  32.758  24.528  1.00  0.00    -0.237 OA
ATOM     96  O   UNL A   1      44.234  34.376  26.355  1.00  0.00    -0.744 OA
ENDBRANCH  92  93
ENDBRANCH  66  87
ENDBRANCH  40  41
ENDBRANCH  33  35
ENDBRANCH  32  33
ENDBRANCH  31  32
ENDBRANCH  30  31
ENDBRANCH  29  30
ENDBRANCH  28  29
ENDBRANCH   1  28
TORSDOF 23
ENDMDL
MODEL 3
REMARK VINA RESULT:      -9.8      4.114      9.577
REMARK SMILES Cc1nc2nc(CNC(=O)OC(C)(C)C)nn2c(C)c1CCC(=O)OCCOCCOC(=O)c1ccc(-c2c3nc(c(-c4ccc(S(=O)(=O)[O-])cc4)c4ccc([nH]4)c(-c4ccc(S(=O)(=O)[O-])cc4)c4nc(c(-c5ccc(S(=O)(=O)[O-])cc5)c5ccc2[nH]5)C=C4)C=C3)cc1
REMARK SMILES IDX 26 1 25 2 23 3 24 4 22 5 21 6 20 7 1 8 2 9 3 10 4 11 18 12
REMARK SMILES IDX 5 13 17 14 19 15 6 16 16 17 7 18 8 19 9 20 10 22 11 23 12 24
REMARK SMILES IDX 13 25 14 26 15 27 27 28 28 29 29 30 30 31 31 32 32 33 33 34
REMARK SMILES IDX 34 35 35 36 93 37 36 38 92 39 37 40 38 41 39 42 86 43 40 44
REMARK SMILES IDX 91 45 85 46 87 47 41 48 90 49 84 50 83 51 42 53 72 54 53 55
REMARK SMILES IDX 71 56 54 57 57 58 70 59 88 60 55 61 56 62 69 64 89 65 58 66
REMARK SMILES IDX 43 67 44 68 52 69 45 70 51 71 46 72 47 73 48 74 49 75 50 76
REMARK SMILES IDX 73 77 74 78 82 79 75 80 81 81 76 82 77 83 78 84 79 85 80 86
REMARK SMILES IDX 59 87 60 88 68 89 61 90 67 91 62 92 63 93 64 94 65 95 66 96
REMARK H PARENT 8 21 87 52 57 63
REMARK Flexibility Score: inf
ROOT
ATOM      1  C   UNL A   1      33.667  24.869  24.840  1.00  0.00     0.261 C 
ENDROOT
BRANCH   1   2
ATOM      2  O   UNL A   1      34.309  23.571  24.669  1.00  0.00    -0.463 OA
BRANCH   2   3
ATOM      3  C   UNL A   1      35.178  23.354  23.657  1.00  0.00     0.306 C 
ATOM      4  O   UNL A   1      34.853  23.293  22.478  1.00  0.00    -0.252 OA
BRANCH   3   5
ATOM      5  C   UNL A   1      36.616  23.135  24.141  1.00  0.00     0.127 C 
BRANCH   5   6
ATOM      6  C   UNL A   1      36.972  23.271  25.646  1.00  0.00     0.051 C 
BRANCH   6   7
ATOM      7  C   UNL A   1      38.375  22.869  26.075  1.00  0.00    -0.005 A 
ATOM      8  C   UNL A   1      38.781  25.039  27.466  1.00  0.00     0.067 C 
ATOM      9  C   UNL A   1      39.319  23.732  26.921  1.00  0.00     0.046 A 
ATOM     10  N   UNL A   1      40.535  23.411  27.291  1.00  0.00    -0.216 NA
ATOM     11  C   UNL A   1      40.997  22.177  26.927  1.00  0.00     0.252 A 
ATOM     12  C   UNL A   1      38.884  21.641  25.880  1.00  0.00     0.048 A 
ATOM     13  N   UNL A   1      42.091  21.500  27.246  1.00  0.00    -0.192 NA
ATOM     14  N   UNL A   1      40.188  21.338  26.195  1.00  0.00    -0.201 N 
ATOM     15  C   UNL A   1      38.158  20.451  25.414  1.00  0.00     0.067 C 
ATOM     16  C   UNL A   1      41.906  20.278  26.634  1.00  0.00     0.172 A 
ATOM     17  N   UNL A   1      40.818  20.199  25.883  1.00  0.00    -0.148 NA
BRANCH  16  18
ATOM     18  C   UNL A   1      42.775  19.082  26.726  1.00  0.00     0.199 C 
BRANCH  18  19
ATOM     19  N   UNL A   1      43.103  18.628  25.393  1.00  0.00    -0.314 N 
ATOM     20  C   UNL A   1      44.184  19.069  24.704  1.00  0.00     0.408 C 
ATOM     21  H   UNL A   1      42.513  17.967  24.965  1.00  0.00     0.167 HD
ATOM     22  O   UNL A   1      44.385  18.757  23.540  1.00  0.00    -0.225 OA
BRANCH  20  23
ATOM     23  O   UNL A   1      44.936  19.889  25.465  1.00  0.00    -0.444 OA
BRANCH  23  24
ATOM     24  C   UNL A   1      45.310  21.208  25.020  1.00  0.00     0.106 C 
ATOM     25  C   UNL A   1      44.316  21.769  24.004  1.00  0.00     0.056 C 
ATOM     26  C   UNL A   1      45.491  22.122  26.236  1.00  0.00     0.056 C 
ATOM     27  C   UNL A   1      46.670  21.005  24.337  1.00  0.00     0.056 C 
ENDBRANCH  23  24
ENDBRANCH  20  23
ENDBRANCH  18  19
ENDBRANCH  16  18
ENDBRANCH   6   7
ENDBRANCH   5   6
ENDBRANCH   3   5
ENDBRANCH   2   3
ENDBRANCH   1   2
BRANCH   1  28
ATOM     28  C   UNL A   1      32.139  24.834  25.111  1.00  0.00     0.202 C 
BRANCH  28  29
ATOM     29  O   UNL A   1      31.671  25.820  26.028  1.00  0.00    -0.374 OA
BRANCH  29  30
ATOM     30  C   UNL A   1      32.583  26.852  26.389  1.00  0.00     0.202 C 
BRANCH  30  31
ATOM     31  C   UNL A   1      31.944  28.177  26.793  1.00  0.00     0.261 C 
BRANCH  31  32
ATOM     32  O   UNL A   1      32.838  28.982  27.557  1.00  0.00    -0.460 OA
BRANCH  32  33
ATOM     33  C   UNL A   1      33.380  30.070  26.953  1.00  0.00     0.338 C 
ATOM     34  O   UNL A   1      33.038  30.575  25.912  1.00  0.00    -0.246 OA
BRANCH  33  35
ATOM     35  C   UNL A   1      34.541  30.487  27.778  1.00  0.00     0.060 A 
ATOM     36  C   UNL A   1      35.059  31.773  27.611  1.00  0.00     0.016 A 
ATOM     37  C   UNL A   1      35.163  29.560  28.638  1.00  0.00     0.016 A 
ATOM     38  C   UNL A   1      36.301  32.059  28.152  1.00  0.00     0.010 A 
ATOM     39  C   UNL A   1      36.372  29.858  29.210  1.00  0.00     0.010 A 
ATOM     40  C   UNL A   1      36.973  31.057  28.863  1.00  0.00    -0.014 A 
BRANCH  40  41
ATOM     41  C   UNL A   1      38.362  31.229  29.213  1.00  0.00     0.031 A 
ATOM     42  C   UNL A   1      39.184  30.013  29.058  1.00  0.00     0.074 A 
ATOM     43  C   UNL A   1      38.857  32.442  29.526  1.00  0.00     0.049 A 
ATOM     44  N   UNL A   1      39.587  29.232  30.000  1.00  0.00    -0.248 NA
ATOM     45  C   UNL A   1      39.437  29.505  27.702  1.00  0.00     0.031 C 
ATOM     46  C   UNL A   1      38.208  33.756  29.439  1.00  0.00     0.029 A 
ATOM     47  N   UNL A   1      40.114  32.759  29.921  1.00  0.00    -0.354 N 
ATOM     48  C   UNL A   1      40.363  28.264  29.377  1.00  0.00     0.074 A 
ATOM     49  C   UNL A   1      40.054  28.352  27.972  1.00  0.00     0.031 C 
ATOM     50  C   UNL A   1      39.143  34.729  29.560  1.00  0.00     0.029 A 
ATOM     51  C   UNL A   1      40.417  34.114  29.888  1.00  0.00     0.049 A 
ATOM     52  H   UNL A   1      40.764  32.079  30.210  1.00  0.00     0.167 HD
ATOM     53  C   UNL A   1      41.395  27.663  30.031  1.00  0.00     0.031 A 
ATOM     54  C   UNL A   1      41.641  34.670  30.091  1.00  0.00     0.031 A 
ATOM     55  C   UNL A   1      41.342  27.922  31.451  1.00  0.00     0.049 A 
ATOM     56  C   UNL A   1      42.432  33.674  30.863  1.00  0.00     0.074 A 
ATOM     57  C   UNL A   1      40.424  27.660  32.450  1.00  0.00     0.029 A 
ATOM     58  N   UNL A   1      42.152  28.925  31.936  1.00  0.00    -0.354 N 
ATOM     59  N   UNL A   1      42.121  33.315  32.079  1.00  0.00    -0.248 NA
ATOM     60  C   UNL A   1      43.234  32.714  30.118  1.00  0.00     0.031 C 
ATOM     61  C   UNL A   1      40.422  28.833  33.262  1.00  0.00     0.029 A 
ATOM     62  C   UNL A   1      41.392  29.709  32.768  1.00  0.00     0.049 A 
ATOM     63  H   UNL A   1      43.104  29.057  31.723  1.00  0.00     0.167 HD
ATOM     64  C   UNL A   1      42.303  31.938  32.105  1.00  0.00     0.074 A 
ATOM     65  C   UNL A   1      43.071  31.637  30.894  1.00  0.00     0.031 C 
ATOM     66  C   UNL A   1      41.576  31.137  32.943  1.00  0.00     0.031 A 
BRANCH  53  67
ATOM     67  C   UNL A   1      42.659  27.205  29.350  1.00  0.00    -0.014 A 
ATOM     68  C   UNL A   1      43.499  28.173  28.764  1.00  0.00     0.010 A 
ATOM     69  C   UNL A   1      42.917  25.856  29.029  1.00  0.00     0.010 A 
ATOM     70  C   UNL A   1      44.489  27.812  27.843  1.00  0.00     0.020 A 
ATOM     71  C   UNL A   1      43.929  25.482  28.145  1.00  0.00     0.020 A 
ATOM     72  C   UNL A   1      44.686  26.467  27.527  1.00  0.00     0.054 A 
BRANCH  72  73
ATOM     73  S   UNL A   1      45.882  26.023  26.248  1.00  0.00     0.124 S 
ATOM     74  O   UNL A   1      46.747  25.087  26.958  1.00  0.00    -0.237 OA
ATOM     75  O   UNL A   1      45.027  25.441  25.217  1.00  0.00    -0.237 OA
ATOM     76  O   UNL A   1      46.496  27.300  25.894  1.00  0.00    -0.744 OA
ENDBRANCH  72  73
ENDBRANCH  53  67
BRANCH  54  77
ATOM     77  C   UNL A   1      42.250  35.818  29.368  1.00  0.00    -0.014 A 
ATOM     78  C   UNL A   1      41.616  36.425  28.266  1.00  0.00     0.010 A 
ATOM     79  C   UNL A   1      43.345  36.499  29.941  1.00  0.00     0.010 A 
ATOM     80  C   UNL A   1      42.038  37.682  27.785  1.00  0.00     0.020 A 
ATOM     81  C   UNL A   1      43.769  37.748  29.470  1.00  0.00     0.020 A 
ATOM     82  C   UNL A   1      43.103  38.344  28.402  1.00  0.00     0.054 A 
BRANCH  82  83
ATOM     83  S   UNL A   1      43.556  40.024  27.866  1.00  0.00     0.124 S 
ATOM     84  O   UNL A   1      44.925  40.151  28.360  1.00  0.00    -0.237 OA
ATOM     85  O   UNL A   1      43.415  39.944  26.415  1.00  0.00    -0.237 OA
ATOM     86  O   UNL A   1      42.576  40.876  28.536  1.00  0.00    -0.744 OA
ENDBRANCH  82  83
ENDBRANCH  54  77
BRANCH  66  87
ATOM     87  C   UNL A   1      40.711  31.796  34.000  1.00  0.00    -0.014 A 
ATOM     88  C   UNL A   1      39.366  32.165  33.788  1.00  0.00     0.010 A 
ATOM     89  C   UNL A   1      41.222  31.872  35.306  1.00  0.00     0.010 A 
ATOM     90  C   UNL A   1      38.564  32.613  34.853  1.00  0.00     0.020 A 
ATOM     91  C   UNL A   1      40.426  32.302  36.372  1.00  0.00     0.020 A 
ATOM     92  C   UNL A   1      39.102  32.673  36.142  1.00  0.00     0.054 A 
BRANCH  92  93
ATOM     93  S   UNL A   1      38.050  33.200  37.526  1.00  0.00     0.124 S 
ATOM     94  O   UNL A   1      38.571  34.529  37.836  1.00  0.00    -0.237 OA
ATOM     95  O   UNL A   1      36.710  33.170  36.944  1.00  0.00    -0.237 OA
ATOM     96  O   UNL A   1      38.292  32.187  38.553  1.00  0.00    -0.744 OA
ENDBRANCH  92  93
ENDBRANCH  66  87
ENDBRANCH  40  41
ENDBRANCH  33  35
ENDBRANCH  32  33
ENDBRANCH  31  32
ENDBRANCH  30  31
ENDBRANCH  29  30
ENDBRANCH  28  29
ENDBRANCH   1  28
TORSDOF 23
ENDMDL
