MODEL 1
REMARK VINA RESULT:     -12.1      0.000      0.000
REMARK SMILES Cc1nc(-c2ccccc2Cl)nc2sc(C(=O)OCCOCCOC(=O)c3ccc(-c4c5nc(c(-c6ccc(S(=O)(=O)[O-])cc6)c6ccc([nH]6)c(-c6ccc(S(=O)(=O)[O-])cc6)c6nc(c(-c7ccc(S(=O)(=O)[O-])cc7)c7ccc4[nH]7)C=C6)C=C5)cc3)c(N)c12
REMARK SMILES IDX 22 1 21 2 20 3 19 4 18 5 16 6 17 7 15 8 1 9 2 10 3 11 89 12
REMARK SMILES IDX 4 13 13 14 87 15 12 16 14 17 5 18 6 19 10 20 7 21 9 22 11 23
REMARK SMILES IDX 8 24 88 25 23 28 24 29 25 30 26 31 27 32 28 33 86 34 29 35
REMARK SMILES IDX 85 36 30 37 31 38 32 39 79 40 33 41 84 42 78 43 80 44 34 45
REMARK SMILES IDX 83 46 77 47 76 48 35 50 65 51 46 52 64 53 47 54 50 55 63 56
REMARK SMILES IDX 81 57 48 58 49 59 62 61 82 62 51 63 36 64 37 65 45 66 38 67
REMARK SMILES IDX 44 68 39 69 40 70 41 71 42 72 43 73 66 74 67 75 75 76 68 77
REMARK SMILES IDX 74 78 69 79 70 80 71 81 72 82 73 83 52 84 53 85 61 86 54 87
REMARK SMILES IDX 60 88 55 89 56 90 57 91 58 92 59 93
REMARK H PARENT 88 26 88 27 80 49 50 60
REMARK Flexibility Score: inf
ROOT
ATOM      1  C   UNL A   1      41.126  20.095  26.110  1.00  0.00     0.202 C 
ENDROOT
BRANCH   1   2
ATOM      2  O   UNL A   1      39.705  20.171  26.103  1.00  0.00    -0.374 OA
BRANCH   2   3
ATOM      3  C   UNL A   1      39.069  21.409  25.776  1.00  0.00     0.202 C 
BRANCH   3   4
ATOM      4  C   UNL A   1      37.739  21.325  25.027  1.00  0.00     0.261 C 
BRANCH   4   5
ATOM      5  O   UNL A   1      36.629  21.212  25.929  1.00  0.00    -0.459 OA
BRANCH   5   6
ATOM      6  C   UNL A   1      35.397  21.105  25.357  1.00  0.00     0.350 C 
ATOM      7  O   UNL A   1      35.005  20.120  24.732  1.00  0.00    -0.245 OA
BRANCH   6   8
ATOM      8  C   UNL A   1      34.564  22.237  25.707  1.00  0.00     0.138 A 
ATOM      9  C   UNL A   1      30.148  23.342  26.852  1.00  0.00     0.067 C 
ATOM     10  C   UNL A   1      31.409  24.096  26.557  1.00  0.00     0.052 A 
ATOM     11  N   UNL A   1      31.254  25.454  26.517  1.00  0.00    -0.233 NA
ATOM     12  C   UNL A   1      32.684  23.552  26.272  1.00  0.00     0.057 A 
ATOM     13  C   UNL A   1      32.310  26.242  26.255  1.00  0.00     0.162 A 
ATOM     14  C   UNL A   1      33.670  24.490  26.000  1.00  0.00     0.130 A 
ATOM     15  C   UNL A   1      33.250  22.227  26.154  1.00  0.00     0.069 A 
ATOM     16  N   UNL A   1      33.543  25.819  25.985  1.00  0.00    -0.217 NA
ATOM     17  S   UNL A   1      35.177  23.822  25.612  1.00  0.00    -0.106 S 
BRANCH  13  18
ATOM     18  C   UNL A   1      32.104  27.683  26.093  1.00  0.00     0.038 A 
ATOM     19  C   UNL A   1      32.424  28.531  27.179  1.00  0.00     0.013 A 
ATOM     20  C   UNL A   1      31.540  28.273  24.952  1.00  0.00     0.052 A 
ATOM     21  C   UNL A   1      32.177  29.903  27.140  1.00  0.00     0.001 A 
ATOM     22  C   UNL A   1      31.288  29.652  24.916  1.00  0.00     0.021 A 
ATOM     23  Cl  UNL A   1      31.065  27.351  23.566  1.00  0.00    -0.084 Cl
ATOM     24  C   UNL A   1      31.600  30.463  26.007  1.00  0.00     0.002 A 
ENDBRANCH  13  18
BRANCH  15  25
ATOM     25  N   UNL A   1      32.605  21.069  26.425  1.00  0.00    -0.397 N 
ATOM     26  H   UNL A   1      31.711  20.903  26.045  1.00  0.00     0.156 HD
ATOM     27  H   UNL A   1      33.027  20.392  27.002  1.00  0.00     0.156 HD
ENDBRANCH  15  25
ENDBRANCH   6   8
ENDBRANCH   5   6
ENDBRANCH   4   5
ENDBRANCH   3   4
ENDBRANCH   2   3
ENDBRANCH   1   2
BRANCH   1  28
ATOM     28  C   UNL A   1      41.903  21.071  26.979  1.00  0.00     0.261 C 
BRANCH  28  29
ATOM     29  O   UNL A   1      43.013  21.615  26.288  1.00  0.00    -0.460 OA
BRANCH  29  30
ATOM     30  C   UNL A   1      42.761  22.795  25.687  1.00  0.00     0.338 C 
ATOM     31  O   UNL A   1      43.144  23.159  24.578  1.00  0.00    -0.246 OA
BRANCH  30  32
ATOM     32  C   UNL A   1      42.055  23.653  26.633  1.00  0.00     0.060 A 
ATOM     33  C   UNL A   1      41.248  24.657  26.092  1.00  0.00     0.016 A 
ATOM     34  C   UNL A   1      42.471  23.659  27.973  1.00  0.00     0.016 A 
ATOM     35  C   UNL A   1      41.067  25.802  26.828  1.00  0.00     0.010 A 
ATOM     36  C   UNL A   1      42.316  24.811  28.691  1.00  0.00     0.010 A 
ATOM     37  C   UNL A   1      41.703  25.893  28.068  1.00  0.00    -0.014 A 
BRANCH  37  38
ATOM     38  C   UNL A   1      41.694  27.156  28.760  1.00  0.00     0.031 A 
ATOM     39  C   UNL A   1      42.894  27.962  28.469  1.00  0.00     0.074 A 
ATOM     40  C   UNL A   1      40.615  27.566  29.451  1.00  0.00     0.049 A 
ATOM     41  N   UNL A   1      43.897  28.184  29.250  1.00  0.00    -0.248 NA
ATOM     42  C   UNL A   1      43.115  28.370  27.069  1.00  0.00     0.031 C 
ATOM     43  C   UNL A   1      39.285  26.951  29.518  1.00  0.00     0.029 A 
ATOM     44  N   UNL A   1      40.451  28.710  30.152  1.00  0.00    -0.354 N 
ATOM     45  C   UNL A   1      44.766  28.963  28.500  1.00  0.00     0.074 A 
ATOM     46  C   UNL A   1      44.372  28.803  27.126  1.00  0.00     0.031 C 
ATOM     47  C   UNL A   1      38.404  27.859  30.001  1.00  0.00     0.029 A 
ATOM     48  C   UNL A   1      39.128  29.061  30.385  1.00  0.00     0.049 A 
ATOM     49  H   UNL A   1      41.209  29.252  30.471  1.00  0.00     0.167 HD
ATOM     50  C   UNL A   1      45.532  29.930  29.075  1.00  0.00     0.031 A 
ATOM     51  C   UNL A   1      38.683  30.288  30.764  1.00  0.00     0.031 A 
ATOM     52  C   UNL A   1      45.582  29.786  30.507  1.00  0.00     0.049 A 
ATOM     53  C   UNL A   1      39.858  31.013  31.328  1.00  0.00     0.074 A 
ATOM     54  C   UNL A   1      46.014  28.787  31.356  1.00  0.00     0.029 A 
ATOM     55  N   UNL A   1      44.732  30.579  31.247  1.00  0.00    -0.354 N 
ATOM     56  N   UNL A   1      40.484  30.624  32.409  1.00  0.00    -0.248 NA
ATOM     57  C   UNL A   1      40.650  31.834  30.421  1.00  0.00     0.031 C 
ATOM     58  C   UNL A   1      45.049  28.754  32.404  1.00  0.00     0.029 A 
ATOM     59  C   UNL A   1      44.127  29.782  32.187  1.00  0.00     0.049 A 
ATOM     60  H   UNL A   1      44.584  31.544  31.122  1.00  0.00     0.167 HD
ATOM     61  C   UNL A   1      41.835  30.781  32.124  1.00  0.00     0.074 A 
ATOM     62  C   UNL A   1      41.872  31.604  30.914  1.00  0.00     0.031 C 
ATOM     63  C   UNL A   1      42.787  29.990  32.707  1.00  0.00     0.031 A 
BRANCH  50  64
ATOM     64  C   UNL A   1      45.877  31.214  28.371  1.00  0.00    -0.014 A 
ATOM     65  C   UNL A   1      44.869  32.169  28.157  1.00  0.00     0.010 A 
ATOM     66  C   UNL A   1      47.103  31.416  27.698  1.00  0.00     0.010 A 
ATOM     67  C   UNL A   1      45.069  33.247  27.284  1.00  0.00     0.020 A 
ATOM     68  C   UNL A   1      47.331  32.511  26.868  1.00  0.00     0.020 A 
ATOM     69  C   UNL A   1      46.299  33.406  26.643  1.00  0.00     0.054 A 
BRANCH  69  70
ATOM     70  S   UNL A   1      46.521  34.752  25.457  1.00  0.00     0.124 S 
ATOM     71  O   UNL A   1      47.910  34.568  25.050  1.00  0.00    -0.237 OA
ATOM     72  O   UNL A   1      45.513  34.440  24.447  1.00  0.00    -0.237 OA
ATOM     73  O   UNL A   1      46.254  35.952  26.247  1.00  0.00    -0.744 OA
ENDBRANCH  69  70
ENDBRANCH  50  64
BRANCH  51  74
ATOM     74  C   UNL A   1      37.446  30.965  30.278  1.00  0.00    -0.014 A 
ATOM     75  C   UNL A   1      36.453  31.439  31.158  1.00  0.00     0.010 A 
ATOM     76  C   UNL A   1      37.351  31.369  28.927  1.00  0.00     0.010 A 
ATOM     77  C   UNL A   1      35.430  32.302  30.708  1.00  0.00     0.020 A 
ATOM     78  C   UNL A   1      36.336  32.219  28.470  1.00  0.00     0.020 A 
ATOM     79  C   UNL A   1      35.387  32.697  29.367  1.00  0.00     0.054 A 
BRANCH  79  80
ATOM     80  S   UNL A   1      34.149  33.910  28.814  1.00  0.00     0.124 S 
ATOM     81  O   UNL A   1      33.464  34.246  30.060  1.00  0.00    -0.237 OA
ATOM     82  O   UNL A   1      34.974  34.968  28.241  1.00  0.00    -0.237 OA
ATOM     83  O   UNL A   1      33.342  33.165  27.848  1.00  0.00    -0.744 OA
ENDBRANCH  79  80
ENDBRANCH  51  74
BRANCH  63  84
ATOM     84  C   UNL A   1      42.377  29.068  33.840  1.00  0.00    -0.014 A 
ATOM     85  C   UNL A   1      41.771  27.810  33.641  1.00  0.00     0.010 A 
ATOM     86  C   UNL A   1      42.830  29.391  35.131  1.00  0.00     0.010 A 
ATOM     87  C   UNL A   1      41.625  26.904  34.706  1.00  0.00     0.020 A 
ATOM     88  C   UNL A   1      42.703  28.489  36.190  1.00  0.00     0.020 A 
ATOM     89  C   UNL A   1      42.102  27.248  35.974  1.00  0.00     0.054 A 
BRANCH  89  90
ATOM     90  S   UNL A   1      41.995  26.044  37.330  1.00  0.00     0.124 S 
ATOM     91  O   UNL A   1      40.603  26.163  37.754  1.00  0.00    -0.237 OA
ATOM     92  O   UNL A   1      42.348  24.785  36.676  1.00  0.00    -0.237 OA
ATOM     93  O   UNL A   1      42.979  26.522  38.301  1.00  0.00    -0.744 OA
ENDBRANCH  89  90
ENDBRANCH  63  84
ENDBRANCH  37  38
ENDBRANCH  30  32
ENDBRANCH  29  30
ENDBRANCH  28  29
ENDBRANCH   1  28
TORSDOF 19
ENDMDL
MODEL 2
REMARK VINA RESULT:     -12.0      1.530      2.183
REMARK SMILES Cc1nc(-c2ccccc2Cl)nc2sc(C(=O)OCCOCCOC(=O)c3ccc(-c4c5nc(c(-c6ccc(S(=O)(=O)[O-])cc6)c6ccc([nH]6)c(-c6ccc(S(=O)(=O)[O-])cc6)c6nc(c(-c7ccc(S(=O)(=O)[O-])cc7)c7ccc4[nH]7)C=C6)C=C5)cc3)c(N)c12
REMARK SMILES IDX 22 1 21 2 20 3 19 4 18 5 16 6 17 7 15 8 1 9 2 10 3 11 89 12
REMARK SMILES IDX 4 13 13 14 87 15 12 16 14 17 5 18 6 19 10 20 7 21 9 22 11 23
REMARK SMILES IDX 8 24 88 25 23 28 24 29 25 30 26 31 27 32 28 33 86 34 29 35
REMARK SMILES IDX 85 36 30 37 31 38 32 39 79 40 33 41 84 42 78 43 80 44 34 45
REMARK SMILES IDX 83 46 77 47 76 48 35 50 65 51 46 52 64 53 47 54 50 55 63 56
REMARK SMILES IDX 81 57 48 58 49 59 62 61 82 62 51 63 36 64 37 65 45 66 38 67
REMARK SMILES IDX 44 68 39 69 40 70 41 71 42 72 43 73 66 74 67 75 75 76 68 77
REMARK SMILES IDX 74 78 69 79 70 80 71 81 72 82 73 83 52 84 53 85 61 86 54 87
REMARK SMILES IDX 60 88 55 89 56 90 57 91 58 92 59 93
REMARK H PARENT 88 26 88 27 80 49 50 60
REMARK Flexibility Score: inf
ROOT
ATOM      1  C   UNL A   1      37.524  22.161  25.207  1.00  0.00     0.202 C 
ENDROOT
BRANCH   1   2
ATOM      2  O   UNL A   1      36.311  21.449  25.431  1.00  0.00    -0.374 OA
BRANCH   2   3
ATOM      3  C   UNL A   1      36.225  20.073  25.056  1.00  0.00     0.202 C 
BRANCH   3   4
ATOM      4  C   UNL A   1      34.828  19.523  24.764  1.00  0.00     0.261 C 
BRANCH   4   5
ATOM      5  O   UNL A   1      33.802  20.435  25.182  1.00  0.00    -0.459 OA
BRANCH   5   6
ATOM      6  C   UNL A   1      32.926  20.836  24.220  1.00  0.00     0.350 C 
ATOM      7  O   UNL A   1      32.243  20.072  23.540  1.00  0.00    -0.245 OA
BRANCH   6   8
ATOM      8  C   UNL A   1      32.793  22.279  24.210  1.00  0.00     0.138 A 
ATOM      9  C   UNL A   1      32.800  25.956  21.292  1.00  0.00     0.067 C 
ATOM     10  C   UNL A   1      32.763  25.754  22.777  1.00  0.00     0.052 A 
ATOM     11  N   UNL A   1      32.836  26.912  23.502  1.00  0.00    -0.233 NA
ATOM     12  C   UNL A   1      32.719  24.522  23.472  1.00  0.00     0.057 A 
ATOM     13  C   UNL A   1      32.821  26.864  24.844  1.00  0.00     0.162 A 
ATOM     14  C   UNL A   1      32.728  24.632  24.855  1.00  0.00     0.130 A 
ATOM     15  C   UNL A   1      32.693  23.122  23.112  1.00  0.00     0.069 A 
ATOM     16  N   UNL A   1      32.770  25.754  25.579  1.00  0.00    -0.217 NA
ATOM     17  S   UNL A   1      32.725  23.149  25.671  1.00  0.00    -0.106 S 
BRANCH  13  18
ATOM     18  C   UNL A   1      33.024  28.098  25.606  1.00  0.00     0.038 A 
ATOM     19  C   UNL A   1      34.077  28.135  26.551  1.00  0.00     0.013 A 
ATOM     20  C   UNL A   1      32.196  29.225  25.512  1.00  0.00     0.052 A 
ATOM     21  C   UNL A   1      34.284  29.238  27.378  1.00  0.00     0.001 A 
ATOM     22  C   UNL A   1      32.402  30.332  26.348  1.00  0.00     0.021 A 
ATOM     23  Cl  UNL A   1      30.848  29.301  24.428  1.00  0.00    -0.084 Cl
ATOM     24  C   UNL A   1      33.440  30.336  27.281  1.00  0.00     0.002 A 
ENDBRANCH  13  18
BRANCH  15  25
ATOM     25  N   UNL A   1      32.599  22.635  21.853  1.00  0.00    -0.397 N 
ATOM     26  H   UNL A   1      31.969  23.041  21.215  1.00  0.00     0.156 HD
ATOM     27  H   UNL A   1      33.158  21.873  21.576  1.00  0.00     0.156 HD
ENDBRANCH  15  25
ENDBRANCH   6   8
ENDBRANCH   5   6
ENDBRANCH   4   5
ENDBRANCH   3   4
ENDBRANCH   2   3
ENDBRANCH   1   2
BRANCH   1  28
ATOM     28  C   UNL A   1      38.731  21.831  26.070  1.00  0.00     0.261 C 
BRANCH  28  29
ATOM     29  O   UNL A   1      39.359  23.002  26.559  1.00  0.00    -0.460 OA
BRANCH  29  30
ATOM     30  C   UNL A   1      40.706  22.960  26.523  1.00  0.00     0.338 C 
ATOM     31  O   UNL A   1      41.417  21.958  26.518  1.00  0.00    -0.246 OA
BRANCH  30  32
ATOM     32  C   UNL A   1      41.213  24.324  26.629  1.00  0.00     0.060 A 
ATOM     33  C   UNL A   1      42.260  24.540  27.528  1.00  0.00     0.016 A 
ATOM     34  C   UNL A   1      40.434  25.371  26.113  1.00  0.00     0.016 A 
ATOM     35  C   UNL A   1      42.365  25.780  28.108  1.00  0.00     0.010 A 
ATOM     36  C   UNL A   1      40.519  26.595  26.713  1.00  0.00     0.010 A 
ATOM     37  C   UNL A   1      41.416  26.746  27.767  1.00  0.00    -0.014 A 
BRANCH  37  38
ATOM     38  C   UNL A   1      41.384  27.979  28.510  1.00  0.00     0.031 A 
ATOM     39  C   UNL A   1      42.551  28.835  28.226  1.00  0.00     0.074 A 
ATOM     40  C   UNL A   1      40.310  28.325  29.242  1.00  0.00     0.049 A 
ATOM     41  N   UNL A   1      43.565  29.058  28.992  1.00  0.00    -0.248 NA
ATOM     42  C   UNL A   1      42.724  29.306  26.839  1.00  0.00     0.031 C 
ATOM     43  C   UNL A   1      39.002  27.665  29.315  1.00  0.00     0.029 A 
ATOM     44  N   UNL A   1      40.127  29.434  29.993  1.00  0.00    -0.354 N 
ATOM     45  C   UNL A   1      44.391  29.894  28.255  1.00  0.00     0.074 A 
ATOM     46  C   UNL A   1      43.969  29.777  26.885  1.00  0.00     0.031 C 
ATOM     47  C   UNL A   1      38.105  28.524  29.855  1.00  0.00     0.029 A 
ATOM     48  C   UNL A   1      38.800  29.732  30.272  1.00  0.00     0.049 A 
ATOM     49  H   UNL A   1      40.875  29.987  30.317  1.00  0.00     0.167 HD
ATOM     50  C   UNL A   1      45.139  30.861  28.851  1.00  0.00     0.031 A 
ATOM     51  C   UNL A   1      38.325  30.928  30.711  1.00  0.00     0.031 A 
ATOM     52  C   UNL A   1      45.229  30.661  30.275  1.00  0.00     0.049 A 
ATOM     53  C   UNL A   1      39.491  31.667  31.277  1.00  0.00     0.074 A 
ATOM     54  C   UNL A   1      45.712  29.643  31.072  1.00  0.00     0.029 A 
ATOM     55  N   UNL A   1      44.372  31.396  31.066  1.00  0.00    -0.354 N 
ATOM     56  N   UNL A   1      40.154  31.255  32.326  1.00  0.00    -0.248 NA
ATOM     57  C   UNL A   1      40.234  32.549  30.386  1.00  0.00     0.031 C 
ATOM     58  C   UNL A   1      44.774  29.537  32.140  1.00  0.00     0.029 A 
ATOM     59  C   UNL A   1      43.816  30.543  31.986  1.00  0.00     0.049 A 
ATOM     60  H   UNL A   1      44.191  32.360  30.984  1.00  0.00     0.167 HD
ATOM     61  C   UNL A   1      41.493  31.467  32.016  1.00  0.00     0.074 A 
ATOM     62  C   UNL A   1      41.474  32.340  30.842  1.00  0.00     0.031 C 
ATOM     63  C   UNL A   1      42.483  30.685  32.545  1.00  0.00     0.031 A 
BRANCH  50  64
ATOM     64  C   UNL A   1      45.426  32.184  28.193  1.00  0.00    -0.014 A 
ATOM     65  C   UNL A   1      46.761  32.594  28.036  1.00  0.00     0.010 A 
ATOM     66  C   UNL A   1      44.426  33.149  27.938  1.00  0.00     0.010 A 
ATOM     67  C   UNL A   1      47.074  33.913  27.680  1.00  0.00     0.020 A 
ATOM     68  C   UNL A   1      44.723  34.448  27.534  1.00  0.00     0.020 A 
ATOM     69  C   UNL A   1      46.050  34.831  27.436  1.00  0.00     0.054 A 
BRANCH  69  70
ATOM     70  S   UNL A   1      46.462  36.549  27.058  1.00  0.00     0.124 S 
ATOM     71  O   UNL A   1      47.111  36.981  28.292  1.00  0.00    -0.237 OA
ATOM     72  O   UNL A   1      47.334  36.407  25.895  1.00  0.00    -0.237 OA
ATOM     73  O   UNL A   1      45.164  37.161  26.787  1.00  0.00    -0.744 OA
ENDBRANCH  69  70
ENDBRANCH  50  64
BRANCH  51  74
ATOM     74  C   UNL A   1      37.056  31.584  30.281  1.00  0.00    -0.014 A 
ATOM     75  C   UNL A   1      36.165  32.170  31.201  1.00  0.00     0.010 A 
ATOM     76  C   UNL A   1      36.831  31.849  28.912  1.00  0.00     0.010 A 
ATOM     77  C   UNL A   1      35.115  33.009  30.767  1.00  0.00     0.020 A 
ATOM     78  C   UNL A   1      35.789  32.674  28.472  1.00  0.00     0.020 A 
ATOM     79  C   UNL A   1      34.943  33.266  29.403  1.00  0.00     0.054 A 
BRANCH  79  80
ATOM     80  S   UNL A   1      33.674  34.447  28.852  1.00  0.00     0.124 S 
ATOM     81  O   UNL A   1      32.971  34.752  30.095  1.00  0.00    -0.237 OA
ATOM     82  O   UNL A   1      34.473  35.534  28.295  1.00  0.00    -0.237 OA
ATOM     83  O   UNL A   1      32.897  33.689  27.874  1.00  0.00    -0.744 OA
ENDBRANCH  79  80
ENDBRANCH  51  74
BRANCH  63  84
ATOM     84  C   UNL A   1      42.130  29.705  33.648  1.00  0.00    -0.014 A 
ATOM     85  C   UNL A   1      41.500  28.465  33.417  1.00  0.00     0.010 A 
ATOM     86  C   UNL A   1      42.660  29.954  34.926  1.00  0.00     0.010 A 
ATOM     87  C   UNL A   1      41.407  27.502  34.437  1.00  0.00     0.020 A 
ATOM     88  C   UNL A   1      42.585  28.995  35.940  1.00  0.00     0.020 A 
ATOM     89  C   UNL A   1      41.961  27.773  35.692  1.00  0.00     0.054 A 
BRANCH  89  90
ATOM     90  S   UNL A   1      41.920  26.496  36.985  1.00  0.00     0.124 S 
ATOM     91  O   UNL A   1      42.124  25.266  36.226  1.00  0.00    -0.237 OA
ATOM     92  O   UNL A   1      43.024  26.886  37.861  1.00  0.00    -0.237 OA
ATOM     93  O   UNL A   1      40.591  26.642  37.578  1.00  0.00    -0.744 OA
ENDBRANCH  89  90
ENDBRANCH  63  84
ENDBRANCH  37  38
ENDBRANCH  30  32
ENDBRANCH  29  30
ENDBRANCH  28  29
ENDBRANCH   1  28
TORSDOF 19
ENDMDL
MODEL 3
REMARK VINA RESULT:     -11.9      2.620      3.934
REMARK SMILES Cc1nc(-c2ccccc2Cl)nc2sc(C(=O)OCCOCCOC(=O)c3ccc(-c4c5nc(c(-c6ccc(S(=O)(=O)[O-])cc6)c6ccc([nH]6)c(-c6ccc(S(=O)(=O)[O-])cc6)c6nc(c(-c7ccc(S(=O)(=O)[O-])cc7)c7ccc4[nH]7)C=C6)C=C5)cc3)c(N)c12
REMARK SMILES IDX 22 1 21 2 20 3 19 4 18 5 16 6 17 7 15 8 1 9 2 10 3 11 89 12
REMARK SMILES IDX 4 13 13 14 87 15 12 16 14 17 5 18 6 19 10 20 7 21 9 22 11 23
REMARK SMILES IDX 8 24 88 25 23 28 24 29 25 30 26 31 27 32 28 33 86 34 29 35
REMARK SMILES IDX 85 36 30 37 31 38 32 39 79 40 33 41 84 42 78 43 80 44 34 45
REMARK SMILES IDX 83 46 77 47 76 48 35 50 65 51 46 52 64 53 47 54 50 55 63 56
REMARK SMILES IDX 81 57 48 58 49 59 62 61 82 62 51 63 36 64 37 65 45 66 38 67
REMARK SMILES IDX 44 68 39 69 40 70 41 71 42 72 43 73 66 74 67 75 75 76 68 77
REMARK SMILES IDX 74 78 69 79 70 80 71 81 72 82 73 83 52 84 53 85 61 86 54 87
REMARK SMILES IDX 60 88 55 89 56 90 57 91 58 92 59 93
REMARK H PARENT 88 26 88 27 80 49 50 60
REMARK Flexibility Score: inf
ROOT
ATOM      1  C   UNL A   1      45.023  21.606  24.753  1.00  0.00     0.202 C 
ENDROOT
BRANCH   1   2
ATOM      2  O   UNL A   1      45.466  20.522  23.942  1.00  0.00    -0.374 OA
BRANCH   2   3
ATOM      3  C   UNL A   1      44.921  19.218  24.152  1.00  0.00     0.202 C 
BRANCH   3   4
ATOM      4  C   UNL A   1      44.058  19.024  25.399  1.00  0.00     0.261 C 
BRANCH   4   5
ATOM      5  O   UNL A   1      42.747  19.580  25.229  1.00  0.00    -0.459 OA
BRANCH   5   6
ATOM      6  C   UNL A   1      41.921  19.516  26.311  1.00  0.00     0.350 C 
ATOM      7  O   UNL A   1      42.160  18.870  27.330  1.00  0.00    -0.245 OA
BRANCH   6   8
ATOM      8  C   UNL A   1      40.803  20.425  26.162  1.00  0.00     0.138 A 
ATOM      9  C   UNL A   1      39.451  24.799  27.201  1.00  0.00     0.067 C 
ATOM     10  C   UNL A   1      38.809  23.581  26.607  1.00  0.00     0.052 A 
ATOM     11  N   UNL A   1      37.468  23.711  26.375  1.00  0.00    -0.233 NA
ATOM     12  C   UNL A   1      39.427  22.339  26.327  1.00  0.00     0.057 A 
ATOM     13  C   UNL A   1      36.776  22.685  25.852  1.00  0.00     0.162 A 
ATOM     14  C   UNL A   1      38.580  21.370  25.808  1.00  0.00     0.130 A 
ATOM     15  C   UNL A   1      40.752  21.778  26.470  1.00  0.00     0.069 A 
ATOM     16  N   UNL A   1      37.276  21.489  25.549  1.00  0.00    -0.217 NA
ATOM     17  S   UNL A   1      39.323  19.875  25.526  1.00  0.00    -0.106 S 
BRANCH  13  18
ATOM     18  C   UNL A   1      35.321  22.795  25.725  1.00  0.00     0.038 A 
ATOM     19  C   UNL A   1      34.532  22.618  26.887  1.00  0.00     0.013 A 
ATOM     20  C   UNL A   1      34.651  22.994  24.509  1.00  0.00     0.052 A 
ATOM     21  C   UNL A   1      33.140  22.620  26.838  1.00  0.00     0.001 A 
ATOM     22  C   UNL A   1      33.249  22.990  24.460  1.00  0.00     0.021 A 
ATOM     23  Cl  UNL A   1      35.488  23.185  23.006  1.00  0.00    -0.084 Cl
ATOM     24  C   UNL A   1      32.496  22.799  25.620  1.00  0.00     0.002 A 
ENDBRANCH  13  18
BRANCH  15  25
ATOM     25  N   UNL A   1      41.854  22.453  26.871  1.00  0.00    -0.397 N 
ATOM     26  H   UNL A   1      41.827  23.434  26.954  1.00  0.00     0.156 HD
ATOM     27  H   UNL A   1      42.684  21.965  27.078  1.00  0.00     0.156 HD
ENDBRANCH  15  25
ENDBRANCH   6   8
ENDBRANCH   5   6
ENDBRANCH   4   5
ENDBRANCH   3   4
ENDBRANCH   2   3
ENDBRANCH   1   2
BRANCH   1  28
ATOM     28  C   UNL A   1      44.441  22.833  24.072  1.00  0.00     0.261 C 
BRANCH  28  29
ATOM     29  O   UNL A   1      43.620  23.579  24.952  1.00  0.00    -0.460 OA
BRANCH  29  30
ATOM     30  C   UNL A   1      44.040  24.844  25.156  1.00  0.00     0.338 C 
ATOM     31  O   UNL A   1      45.078  25.356  24.748  1.00  0.00    -0.246 OA
BRANCH  30  32
ATOM     32  C   UNL A   1      43.110  25.495  26.074  1.00  0.00     0.060 A 
ATOM     33  C   UNL A   1      42.323  26.523  25.549  1.00  0.00     0.016 A 
ATOM     34  C   UNL A   1      43.289  25.311  27.454  1.00  0.00     0.016 A 
ATOM     35  C   UNL A   1      41.920  27.523  26.400  1.00  0.00     0.010 A 
ATOM     36  C   UNL A   1      42.914  26.321  28.293  1.00  0.00     0.010 A 
ATOM     37  C   UNL A   1      42.325  27.451  27.735  1.00  0.00    -0.014 A 
BRANCH  37  38
ATOM     38  C   UNL A   1      42.088  28.584  28.592  1.00  0.00     0.031 A 
ATOM     39  C   UNL A   1      43.200  29.553  28.559  1.00  0.00     0.074 A 
ATOM     40  C   UNL A   1      40.903  28.760  29.204  1.00  0.00     0.049 A 
ATOM     41  N   UNL A   1      44.084  29.762  29.474  1.00  0.00    -0.248 NA
ATOM     42  C   UNL A   1      43.503  30.193  27.266  1.00  0.00     0.031 C 
ATOM     43  C   UNL A   1      39.662  28.000  29.030  1.00  0.00     0.029 A 
ATOM     44  N   UNL A   1      40.528  29.759  30.036  1.00  0.00    -0.354 N 
ATOM     45  C   UNL A   1      44.917  30.739  28.948  1.00  0.00     0.074 A 
ATOM     46  C   UNL A   1      44.684  30.749  27.528  1.00  0.00     0.031 C 
ATOM     47  C   UNL A   1      38.630  28.719  29.530  1.00  0.00     0.029 A 
ATOM     48  C   UNL A   1      39.155  29.920  30.161  1.00  0.00     0.049 A 
ATOM     49  H   UNL A   1      41.176  30.326  30.514  1.00  0.00     0.167 HD
ATOM     50  C   UNL A   1      45.494  31.684  29.738  1.00  0.00     0.031 A 
ATOM     51  C   UNL A   1      38.522  31.018  30.655  1.00  0.00     0.031 A 
ATOM     52  C   UNL A   1      45.421  31.328  31.131  1.00  0.00     0.049 A 
ATOM     53  C   UNL A   1      39.535  31.773  31.447  1.00  0.00     0.074 A 
ATOM     54  C   UNL A   1      45.890  30.264  31.875  1.00  0.00     0.029 A 
ATOM     55  N   UNL A   1      44.409  31.899  31.871  1.00  0.00    -0.354 N 
ATOM     56  N   UNL A   1      40.096  31.294  32.528  1.00  0.00    -0.248 NA
ATOM     57  C   UNL A   1      40.302  32.806  30.763  1.00  0.00     0.031 C 
ATOM     58  C   UNL A   1      44.839  29.964  32.789  1.00  0.00     0.029 A 
ATOM     59  C   UNL A   1      43.821  30.906  32.614  1.00  0.00     0.049 A 
ATOM     60  H   UNL A   1      44.153  32.850  31.867  1.00  0.00     0.167 HD
ATOM     61  C   UNL A   1      41.438  31.642  32.426  1.00  0.00     0.074 A 
ATOM     62  C   UNL A   1      41.489  32.640  31.358  1.00  0.00     0.031 C 
ATOM     63  C   UNL A   1      42.420  30.881  32.999  1.00  0.00     0.031 A 
BRANCH  50  64
ATOM     64  C   UNL A   1      45.741  33.092  29.266  1.00  0.00    -0.014 A 
ATOM     65  C   UNL A   1      44.668  33.998  29.227  1.00  0.00     0.010 A 
ATOM     66  C   UNL A   1      46.940  33.490  28.632  1.00  0.00     0.010 A 
ATOM     67  C   UNL A   1      44.782  35.222  28.555  1.00  0.00     0.020 A 
ATOM     68  C   UNL A   1      47.080  34.725  28.004  1.00  0.00     0.020 A 
ATOM     69  C   UNL A   1      45.987  35.574  27.944  1.00  0.00     0.054 A 
BRANCH  69  70
ATOM     70  S   UNL A   1      46.099  37.116  27.010  1.00  0.00     0.124 S 
ATOM     71  O   UNL A   1      44.697  37.509  26.909  1.00  0.00    -0.237 OA
ATOM     72  O   UNL A   1      46.932  37.942  27.879  1.00  0.00    -0.237 OA
ATOM     73  O   UNL A   1      46.727  36.712  25.754  1.00  0.00    -0.744 OA
ENDBRANCH  69  70
ENDBRANCH  50  64
BRANCH  51  74
ATOM     74  C   UNL A   1      37.264  31.621  30.129  1.00  0.00    -0.014 A 
ATOM     75  C   UNL A   1      36.111  31.769  30.925  1.00  0.00     0.010 A 
ATOM     76  C   UNL A   1      37.270  32.284  28.881  1.00  0.00     0.010 A 
ATOM     77  C   UNL A   1      35.029  32.571  30.502  1.00  0.00     0.020 A 
ATOM     78  C   UNL A   1      36.199  33.076  28.450  1.00  0.00     0.020 A 
ATOM     79  C   UNL A   1      35.087  33.231  29.270  1.00  0.00     0.054 A 
BRANCH  79  80
ATOM     80  S   UNL A   1      33.752  34.367  28.782  1.00  0.00     0.124 S 
ATOM     81  O   UNL A   1      32.987  33.560  27.835  1.00  0.00    -0.237 OA
ATOM     82  O   UNL A   1      33.092  34.646  30.054  1.00  0.00    -0.237 OA
ATOM     83  O   UNL A   1      34.462  35.502  28.193  1.00  0.00    -0.744 OA
ENDBRANCH  79  80
ENDBRANCH  51  74
BRANCH  63  84
ATOM     84  C   UNL A   1      42.022  29.756  33.935  1.00  0.00    -0.014 A 
ATOM     85  C   UNL A   1      41.769  28.437  33.506  1.00  0.00     0.010 A 
ATOM     86  C   UNL A   1      42.130  29.996  35.316  1.00  0.00     0.010 A 
ATOM     87  C   UNL A   1      41.631  27.390  34.435  1.00  0.00     0.020 A 
ATOM     88  C   UNL A   1      42.011  28.959  36.244  1.00  0.00     0.020 A 
ATOM     89  C   UNL A   1      41.763  27.659  35.801  1.00  0.00     0.054 A 
BRANCH  89  90
ATOM     90  S   UNL A   1      41.675  26.294  36.996  1.00  0.00     0.124 S 
ATOM     91  O   UNL A   1      40.419  26.561  37.693  1.00  0.00    -0.237 OA
ATOM     92  O   UNL A   1      41.679  25.110  36.139  1.00  0.00    -0.237 OA
ATOM     93  O   UNL A   1      42.879  26.463  37.809  1.00  0.00    -0.744 OA
ENDBRANCH  89  90
ENDBRANCH  63  84
ENDBRANCH  37  38
ENDBRANCH  30  32
ENDBRANCH  29  30
ENDBRANCH  28  29
ENDBRANCH   1  28
TORSDOF 19
ENDMDL
