MODEL 1
REMARK VINA RESULT:     -11.3      0.000      0.000
REMARK SMILES Cc1cc(C)cc(C(=O)N[C@H]2C(=O)N3C(C(=O)OCCOCCOC(=O)c4ccc(-c5c6nc(c(-c7ccc(S(=O)(=O)[O-])cc7)c7ccc([nH]7)c(-c7ccc(S(=O)(=O)[O-])cc7)c7nc(c(-c8ccc(S(=O)(=O)[O-])cc8)c8ccc5[nH]8)C=C7)C=C6)cc4)=C(CSc4nnc(C)s4)CS[C@H]23)c1
REMARK SMILES IDX 21 1 20 2 19 3 18 4 16 5 17 6 15 7 11 8 12 9 98 10 13 11
REMARK SMILES IDX 14 12 97 13 96 14 87 15 10 16 8 17 9 18 7 20 1 21 2 22 3 23
REMARK SMILES IDX 99 24 4 25 5 26 6 27 88 28 89 29 90 30 91 31 95 32 92 33
REMARK SMILES IDX 93 34 94 35 22 36 23 37 24 38 25 39 26 40 27 41 28 42 86 43
REMARK SMILES IDX 29 44 85 45 30 46 31 47 32 48 79 49 33 50 84 51 78 52 80 53
REMARK SMILES IDX 34 54 83 55 77 56 76 57 35 59 65 60 46 61 64 62 47 63 50 64
REMARK SMILES IDX 63 65 81 66 48 67 49 68 62 70 82 71 51 72 36 73 37 74 45 75
REMARK SMILES IDX 38 76 44 77 39 78 40 79 41 80 42 81 43 82 66 83 67 84 75 85
REMARK SMILES IDX 68 86 74 87 69 88 70 89 71 90 72 91 73 92 52 93 53 94 61 95
REMARK SMILES IDX 54 96 60 97 55 98 56 99 57 100 58 101 59 102
REMARK H PARENT 10 19 80 58 50 69
REMARK Flexibility Score: inf
ROOT
ATOM      1  O   UNL A   1      37.291  21.446  24.419  1.00  0.00    -0.374 OA
ENDROOT
BRANCH   1   2
ATOM      2  C   UNL A   1      36.890  22.740  23.960  1.00  0.00     0.202 C 
BRANCH   2   3
ATOM      3  C   UNL A   1      36.102  23.576  24.968  1.00  0.00     0.261 C 
BRANCH   3   4
ATOM      4  O   UNL A   1      35.123  24.381  24.280  1.00  0.00    -0.459 OA
BRANCH   4   5
ATOM      5  C   UNL A   1      34.138  23.682  23.682  1.00  0.00     0.355 C 
ATOM      6  O   UNL A   1      34.069  23.416  22.488  1.00  0.00    -0.244 OA
BRANCH   5   7
ATOM      7  C   UNL A   1      33.097  23.182  24.641  1.00  0.00     0.132 C 
ATOM      8  C   UNL A   1      30.911  25.413  26.048  1.00  0.00     0.206 C 
ATOM      9  C   UNL A   1      31.778  25.288  24.748  1.00  0.00     0.253 C 
ATOM     10  C   UNL A   1      31.671  24.119  26.481  1.00  0.00     0.181 C 
ATOM     11  O   UNL A   1      31.815  25.850  23.674  1.00  0.00    -0.272 OA
ATOM     12  N   UNL A   1      32.386  24.186  25.237  1.00  0.00    -0.289 N 
ATOM     13  S   UNL A   1      30.636  22.625  26.451  1.00  0.00    -0.129 SA
ATOM     14  C   UNL A   1      32.051  21.526  26.215  1.00  0.00     0.106 C 
ATOM     15  C   UNL A   1      32.899  21.890  25.005  1.00  0.00    -0.019 C 
BRANCH   8  16
ATOM     16  N   UNL A   1      31.138  26.703  26.743  1.00  0.00    -0.338 N 
ATOM     17  C   UNL A   1      31.412  27.979  26.326  1.00  0.00     0.252 C 
ATOM     18  O   UNL A   1      31.593  28.828  27.200  1.00  0.00    -0.269 OA
ATOM     19  H   UNL A   1      31.081  26.624  27.723  1.00  0.00     0.164 HD
BRANCH  17  20
ATOM     20  C   UNL A   1      31.436  28.400  24.901  1.00  0.00     0.040 A 
ATOM     21  C   UNL A   1      29.245  29.815  22.130  1.00  0.00     0.044 C 
ATOM     22  C   UNL A   1      30.435  29.263  22.861  1.00  0.00    -0.050 A 
ATOM     23  C   UNL A   1      31.701  29.322  22.267  1.00  0.00     0.006 A 
ATOM     24  C   UNL A   1      30.307  28.746  24.160  1.00  0.00     0.017 A 
ATOM     25  C   UNL A   1      32.832  28.867  22.952  1.00  0.00    -0.050 A 
ATOM     26  C   UNL A   1      34.170  28.859  22.276  1.00  0.00     0.044 C 
ATOM     27  C   UNL A   1      32.694  28.438  24.276  1.00  0.00     0.017 A 
ENDBRANCH  17  20
ENDBRANCH   8  16
BRANCH  15  28
ATOM     28  C   UNL A   1      33.553  20.680  24.376  1.00  0.00     0.111 C 
BRANCH  28  29
ATOM     29  S   UNL A   1      32.465  19.667  23.339  1.00  0.00    -0.089 SA
BRANCH  29  30
ATOM     30  C   UNL A   1      32.852  17.992  23.644  1.00  0.00     0.174 A 
ATOM     31  N   UNL A   1      33.614  17.237  22.887  1.00  0.00    -0.132 NA
ATOM     32  S   UNL A   1      32.234  17.162  25.010  1.00  0.00    -0.091 S 
ATOM     33  N   UNL A   1      33.844  15.985  23.441  1.00  0.00    -0.143 NA
ATOM     34  C   UNL A   1      33.200  15.825  24.576  1.00  0.00     0.115 A 
ATOM     35  C   UNL A   1      33.256  14.630  25.458  1.00  0.00     0.081 C 
ENDBRANCH  29  30
ENDBRANCH  28  29
ENDBRANCH  15  28
ENDBRANCH   5   7
ENDBRANCH   4   5
ENDBRANCH   3   4
ENDBRANCH   2   3
ENDBRANCH   1   2
BRANCH   1  36
ATOM     36  C   UNL A   1      38.239  21.405  25.485  1.00  0.00     0.202 C 
BRANCH  36  37
ATOM     37  C   UNL A   1      39.100  20.140  25.552  1.00  0.00     0.261 C 
BRANCH  37  38
ATOM     38  O   UNL A   1      39.989  20.147  26.679  1.00  0.00    -0.460 OA
BRANCH  38  39
ATOM     39  C   UNL A   1      41.295  19.925  26.391  1.00  0.00     0.338 C 
ATOM     40  O   UNL A   1      41.793  18.909  25.938  1.00  0.00    -0.246 OA
BRANCH  39  41
ATOM     41  C   UNL A   1      42.046  21.181  26.573  1.00  0.00     0.060 A 
ATOM     42  C   UNL A   1      42.412  21.557  27.869  1.00  0.00     0.016 A 
ATOM     43  C   UNL A   1      42.342  22.009  25.490  1.00  0.00     0.016 A 
ATOM     44  C   UNL A   1      43.049  22.779  28.083  1.00  0.00     0.010 A 
ATOM     45  C   UNL A   1      43.014  23.213  25.697  1.00  0.00     0.010 A 
ATOM     46  C   UNL A   1      43.326  23.627  27.001  1.00  0.00    -0.014 A 
BRANCH  46  47
ATOM     47  C   UNL A   1      43.763  25.024  27.236  1.00  0.00     0.031 A 
ATOM     48  C   UNL A   1      45.207  25.378  26.990  1.00  0.00     0.074 A 
ATOM     49  C   UNL A   1      42.894  25.960  27.656  1.00  0.00     0.049 A 
ATOM     50  N   UNL A   1      45.819  26.520  27.158  1.00  0.00    -0.248 NA
ATOM     51  C   UNL A   1      46.078  24.294  26.503  1.00  0.00     0.031 C 
ATOM     52  C   UNL A   1      41.473  25.741  27.921  1.00  0.00     0.029 A 
ATOM     53  N   UNL A   1      43.088  27.289  27.937  1.00  0.00    -0.354 N 
ATOM     54  C   UNL A   1      47.147  26.288  26.816  1.00  0.00     0.074 A 
ATOM     55  C   UNL A   1      47.260  24.888  26.473  1.00  0.00     0.031 C 
ATOM     56  C   UNL A   1      40.920  26.901  28.318  1.00  0.00     0.029 A 
ATOM     57  C   UNL A   1      41.952  27.934  28.362  1.00  0.00     0.049 A 
ATOM     58  H   UNL A   1      43.959  27.739  27.843  1.00  0.00     0.167 HD
ATOM     59  C   UNL A   1      48.179  27.164  26.773  1.00  0.00     0.031 A 
ATOM     60  C   UNL A   1      41.770  29.212  28.751  1.00  0.00     0.031 A 
ATOM     61  C   UNL A   1      48.062  28.557  27.104  1.00  0.00     0.049 A 
ATOM     62  C   UNL A   1      42.937  30.163  28.725  1.00  0.00     0.074 A 
ATOM     63  C   UNL A   1      49.037  29.537  27.062  1.00  0.00     0.029 A 
ATOM     64  N   UNL A   1      46.896  29.168  27.541  1.00  0.00    -0.354 N 
ATOM     65  N   UNL A   1      44.178  29.935  28.365  1.00  0.00    -0.248 NA
ATOM     66  C   UNL A   1      42.676  31.546  29.149  1.00  0.00     0.031 C 
ATOM     67  C   UNL A   1      48.470  30.733  27.514  1.00  0.00     0.029 A 
ATOM     68  C   UNL A   1      47.130  30.508  27.789  1.00  0.00     0.049 A 
ATOM     69  H   UNL A   1      46.029  28.715  27.655  1.00  0.00     0.167 HD
ATOM     70  C   UNL A   1      44.839  31.152  28.494  1.00  0.00     0.074 A 
ATOM     71  C   UNL A   1      43.859  32.114  28.956  1.00  0.00     0.031 C 
ATOM     72  C   UNL A   1      46.139  31.448  28.249  1.00  0.00     0.031 A 
BRANCH  59  73
ATOM     73  C   UNL A   1      49.525  26.624  26.369  1.00  0.00    -0.014 A 
ATOM     74  C   UNL A   1      50.305  25.870  27.264  1.00  0.00     0.010 A 
ATOM     75  C   UNL A   1      50.014  26.869  25.073  1.00  0.00     0.010 A 
ATOM     76  C   UNL A   1      51.571  25.414  26.888  1.00  0.00     0.020 A 
ATOM     77  C   UNL A   1      51.269  26.391  24.685  1.00  0.00     0.020 A 
ATOM     78  C   UNL A   1      52.048  25.685  25.603  1.00  0.00     0.054 A 
BRANCH  78  79
ATOM     79  S   UNL A   1      53.694  25.080  25.138  1.00  0.00     0.124 S 
ATOM     80  O   UNL A   1      54.540  25.703  26.153  1.00  0.00    -0.237 OA
ATOM     81  O   UNL A   1      53.547  23.630  25.247  1.00  0.00    -0.237 OA
ATOM     82  O   UNL A   1      53.877  25.584  23.780  1.00  0.00    -0.744 OA
ENDBRANCH  78  79
ENDBRANCH  59  73
BRANCH  60  83
ATOM     83  C   UNL A   1      40.422  29.666  29.189  1.00  0.00    -0.014 A 
ATOM     84  C   UNL A   1      40.161  29.926  30.544  1.00  0.00     0.010 A 
ATOM     85  C   UNL A   1      39.397  29.858  28.244  1.00  0.00     0.010 A 
ATOM     86  C   UNL A   1      38.897  30.365  30.951  1.00  0.00     0.020 A 
ATOM     87  C   UNL A   1      38.139  30.318  28.643  1.00  0.00     0.020 A 
ATOM     88  C   UNL A   1      37.895  30.562  29.996  1.00  0.00     0.054 A 
BRANCH  88  89
ATOM     89  S   UNL A   1      36.282  31.197  30.535  1.00  0.00     0.124 S 
ATOM     90  O   UNL A   1      35.885  30.209  31.533  1.00  0.00    -0.237 OA
ATOM     91  O   UNL A   1      36.620  32.520  31.052  1.00  0.00    -0.237 OA
ATOM     92  O   UNL A   1      35.491  31.201  29.306  1.00  0.00    -0.744 OA
ENDBRANCH  88  89
ENDBRANCH  60  83
BRANCH  72  93
ATOM     93  C   UNL A   1      46.576  32.875  28.442  1.00  0.00    -0.014 A 
ATOM     94  C   UNL A   1      47.129  33.307  29.660  1.00  0.00     0.010 A 
ATOM     95  C   UNL A   1      46.497  33.776  27.364  1.00  0.00     0.010 A 
ATOM     96  C   UNL A   1      47.575  34.624  29.803  1.00  0.00     0.020 A 
ATOM     97  C   UNL A   1      46.963  35.086  27.497  1.00  0.00     0.020 A 
ATOM     98  C   UNL A   1      47.489  35.505  28.720  1.00  0.00     0.054 A 
BRANCH  98  99
ATOM     99  S   UNL A   1      48.123  37.193  28.914  1.00  0.00     0.124 S 
ATOM    100  O   UNL A   1      46.891  37.972  29.001  1.00  0.00    -0.237 OA
ATOM    101  O   UNL A   1      48.899  37.106  30.148  1.00  0.00    -0.237 OA
ATOM    102  O   UNL A   1      48.912  37.407  27.704  1.00  0.00    -0.744 OA
ENDBRANCH  98  99
ENDBRANCH  72  93
ENDBRANCH  46  47
ENDBRANCH  39  41
ENDBRANCH  38  39
ENDBRANCH  37  38
ENDBRANCH  36  37
ENDBRANCH   1  36
TORSDOF 22
ENDMDL
MODEL 2
REMARK VINA RESULT:     -11.2      5.905      7.998
REMARK SMILES Cc1cc(C)cc(C(=O)N[C@H]2C(=O)N3C(C(=O)OCCOCCOC(=O)c4ccc(-c5c6nc(c(-c7ccc(S(=O)(=O)[O-])cc7)c7ccc([nH]7)c(-c7ccc(S(=O)(=O)[O-])cc7)c7nc(c(-c8ccc(S(=O)(=O)[O-])cc8)c8ccc5[nH]8)C=C7)C=C6)cc4)=C(CSc4nnc(C)s4)CS[C@H]23)c1
REMARK SMILES IDX 21 1 20 2 19 3 18 4 16 5 17 6 15 7 11 8 12 9 98 10 13 11
REMARK SMILES IDX 14 12 97 13 96 14 87 15 10 16 8 17 9 18 7 20 1 21 2 22 3 23
REMARK SMILES IDX 99 24 4 25 5 26 6 27 88 28 89 29 90 30 91 31 95 32 92 33
REMARK SMILES IDX 93 34 94 35 22 36 23 37 24 38 25 39 26 40 27 41 28 42 86 43
REMARK SMILES IDX 29 44 85 45 30 46 31 47 32 48 79 49 33 50 84 51 78 52 80 53
REMARK SMILES IDX 34 54 83 55 77 56 76 57 35 59 65 60 46 61 64 62 47 63 50 64
REMARK SMILES IDX 63 65 81 66 48 67 49 68 62 70 82 71 51 72 36 73 37 74 45 75
REMARK SMILES IDX 38 76 44 77 39 78 40 79 41 80 42 81 43 82 66 83 67 84 75 85
REMARK SMILES IDX 68 86 74 87 69 88 70 89 71 90 72 91 73 92 52 93 53 94 61 95
REMARK SMILES IDX 54 96 60 97 55 98 56 99 57 100 58 101 59 102
REMARK H PARENT 10 19 80 58 50 69
REMARK Flexibility Score: inf
ROOT
ATOM      1  O   UNL A   1      38.865  21.807  25.910  1.00  0.00    -0.374 OA
ENDROOT
BRANCH   1   2
ATOM      2  C   UNL A   1      37.784  22.136  25.033  1.00  0.00     0.202 C 
BRANCH   2   3
ATOM      3  C   UNL A   1      36.701  23.027  25.637  1.00  0.00     0.261 C 
BRANCH   3   4
ATOM      4  O   UNL A   1      36.279  24.011  24.671  1.00  0.00    -0.459 OA
BRANCH   4   5
ATOM      5  C   UNL A   1      35.406  23.559  23.750  1.00  0.00     0.355 C 
ATOM      6  O   UNL A   1      35.694  23.113  22.645  1.00  0.00    -0.244 OA
BRANCH   5   7
ATOM      7  C   UNL A   1      33.979  23.595  24.214  1.00  0.00     0.132 C 
ATOM      8  C   UNL A   1      32.213  26.520  23.963  1.00  0.00     0.206 C 
ATOM      9  C   UNL A   1      33.428  25.824  23.258  1.00  0.00     0.253 C 
ATOM     10  C   UNL A   1      32.316  25.320  24.959  1.00  0.00     0.181 C 
ATOM     11  O   UNL A   1      34.042  25.991  22.226  1.00  0.00    -0.272 OA
ATOM     12  N   UNL A   1      33.437  24.849  24.192  1.00  0.00    -0.289 N 
ATOM     13  S   UNL A   1      30.970  24.111  24.782  1.00  0.00    -0.129 SA
ATOM     14  C   UNL A   1      31.961  22.758  25.455  1.00  0.00     0.106 C 
ATOM     15  C   UNL A   1      33.274  22.549  24.715  1.00  0.00    -0.019 C 
BRANCH   8  16
ATOM     16  N   UNL A   1      32.538  27.900  24.392  1.00  0.00    -0.338 N 
ATOM     17  C   UNL A   1      31.866  29.095  24.363  1.00  0.00     0.252 C 
ATOM     18  O   UNL A   1      32.469  30.088  24.773  1.00  0.00    -0.269 OA
ATOM     19  H   UNL A   1      33.438  27.977  24.784  1.00  0.00     0.164 HD
BRANCH  17  20
ATOM     20  C   UNL A   1      30.451  29.242  23.934  1.00  0.00     0.040 A 
ATOM     21  C   UNL A   1      27.197  27.311  23.533  1.00  0.00     0.044 C 
ATOM     22  C   UNL A   1      28.202  28.426  23.507  1.00  0.00    -0.050 A 
ATOM     23  C   UNL A   1      27.774  29.737  23.266  1.00  0.00     0.006 A 
ATOM     24  C   UNL A   1      29.556  28.184  23.784  1.00  0.00     0.017 A 
ATOM     25  C   UNL A   1      28.682  30.800  23.293  1.00  0.00    -0.050 A 
ATOM     26  C   UNL A   1      28.229  32.188  22.954  1.00  0.00     0.044 C 
ATOM     27  C   UNL A   1      30.009  30.546  23.658  1.00  0.00     0.017 A 
ENDBRANCH  17  20
ENDBRANCH   8  16
BRANCH  15  28
ATOM     28  C   UNL A   1      33.716  21.103  24.725  1.00  0.00     0.111 C 
BRANCH  28  29
ATOM     29  S   UNL A   1      32.458  19.907  24.205  1.00  0.00    -0.089 SA
BRANCH  29  30
ATOM     30  C   UNL A   1      33.009  18.320  24.678  1.00  0.00     0.174 A 
ATOM     31  N   UNL A   1      32.246  17.353  25.132  1.00  0.00    -0.132 NA
ATOM     32  S   UNL A   1      34.664  17.882  24.593  1.00  0.00    -0.091 S 
ATOM     33  N   UNL A   1      32.939  16.164  25.311  1.00  0.00    -0.143 NA
ATOM     34  C   UNL A   1      34.219  16.295  25.034  1.00  0.00     0.115 A 
ATOM     35  C   UNL A   1      35.242  15.218  25.072  1.00  0.00     0.081 C 
ENDBRANCH  29  30
ENDBRANCH  28  29
ENDBRANCH  15  28
ENDBRANCH   5   7
ENDBRANCH   4   5
ENDBRANCH   3   4
ENDBRANCH   2   3
ENDBRANCH   1   2
BRANCH   1  36
ATOM     36  C   UNL A   1      39.272  22.811  26.837  1.00  0.00     0.202 C 
BRANCH  36  37
ATOM     37  C   UNL A   1      39.631  24.168  26.224  1.00  0.00     0.261 C 
BRANCH  37  38
ATOM     38  O   UNL A   1      40.620  24.868  26.994  1.00  0.00    -0.460 OA
BRANCH  38  39
ATOM     39  C   UNL A   1      40.857  26.147  26.612  1.00  0.00     0.338 C 
ATOM     40  O   UNL A   1      41.143  26.548  25.497  1.00  0.00    -0.246 OA
BRANCH  39  41
ATOM     41  C   UNL A   1      40.570  27.047  27.745  1.00  0.00     0.060 A 
ATOM     42  C   UNL A   1      41.150  28.319  27.747  1.00  0.00     0.016 A 
ATOM     43  C   UNL A   1      39.786  26.630  28.819  1.00  0.00     0.016 A 
ATOM     44  C   UNL A   1      40.967  29.163  28.843  1.00  0.00     0.010 A 
ATOM     45  C   UNL A   1      39.569  27.486  29.898  1.00  0.00     0.010 A 
ATOM     46  C   UNL A   1      40.201  28.739  29.937  1.00  0.00    -0.014 A 
BRANCH  46  47
ATOM     47  C   UNL A   1      40.209  29.509  31.204  1.00  0.00     0.031 A 
ATOM     48  C   UNL A   1      41.314  29.253  32.195  1.00  0.00     0.074 A 
ATOM     49  C   UNL A   1      39.255  30.420  31.466  1.00  0.00     0.049 A 
ATOM     50  N   UNL A   1      41.505  29.781  33.376  1.00  0.00    -0.248 NA
ATOM     51  C   UNL A   1      42.329  28.259  31.809  1.00  0.00     0.031 C 
ATOM     52  C   UNL A   1      38.141  30.761  30.582  1.00  0.00     0.029 A 
ATOM     53  N   UNL A   1      39.074  31.224  32.562  1.00  0.00    -0.354 N 
ATOM     54  C   UNL A   1      42.649  29.171  33.879  1.00  0.00     0.074 A 
ATOM     55  C   UNL A   1      43.083  28.204  32.896  1.00  0.00     0.031 C 
ATOM     56  C   UNL A   1      37.395  31.713  31.169  1.00  0.00     0.029 A 
ATOM     57  C   UNL A   1      37.963  32.028  32.479  1.00  0.00     0.049 A 
ATOM     58  H   UNL A   1      39.683  31.226  33.336  1.00  0.00     0.167 HD
ATOM     59  C   UNL A   1      43.293  29.405  35.046  1.00  0.00     0.031 A 
ATOM     60  C   UNL A   1      37.458  32.911  33.363  1.00  0.00     0.031 A 
ATOM     61  C   UNL A   1      42.866  30.374  36.018  1.00  0.00     0.049 A 
ATOM     62  C   UNL A   1      38.172  33.135  34.670  1.00  0.00     0.074 A 
ATOM     63  C   UNL A   1      43.465  30.713  37.217  1.00  0.00     0.029 A 
ATOM     64  N   UNL A   1      41.729  31.159  35.898  1.00  0.00    -0.354 N 
ATOM     65  N   UNL A   1      39.272  32.575  35.114  1.00  0.00    -0.248 NA
ATOM     66  C   UNL A   1      37.581  34.118  35.590  1.00  0.00     0.031 C 
ATOM     67  C   UNL A   1      42.666  31.674  37.844  1.00  0.00     0.029 A 
ATOM     68  C   UNL A   1      41.598  31.970  37.012  1.00  0.00     0.049 A 
ATOM     69  H   UNL A   1      41.108  31.143  35.135  1.00  0.00     0.167 HD
ATOM     70  C   UNL A   1      39.520  33.157  36.353  1.00  0.00     0.074 A 
ATOM     71  C   UNL A   1      38.460  34.117  36.584  1.00  0.00     0.031 C 
ATOM     72  C   UNL A   1      40.534  32.920  37.221  1.00  0.00     0.031 A 
BRANCH  59  73
ATOM     73  C   UNL A   1      44.518  28.579  35.336  1.00  0.00    -0.014 A 
ATOM     74  C   UNL A   1      45.789  28.976  34.879  1.00  0.00     0.010 A 
ATOM     75  C   UNL A   1      44.399  27.392  36.081  1.00  0.00     0.010 A 
ATOM     76  C   UNL A   1      46.908  28.175  35.118  1.00  0.00     0.020 A 
ATOM     77  C   UNL A   1      45.522  26.603  36.346  1.00  0.00     0.020 A 
ATOM     78  C   UNL A   1      46.766  26.990  35.844  1.00  0.00     0.054 A 
BRANCH  78  79
ATOM     79  S   UNL A   1      48.235  25.969  36.144  1.00  0.00     0.124 S 
ATOM     80  O   UNL A   1      48.102  25.662  37.566  1.00  0.00    -0.237 OA
ATOM     81  O   UNL A   1      48.034  24.841  35.238  1.00  0.00    -0.237 OA
ATOM     82  O   UNL A   1      49.346  26.852  35.799  1.00  0.00    -0.744 OA
ENDBRANCH  78  79
ENDBRANCH  59  73
BRANCH  60  83
ATOM     83  C   UNL A   1      36.213  33.656  33.034  1.00  0.00    -0.014 A 
ATOM     84  C   UNL A   1      34.971  33.231  33.536  1.00  0.00     0.010 A 
ATOM     85  C   UNL A   1      36.267  34.810  32.230  1.00  0.00     0.010 A 
ATOM     86  C   UNL A   1      33.804  33.941  33.235  1.00  0.00     0.020 A 
ATOM     87  C   UNL A   1      35.107  35.535  31.946  1.00  0.00     0.020 A 
ATOM     88  C   UNL A   1      33.881  35.091  32.445  1.00  0.00     0.054 A 
BRANCH  88  89
ATOM     89  S   UNL A   1      32.365  36.037  32.123  1.00  0.00     0.124 S 
ATOM     90  O   UNL A   1      31.337  35.159  32.673  1.00  0.00    -0.237 OA
ATOM     91  O   UNL A   1      32.603  37.275  32.859  1.00  0.00    -0.237 OA
ATOM     92  O   UNL A   1      32.357  36.178  30.668  1.00  0.00    -0.744 OA
ENDBRANCH  88  89
ENDBRANCH  60  83
BRANCH  72  93
ATOM     93  C   UNL A   1      40.571  33.732  38.486  1.00  0.00    -0.014 A 
ATOM     94  C   UNL A   1      41.187  34.995  38.522  1.00  0.00     0.010 A 
ATOM     95  C   UNL A   1      39.916  33.253  39.636  1.00  0.00     0.010 A 
ATOM     96  C   UNL A   1      41.166  35.755  39.694  1.00  0.00     0.020 A 
ATOM     97  C   UNL A   1      39.873  34.022  40.802  1.00  0.00     0.020 A 
ATOM     98  C   UNL A   1      40.509  35.264  40.827  1.00  0.00     0.054 A 
BRANCH  98  99
ATOM     99  S   UNL A   1      40.450  36.293  42.319  1.00  0.00     0.124 S 
ATOM    100  O   UNL A   1      40.051  37.589  41.779  1.00  0.00    -0.237 OA
ATOM    101  O   UNL A   1      39.445  35.617  43.136  1.00  0.00    -0.237 OA
ATOM    102  O   UNL A   1      41.813  36.226  42.840  1.00  0.00    -0.744 OA
ENDBRANCH  98  99
ENDBRANCH  72  93
ENDBRANCH  46  47
ENDBRANCH  39  41
ENDBRANCH  38  39
ENDBRANCH  37  38
ENDBRANCH  36  37
ENDBRANCH   1  36
TORSDOF 22
ENDMDL
MODEL 3
REMARK VINA RESULT:     -11.2      0.699      7.685
REMARK SMILES Cc1cc(C)cc(C(=O)N[C@H]2C(=O)N3C(C(=O)OCCOCCOC(=O)c4ccc(-c5c6nc(c(-c7ccc(S(=O)(=O)[O-])cc7)c7ccc([nH]7)c(-c7ccc(S(=O)(=O)[O-])cc7)c7nc(c(-c8ccc(S(=O)(=O)[O-])cc8)c8ccc5[nH]8)C=C7)C=C6)cc4)=C(CSc4nnc(C)s4)CS[C@H]23)c1
REMARK SMILES IDX 21 1 20 2 19 3 18 4 16 5 17 6 15 7 11 8 12 9 98 10 13 11
REMARK SMILES IDX 14 12 97 13 96 14 87 15 10 16 8 17 9 18 7 20 1 21 2 22 3 23
REMARK SMILES IDX 99 24 4 25 5 26 6 27 88 28 89 29 90 30 91 31 95 32 92 33
REMARK SMILES IDX 93 34 94 35 22 36 23 37 24 38 25 39 26 40 27 41 28 42 86 43
REMARK SMILES IDX 29 44 85 45 30 46 31 47 32 48 79 49 33 50 84 51 78 52 80 53
REMARK SMILES IDX 34 54 83 55 77 56 76 57 35 59 65 60 46 61 64 62 47 63 50 64
REMARK SMILES IDX 63 65 81 66 48 67 49 68 62 70 82 71 51 72 36 73 37 74 45 75
REMARK SMILES IDX 38 76 44 77 39 78 40 79 41 80 42 81 43 82 66 83 67 84 75 85
REMARK SMILES IDX 68 86 74 87 69 88 70 89 71 90 72 91 73 92 52 93 53 94 61 95
REMARK SMILES IDX 54 96 60 97 55 98 56 99 57 100 58 101 59 102
REMARK H PARENT 10 19 80 58 50 69
REMARK Flexibility Score: inf
ROOT
ATOM      1  O   UNL A   1      37.430  21.410  24.316  1.00  0.00    -0.374 OA
ENDROOT
BRANCH   1   2
ATOM      2  C   UNL A   1      36.923  22.685  23.913  1.00  0.00     0.202 C 
BRANCH   2   3
ATOM      3  C   UNL A   1      36.137  23.443  24.981  1.00  0.00     0.261 C 
BRANCH   3   4
ATOM      4  O   UNL A   1      35.265  24.408  24.358  1.00  0.00    -0.459 OA
BRANCH   4   5
ATOM      5  C   UNL A   1      34.227  23.876  23.682  1.00  0.00     0.355 C 
ATOM      6  O   UNL A   1      34.128  23.799  22.463  1.00  0.00    -0.244 OA
BRANCH   5   7
ATOM      7  C   UNL A   1      33.163  23.311  24.577  1.00  0.00     0.132 C 
ATOM      8  C   UNL A   1      30.893  25.430  26.023  1.00  0.00     0.206 C 
ATOM      9  C   UNL A   1      31.806  25.387  24.748  1.00  0.00     0.253 C 
ATOM     10  C   UNL A   1      31.659  24.126  26.413  1.00  0.00     0.181 C 
ATOM     11  O   UNL A   1      31.870  26.007  23.708  1.00  0.00    -0.272 OA
ATOM     12  N   UNL A   1      32.415  24.271  25.199  1.00  0.00    -0.289 N 
ATOM     13  S   UNL A   1      30.651  22.620  26.267  1.00  0.00    -0.129 SA
ATOM     14  C   UNL A   1      32.092  21.558  26.023  1.00  0.00     0.106 C 
ATOM     15  C   UNL A   1      32.974  21.998  24.864  1.00  0.00    -0.019 C 
BRANCH   8  16
ATOM     16  N   UNL A   1      31.075  26.684  26.792  1.00  0.00    -0.338 N 
ATOM     17  C   UNL A   1      31.433  27.965  26.464  1.00  0.00     0.252 C 
ATOM     18  O   UNL A   1      31.535  28.774  27.387  1.00  0.00    -0.269 OA
ATOM     19  H   UNL A   1      30.901  26.570  27.755  1.00  0.00     0.164 HD
BRANCH  17  20
ATOM     20  C   UNL A   1      31.635  28.440  25.070  1.00  0.00     0.040 A 
ATOM     21  C   UNL A   1      34.272  28.794  22.350  1.00  0.00     0.044 C 
ATOM     22  C   UNL A   1      32.962  28.870  23.080  1.00  0.00    -0.050 A 
ATOM     23  C   UNL A   1      31.798  29.210  22.379  1.00  0.00     0.006 A 
ATOM     24  C   UNL A   1      32.875  28.541  24.441  1.00  0.00     0.017 A 
ATOM     25  C   UNL A   1      30.558  29.230  23.025  1.00  0.00    -0.050 A 
ATOM     26  C   UNL A   1      29.331  29.675  22.287  1.00  0.00     0.044 C 
ATOM     27  C   UNL A   1      30.483  28.815  24.359  1.00  0.00     0.017 A 
ENDBRANCH  17  20
ENDBRANCH   8  16
BRANCH  15  28
ATOM     28  C   UNL A   1      33.669  20.833  24.195  1.00  0.00     0.111 C 
BRANCH  28  29
ATOM     29  S   UNL A   1      32.567  19.598  23.457  1.00  0.00    -0.089 SA
BRANCH  29  30
ATOM     30  C   UNL A   1      32.675  18.148  24.424  1.00  0.00     0.174 A 
ATOM     31  N   UNL A   1      32.236  18.019  25.655  1.00  0.00    -0.132 NA
ATOM     32  S   UNL A   1      33.405  16.719  23.821  1.00  0.00    -0.091 S 
ATOM     33  N   UNL A   1      32.348  16.719  26.128  1.00  0.00    -0.143 NA
ATOM     34  C   UNL A   1      32.920  15.924  25.250  1.00  0.00     0.115 A 
ATOM     35  C   UNL A   1      33.154  14.465  25.406  1.00  0.00     0.081 C 
ENDBRANCH  29  30
ENDBRANCH  28  29
ENDBRANCH  15  28
ENDBRANCH   5   7
ENDBRANCH   4   5
ENDBRANCH   3   4
ENDBRANCH   2   3
ENDBRANCH   1   2
BRANCH   1  36
ATOM     36  C   UNL A   1      38.303  21.389  25.444  1.00  0.00     0.202 C 
BRANCH  36  37
ATOM     37  C   UNL A   1      39.019  20.059  25.698  1.00  0.00     0.261 C 
BRANCH  37  38
ATOM     38  O   UNL A   1      40.025  20.171  26.716  1.00  0.00    -0.460 OA
BRANCH  38  39
ATOM     39  C   UNL A   1      41.287  19.868  26.323  1.00  0.00     0.338 C 
ATOM     40  O   UNL A   1      41.673  18.840  25.795  1.00  0.00    -0.246 OA
BRANCH  39  41
ATOM     41  C   UNL A   1      42.142  21.057  26.496  1.00  0.00     0.060 A 
ATOM     42  C   UNL A   1      42.485  21.447  27.794  1.00  0.00     0.016 A 
ATOM     43  C   UNL A   1      42.559  21.813  25.401  1.00  0.00     0.016 A 
ATOM     44  C   UNL A   1      43.222  22.614  27.996  1.00  0.00     0.010 A 
ATOM     45  C   UNL A   1      43.329  22.958  25.597  1.00  0.00     0.010 A 
ATOM     46  C   UNL A   1      43.621  23.392  26.900  1.00  0.00    -0.014 A 
BRANCH  46  47
ATOM     47  C   UNL A   1      44.175  24.752  27.106  1.00  0.00     0.031 A 
ATOM     48  C   UNL A   1      43.243  25.848  27.553  1.00  0.00     0.074 A 
ATOM     49  C   UNL A   1      45.479  25.007  26.903  1.00  0.00     0.049 A 
ATOM     50  N   UNL A   1      43.494  27.114  27.763  1.00  0.00    -0.248 NA
ATOM     51  C   UNL A   1      41.837  25.469  27.777  1.00  0.00     0.031 C 
ATOM     52  C   UNL A   1      46.479  24.028  26.478  1.00  0.00     0.029 A 
ATOM     53  N   UNL A   1      46.184  26.177  27.026  1.00  0.00    -0.354 N 
ATOM     54  C   UNL A   1      42.278  27.683  28.127  1.00  0.00     0.074 A 
ATOM     55  C   UNL A   1      41.283  26.636  28.066  1.00  0.00     0.031 C 
ATOM     56  C   UNL A   1      47.674  24.639  26.385  1.00  0.00     0.029 A 
ATOM     57  C   UNL A   1      47.517  26.053  26.716  1.00  0.00     0.049 A 
ATOM     58  H   UNL A   1      45.775  27.026  27.312  1.00  0.00     0.167 HD
ATOM     59  C   UNL A   1      42.014  28.958  28.496  1.00  0.00     0.031 A 
ATOM     60  C   UNL A   1      48.495  26.980  26.693  1.00  0.00     0.031 A 
ATOM     61  C   UNL A   1      43.006  29.995  28.566  1.00  0.00     0.049 A 
ATOM     62  C   UNL A   1      48.175  28.400  27.078  1.00  0.00     0.074 A 
ATOM     63  C   UNL A   1      42.850  31.311  28.960  1.00  0.00     0.029 A 
ATOM     64  N   UNL A   1      44.342  29.829  28.232  1.00  0.00    -0.354 N 
ATOM     65  N   UNL A   1      47.027  28.913  27.453  1.00  0.00    -0.248 NA
ATOM     66  C   UNL A   1      49.284  29.364  27.045  1.00  0.00     0.031 C 
ATOM     67  C   UNL A   1      44.085  31.954  28.823  1.00  0.00     0.029 A 
ATOM     68  C   UNL A   1      45.020  31.025  28.394  1.00  0.00     0.049 A 
ATOM     69  H   UNL A   1      44.748  28.986  27.927  1.00  0.00     0.167 HD
ATOM     70  C   UNL A   1      47.282  30.253  27.726  1.00  0.00     0.074 A 
ATOM     71  C   UNL A   1      48.694  30.469  27.481  1.00  0.00     0.031 C 
ATOM     72  C   UNL A   1      46.426  31.217  28.145  1.00  0.00     0.031 A 
BRANCH  59  73
ATOM     73  C   UNL A   1      40.586  29.296  28.833  1.00  0.00    -0.014 A 
ATOM     74  C   UNL A   1      40.165  29.429  30.169  1.00  0.00     0.010 A 
ATOM     75  C   UNL A   1      39.653  29.491  27.799  1.00  0.00     0.010 A 
ATOM     76  C   UNL A   1      38.827  29.700  30.465  1.00  0.00     0.020 A 
ATOM     77  C   UNL A   1      38.319  29.789  28.091  1.00  0.00     0.020 A 
ATOM     78  C   UNL A   1      37.910  29.871  29.423  1.00  0.00     0.054 A 
BRANCH  78  79
ATOM     79  S   UNL A   1      36.179  30.224  29.834  1.00  0.00     0.124 S 
ATOM     80  O   UNL A   1      36.064  29.647  31.171  1.00  0.00    -0.237 OA
ATOM     81  O   UNL A   1      36.126  31.683  29.774  1.00  0.00    -0.237 OA
ATOM     82  O   UNL A   1      35.429  29.533  28.790  1.00  0.00    -0.744 OA
ENDBRANCH  78  79
ENDBRANCH  59  73
BRANCH  60  83
ATOM     83  C   UNL A   1      49.876  26.587  26.300  1.00  0.00    -0.014 A 
ATOM     84  C   UNL A   1      50.719  25.930  27.211  1.00  0.00     0.010 A 
ATOM     85  C   UNL A   1      50.346  26.853  25.001  1.00  0.00     0.010 A 
ATOM     86  C   UNL A   1      52.011  25.551  26.835  1.00  0.00     0.020 A 
ATOM     87  C   UNL A   1      51.629  26.455  24.613  1.00  0.00     0.020 A 
ATOM     88  C   UNL A   1      52.457  25.813  25.536  1.00  0.00     0.054 A 
BRANCH  88  89
ATOM     89  S   UNL A   1      54.111  25.251  25.045  1.00  0.00     0.124 S 
ATOM     90  O   UNL A   1      54.283  25.904  23.752  1.00  0.00    -0.237 OA
ATOM     91  O   UNL A   1      54.951  25.758  26.127  1.00  0.00    -0.237 OA
ATOM     92  O   UNL A   1      53.977  23.796  25.002  1.00  0.00    -0.744 OA
ENDBRANCH  88  89
ENDBRANCH  60  83
BRANCH  72  93
ATOM     93  C   UNL A   1      46.992  32.587  28.398  1.00  0.00    -0.014 A 
ATOM     94  C   UNL A   1      47.330  33.005  29.697  1.00  0.00     0.010 A 
ATOM     95  C   UNL A   1      47.256  33.440  27.311  1.00  0.00     0.010 A 
ATOM     96  C   UNL A   1      47.902  34.263  29.906  1.00  0.00     0.020 A 
ATOM     97  C   UNL A   1      47.850  34.688  27.514  1.00  0.00     0.020 A 
ATOM     98  C   UNL A   1      48.158  35.097  28.812  1.00  0.00     0.054 A 
BRANCH  98  99
ATOM     99  S   UNL A   1      48.950  36.702  29.103  1.00  0.00     0.124 S 
ATOM    100  O   UNL A   1      48.798  37.355  27.806  1.00  0.00    -0.237 OA
ATOM    101  O   UNL A   1      48.148  37.265  30.187  1.00  0.00    -0.237 OA
ATOM    102  O   UNL A   1      50.320  36.351  29.468  1.00  0.00    -0.744 OA
ENDBRANCH  98  99
ENDBRANCH  72  93
ENDBRANCH  46  47
ENDBRANCH  39  41
ENDBRANCH  38  39
ENDBRANCH  37  38
ENDBRANCH  36  37
ENDBRANCH   1  36
TORSDOF 22
ENDMDL
