MODEL 1
REMARK VINA RESULT:     -11.8      0.000      0.000
REMARK SMILES Cc1ccc(C(=O)OCCOCCOC(=O)c2ccc(-c3c4nc(c(-c5ccc(S(=O)(=O)[O-])cc5)c5ccc([nH]5)c(-c5ccc(S(=O)(=O)[O-])cc5)c5nc(c(-c6ccc(S(=O)(=O)[O-])cc6)c6ccc3[nH]6)C=C5)C=C4)cc2)cc1NC(=O)c1nn(C)c(=O)c2ccccc12
REMARK SMILES IDX 12 1 11 2 10 3 9 4 8 5 6 6 7 7 5 8 1 9 2 10 3 11 78 12 4 13
REMARK SMILES IDX 77 14 79 15 80 16 81 18 82 19 83 20 93 21 84 22 88 23 92 24
REMARK SMILES IDX 85 25 86 26 89 27 91 28 87 29 90 30 13 31 14 32 15 33 16 34
REMARK SMILES IDX 17 35 18 36 76 37 19 38 75 39 20 40 21 41 22 42 69 43 23 44
REMARK SMILES IDX 74 45 68 46 70 47 24 48 73 49 67 50 66 51 25 53 55 54 36 55
REMARK SMILES IDX 54 56 37 57 40 58 53 59 71 60 38 61 39 62 52 64 72 65 41 66
REMARK SMILES IDX 26 67 27 68 35 69 28 70 34 71 29 72 30 73 31 74 32 75 33 76
REMARK SMILES IDX 56 77 57 78 65 79 58 80 64 81 59 82 60 83 61 84 62 85 63 86
REMARK SMILES IDX 42 87 43 88 51 89 44 90 50 91 45 92 46 93 47 94 48 95 49 96
REMARK H PARENT 79 17 70 52 40 63
REMARK Flexibility Score: inf
ROOT
ATOM      1  C   UNL A   1      37.281  20.027  25.044  1.00  0.00     0.202 C 
ENDROOT
BRANCH   1   2
ATOM      2  O   UNL A   1      35.886  19.892  25.188  1.00  0.00    -0.374 OA
BRANCH   2   3
ATOM      3  C   UNL A   1      35.329  18.733  24.591  1.00  0.00     0.202 C 
BRANCH   3   4
ATOM      4  C   UNL A   1      33.854  18.874  24.742  1.00  0.00     0.261 C 
BRANCH   4   5
ATOM      5  O   UNL A   1      33.501  20.018  25.530  1.00  0.00    -0.460 OA
BRANCH   5   6
ATOM      6  C   UNL A   1      32.577  20.951  25.126  1.00  0.00     0.338 C 
ATOM      7  O   UNL A   1      31.397  20.979  25.244  1.00  0.00    -0.246 OA
BRANCH   6   8
ATOM      8  C   UNL A   1      33.451  22.046  24.627  1.00  0.00     0.062 A 
ATOM      9  C   UNL A   1      33.605  25.927  22.942  1.00  0.00     0.046 C 
ATOM     10  C   UNL A   1      33.660  24.598  23.638  1.00  0.00    -0.027 A 
ATOM     11  C   UNL A   1      33.662  23.477  22.761  1.00  0.00     0.006 A 
ATOM     12  C   UNL A   1      33.696  24.411  25.043  1.00  0.00     0.045 A 
ATOM     13  C   UNL A   1      33.515  22.191  23.253  1.00  0.00     0.016 A 
ATOM     14  C   UNL A   1      33.737  23.104  25.507  1.00  0.00     0.042 A 
BRANCH  12  15
ATOM     15  N   UNL A   1      33.373  25.438  25.994  1.00  0.00    -0.320 N 
ATOM     16  C   UNL A   1      32.062  25.779  26.408  1.00  0.00     0.276 C 
ATOM     17  H   UNL A   1      34.120  25.945  26.386  1.00  0.00     0.170 HD
ATOM     18  O   UNL A   1      31.199  24.993  26.767  1.00  0.00    -0.267 OA
BRANCH  16  19
ATOM     19  C   UNL A   1      31.713  27.276  26.180  1.00  0.00     0.157 A 
ATOM     20  N   UNL A   1      32.343  28.038  27.029  1.00  0.00    -0.164 NA
ATOM     21  C   UNL A   1      30.991  27.846  24.982  1.00  0.00     0.020 A 
ATOM     22  N   UNL A   1      32.490  29.361  26.724  1.00  0.00    -0.232 N 
ATOM     23  C   UNL A   1      30.981  29.248  24.878  1.00  0.00     0.051 A 
ATOM     24  C   UNL A   1      30.493  27.121  23.890  1.00  0.00     0.011 A 
ATOM     25  C   UNL A   1      33.879  29.726  26.502  1.00  0.00     0.178 C 
ATOM     26  C   UNL A   1      31.576  30.058  25.949  1.00  0.00     0.274 A 
ATOM     27  C   UNL A   1      30.629  29.912  23.689  1.00  0.00     0.014 A 
ATOM     28  C   UNL A   1      30.138  27.788  22.692  1.00  0.00     0.001 A 
ATOM     29  O   UNL A   1      31.381  31.265  26.023  1.00  0.00    -0.267 OA
ATOM     30  C   UNL A   1      30.241  29.175  22.581  1.00  0.00     0.001 A 
ENDBRANCH  16  19
ENDBRANCH  12  15
ENDBRANCH   6   8
ENDBRANCH   5   6
ENDBRANCH   4   5
ENDBRANCH   3   4
ENDBRANCH   2   3
ENDBRANCH   1   2
BRANCH   1  31
ATOM     31  C   UNL A   1      37.711  21.423  24.580  1.00  0.00     0.261 C 
BRANCH  31  32
ATOM     32  O   UNL A   1      38.169  22.189  25.713  1.00  0.00    -0.460 OA
BRANCH  32  33
ATOM     33  C   UNL A   1      37.882  23.525  25.679  1.00  0.00     0.338 C 
ATOM     34  O   UNL A   1      36.961  24.001  25.043  1.00  0.00    -0.246 OA
BRANCH  33  35
ATOM     35  C   UNL A   1      38.873  24.280  26.506  1.00  0.00     0.060 A 
ATOM     36  C   UNL A   1      38.715  24.414  27.896  1.00  0.00     0.016 A 
ATOM     37  C   UNL A   1      39.864  25.017  25.856  1.00  0.00     0.016 A 
ATOM     38  C   UNL A   1      39.462  25.372  28.607  1.00  0.00     0.010 A 
ATOM     39  C   UNL A   1      40.545  26.004  26.543  1.00  0.00     0.010 A 
ATOM     40  C   UNL A   1      40.332  26.214  27.915  1.00  0.00    -0.014 A 
BRANCH  40  41
ATOM     41  C   UNL A   1      40.996  27.412  28.443  1.00  0.00     0.031 A 
ATOM     42  C   UNL A   1      40.235  28.659  28.591  1.00  0.00     0.074 A 
ATOM     43  C   UNL A   1      42.173  27.310  29.098  1.00  0.00     0.049 A 
ATOM     44  N   UNL A   1      40.760  29.792  28.917  1.00  0.00    -0.248 NA
ATOM     45  C   UNL A   1      38.799  28.749  28.340  1.00  0.00     0.031 C 
ATOM     46  C   UNL A   1      42.752  28.159  30.140  1.00  0.00     0.029 A 
ATOM     47  N   UNL A   1      43.200  26.426  28.827  1.00  0.00    -0.354 N 
ATOM     48  C   UNL A   1      39.722  30.560  29.381  1.00  0.00     0.074 A 
ATOM     49  C   UNL A   1      38.544  29.982  28.786  1.00  0.00     0.031 C 
ATOM     50  C   UNL A   1      44.084  27.976  30.173  1.00  0.00     0.029 A 
ATOM     51  C   UNL A   1      44.395  27.102  29.056  1.00  0.00     0.049 A 
ATOM     52  H   UNL A   1      43.106  25.492  28.529  1.00  0.00     0.167 HD
ATOM     53  C   UNL A   1      39.961  31.424  30.407  1.00  0.00     0.031 A 
ATOM     54  C   UNL A   1      45.263  27.289  28.030  1.00  0.00     0.031 A 
ATOM     55  C   UNL A   1      41.398  31.562  30.689  1.00  0.00     0.049 A 
ATOM     56  C   UNL A   1      45.563  28.740  27.967  1.00  0.00     0.074 A 
ATOM     57  C   UNL A   1      42.196  31.262  31.781  1.00  0.00     0.029 A 
ATOM     58  N   UNL A   1      42.269  31.848  29.639  1.00  0.00    -0.354 N 
ATOM     59  N   UNL A   1      44.641  29.638  28.186  1.00  0.00    -0.248 NA
ATOM     60  C   UNL A   1      46.917  29.283  27.917  1.00  0.00     0.031 C 
ATOM     61  C   UNL A   1      43.555  31.291  31.350  1.00  0.00     0.029 A 
ATOM     62  C   UNL A   1      43.579  31.629  30.005  1.00  0.00     0.049 A 
ATOM     63  H   UNL A   1      41.986  32.165  28.751  1.00  0.00     0.167 HD
ATOM     64  C   UNL A   1      45.270  30.807  28.483  1.00  0.00     0.074 A 
ATOM     65  C   UNL A   1      46.682  30.572  28.221  1.00  0.00     0.031 C 
ATOM     66  C   UNL A   1      44.652  31.872  29.057  1.00  0.00     0.031 A 
BRANCH  53  67
ATOM     67  C   UNL A   1      38.881  31.956  31.330  1.00  0.00    -0.014 A 
ATOM     68  C   UNL A   1      38.670  33.347  31.420  1.00  0.00     0.010 A 
ATOM     69  C   UNL A   1      38.092  31.163  32.187  1.00  0.00     0.010 A 
ATOM     70  C   UNL A   1      37.734  33.905  32.304  1.00  0.00     0.020 A 
ATOM     71  C   UNL A   1      37.132  31.700  33.055  1.00  0.00     0.020 A 
ATOM     72  C   UNL A   1      36.960  33.074  33.109  1.00  0.00     0.054 A 
BRANCH  72  73
ATOM     73  S   UNL A   1      35.720  33.799  34.208  1.00  0.00     0.124 S 
ATOM     74  O   UNL A   1      34.505  33.084  33.825  1.00  0.00    -0.237 OA
ATOM     75  O   UNL A   1      36.250  33.482  35.531  1.00  0.00    -0.237 OA
ATOM     76  O   UNL A   1      35.736  35.219  33.862  1.00  0.00    -0.744 OA
ENDBRANCH  72  73
ENDBRANCH  53  67
BRANCH  54  77
ATOM     77  C   UNL A   1      45.094  26.260  26.961  1.00  0.00    -0.014 A 
ATOM     78  C   UNL A   1      45.589  24.985  27.312  1.00  0.00     0.010 A 
ATOM     79  C   UNL A   1      44.206  26.320  25.879  1.00  0.00     0.010 A 
ATOM     80  C   UNL A   1      45.227  23.820  26.651  1.00  0.00     0.020 A 
ATOM     81  C   UNL A   1      43.806  25.131  25.213  1.00  0.00     0.020 A 
ATOM     82  C   UNL A   1      44.312  23.890  25.619  1.00  0.00     0.054 A 
BRANCH  82  83
ATOM     83  S   UNL A   1      43.685  22.298  25.021  1.00  0.00     0.124 S 
ATOM     84  O   UNL A   1      42.270  22.388  25.366  1.00  0.00    -0.237 OA
ATOM     85  O   UNL A   1      43.984  22.377  23.588  1.00  0.00    -0.237 OA
ATOM     86  O   UNL A   1      44.467  21.321  25.769  1.00  0.00    -0.744 OA
ENDBRANCH  82  83
ENDBRANCH  54  77
BRANCH  66  87
ATOM     87  C   UNL A   1      45.021  33.268  28.669  1.00  0.00    -0.014 A 
ATOM     88  C   UNL A   1      45.229  33.639  27.328  1.00  0.00     0.010 A 
ATOM     89  C   UNL A   1      44.935  34.296  29.631  1.00  0.00     0.010 A 
ATOM     90  C   UNL A   1      45.404  34.971  26.969  1.00  0.00     0.020 A 
ATOM     91  C   UNL A   1      45.059  35.637  29.272  1.00  0.00     0.020 A 
ATOM     92  C   UNL A   1      45.322  35.961  27.945  1.00  0.00     0.054 A 
BRANCH  92  93
ATOM     93  S   UNL A   1      45.531  37.680  27.441  1.00  0.00     0.124 S 
ATOM     94  O   UNL A   1      46.400  37.539  26.274  1.00  0.00    -0.237 OA
ATOM     95  O   UNL A   1      44.162  38.101  27.153  1.00  0.00    -0.237 OA
ATOM     96  O   UNL A   1      46.142  38.311  28.606  1.00  0.00    -0.744 OA
ENDBRANCH  92  93
ENDBRANCH  66  87
ENDBRANCH  40  41
ENDBRANCH  33  35
ENDBRANCH  32  33
ENDBRANCH  31  32
ENDBRANCH   1  31
TORSDOF 19
ENDMDL
MODEL 2
REMARK VINA RESULT:     -11.7      1.532      2.349
REMARK SMILES Cc1ccc(C(=O)OCCOCCOC(=O)c2ccc(-c3c4nc(c(-c5ccc(S(=O)(=O)[O-])cc5)c5ccc([nH]5)c(-c5ccc(S(=O)(=O)[O-])cc5)c5nc(c(-c6ccc(S(=O)(=O)[O-])cc6)c6ccc3[nH]6)C=C5)C=C4)cc2)cc1NC(=O)c1nn(C)c(=O)c2ccccc12
REMARK SMILES IDX 12 1 11 2 10 3 9 4 8 5 6 6 7 7 5 8 1 9 2 10 3 11 78 12 4 13
REMARK SMILES IDX 77 14 79 15 80 16 81 18 82 19 83 20 93 21 84 22 88 23 92 24
REMARK SMILES IDX 85 25 86 26 89 27 91 28 87 29 90 30 13 31 14 32 15 33 16 34
REMARK SMILES IDX 17 35 18 36 76 37 19 38 75 39 20 40 21 41 22 42 69 43 23 44
REMARK SMILES IDX 74 45 68 46 70 47 24 48 73 49 67 50 66 51 25 53 55 54 36 55
REMARK SMILES IDX 54 56 37 57 40 58 53 59 71 60 38 61 39 62 52 64 72 65 41 66
REMARK SMILES IDX 26 67 27 68 35 69 28 70 34 71 29 72 30 73 31 74 32 75 33 76
REMARK SMILES IDX 56 77 57 78 65 79 58 80 64 81 59 82 60 83 61 84 62 85 63 86
REMARK SMILES IDX 42 87 43 88 51 89 44 90 50 91 45 92 46 93 47 94 48 95 49 96
REMARK H PARENT 79 17 70 52 40 63
REMARK Flexibility Score: inf
ROOT
ATOM      1  C   UNL A   1      35.883  23.646  25.261  1.00  0.00     0.202 C 
ENDROOT
BRANCH   1   2
ATOM      2  O   UNL A   1      34.805  23.599  24.355  1.00  0.00    -0.374 OA
BRANCH   2   3
ATOM      3  C   UNL A   1      34.991  22.742  23.241  1.00  0.00     0.202 C 
BRANCH   3   4
ATOM      4  C   UNL A   1      33.879  23.057  22.301  1.00  0.00     0.261 C 
BRANCH   4   5
ATOM      5  O   UNL A   1      32.607  22.642  22.815  1.00  0.00    -0.460 OA
BRANCH   5   6
ATOM      6  C   UNL A   1      32.280  21.326  23.034  1.00  0.00     0.338 C 
ATOM      7  O   UNL A   1      32.245  20.401  22.293  1.00  0.00    -0.246 OA
BRANCH   6   8
ATOM      8  C   UNL A   1      32.131  21.293  24.513  1.00  0.00     0.062 A 
ATOM      9  C   UNL A   1      33.765  22.468  28.237  1.00  0.00     0.046 C 
ATOM     10  C   UNL A   1      33.049  22.099  26.970  1.00  0.00    -0.027 A 
ATOM     11  C   UNL A   1      33.407  20.827  26.444  1.00  0.00     0.006 A 
ATOM     12  C   UNL A   1      32.097  22.912  26.302  1.00  0.00     0.045 A 
ATOM     13  C   UNL A   1      32.980  20.434  25.187  1.00  0.00     0.016 A 
ATOM     14  C   UNL A   1      31.543  22.407  25.135  1.00  0.00     0.042 A 
BRANCH  12  15
ATOM     15  N   UNL A   1      31.918  24.312  26.566  1.00  0.00    -0.320 N 
ATOM     16  C   UNL A   1      30.708  25.026  26.381  1.00  0.00     0.276 C 
ATOM     17  H   UNL A   1      32.696  24.815  26.900  1.00  0.00     0.170 HD
ATOM     18  O   UNL A   1      29.606  24.677  26.773  1.00  0.00    -0.267 OA
BRANCH  16  19
ATOM     19  C   UNL A   1      30.852  26.247  25.430  1.00  0.00     0.157 A 
ATOM     20  N   UNL A   1      30.185  26.062  24.326  1.00  0.00    -0.164 NA
ATOM     21  C   UNL A   1      31.423  27.597  25.800  1.00  0.00     0.020 A 
ATOM     22  N   UNL A   1      29.856  27.158  23.580  1.00  0.00    -0.232 N 
ATOM     23  C   UNL A   1      31.250  28.619  24.851  1.00  0.00     0.051 A 
ATOM     24  C   UNL A   1      31.939  27.966  27.050  1.00  0.00     0.011 A 
ATOM     25  C   UNL A   1      28.421  27.384  23.535  1.00  0.00     0.178 C 
ATOM     26  C   UNL A   1      30.626  28.310  23.559  1.00  0.00     0.274 A 
ATOM     27  C   UNL A   1      31.443  29.977  25.164  1.00  0.00     0.014 A 
ATOM     28  C   UNL A   1      32.133  29.332  27.368  1.00  0.00     0.001 A 
ATOM     29  O   UNL A   1      30.673  29.096  22.620  1.00  0.00    -0.267 OA
ATOM     30  C   UNL A   1      31.851  30.336  26.440  1.00  0.00     0.001 A 
ENDBRANCH  16  19
ENDBRANCH  12  15
ENDBRANCH   6   8
ENDBRANCH   5   6
ENDBRANCH   4   5
ENDBRANCH   3   4
ENDBRANCH   2   3
ENDBRANCH   1   2
BRANCH   1  31
ATOM     31  C   UNL A   1      36.591  22.298  25.431  1.00  0.00     0.261 C 
BRANCH  31  32
ATOM     32  O   UNL A   1      37.988  22.442  25.102  1.00  0.00    -0.460 OA
BRANCH  32  33
ATOM     33  C   UNL A   1      38.846  22.472  26.164  1.00  0.00     0.338 C 
ATOM     34  O   UNL A   1      39.281  21.474  26.709  1.00  0.00    -0.246 OA
BRANCH  33  35
ATOM     35  C   UNL A   1      39.132  23.888  26.549  1.00  0.00     0.060 A 
ATOM     36  C   UNL A   1      39.947  24.712  25.753  1.00  0.00     0.016 A 
ATOM     37  C   UNL A   1      38.734  24.333  27.810  1.00  0.00     0.016 A 
ATOM     38  C   UNL A   1      40.460  25.916  26.271  1.00  0.00     0.010 A 
ATOM     39  C   UNL A   1      39.294  25.479  28.340  1.00  0.00     0.010 A 
ATOM     40  C   UNL A   1      40.184  26.266  27.592  1.00  0.00    -0.014 A 
BRANCH  40  41
ATOM     41  C   UNL A   1      40.822  27.340  28.364  1.00  0.00     0.031 A 
ATOM     42  C   UNL A   1      40.161  28.647  28.476  1.00  0.00     0.074 A 
ATOM     43  C   UNL A   1      41.816  27.059  29.236  1.00  0.00     0.049 A 
ATOM     44  N   UNL A   1      40.702  29.686  29.015  1.00  0.00    -0.248 NA
ATOM     45  C   UNL A   1      38.827  28.911  27.943  1.00  0.00     0.031 C 
ATOM     46  C   UNL A   1      42.230  27.756  30.455  1.00  0.00     0.029 A 
ATOM     47  N   UNL A   1      42.795  26.094  29.096  1.00  0.00    -0.354 N 
ATOM     48  C   UNL A   1      39.662  30.523  29.328  1.00  0.00     0.074 A 
ATOM     49  C   UNL A   1      38.593  30.125  28.447  1.00  0.00     0.031 C 
ATOM     50  C   UNL A   1      43.502  27.428  30.743  1.00  0.00     0.029 A 
ATOM     51  C   UNL A   1      43.967  26.617  29.634  1.00  0.00     0.049 A 
ATOM     52  H   UNL A   1      42.684  25.202  28.692  1.00  0.00     0.167 HD
ATOM     53  C   UNL A   1      39.748  31.272  30.463  1.00  0.00     0.031 A 
ATOM     54  C   UNL A   1      45.050  26.789  28.834  1.00  0.00     0.031 A 
ATOM     55  C   UNL A   1      41.097  31.232  31.049  1.00  0.00     0.049 A 
ATOM     56  C   UNL A   1      45.484  28.200  28.980  1.00  0.00     0.074 A 
ATOM     57  C   UNL A   1      41.610  30.762  32.247  1.00  0.00     0.029 A 
ATOM     58  N   UNL A   1      42.197  31.503  30.236  1.00  0.00    -0.354 N 
ATOM     59  N   UNL A   1      44.620  29.172  29.092  1.00  0.00    -0.248 NA
ATOM     60  C   UNL A   1      46.860  28.595  29.267  1.00  0.00     0.031 C 
ATOM     61  C   UNL A   1      43.027  30.678  32.112  1.00  0.00     0.029 A 
ATOM     62  C   UNL A   1      43.372  31.116  30.841  1.00  0.00     0.049 A 
ATOM     63  H   UNL A   1      42.141  31.919  29.346  1.00  0.00     0.167 HD
ATOM     64  C   UNL A   1      45.271  30.238  29.629  1.00  0.00     0.074 A 
ATOM     65  C   UNL A   1      46.680  29.873  29.642  1.00  0.00     0.031 C 
ATOM     66  C   UNL A   1      44.642  31.316  30.166  1.00  0.00     0.031 A 
BRANCH  53  67
ATOM     67  C   UNL A   1      38.547  31.844  31.191  1.00  0.00    -0.014 A 
ATOM     68  C   UNL A   1      38.425  33.241  31.338  1.00  0.00     0.010 A 
ATOM     69  C   UNL A   1      37.543  31.075  31.815  1.00  0.00     0.010 A 
ATOM     70  C   UNL A   1      37.373  33.828  32.058  1.00  0.00     0.020 A 
ATOM     71  C   UNL A   1      36.471  31.645  32.513  1.00  0.00     0.020 A 
ATOM     72  C   UNL A   1      36.393  33.023  32.633  1.00  0.00     0.054 A 
BRANCH  72  73
ATOM     73  S   UNL A   1      35.013  33.790  33.515  1.00  0.00     0.124 S 
ATOM     74  O   UNL A   1      33.856  33.110  32.939  1.00  0.00    -0.237 OA
ATOM     75  O   UNL A   1      35.311  33.464  34.907  1.00  0.00    -0.237 OA
ATOM     76  O   UNL A   1      35.128  35.207  33.176  1.00  0.00    -0.744 OA
ENDBRANCH  72  73
ENDBRANCH  53  67
BRANCH  54  77
ATOM     77  C   UNL A   1      45.025  25.872  27.656  1.00  0.00    -0.014 A 
ATOM     78  C   UNL A   1      45.351  24.533  27.965  1.00  0.00     0.010 A 
ATOM     79  C   UNL A   1      44.375  26.100  26.435  1.00  0.00     0.010 A 
ATOM     80  C   UNL A   1      45.048  23.465  27.135  1.00  0.00     0.020 A 
ATOM     81  C   UNL A   1      44.033  25.010  25.591  1.00  0.00     0.020 A 
ATOM     82  C   UNL A   1      44.362  23.700  25.961  1.00  0.00     0.054 A 
BRANCH  82  83
ATOM     83  S   UNL A   1      43.757  22.225  25.099  1.00  0.00     0.124 S 
ATOM     84  O   UNL A   1      43.959  22.593  23.701  1.00  0.00    -0.237 OA
ATOM     85  O   UNL A   1      44.661  21.188  25.608  1.00  0.00    -0.237 OA
ATOM     86  O   UNL A   1      42.372  22.117  25.540  1.00  0.00    -0.744 OA
ENDBRANCH  82  83
ENDBRANCH  54  77
BRANCH  66  87
ATOM     87  C   UNL A   1      45.208  32.690  30.004  1.00  0.00    -0.014 A 
ATOM     88  C   UNL A   1      45.511  33.228  28.741  1.00  0.00     0.010 A 
ATOM     89  C   UNL A   1      45.227  33.562  31.113  1.00  0.00     0.010 A 
ATOM     90  C   UNL A   1      45.877  34.562  28.595  1.00  0.00     0.020 A 
ATOM     91  C   UNL A   1      45.543  34.911  30.969  1.00  0.00     0.020 A 
ATOM     92  C   UNL A   1      45.894  35.394  29.711  1.00  0.00     0.054 A 
BRANCH  92  93
ATOM     93  S   UNL A   1      46.350  37.124  29.483  1.00  0.00     0.124 S 
ATOM     94  O   UNL A   1      46.706  37.147  28.066  1.00  0.00    -0.237 OA
ATOM     95  O   UNL A   1      45.119  37.830  29.831  1.00  0.00    -0.237 OA
ATOM     96  O   UNL A   1      47.459  37.315  30.412  1.00  0.00    -0.744 OA
ENDBRANCH  92  93
ENDBRANCH  66  87
ENDBRANCH  40  41
ENDBRANCH  33  35
ENDBRANCH  32  33
ENDBRANCH  31  32
ENDBRANCH   1  31
TORSDOF 19
ENDMDL
MODEL 3
REMARK VINA RESULT:     -11.0      1.416      2.038
REMARK SMILES Cc1ccc(C(=O)OCCOCCOC(=O)c2ccc(-c3c4nc(c(-c5ccc(S(=O)(=O)[O-])cc5)c5ccc([nH]5)c(-c5ccc(S(=O)(=O)[O-])cc5)c5nc(c(-c6ccc(S(=O)(=O)[O-])cc6)c6ccc3[nH]6)C=C5)C=C4)cc2)cc1NC(=O)c1nn(C)c(=O)c2ccccc12
REMARK SMILES IDX 12 1 11 2 10 3 9 4 8 5 6 6 7 7 5 8 1 9 2 10 3 11 78 12 4 13
REMARK SMILES IDX 77 14 79 15 80 16 81 18 82 19 83 20 93 21 84 22 88 23 92 24
REMARK SMILES IDX 85 25 86 26 89 27 91 28 87 29 90 30 13 31 14 32 15 33 16 34
REMARK SMILES IDX 17 35 18 36 76 37 19 38 75 39 20 40 21 41 22 42 69 43 23 44
REMARK SMILES IDX 74 45 68 46 70 47 24 48 73 49 67 50 66 51 25 53 55 54 36 55
REMARK SMILES IDX 54 56 37 57 40 58 53 59 71 60 38 61 39 62 52 64 72 65 41 66
REMARK SMILES IDX 26 67 27 68 35 69 28 70 34 71 29 72 30 73 31 74 32 75 33 76
REMARK SMILES IDX 56 77 57 78 65 79 58 80 64 81 59 82 60 83 61 84 62 85 63 86
REMARK SMILES IDX 42 87 43 88 51 89 44 90 50 91 45 92 46 93 47 94 48 95 49 96
REMARK H PARENT 79 17 70 52 40 63
REMARK Flexibility Score: inf
ROOT
ATOM      1  C   UNL A   1      36.760  20.231  25.015  1.00  0.00     0.202 C 
ENDROOT
BRANCH   1   2
ATOM      2  O   UNL A   1      35.359  20.326  24.897  1.00  0.00    -0.374 OA
BRANCH   2   3
ATOM      3  C   UNL A   1      34.684  19.090  24.736  1.00  0.00     0.202 C 
BRANCH   3   4
ATOM      4  C   UNL A   1      33.259  19.363  25.076  1.00  0.00     0.261 C 
BRANCH   4   5
ATOM      5  O   UNL A   1      33.086  20.661  25.659  1.00  0.00    -0.460 OA
BRANCH   5   6
ATOM      6  C   UNL A   1      32.098  21.532  25.270  1.00  0.00     0.338 C 
ATOM      7  O   UNL A   1      30.966  21.628  25.612  1.00  0.00    -0.246 OA
BRANCH   6   8
ATOM      8  C   UNL A   1      32.851  22.476  24.402  1.00  0.00     0.062 A 
ATOM      9  C   UNL A   1      32.594  25.603  21.559  1.00  0.00     0.046 C 
ATOM     10  C   UNL A   1      32.792  24.579  22.639  1.00  0.00    -0.027 A 
ATOM     11  C   UNL A   1      32.880  23.240  22.168  1.00  0.00     0.006 A 
ATOM     12  C   UNL A   1      32.880  24.860  24.027  1.00  0.00     0.045 A 
ATOM     13  C   UNL A   1      32.868  22.174  23.052  1.00  0.00     0.016 A 
ATOM     14  C   UNL A   1      33.056  23.781  24.881  1.00  0.00     0.042 A 
BRANCH  12  15
ATOM     15  N   UNL A   1      32.483  26.109  24.615  1.00  0.00    -0.320 N 
ATOM     16  C   UNL A   1      31.149  26.476  24.921  1.00  0.00     0.276 C 
ATOM     17  H   UNL A   1      33.192  26.760  24.821  1.00  0.00     0.170 HD
ATOM     18  O   UNL A   1      30.337  25.787  25.517  1.00  0.00    -0.267 OA
BRANCH  16  19
ATOM     19  C   UNL A   1      30.705  27.803  24.243  1.00  0.00     0.157 A 
ATOM     20  N   UNL A   1      29.825  27.579  23.308  1.00  0.00    -0.164 NA
ATOM     21  C   UNL A   1      30.992  29.197  24.750  1.00  0.00     0.020 A 
ATOM     22  N   UNL A   1      29.032  28.615  22.906  1.00  0.00    -0.232 N 
ATOM     23  C   UNL A   1      30.305  30.240  24.104  1.00  0.00     0.051 A 
ATOM     24  C   UNL A   1      31.726  29.529  25.897  1.00  0.00     0.011 A 
ATOM     25  C   UNL A   1      27.634  28.402  23.241  1.00  0.00     0.178 C 
ATOM     26  C   UNL A   1      29.444  29.938  22.954  1.00  0.00     0.274 A 
ATOM     27  C   UNL A   1      30.225  31.536  24.645  1.00  0.00     0.014 A 
ATOM     28  C   UNL A   1      31.646  30.833  26.444  1.00  0.00     0.001 A 
ATOM     29  O   UNL A   1      29.024  30.822  22.217  1.00  0.00    -0.267 OA
ATOM     30  C   UNL A   1      30.869  31.822  25.839  1.00  0.00     0.001 A 
ENDBRANCH  16  19
ENDBRANCH  12  15
ENDBRANCH   6   8
ENDBRANCH   5   6
ENDBRANCH   4   5
ENDBRANCH   3   4
ENDBRANCH   2   3
ENDBRANCH   1   2
BRANCH   1  31
ATOM     31  C   UNL A   1      37.498  21.459  24.470  1.00  0.00     0.261 C 
BRANCH  31  32
ATOM     32  O   UNL A   1      38.118  22.172  25.560  1.00  0.00    -0.460 OA
BRANCH  32  33
ATOM     33  C   UNL A   1      37.677  23.450  25.757  1.00  0.00     0.338 C 
ATOM     34  O   UNL A   1      36.672  23.904  25.244  1.00  0.00    -0.246 OA
BRANCH  33  35
ATOM     35  C   UNL A   1      38.621  24.182  26.658  1.00  0.00     0.060 A 
ATOM     36  C   UNL A   1      38.307  24.418  28.008  1.00  0.00     0.016 A 
ATOM     37  C   UNL A   1      39.740  24.797  26.098  1.00  0.00     0.016 A 
ATOM     38  C   UNL A   1      39.039  25.362  28.752  1.00  0.00     0.010 A 
ATOM     39  C   UNL A   1      40.412  25.773  26.809  1.00  0.00     0.010 A 
ATOM     40  C   UNL A   1      40.054  26.089  28.129  1.00  0.00    -0.014 A 
BRANCH  40  41
ATOM     41  C   UNL A   1      40.746  27.265  28.669  1.00  0.00     0.031 A 
ATOM     42  C   UNL A   1      40.097  28.581  28.609  1.00  0.00     0.074 A 
ATOM     43  C   UNL A   1      41.797  27.117  29.504  1.00  0.00     0.049 A 
ATOM     44  N   UNL A   1      40.676  29.688  28.933  1.00  0.00    -0.248 NA
ATOM     45  C   UNL A   1      38.729  28.772  28.133  1.00  0.00     0.031 C 
ATOM     46  C   UNL A   1      42.296  27.999  30.561  1.00  0.00     0.029 A 
ATOM     47  N   UNL A   1      42.762  26.129  29.458  1.00  0.00    -0.354 N 
ATOM     48  C   UNL A   1      39.661  30.579  29.174  1.00  0.00     0.074 A 
ATOM     49  C   UNL A   1      38.533  30.056  28.446  1.00  0.00     0.031 C 
ATOM     50  C   UNL A   1      43.585  27.705  30.812  1.00  0.00     0.029 A 
ATOM     51  C   UNL A   1      43.970  26.717  29.822  1.00  0.00     0.049 A 
ATOM     52  H   UNL A   1      42.622  25.185  29.215  1.00  0.00     0.167 HD
ATOM     53  C   UNL A   1      39.829  31.502  30.162  1.00  0.00     0.031 A 
ATOM     54  C   UNL A   1      44.994  26.742  28.932  1.00  0.00     0.031 A 
ATOM     55  C   UNL A   1      41.214  31.540  30.653  1.00  0.00     0.049 A 
ATOM     56  C   UNL A   1      45.441  28.151  28.815  1.00  0.00     0.074 A 
ATOM     57  C   UNL A   1      41.809  31.265  31.874  1.00  0.00     0.029 A 
ATOM     58  N   UNL A   1      42.255  31.660  29.734  1.00  0.00    -0.354 N 
ATOM     59  N   UNL A   1      44.589  29.141  28.825  1.00  0.00    -0.248 NA
ATOM     60  C   UNL A   1      46.834  28.570  28.938  1.00  0.00     0.031 C 
ATOM     61  C   UNL A   1      43.213  31.141  31.658  1.00  0.00     0.029 A 
ATOM     62  C   UNL A   1      43.469  31.361  30.313  1.00  0.00     0.049 A 
ATOM     63  H   UNL A   1      42.139  31.925  28.793  1.00  0.00     0.167 HD
ATOM     64  C   UNL A   1      45.278  30.272  29.134  1.00  0.00     0.074 A 
ATOM     65  C   UNL A   1      46.683  29.895  29.111  1.00  0.00     0.031 C 
ATOM     66  C   UNL A   1      44.689  31.431  29.529  1.00  0.00     0.031 A 
BRANCH  53  67
ATOM     67  C   UNL A   1      38.681  32.201  30.867  1.00  0.00    -0.014 A 
ATOM     68  C   UNL A   1      37.812  31.451  31.686  1.00  0.00     0.010 A 
ATOM     69  C   UNL A   1      38.353  33.563  30.716  1.00  0.00     0.010 A 
ATOM     70  C   UNL A   1      36.694  32.025  32.311  1.00  0.00     0.020 A 
ATOM     71  C   UNL A   1      37.259  34.159  31.355  1.00  0.00     0.020 A 
ATOM     72  C   UNL A   1      36.431  33.383  32.150  1.00  0.00     0.054 A 
BRANCH  72  73
ATOM     73  S   UNL A   1      35.018  34.125  33.000  1.00  0.00     0.124 S 
ATOM     74  O   UNL A   1      34.801  33.202  34.111  1.00  0.00    -0.237 OA
ATOM     75  O   UNL A   1      35.527  35.444  33.363  1.00  0.00    -0.237 OA
ATOM     76  O   UNL A   1      33.965  34.128  31.986  1.00  0.00    -0.744 OA
ENDBRANCH  72  73
ENDBRANCH  53  67
BRANCH  54  77
ATOM     77  C   UNL A   1      44.886  25.645  27.925  1.00  0.00    -0.014 A 
ATOM     78  C   UNL A   1      44.867  26.096  26.587  1.00  0.00     0.010 A 
ATOM     79  C   UNL A   1      45.179  24.291  28.133  1.00  0.00     0.010 A 
ATOM     80  C   UNL A   1      45.134  25.274  25.502  1.00  0.00     0.020 A 
ATOM     81  C   UNL A   1      45.483  23.446  27.032  1.00  0.00     0.020 A 
ATOM     82  C   UNL A   1      45.470  23.954  25.727  1.00  0.00     0.054 A 
BRANCH  82  83
ATOM     83  S   UNL A   1      46.085  23.047  24.283  1.00  0.00     0.124 S 
ATOM     84  O   UNL A   1      44.886  22.956  23.457  1.00  0.00    -0.237 OA
ATOM     85  O   UNL A   1      47.124  23.952  23.780  1.00  0.00    -0.237 OA
ATOM     86  O   UNL A   1      46.570  21.794  24.850  1.00  0.00    -0.744 OA
ENDBRANCH  82  83
ENDBRANCH  54  77
BRANCH  66  87
ATOM     87  C   UNL A   1      45.246  32.752  29.105  1.00  0.00    -0.014 A 
ATOM     88  C   UNL A   1      46.626  32.960  28.933  1.00  0.00     0.010 A 
ATOM     89  C   UNL A   1      44.366  33.753  28.643  1.00  0.00     0.010 A 
ATOM     90  C   UNL A   1      47.113  34.139  28.379  1.00  0.00     0.020 A 
ATOM     91  C   UNL A   1      44.843  34.916  28.041  1.00  0.00     0.020 A 
ATOM     92  C   UNL A   1      46.218  35.111  27.940  1.00  0.00     0.054 A 
BRANCH  92  93
ATOM     93  S   UNL A   1      46.882  36.618  27.205  1.00  0.00     0.124 S 
ATOM     94  O   UNL A   1      48.172  36.729  27.883  1.00  0.00    -0.237 OA
ATOM     95  O   UNL A   1      46.948  36.282  25.785  1.00  0.00    -0.237 OA
ATOM     96  O   UNL A   1      45.899  37.638  27.556  1.00  0.00    -0.744 OA
ENDBRANCH  92  93
ENDBRANCH  66  87
ENDBRANCH  40  41
ENDBRANCH  33  35
ENDBRANCH  32  33
ENDBRANCH  31  32
ENDBRANCH   1  31
TORSDOF 19
ENDMDL
