MODEL 1
REMARK VINA RESULT:      -9.5      0.000      0.000
REMARK SMILES C[C@H]([NH2+][C@@H]1CC(=O)N(C)C1=O)[C@H](C)C(=O)OCCOCCOC(=O)c1ccc(-c2c3nc(c(-c4ccc(S(=O)(=O)[O-])cc4)c4ccc([nH]4)c(-c4ccc(S(=O)(=O)[O-])cc4)c4nc(c(-c5ccc(S(=O)(=O)[O-])cc5)c5ccc2[nH]5)C=C4)C=C3)cc1
REMARK SMILES IDX 19 1 18 2 17 3 16 4 14 5 15 6 12 7 13 8 2 9 1 10 3 11 4 14
REMARK SMILES IDX 5 15 10 16 6 17 8 18 11 19 7 20 9 21 20 22 21 23 22 24 23 25
REMARK SMILES IDX 24 26 25 27 26 28 84 29 27 30 83 31 28 32 29 33 30 34 77 35
REMARK SMILES IDX 31 36 82 37 76 38 78 39 32 40 81 41 75 42 74 43 33 45 63 46
REMARK SMILES IDX 44 47 62 48 45 49 48 50 61 51 79 52 46 53 47 54 60 56 80 57
REMARK SMILES IDX 49 58 34 59 35 60 43 61 36 62 42 63 37 64 38 65 39 66 40 67
REMARK SMILES IDX 41 68 64 69 65 70 73 71 66 72 72 73 67 74 68 75 69 76 70 77
REMARK SMILES IDX 71 78 50 79 51 80 59 81 52 82 58 83 53 84 54 85 55 86 56 87
REMARK SMILES IDX 57 88
REMARK H PARENT 3 12 3 13 78 44 48 55
REMARK Flexibility Score: inf
ROOT
ATOM      1  O   UNL A   1      39.190  21.802  26.517  1.00  0.00    -0.374 OA
ENDROOT
BRANCH   1   2
ATOM      2  C   UNL A   1      38.352  22.115  25.407  1.00  0.00     0.202 C 
BRANCH   2   3
ATOM      3  C   UNL A   1      36.918  21.608  25.519  1.00  0.00     0.261 C 
BRANCH   3   4
ATOM      4  O   UNL A   1      35.982  22.619  25.940  1.00  0.00    -0.463 OA
BRANCH   4   5
ATOM      5  C   UNL A   1      34.964  22.889  25.082  1.00  0.00     0.314 C 
ATOM      6  O   UNL A   1      35.055  22.927  23.860  1.00  0.00    -0.252 OA
BRANCH   5   7
ATOM      7  C   UNL A   1      33.675  23.192  25.796  1.00  0.00     0.154 C 
ATOM      8  C   UNL A   1      32.685  23.841  24.823  1.00  0.00     0.026 C 
BRANCH   7   9
ATOM      9  C   UNL A   1      33.053  21.986  26.552  1.00  0.00     0.194 C 
ATOM     10  C   UNL A   1      33.041  22.278  28.060  1.00  0.00     0.076 C 
BRANCH   9  11
ATOM     11  N   UNL A   1      33.532  20.635  26.251  1.00  0.00    -0.333 N 
ATOM     12  H   UNL A   1      33.915  20.269  27.123  1.00  0.00     0.347 HD
ATOM     13  H   UNL A   1      34.159  20.801  25.464  1.00  0.00     0.347 HD
BRANCH  11  14
ATOM     14  C   UNL A   1      32.648  19.595  25.723  1.00  0.00     0.282 C 
ATOM     15  C   UNL A   1      33.049  18.151  25.979  1.00  0.00     0.176 C 
ATOM     16  C   UNL A   1      32.630  19.634  24.189  1.00  0.00     0.287 C 
ATOM     17  C   UNL A   1      32.637  17.429  24.737  1.00  0.00     0.235 C 
ATOM     18  N   UNL A   1      32.574  18.345  23.730  1.00  0.00    -0.280 N 
ATOM     19  O   UNL A   1      32.624  20.639  23.494  1.00  0.00    -0.267 OA
ATOM     20  O   UNL A   1      32.491  16.220  24.647  1.00  0.00    -0.274 OA
ATOM     21  C   UNL A   1      32.462  17.999  22.335  1.00  0.00     0.156 C 
ENDBRANCH  11  14
ENDBRANCH   9  11
ENDBRANCH   7   9
ENDBRANCH   5   7
ENDBRANCH   4   5
ENDBRANCH   3   4
ENDBRANCH   2   3
ENDBRANCH   1   2
BRANCH   1  22
ATOM     22  C   UNL A   1      40.499  22.376  26.495  1.00  0.00     0.202 C 
BRANCH  22  23
ATOM     23  C   UNL A   1      40.612  23.713  27.226  1.00  0.00     0.261 C 
BRANCH  23  24
ATOM     24  O   UNL A   1      39.874  24.725  26.517  1.00  0.00    -0.460 OA
BRANCH  24  25
ATOM     25  C   UNL A   1      40.502  25.918  26.420  1.00  0.00     0.338 C 
ATOM     26  O   UNL A   1      41.191  26.309  25.485  1.00  0.00    -0.246 OA
BRANCH  25  27
ATOM     27  C   UNL A   1      40.091  26.804  27.530  1.00  0.00     0.060 A 
ATOM     28  C   UNL A   1      40.593  28.111  27.515  1.00  0.00     0.016 A 
ATOM     29  C   UNL A   1      39.275  26.371  28.580  1.00  0.00     0.016 A 
ATOM     30  C   UNL A   1      40.371  28.957  28.596  1.00  0.00     0.010 A 
ATOM     31  C   UNL A   1      39.054  27.221  29.668  1.00  0.00     0.010 A 
ATOM     32  C   UNL A   1      39.655  28.491  29.705  1.00  0.00    -0.014 A 
BRANCH  32  33
ATOM     33  C   UNL A   1      39.755  29.245  30.977  1.00  0.00     0.031 A 
ATOM     34  C   UNL A   1      40.912  28.940  31.893  1.00  0.00     0.074 A 
ATOM     35  C   UNL A   1      38.885  30.225  31.277  1.00  0.00     0.049 A 
ATOM     36  N   UNL A   1      41.227  29.485  33.038  1.00  0.00    -0.248 NA
ATOM     37  C   UNL A   1      41.837  27.879  31.457  1.00  0.00     0.031 C 
ATOM     38  C   UNL A   1      37.755  30.639  30.447  1.00  0.00     0.029 A 
ATOM     39  N   UNL A   1      38.826  31.054  32.368  1.00  0.00    -0.354 N 
ATOM     40  C   UNL A   1      42.378  28.829  33.462  1.00  0.00     0.074 A 
ATOM     41  C   UNL A   1      42.690  27.828  32.468  1.00  0.00     0.031 C 
ATOM     42  C   UNL A   1      37.108  31.644  31.063  1.00  0.00     0.029 A 
ATOM     43  C   UNL A   1      37.764  31.926  32.340  1.00  0.00     0.049 A 
ATOM     44  H   UNL A   1      39.481  31.026  33.102  1.00  0.00     0.167 HD
ATOM     45  C   UNL A   1      43.114  29.044  34.578  1.00  0.00     0.031 A 
ATOM     46  C   UNL A   1      37.361  32.836  33.248  1.00  0.00     0.031 A 
ATOM     47  C   UNL A   1      42.800  30.039  35.566  1.00  0.00     0.049 A 
ATOM     48  C   UNL A   1      38.169  33.025  34.506  1.00  0.00     0.074 A 
ATOM     49  C   UNL A   1      43.489  30.350  36.724  1.00  0.00     0.029 A 
ATOM     50  N   UNL A   1      41.699  30.881  35.515  1.00  0.00    -0.354 N 
ATOM     51  N   UNL A   1      39.269  32.414  34.879  1.00  0.00    -0.248 NA
ATOM     52  C   UNL A   1      37.688  34.037  35.458  1.00  0.00     0.031 C 
ATOM     53  C   UNL A   1      42.778  31.347  37.399  1.00  0.00     0.029 A 
ATOM     54  C   UNL A   1      41.677  31.696  36.632  1.00  0.00     0.049 A 
ATOM     55  H   UNL A   1      41.034  30.898  34.789  1.00  0.00     0.167 HD
ATOM     56  C   UNL A   1      39.624  32.985  36.098  1.00  0.00     0.074 A 
ATOM     57  C   UNL A   1      38.632  33.999  36.389  1.00  0.00     0.031 C 
ATOM     58  C   UNL A   1      40.678  32.698  36.903  1.00  0.00     0.031 A 
BRANCH  45  59
ATOM     59  C   UNL A   1      44.309  28.159  34.805  1.00  0.00    -0.014 A 
ATOM     60  C   UNL A   1      44.194  26.936  35.489  1.00  0.00     0.010 A 
ATOM     61  C   UNL A   1      45.562  28.544  34.295  1.00  0.00     0.010 A 
ATOM     62  C   UNL A   1      45.318  26.128  35.687  1.00  0.00     0.020 A 
ATOM     63  C   UNL A   1      46.683  27.728  34.469  1.00  0.00     0.020 A 
ATOM     64  C   UNL A   1      46.557  26.532  35.177  1.00  0.00     0.054 A 
BRANCH  64  65
ATOM     65  S   UNL A   1      47.994  25.452  35.421  1.00  0.00     0.124 S 
ATOM     66  O   UNL A   1      49.025  26.408  35.818  1.00  0.00    -0.237 OA
ATOM     67  O   UNL A   1      47.540  24.545  36.472  1.00  0.00    -0.237 OA
ATOM     68  O   UNL A   1      48.189  24.834  34.112  1.00  0.00    -0.744 OA
ENDBRANCH  64  65
ENDBRANCH  45  59
BRANCH  46  69
ATOM     69  C   UNL A   1      36.121  33.624  33.010  1.00  0.00    -0.014 A 
ATOM     70  C   UNL A   1      36.176  34.907  32.439  1.00  0.00     0.010 A 
ATOM     71  C   UNL A   1      34.869  33.084  33.361  1.00  0.00     0.010 A 
ATOM     72  C   UNL A   1      35.004  35.643  32.240  1.00  0.00     0.020 A 
ATOM     73  C   UNL A   1      33.694  33.807  33.140  1.00  0.00     0.020 A 
ATOM     74  C   UNL A   1      33.769  35.087  32.591  1.00  0.00     0.054 A 
BRANCH  74  75
ATOM     75  S   UNL A   1      32.257  36.040  32.282  1.00  0.00     0.124 S 
ATOM     76  O   UNL A   1      32.405  36.397  30.875  1.00  0.00    -0.237 OA
ATOM     77  O   UNL A   1      31.205  35.072  32.583  1.00  0.00    -0.237 OA
ATOM     78  O   UNL A   1      32.357  37.153  33.224  1.00  0.00    -0.744 OA
ENDBRANCH  74  75
ENDBRANCH  46  69
BRANCH  58  79
ATOM     79  C   UNL A   1      40.831  33.514  38.158  1.00  0.00    -0.014 A 
ATOM     80  C   UNL A   1      41.526  34.736  38.154  1.00  0.00     0.010 A 
ATOM     81  C   UNL A   1      40.225  33.072  39.349  1.00  0.00     0.010 A 
ATOM     82  C   UNL A   1      41.645  35.483  39.329  1.00  0.00     0.020 A 
ATOM     83  C   UNL A   1      40.319  33.830  40.519  1.00  0.00     0.020 A 
ATOM     84  C   UNL A   1      41.044  35.023  40.505  1.00  0.00     0.054 A 
BRANCH  84  85
ATOM     85  S   UNL A   1      41.187  36.024  42.010  1.00  0.00     0.124 S 
ATOM     86  O   UNL A   1      41.858  35.104  42.923  1.00  0.00    -0.237 OA
ATOM     87  O   UNL A   1      41.986  37.163  41.566  1.00  0.00    -0.237 OA
ATOM     88  O   UNL A   1      39.800  36.339  42.350  1.00  0.00    -0.744 OA
ENDBRANCH  84  85
ENDBRANCH  58  79
ENDBRANCH  32  33
ENDBRANCH  25  27
ENDBRANCH  24  25
ENDBRANCH  23  24
ENDBRANCH  22  23
ENDBRANCH   1  22
TORSDOF 20
ENDMDL
MODEL 2
REMARK VINA RESULT:      -9.4      3.660      9.468
REMARK SMILES C[C@H]([NH2+][C@@H]1CC(=O)N(C)C1=O)[C@H](C)C(=O)OCCOCCOC(=O)c1ccc(-c2c3nc(c(-c4ccc(S(=O)(=O)[O-])cc4)c4ccc([nH]4)c(-c4ccc(S(=O)(=O)[O-])cc4)c4nc(c(-c5ccc(S(=O)(=O)[O-])cc5)c5ccc2[nH]5)C=C4)C=C3)cc1
REMARK SMILES IDX 19 1 18 2 17 3 16 4 14 5 15 6 12 7 13 8 2 9 1 10 3 11 4 14
REMARK SMILES IDX 5 15 10 16 6 17 8 18 11 19 7 20 9 21 20 22 21 23 22 24 23 25
REMARK SMILES IDX 24 26 25 27 26 28 84 29 27 30 83 31 28 32 29 33 30 34 77 35
REMARK SMILES IDX 31 36 82 37 76 38 78 39 32 40 81 41 75 42 74 43 33 45 63 46
REMARK SMILES IDX 44 47 62 48 45 49 48 50 61 51 79 52 46 53 47 54 60 56 80 57
REMARK SMILES IDX 49 58 34 59 35 60 43 61 36 62 42 63 37 64 38 65 39 66 40 67
REMARK SMILES IDX 41 68 64 69 65 70 73 71 66 72 72 73 67 74 68 75 69 76 70 77
REMARK SMILES IDX 71 78 50 79 51 80 59 81 52 82 58 83 53 84 54 85 55 86 56 87
REMARK SMILES IDX 57 88
REMARK H PARENT 3 12 3 13 78 44 48 55
REMARK Flexibility Score: inf
ROOT
ATOM      1  O   UNL A   1      33.637  30.082  26.279  1.00  0.00    -0.374 OA
ENDROOT
BRANCH   1   2
ATOM      2  C   UNL A   1      32.275  29.660  26.311  1.00  0.00     0.202 C 
BRANCH   2   3
ATOM      3  C   UNL A   1      31.983  28.498  27.254  1.00  0.00     0.261 C 
BRANCH   3   4
ATOM      4  O   UNL A   1      32.679  27.285  26.907  1.00  0.00    -0.463 OA
BRANCH   4   5
ATOM      5  C   UNL A   1      31.932  26.310  26.326  1.00  0.00     0.314 C 
ATOM      6  O   UNL A   1      30.961  25.760  26.834  1.00  0.00    -0.252 OA
BRANCH   5   7
ATOM      7  C   UNL A   1      32.453  25.918  24.970  1.00  0.00     0.154 C 
ATOM      8  C   UNL A   1      33.757  25.130  25.125  1.00  0.00     0.026 C 
BRANCH   7   9
ATOM      9  C   UNL A   1      31.423  25.184  24.068  1.00  0.00     0.194 C 
ATOM     10  C   UNL A   1      32.122  24.037  23.322  1.00  0.00     0.076 C 
BRANCH   9  11
ATOM     11  N   UNL A   1      30.558  25.974  23.188  1.00  0.00    -0.333 N 
ATOM     12  H   UNL A   1      29.846  25.332  22.839  1.00  0.00     0.347 HD
ATOM     13  H   UNL A   1      31.229  26.375  22.533  1.00  0.00     0.347 HD
BRANCH  11  14
ATOM     14  C   UNL A   1      29.844  27.161  23.660  1.00  0.00     0.282 C 
ATOM     15  C   UNL A   1      28.329  27.154  23.530  1.00  0.00     0.176 C 
ATOM     16  C   UNL A   1      30.212  28.382  22.807  1.00  0.00     0.287 C 
ATOM     17  C   UNL A   1      27.982  28.569  23.197  1.00  0.00     0.235 C 
ATOM     18  N   UNL A   1      29.086  29.145  22.645  1.00  0.00    -0.280 N 
ATOM     19  O   UNL A   1      31.325  28.655  22.380  1.00  0.00    -0.267 OA
ATOM     20  O   UNL A   1      26.871  29.061  23.314  1.00  0.00    -0.274 OA
ATOM     21  C   UNL A   1      29.074  30.415  21.963  1.00  0.00     0.156 C 
ENDBRANCH  11  14
ENDBRANCH   9  11
ENDBRANCH   7   9
ENDBRANCH   5   7
ENDBRANCH   4   5
ENDBRANCH   3   4
ENDBRANCH   2   3
ENDBRANCH   1   2
BRANCH   1  22
ATOM     22  C   UNL A   1      34.042  30.971  27.322  1.00  0.00     0.202 C 
BRANCH  22  23
ATOM     23  C   UNL A   1      33.060  32.110  27.594  1.00  0.00     0.261 C 
BRANCH  23  24
ATOM     24  O   UNL A   1      33.719  33.378  27.429  1.00  0.00    -0.460 OA
BRANCH  24  25
ATOM     25  C   UNL A   1      33.597  34.219  28.480  1.00  0.00     0.338 C 
ATOM     26  O   UNL A   1      32.662  34.977  28.707  1.00  0.00    -0.246 OA
BRANCH  25  27
ATOM     27  C   UNL A   1      34.675  33.970  29.461  1.00  0.00     0.060 A 
ATOM     28  C   UNL A   1      35.982  34.263  29.052  1.00  0.00     0.016 A 
ATOM     29  C   UNL A   1      34.435  33.430  30.728  1.00  0.00     0.016 A 
ATOM     30  C   UNL A   1      37.060  33.922  29.862  1.00  0.00     0.010 A 
ATOM     31  C   UNL A   1      35.519  33.084  31.540  1.00  0.00     0.010 A 
ATOM     32  C   UNL A   1      36.834  33.272  31.080  1.00  0.00    -0.014 A 
BRANCH  32  33
ATOM     33  C   UNL A   1      37.970  32.581  31.734  1.00  0.00     0.031 A 
ATOM     34  C   UNL A   1      38.399  33.057  33.099  1.00  0.00     0.074 A 
ATOM     35  C   UNL A   1      38.557  31.512  31.167  1.00  0.00     0.049 A 
ATOM     36  N   UNL A   1      39.339  32.595  33.879  1.00  0.00    -0.248 NA
ATOM     37  C   UNL A   1      37.665  34.208  33.656  1.00  0.00     0.031 C 
ATOM     38  C   UNL A   1      38.196  30.935  29.874  1.00  0.00     0.029 A 
ATOM     39  N   UNL A   1      39.582  30.722  31.619  1.00  0.00    -0.354 N 
ATOM     40  C   UNL A   1      39.318  33.401  35.012  1.00  0.00     0.074 A 
ATOM     41  C   UNL A   1      38.291  34.398  34.807  1.00  0.00     0.031 C 
ATOM     42  C   UNL A   1      38.995  29.881  29.631  1.00  0.00     0.029 A 
ATOM     43  C   UNL A   1      39.936  29.726  30.740  1.00  0.00     0.049 A 
ATOM     44  H   UNL A   1      40.023  30.855  32.488  1.00  0.00     0.167 HD
ATOM     45  C   UNL A   1      40.081  33.317  36.127  1.00  0.00     0.031 A 
ATOM     46  C   UNL A   1      40.917  28.805  30.818  1.00  0.00     0.031 A 
ATOM     47  C   UNL A   1      41.102  32.326  36.326  1.00  0.00     0.049 A 
ATOM     48  C   UNL A   1      41.786  28.760  32.048  1.00  0.00     0.074 A 
ATOM     49  C   UNL A   1      41.920  32.142  37.426  1.00  0.00     0.029 A 
ATOM     50  N   UNL A   1      41.449  31.354  35.400  1.00  0.00    -0.354 N 
ATOM     51  N   UNL A   1      41.735  29.515  33.122  1.00  0.00    -0.248 NA
ATOM     52  C   UNL A   1      42.835  27.731  32.083  1.00  0.00     0.031 C 
ATOM     53  C   UNL A   1      42.797  31.090  37.145  1.00  0.00     0.029 A 
ATOM     54  C   UNL A   1      42.485  30.582  35.893  1.00  0.00     0.049 A 
ATOM     55  H   UNL A   1      41.020  31.231  34.523  1.00  0.00     0.167 HD
ATOM     56  C   UNL A   1      42.730  29.034  33.969  1.00  0.00     0.074 A 
ATOM     57  C   UNL A   1      43.353  27.916  33.290  1.00  0.00     0.031 C 
ATOM     58  C   UNL A   1      43.093  29.476  35.199  1.00  0.00     0.031 A 
BRANCH  45  59
ATOM     59  C   UNL A   1      39.862  34.350  37.200  1.00  0.00    -0.014 A 
ATOM     60  C   UNL A   1      39.145  34.047  38.370  1.00  0.00     0.010 A 
ATOM     61  C   UNL A   1      40.414  35.634  37.046  1.00  0.00     0.010 A 
ATOM     62  C   UNL A   1      38.956  35.023  39.355  1.00  0.00     0.020 A 
ATOM     63  C   UNL A   1      40.249  36.604  38.038  1.00  0.00     0.020 A 
ATOM     64  C   UNL A   1      39.507  36.296  39.180  1.00  0.00     0.054 A 
BRANCH  64  65
ATOM     65  S   UNL A   1      39.274  37.535  40.485  1.00  0.00     0.124 S 
ATOM     66  O   UNL A   1      38.920  36.702  41.631  1.00  0.00    -0.237 OA
ATOM     67  O   UNL A   1      40.584  38.177  40.556  1.00  0.00    -0.237 OA
ATOM     68  O   UNL A   1      38.197  38.379  39.973  1.00  0.00    -0.744 OA
ENDBRANCH  64  65
ENDBRANCH  45  59
BRANCH  46  69
ATOM     69  C   UNL A   1      41.143  27.864  29.688  1.00  0.00    -0.014 A 
ATOM     70  C   UNL A   1      40.221  26.843  29.399  1.00  0.00     0.010 A 
ATOM     71  C   UNL A   1      42.297  27.989  28.891  1.00  0.00     0.010 A 
ATOM     72  C   UNL A   1      40.457  25.954  28.346  1.00  0.00     0.020 A 
ATOM     73  C   UNL A   1      42.523  27.118  27.821  1.00  0.00     0.020 A 
ATOM     74  C   UNL A   1      41.607  26.098  27.563  1.00  0.00     0.054 A 
BRANCH  74  75
ATOM     75  S   UNL A   1      41.871  24.963  26.172  1.00  0.00     0.124 S 
ATOM     76  O   UNL A   1      41.608  25.823  25.024  1.00  0.00    -0.237 OA
ATOM     77  O   UNL A   1      43.262  24.556  26.355  1.00  0.00    -0.237 OA
ATOM     78  O   UNL A   1      40.886  23.908  26.404  1.00  0.00    -0.744 OA
ENDBRANCH  74  75
ENDBRANCH  46  69
BRANCH  58  79
ATOM     79  C   UNL A   1      44.193  28.729  35.904  1.00  0.00    -0.014 A 
ATOM     80  C   UNL A   1      45.534  29.136  35.800  1.00  0.00     0.010 A 
ATOM     81  C   UNL A   1      43.870  27.631  36.723  1.00  0.00     0.010 A 
ATOM     82  C   UNL A   1      46.538  28.435  36.473  1.00  0.00     0.020 A 
ATOM     83  C   UNL A   1      44.868  26.944  37.419  1.00  0.00     0.020 A 
ATOM     84  C   UNL A   1      46.199  27.341  37.276  1.00  0.00     0.054 A 
BRANCH  84  85
ATOM     85  S   UNL A   1      47.515  26.463  38.162  1.00  0.00     0.124 S 
ATOM     86  O   UNL A   1      47.415  27.039  39.500  1.00  0.00    -0.237 OA
ATOM     87  O   UNL A   1      47.105  25.066  38.047  1.00  0.00    -0.237 OA
ATOM     88  O   UNL A   1      48.724  26.814  37.420  1.00  0.00    -0.744 OA
ENDBRANCH  84  85
ENDBRANCH  58  79
ENDBRANCH  32  33
ENDBRANCH  25  27
ENDBRANCH  24  25
ENDBRANCH  23  24
ENDBRANCH  22  23
ENDBRANCH   1  22
TORSDOF 20
ENDMDL
MODEL 3
REMARK VINA RESULT:      -9.4      6.966     11.515
REMARK SMILES C[C@H]([NH2+][C@@H]1CC(=O)N(C)C1=O)[C@H](C)C(=O)OCCOCCOC(=O)c1ccc(-c2c3nc(c(-c4ccc(S(=O)(=O)[O-])cc4)c4ccc([nH]4)c(-c4ccc(S(=O)(=O)[O-])cc4)c4nc(c(-c5ccc(S(=O)(=O)[O-])cc5)c5ccc2[nH]5)C=C4)C=C3)cc1
REMARK SMILES IDX 19 1 18 2 17 3 16 4 14 5 15 6 12 7 13 8 2 9 1 10 3 11 4 14
REMARK SMILES IDX 5 15 10 16 6 17 8 18 11 19 7 20 9 21 20 22 21 23 22 24 23 25
REMARK SMILES IDX 24 26 25 27 26 28 84 29 27 30 83 31 28 32 29 33 30 34 77 35
REMARK SMILES IDX 31 36 82 37 76 38 78 39 32 40 81 41 75 42 74 43 33 45 63 46
REMARK SMILES IDX 44 47 62 48 45 49 48 50 61 51 79 52 46 53 47 54 60 56 80 57
REMARK SMILES IDX 49 58 34 59 35 60 43 61 36 62 42 63 37 64 38 65 39 66 40 67
REMARK SMILES IDX 41 68 64 69 65 70 73 71 66 72 72 73 67 74 68 75 69 76 70 77
REMARK SMILES IDX 71 78 50 79 51 80 59 81 52 82 58 83 53 84 54 85 55 86 56 87
REMARK SMILES IDX 57 88
REMARK H PARENT 3 12 3 13 78 44 48 55
REMARK Flexibility Score: inf
ROOT
ATOM      1  O   UNL A   1      33.918  29.849  27.353  1.00  0.00    -0.374 OA
ENDROOT
BRANCH   1   2
ATOM      2  C   UNL A   1      32.559  29.856  26.922  1.00  0.00     0.202 C 
BRANCH   2   3
ATOM      3  C   UNL A   1      32.362  29.855  25.410  1.00  0.00     0.261 C 
BRANCH   3   4
ATOM      4  O   UNL A   1      31.166  29.174  24.985  1.00  0.00    -0.463 OA
BRANCH   4   5
ATOM      5  C   UNL A   1      31.346  28.054  24.237  1.00  0.00     0.314 C 
ATOM      6  O   UNL A   1      31.700  28.032  23.064  1.00  0.00    -0.252 OA
BRANCH   5   7
ATOM      7  C   UNL A   1      31.017  26.797  24.996  1.00  0.00     0.154 C 
ATOM      8  C   UNL A   1      29.666  26.249  24.526  1.00  0.00     0.026 C 
BRANCH   7   9
ATOM      9  C   UNL A   1      32.132  25.716  24.974  1.00  0.00     0.194 C 
ATOM     10  C   UNL A   1      33.370  26.241  25.716  1.00  0.00     0.076 C 
BRANCH   9  11
ATOM     11  N   UNL A   1      32.476  25.075  23.703  1.00  0.00    -0.333 N 
ATOM     12  H   UNL A   1      33.427  25.373  23.483  1.00  0.00     0.347 HD
ATOM     13  H   UNL A   1      31.710  25.373  23.099  1.00  0.00     0.347 HD
BRANCH  11  14
ATOM     14  C   UNL A   1      32.452  23.621  23.532  1.00  0.00     0.282 C 
ATOM     15  C   UNL A   1      31.546  22.831  24.462  1.00  0.00     0.176 C 
ATOM     16  C   UNL A   1      33.824  23.020  23.867  1.00  0.00     0.287 C 
ATOM     17  C   UNL A   1      32.302  21.569  24.727  1.00  0.00     0.235 C 
ATOM     18  N   UNL A   1      33.621  21.824  24.504  1.00  0.00    -0.280 N 
ATOM     19  O   UNL A   1      34.911  23.499  23.579  1.00  0.00    -0.267 OA
ATOM     20  O   UNL A   1      31.812  20.539  25.164  1.00  0.00    -0.274 OA
ATOM     21  C   UNL A   1      34.689  20.939  24.897  1.00  0.00     0.156 C 
ENDBRANCH  11  14
ENDBRANCH   9  11
ENDBRANCH   7   9
ENDBRANCH   5   7
ENDBRANCH   4   5
ENDBRANCH   3   4
ENDBRANCH   2   3
ENDBRANCH   1   2
BRANCH   1  22
ATOM     22  C   UNL A   1      34.450  31.109  27.767  1.00  0.00     0.202 C 
BRANCH  22  23
ATOM     23  C   UNL A   1      35.700  31.008  28.640  1.00  0.00     0.261 C 
BRANCH  23  24
ATOM     24  O   UNL A   1      36.334  29.731  28.445  1.00  0.00    -0.460 OA
BRANCH  24  25
ATOM     25  C   UNL A   1      37.145  29.343  29.454  1.00  0.00     0.338 C 
ATOM     26  O   UNL A   1      36.829  29.181  30.627  1.00  0.00    -0.246 OA
BRANCH  25  27
ATOM     27  C   UNL A   1      38.464  28.939  28.923  1.00  0.00     0.060 A 
ATOM     28  C   UNL A   1      39.321  28.265  29.803  1.00  0.00     0.016 A 
ATOM     29  C   UNL A   1      38.879  29.238  27.622  1.00  0.00     0.016 A 
ATOM     30  C   UNL A   1      40.628  27.982  29.424  1.00  0.00     0.010 A 
ATOM     31  C   UNL A   1      40.195  28.956  27.242  1.00  0.00     0.010 A 
ATOM     32  C   UNL A   1      41.088  28.385  28.166  1.00  0.00    -0.014 A 
BRANCH  32  33
ATOM     33  C   UNL A   1      42.551  28.427  27.927  1.00  0.00     0.031 A 
ATOM     34  C   UNL A   1      43.205  27.214  27.316  1.00  0.00     0.074 A 
ATOM     35  C   UNL A   1      43.267  29.538  28.177  1.00  0.00     0.049 A 
ATOM     36  N   UNL A   1      44.455  27.026  26.987  1.00  0.00    -0.248 NA
ATOM     37  C   UNL A   1      42.329  26.062  27.038  1.00  0.00     0.031 C 
ATOM     38  C   UNL A   1      42.734  30.784  28.723  1.00  0.00     0.029 A 
ATOM     39  N   UNL A   1      44.602  29.791  27.994  1.00  0.00    -0.354 N 
ATOM     40  C   UNL A   1      44.518  25.735  26.474  1.00  0.00     0.074 A 
ATOM     41  C   UNL A   1      43.188  25.176  26.559  1.00  0.00     0.031 C 
ATOM     42  C   UNL A   1      43.737  31.672  28.838  1.00  0.00     0.029 A 
ATOM     43  C   UNL A   1      44.983  31.049  28.395  1.00  0.00     0.049 A 
ATOM     44  H   UNL A   1      45.228  29.134  27.612  1.00  0.00     0.167 HD
ATOM     45  C   UNL A   1      45.587  25.075  25.969  1.00  0.00     0.031 A 
ATOM     46  C   UNL A   1      46.202  31.623  28.415  1.00  0.00     0.031 A 
ATOM     47  C   UNL A   1      46.908  25.633  25.887  1.00  0.00     0.049 A 
ATOM     48  C   UNL A   1      47.386  30.851  27.893  1.00  0.00     0.074 A 
ATOM     49  C   UNL A   1      48.057  25.054  25.378  1.00  0.00     0.029 A 
ATOM     50  N   UNL A   1      47.259  26.898  26.332  1.00  0.00    -0.354 N 
ATOM     51  N   UNL A   1      47.423  29.640  27.388  1.00  0.00    -0.248 NA
ATOM     52  C   UNL A   1      48.690  31.529  27.933  1.00  0.00     0.031 C 
ATOM     53  C   UNL A   1      49.113  25.951  25.560  1.00  0.00     0.029 A 
ATOM     54  C   UNL A   1      48.610  27.111  26.131  1.00  0.00     0.049 A 
ATOM     55  H   UNL A   1      46.637  27.550  26.729  1.00  0.00     0.167 HD
ATOM     56  C   UNL A   1      48.750  29.421  27.026  1.00  0.00     0.074 A 
ATOM     57  C   UNL A   1      49.477  30.630  27.357  1.00  0.00     0.031 C 
ATOM     58  C   UNL A   1      49.315  28.321  26.469  1.00  0.00     0.031 A 
BRANCH  45  59
ATOM     59  C   UNL A   1      45.374  23.659  25.503  1.00  0.00    -0.014 A 
ATOM     60  C   UNL A   1      45.646  22.565  26.343  1.00  0.00     0.010 A 
ATOM     61  C   UNL A   1      44.862  23.425  24.215  1.00  0.00     0.010 A 
ATOM     62  C   UNL A   1      45.439  21.258  25.889  1.00  0.00     0.020 A 
ATOM     63  C   UNL A   1      44.630  22.122  23.766  1.00  0.00     0.020 A 
ATOM     64  C   UNL A   1      44.935  21.046  24.602  1.00  0.00     0.054 A 
BRANCH  64  65
ATOM     65  S   UNL A   1      44.647  19.343  24.048  1.00  0.00     0.124 S 
ATOM     66  O   UNL A   1      44.544  19.510  22.601  1.00  0.00    -0.237 OA
ATOM     67  O   UNL A   1      45.843  18.646  24.516  1.00  0.00    -0.237 OA
ATOM     68  O   UNL A   1      43.407  18.964  24.720  1.00  0.00    -0.744 OA
ENDBRANCH  64  65
ENDBRANCH  45  59
BRANCH  46  69
ATOM     69  C   UNL A   1      46.368  32.995  28.968  1.00  0.00    -0.014 A 
ATOM     70  C   UNL A   1      46.258  34.126  28.142  1.00  0.00     0.010 A 
ATOM     71  C   UNL A   1      46.639  33.171  30.338  1.00  0.00     0.010 A 
ATOM     72  C   UNL A   1      46.436  35.408  28.673  1.00  0.00     0.020 A 
ATOM     73  C   UNL A   1      46.791  34.451  30.876  1.00  0.00     0.020 A 
ATOM     74  C   UNL A   1      46.700  35.563  30.037  1.00  0.00     0.054 A 
BRANCH  74  75
ATOM     75  S   UNL A   1      46.881  37.237  30.713  1.00  0.00     0.124 S 
ATOM     76  O   UNL A   1      46.206  37.118  32.001  1.00  0.00    -0.237 OA
ATOM     77  O   UNL A   1      48.331  37.401  30.770  1.00  0.00    -0.237 OA
ATOM     78  O   UNL A   1      46.205  38.076  29.726  1.00  0.00    -0.744 OA
ENDBRANCH  74  75
ENDBRANCH  46  69
BRANCH  58  79
ATOM     79  C   UNL A   1      50.784  28.385  26.151  1.00  0.00    -0.014 A 
ATOM     80  C   UNL A   1      51.245  28.936  24.942  1.00  0.00     0.010 A 
ATOM     81  C   UNL A   1      51.719  27.931  27.099  1.00  0.00     0.010 A 
ATOM     82  C   UNL A   1      52.615  28.997  24.672  1.00  0.00     0.020 A 
ATOM     83  C   UNL A   1      53.090  28.015  26.844  1.00  0.00     0.020 A 
ATOM     84  C   UNL A   1      53.528  28.533  25.624  1.00  0.00     0.054 A 
BRANCH  84  85
ATOM     85  S   UNL A   1      55.302  28.648  25.264  1.00  0.00     0.124 S 
ATOM     86  O   UNL A   1      55.684  29.846  26.003  1.00  0.00    -0.237 OA
ATOM     87  O   UNL A   1      55.821  27.389  25.795  1.00  0.00    -0.237 OA
ATOM     88  O   UNL A   1      55.352  28.769  23.808  1.00  0.00    -0.744 OA
ENDBRANCH  84  85
ENDBRANCH  58  79
ENDBRANCH  32  33
ENDBRANCH  25  27
ENDBRANCH  24  25
ENDBRANCH  23  24
ENDBRANCH  22  23
ENDBRANCH   1  22
TORSDOF 20
ENDMDL
