MODEL 1
REMARK VINA RESULT:     -11.2      0.000      0.000
REMARK SMILES Cc1cc(C(=O)OCCOCCOC(=O)c2ccc(-c3c4nc(c(-c5ccc(S(=O)(=O)[O-])cc5)c5ccc([nH]5)c(-c5ccc(S(=O)(=O)[O-])cc5)c5nc(c(-c6ccc(S(=O)(=O)[O-])cc6)c6ccc3[nH]6)C=C5)C=C4)cc2)ccc1NC(=O)c1ccc(=O)n(CCOc2ccccc2)n1
REMARK SMILES IDX 8 1 7 2 5 3 6 4 4 5 1 6 2 7 3 8 78 9 77 10 76 11 79 12 80 13
REMARK SMILES IDX 81 15 82 16 83 17 97 18 84 19 87 20 85 21 86 22 88 23 89 24
REMARK SMILES IDX 90 25 91 26 92 27 96 28 93 29 95 30 94 31 9 32 10 33 11 34
REMARK SMILES IDX 12 35 13 36 14 37 15 38 16 39 17 40 75 41 18 42 74 43 19 44
REMARK SMILES IDX 20 45 21 46 68 47 22 48 73 49 67 50 69 51 23 52 72 53 66 54
REMARK SMILES IDX 65 55 24 57 54 58 35 59 53 60 36 61 39 62 52 63 70 64 37 65
REMARK SMILES IDX 38 66 51 68 71 69 40 70 25 71 26 72 34 73 27 74 33 75 28 76
REMARK SMILES IDX 29 77 30 78 31 79 32 80 55 81 56 82 64 83 57 84 63 85 58 86
REMARK SMILES IDX 59 87 60 88 61 89 62 90 41 91 42 92 50 93 43 94 49 95 44 96
REMARK SMILES IDX 45 97 46 98 47 99 48 100
REMARK H PARENT 79 14 69 56 39 67
REMARK Flexibility Score: inf
ROOT
ATOM      1  C   UNL A   1      37.031  23.269  24.630  1.00  0.00     0.261 C 
ENDROOT
BRANCH   1   2
ATOM      2  O   UNL A   1      35.632  23.348  25.004  1.00  0.00    -0.460 OA
BRANCH   2   3
ATOM      3  C   UNL A   1      34.623  22.881  24.213  1.00  0.00     0.338 C 
ATOM      4  O   UNL A   1      34.235  21.754  24.035  1.00  0.00    -0.246 OA
BRANCH   3   5
ATOM      5  C   UNL A   1      34.020  24.076  23.583  1.00  0.00     0.060 A 
ATOM      6  C   UNL A   1      34.103  27.858  23.708  1.00  0.00     0.046 C 
ATOM      7  C   UNL A   1      33.623  26.475  23.370  1.00  0.00    -0.027 A 
ATOM      8  C   UNL A   1      34.226  25.379  24.043  1.00  0.00     0.021 A 
ATOM      9  C   UNL A   1      32.767  26.208  22.294  1.00  0.00     0.044 A 
ATOM     10  C   UNL A   1      32.896  24.980  21.697  1.00  0.00     0.027 A 
ATOM     11  C   UNL A   1      33.395  23.897  22.365  1.00  0.00     0.018 A 
BRANCH   9  12
ATOM     12  N   UNL A   1      31.769  27.094  21.826  1.00  0.00    -0.320 N 
ATOM     13  C   UNL A   1      30.665  27.601  22.531  1.00  0.00     0.276 C 
ATOM     14  H   UNL A   1      31.859  27.391  20.892  1.00  0.00     0.170 HD
ATOM     15  O   UNL A   1      29.860  28.362  22.000  1.00  0.00    -0.267 OA
BRANCH  13  16
ATOM     16  C   UNL A   1      30.404  27.175  23.985  1.00  0.00     0.149 A 
ATOM     17  C   UNL A   1      29.703  25.874  24.125  1.00  0.00     0.042 A 
ATOM     18  N   UNL A   1      30.851  27.877  24.992  1.00  0.00    -0.164 NA
ATOM     19  C   UNL A   1      30.039  25.176  25.213  1.00  0.00     0.076 A 
ATOM     20  N   UNL A   1      30.905  27.190  26.221  1.00  0.00    -0.226 N 
ATOM     21  C   UNL A   1      30.905  25.798  26.242  1.00  0.00     0.266 A 
ATOM     22  O   UNL A   1      31.469  25.084  27.064  1.00  0.00    -0.268 OA
BRANCH  20  23
ATOM     23  C   UNL A   1      31.324  27.922  27.424  1.00  0.00     0.190 C 
BRANCH  23  24
ATOM     24  C   UNL A   1      32.224  29.147  27.134  1.00  0.00     0.253 C 
BRANCH  24  25
ATOM     25  O   UNL A   1      33.603  28.841  26.807  1.00  0.00    -0.492 OA
BRANCH  25  26
ATOM     26  C   UNL A   1      34.482  29.783  27.263  1.00  0.00     0.119 A 
ATOM     27  C   UNL A   1      35.782  29.462  27.634  1.00  0.00     0.046 A 
ATOM     28  C   UNL A   1      34.024  31.071  27.481  1.00  0.00     0.046 A 
ATOM     29  C   UNL A   1      36.651  30.479  28.060  1.00  0.00     0.004 A 
ATOM     30  C   UNL A   1      34.899  32.103  27.808  1.00  0.00     0.004 A 
ATOM     31  C   UNL A   1      36.226  31.808  28.084  1.00  0.00     0.000 A 
ENDBRANCH  25  26
ENDBRANCH  24  25
ENDBRANCH  23  24
ENDBRANCH  20  23
ENDBRANCH  13  16
ENDBRANCH   9  12
ENDBRANCH   3   5
ENDBRANCH   2   3
ENDBRANCH   1   2
BRANCH   1  32
ATOM     32  C   UNL A   1      37.906  22.675  25.676  1.00  0.00     0.202 C 
BRANCH  32  33
ATOM     33  O   UNL A   1      38.504  23.778  26.338  1.00  0.00    -0.374 OA
BRANCH  33  34
ATOM     34  C   UNL A   1      39.879  23.644  26.595  1.00  0.00     0.202 C 
BRANCH  34  35
ATOM     35  C   UNL A   1      40.521  24.954  27.066  1.00  0.00     0.261 C 
BRANCH  35  36
ATOM     36  O   UNL A   1      40.377  25.985  26.061  1.00  0.00    -0.460 OA
BRANCH  36  37
ATOM     37  C   UNL A   1      41.408  26.877  25.933  1.00  0.00     0.338 C 
ATOM     38  O   UNL A   1      42.217  26.845  25.023  1.00  0.00    -0.246 OA
BRANCH  37  39
ATOM     39  C   UNL A   1      41.318  27.948  26.972  1.00  0.00     0.060 A 
ATOM     40  C   UNL A   1      42.459  28.511  27.577  1.00  0.00     0.016 A 
ATOM     41  C   UNL A   1      40.060  28.282  27.456  1.00  0.00     0.016 A 
ATOM     42  C   UNL A   1      42.343  29.276  28.760  1.00  0.00     0.010 A 
ATOM     43  C   UNL A   1      39.958  28.958  28.651  1.00  0.00     0.010 A 
ATOM     44  C   UNL A   1      41.088  29.434  29.343  1.00  0.00    -0.014 A 
BRANCH  44  45
ATOM     45  C   UNL A   1      40.768  29.964  30.680  1.00  0.00     0.031 A 
ATOM     46  C   UNL A   1      39.995  31.227  30.734  1.00  0.00     0.074 A 
ATOM     47  C   UNL A   1      40.804  29.163  31.780  1.00  0.00     0.049 A 
ATOM     48  N   UNL A   1      39.616  31.781  31.825  1.00  0.00    -0.248 NA
ATOM     49  C   UNL A   1      39.585  31.997  29.556  1.00  0.00     0.031 C 
ATOM     50  C   UNL A   1      39.960  29.194  32.981  1.00  0.00     0.029 A 
ATOM     51  N   UNL A   1      41.610  28.056  32.032  1.00  0.00    -0.354 N 
ATOM     52  C   UNL A   1      38.652  32.707  31.517  1.00  0.00     0.074 A 
ATOM     53  C   UNL A   1      38.750  32.892  30.093  1.00  0.00     0.031 C 
ATOM     54  C   UNL A   1      40.457  28.364  33.921  1.00  0.00     0.029 A 
ATOM     55  C   UNL A   1      41.710  27.829  33.408  1.00  0.00     0.049 A 
ATOM     56  H   UNL A   1      42.048  27.510  31.340  1.00  0.00     0.167 HD
ATOM     57  C   UNL A   1      37.812  33.099  32.514  1.00  0.00     0.031 A 
ATOM     58  C   UNL A   1      42.936  27.810  33.991  1.00  0.00     0.031 A 
ATOM     59  C   UNL A   1      38.255  32.549  33.806  1.00  0.00     0.049 A 
ATOM     60  C   UNL A   1      42.994  29.072  34.804  1.00  0.00     0.074 A 
ATOM     61  C   UNL A   1      37.767  31.566  34.648  1.00  0.00     0.029 A 
ATOM     62  N   UNL A   1      39.570  32.788  34.213  1.00  0.00    -0.354 N 
ATOM     63  N   UNL A   1      42.267  30.122  34.514  1.00  0.00    -0.248 NA
ATOM     64  C   UNL A   1      43.665  29.190  36.094  1.00  0.00     0.031 C 
ATOM     65  C   UNL A   1      38.850  31.134  35.480  1.00  0.00     0.029 A 
ATOM     66  C   UNL A   1      39.982  31.876  35.166  1.00  0.00     0.049 A 
ATOM     67  H   UNL A   1      40.134  33.516  33.864  1.00  0.00     0.167 HD
ATOM     68  C   UNL A   1      42.198  30.927  35.603  1.00  0.00     0.074 A 
ATOM     69  C   UNL A   1      43.159  30.356  36.537  1.00  0.00     0.031 C 
ATOM     70  C   UNL A   1      41.326  31.964  35.736  1.00  0.00     0.031 A 
BRANCH  57  71
ATOM     71  C   UNL A   1      36.509  33.842  32.316  1.00  0.00    -0.014 A 
ATOM     72  C   UNL A   1      35.796  33.658  31.114  1.00  0.00     0.010 A 
ATOM     73  C   UNL A   1      35.959  34.773  33.223  1.00  0.00     0.010 A 
ATOM     74  C   UNL A   1      34.603  34.347  30.839  1.00  0.00     0.020 A 
ATOM     75  C   UNL A   1      34.754  35.452  32.974  1.00  0.00     0.020 A 
ATOM     76  C   UNL A   1      34.083  35.237  31.776  1.00  0.00     0.054 A 
BRANCH  76  77
ATOM     77  S   UNL A   1      32.533  36.102  31.411  1.00  0.00     0.124 S 
ATOM     78  O   UNL A   1      32.172  35.558  30.104  1.00  0.00    -0.237 OA
ATOM     79  O   UNL A   1      31.675  35.697  32.521  1.00  0.00    -0.237 OA
ATOM     80  O   UNL A   1      32.913  37.514  31.408  1.00  0.00    -0.744 OA
ENDBRANCH  76  77
ENDBRANCH  57  71
BRANCH  58  81
ATOM     81  C   UNL A   1      43.956  27.134  33.109  1.00  0.00    -0.014 A 
ATOM     82  C   UNL A   1      44.035  25.719  33.215  1.00  0.00     0.010 A 
ATOM     83  C   UNL A   1      44.382  27.714  31.899  1.00  0.00     0.010 A 
ATOM     84  C   UNL A   1      44.353  24.911  32.109  1.00  0.00     0.020 A 
ATOM     85  C   UNL A   1      44.693  26.904  30.783  1.00  0.00     0.020 A 
ATOM     86  C   UNL A   1      44.627  25.509  30.879  1.00  0.00     0.054 A 
BRANCH  86  87
ATOM     87  S   UNL A   1      44.595  24.469  29.373  1.00  0.00     0.124 S 
ATOM     88  O   UNL A   1      44.071  23.202  29.871  1.00  0.00    -0.237 OA
ATOM     89  O   UNL A   1      43.704  25.210  28.479  1.00  0.00    -0.237 OA
ATOM     90  O   UNL A   1      45.990  24.451  28.948  1.00  0.00    -0.744 OA
ENDBRANCH  86  87
ENDBRANCH  58  81
BRANCH  70  91
ATOM     91  C   UNL A   1      41.735  33.196  36.479  1.00  0.00    -0.014 A 
ATOM     92  C   UNL A   1      42.768  34.031  36.023  1.00  0.00     0.010 A 
ATOM     93  C   UNL A   1      40.950  33.651  37.559  1.00  0.00     0.010 A 
ATOM     94  C   UNL A   1      43.086  35.209  36.688  1.00  0.00     0.020 A 
ATOM     95  C   UNL A   1      41.213  34.864  38.185  1.00  0.00     0.020 A 
ATOM     96  C   UNL A   1      42.312  35.611  37.773  1.00  0.00     0.054 A 
BRANCH  96  97
ATOM     97  S   UNL A   1      42.759  37.128  38.633  1.00  0.00     0.124 S 
ATOM     98  O   UNL A   1      43.628  36.617  39.690  1.00  0.00    -0.237 OA
ATOM     99  O   UNL A   1      43.427  37.905  37.592  1.00  0.00    -0.237 OA
ATOM    100  O   UNL A   1      41.476  37.663  39.078  1.00  0.00    -0.744 OA
ENDBRANCH  96  97
ENDBRANCH  70  91
ENDBRANCH  44  45
ENDBRANCH  37  39
ENDBRANCH  36  37
ENDBRANCH  35  36
ENDBRANCH  34  35
ENDBRANCH  33  34
ENDBRANCH  32  33
ENDBRANCH   1  32
TORSDOF 23
ENDMDL
MODEL 2
REMARK VINA RESULT:     -10.3      4.532      7.413
REMARK SMILES Cc1cc(C(=O)OCCOCCOC(=O)c2ccc(-c3c4nc(c(-c5ccc(S(=O)(=O)[O-])cc5)c5ccc([nH]5)c(-c5ccc(S(=O)(=O)[O-])cc5)c5nc(c(-c6ccc(S(=O)(=O)[O-])cc6)c6ccc3[nH]6)C=C5)C=C4)cc2)ccc1NC(=O)c1ccc(=O)n(CCOc2ccccc2)n1
REMARK SMILES IDX 8 1 7 2 5 3 6 4 4 5 1 6 2 7 3 8 78 9 77 10 76 11 79 12 80 13
REMARK SMILES IDX 81 15 82 16 83 17 97 18 84 19 87 20 85 21 86 22 88 23 89 24
REMARK SMILES IDX 90 25 91 26 92 27 96 28 93 29 95 30 94 31 9 32 10 33 11 34
REMARK SMILES IDX 12 35 13 36 14 37 15 38 16 39 17 40 75 41 18 42 74 43 19 44
REMARK SMILES IDX 20 45 21 46 68 47 22 48 73 49 67 50 69 51 23 52 72 53 66 54
REMARK SMILES IDX 65 55 24 57 54 58 35 59 53 60 36 61 39 62 52 63 70 64 37 65
REMARK SMILES IDX 38 66 51 68 71 69 40 70 25 71 26 72 34 73 27 74 33 75 28 76
REMARK SMILES IDX 29 77 30 78 31 79 32 80 55 81 56 82 64 83 57 84 63 85 58 86
REMARK SMILES IDX 59 87 60 88 61 89 62 90 41 91 42 92 50 93 43 94 49 95 44 96
REMARK SMILES IDX 45 97 46 98 47 99 48 100
REMARK H PARENT 79 14 69 56 39 67
REMARK Flexibility Score: inf
ROOT
ATOM      1  C   UNL A   1      40.311  23.098  27.182  1.00  0.00     0.261 C 
ENDROOT
BRANCH   1   2
ATOM      2  O   UNL A   1      39.083  23.315  26.441  1.00  0.00    -0.460 OA
BRANCH   2   3
ATOM      3  C   UNL A   1      38.376  22.302  25.861  1.00  0.00     0.338 C 
ATOM      4  O   UNL A   1      38.763  21.294  25.324  1.00  0.00    -0.246 OA
BRANCH   3   5
ATOM      5  C   UNL A   1      36.951  22.656  26.035  1.00  0.00     0.060 A 
ATOM      6  C   UNL A   1      34.523  25.519  25.551  1.00  0.00     0.046 C 
ATOM      7  C   UNL A   1      35.061  24.202  26.032  1.00  0.00    -0.027 A 
ATOM      8  C   UNL A   1      36.449  23.948  25.862  1.00  0.00     0.021 A 
ATOM      9  C   UNL A   1      34.237  23.148  26.447  1.00  0.00     0.044 A 
ATOM     10  C   UNL A   1      34.718  21.878  26.252  1.00  0.00     0.027 A 
ATOM     11  C   UNL A   1      36.057  21.613  26.174  1.00  0.00     0.018 A 
BRANCH   9  12
ATOM     12  N   UNL A   1      32.985  23.314  27.082  1.00  0.00    -0.320 N 
ATOM     13  C   UNL A   1      31.720  23.428  26.481  1.00  0.00     0.276 C 
ATOM     14  H   UNL A   1      33.001  23.355  28.065  1.00  0.00     0.170 HD
ATOM     15  O   UNL A   1      30.703  23.579  27.152  1.00  0.00    -0.267 OA
BRANCH  13  16
ATOM     16  C   UNL A   1      31.579  23.416  24.951  1.00  0.00     0.149 A 
ATOM     17  C   UNL A   1      31.172  24.717  24.363  1.00  0.00     0.042 A 
ATOM     18  N   UNL A   1      31.884  22.359  24.245  1.00  0.00    -0.164 NA
ATOM     19  C   UNL A   1      31.665  24.957  23.145  1.00  0.00     0.076 A 
ATOM     20  N   UNL A   1      32.102  22.599  22.875  1.00  0.00    -0.226 N 
ATOM     21  C   UNL A   1      32.397  23.885  22.430  1.00  0.00     0.266 A 
ATOM     22  O   UNL A   1      33.113  24.178  21.479  1.00  0.00    -0.268 OA
BRANCH  20  23
ATOM     23  C   UNL A   1      32.376  21.458  21.991  1.00  0.00     0.190 C 
BRANCH  23  24
ATOM     24  C   UNL A   1      31.720  20.134  22.451  1.00  0.00     0.253 C 
BRANCH  24  25
ATOM     25  O   UNL A   1      32.457  18.929  22.123  1.00  0.00    -0.492 OA
BRANCH  25  26
ATOM     26  C   UNL A   1      32.798  18.194  23.223  1.00  0.00     0.119 A 
ATOM     27  C   UNL A   1      32.458  18.588  24.511  1.00  0.00     0.046 A 
ATOM     28  C   UNL A   1      33.617  17.089  23.057  1.00  0.00     0.046 A 
ATOM     29  C   UNL A   1      32.804  17.771  25.598  1.00  0.00     0.004 A 
ATOM     30  C   UNL A   1      33.883  16.222  24.113  1.00  0.00     0.004 A 
ATOM     31  C   UNL A   1      33.460  16.557  25.390  1.00  0.00     0.000 A 
ENDBRANCH  25  26
ENDBRANCH  24  25
ENDBRANCH  23  24
ENDBRANCH  20  23
ENDBRANCH  13  16
ENDBRANCH   9  12
ENDBRANCH   3   5
ENDBRANCH   2   3
ENDBRANCH   1   2
BRANCH   1  32
ATOM     32  C   UNL A   1      41.538  23.533  26.464  1.00  0.00     0.202 C 
BRANCH  32  33
ATOM     33  O   UNL A   1      42.556  22.638  26.881  1.00  0.00    -0.374 OA
BRANCH  33  34
ATOM     34  C   UNL A   1      43.514  22.326  25.901  1.00  0.00     0.202 C 
BRANCH  34  35
ATOM     35  C   UNL A   1      44.766  23.204  25.998  1.00  0.00     0.261 C 
BRANCH  35  36
ATOM     36  O   UNL A   1      45.331  23.144  27.329  1.00  0.00    -0.460 OA
BRANCH  36  37
ATOM     37  C   UNL A   1      46.311  24.053  27.630  1.00  0.00     0.338 C 
ATOM     38  O   UNL A   1      47.279  24.258  26.921  1.00  0.00    -0.246 OA
BRANCH  37  39
ATOM     39  C   UNL A   1      45.957  24.831  28.856  1.00  0.00     0.060 A 
ATOM     40  C   UNL A   1      46.933  25.398  29.698  1.00  0.00     0.016 A 
ATOM     41  C   UNL A   1      44.625  24.857  29.249  1.00  0.00     0.016 A 
ATOM     42  C   UNL A   1      46.593  25.845  30.996  1.00  0.00     0.010 A 
ATOM     43  C   UNL A   1      44.313  25.217  30.541  1.00  0.00     0.010 A 
ATOM     44  C   UNL A   1      45.286  25.680  31.447  1.00  0.00    -0.014 A 
BRANCH  44  45
ATOM     45  C   UNL A   1      44.773  25.835  32.820  1.00  0.00     0.031 A 
ATOM     46  C   UNL A   1      44.167  27.143  33.165  1.00  0.00     0.074 A 
ATOM     47  C   UNL A   1      44.489  24.750  33.590  1.00  0.00     0.049 A 
ATOM     48  N   UNL A   1      43.649  27.405  34.308  1.00  0.00    -0.248 NA
ATOM     49  C   UNL A   1      44.099  28.290  32.255  1.00  0.00     0.031 C 
ATOM     50  C   UNL A   1      43.432  24.573  34.594  1.00  0.00     0.029 A 
ATOM     51  N   UNL A   1      45.085  23.492  33.585  1.00  0.00    -0.354 N 
ATOM     52  C   UNL A   1      42.888  28.539  34.177  1.00  0.00     0.074 A 
ATOM     53  C   UNL A   1      43.291  29.120  32.923  1.00  0.00     0.031 C 
ATOM     54  C   UNL A   1      43.625  23.425  35.275  1.00  0.00     0.029 A 
ATOM     55  C   UNL A   1      44.879  22.850  34.811  1.00  0.00     0.049 A 
ATOM     56  H   UNL A   1      45.582  23.108  32.827  1.00  0.00     0.167 HD
ATOM     57  C   UNL A   1      41.921  28.760  35.109  1.00  0.00     0.031 A 
ATOM     58  C   UNL A   1      45.952  22.437  35.533  1.00  0.00     0.031 A 
ATOM     59  C   UNL A   1      42.025  27.779  36.201  1.00  0.00     0.049 A 
ATOM     60  C   UNL A   1      46.001  23.366  36.712  1.00  0.00     0.074 A 
ATOM     61  C   UNL A   1      41.260  26.694  36.593  1.00  0.00     0.029 A 
ATOM     62  N   UNL A   1      43.251  27.644  36.857  1.00  0.00    -0.354 N 
ATOM     63  N   UNL A   1      45.482  24.568  36.674  1.00  0.00    -0.248 NA
ATOM     64  C   UNL A   1      46.410  22.971  38.056  1.00  0.00     0.031 C 
ATOM     65  C   UNL A   1      42.092  25.846  37.392  1.00  0.00     0.029 A 
ATOM     66  C   UNL A   1      43.348  26.430  37.511  1.00  0.00     0.049 A 
ATOM     67  H   UNL A   1      43.959  28.328  36.854  1.00  0.00     0.167 HD
ATOM     68  C   UNL A   1      45.297  25.010  37.943  1.00  0.00     0.074 A 
ATOM     69  C   UNL A   1      45.974  24.022  38.773  1.00  0.00     0.031 C 
ATOM     70  C   UNL A   1      44.551  26.100  38.274  1.00  0.00     0.031 A 
BRANCH  57  71
ATOM     71  C   UNL A   1      40.786  29.751  34.970  1.00  0.00    -0.014 A 
ATOM     72  C   UNL A   1      40.591  30.712  35.982  1.00  0.00     0.010 A 
ATOM     73  C   UNL A   1      39.841  29.761  33.920  1.00  0.00     0.010 A 
ATOM     74  C   UNL A   1      39.532  31.634  35.945  1.00  0.00     0.020 A 
ATOM     75  C   UNL A   1      38.791  30.693  33.856  1.00  0.00     0.020 A 
ATOM     76  C   UNL A   1      38.640  31.625  34.875  1.00  0.00     0.054 A 
BRANCH  76  77
ATOM     77  S   UNL A   1      37.292  32.834  34.836  1.00  0.00     0.124 S 
ATOM     78  O   UNL A   1      36.957  32.975  36.252  1.00  0.00    -0.237 OA
ATOM     79  O   UNL A   1      37.926  33.996  34.221  1.00  0.00    -0.237 OA
ATOM     80  O   UNL A   1      36.264  32.188  34.021  1.00  0.00    -0.744 OA
ENDBRANCH  76  77
ENDBRANCH  57  71
BRANCH  58  81
ATOM     81  C   UNL A   1      47.036  21.882  34.643  1.00  0.00    -0.014 A 
ATOM     82  C   UNL A   1      48.167  22.717  34.440  1.00  0.00     0.010 A 
ATOM     83  C   UNL A   1      47.223  20.494  34.489  1.00  0.00     0.010 A 
ATOM     84  C   UNL A   1      49.458  22.186  34.269  1.00  0.00     0.020 A 
ATOM     85  C   UNL A   1      48.520  19.958  34.326  1.00  0.00     0.020 A 
ATOM     86  C   UNL A   1      49.635  20.803  34.269  1.00  0.00     0.054 A 
BRANCH  86  87
ATOM     87  S   UNL A   1      51.325  20.136  34.496  1.00  0.00     0.124 S 
ATOM     88  O   UNL A   1      51.835  20.089  33.131  1.00  0.00    -0.237 OA
ATOM     89  O   UNL A   1      51.956  21.127  35.370  1.00  0.00    -0.237 OA
ATOM     90  O   UNL A   1      51.093  18.842  35.128  1.00  0.00    -0.744 OA
ENDBRANCH  86  87
ENDBRANCH  58  81
BRANCH  70  91
ATOM     91  C   UNL A   1      44.952  26.959  39.431  1.00  0.00    -0.014 A 
ATOM     92  C   UNL A   1      45.571  28.206  39.251  1.00  0.00     0.010 A 
ATOM     93  C   UNL A   1      44.534  26.614  40.733  1.00  0.00     0.010 A 
ATOM     94  C   UNL A   1      45.872  29.022  40.335  1.00  0.00     0.020 A 
ATOM     95  C   UNL A   1      44.763  27.457  41.815  1.00  0.00     0.020 A 
ATOM     96  C   UNL A   1      45.475  28.634  41.612  1.00  0.00     0.054 A 
BRANCH  96  97
ATOM     97  S   UNL A   1      45.897  29.696  43.004  1.00  0.00     0.124 S 
ATOM     98  O   UNL A   1      47.357  29.632  42.984  1.00  0.00    -0.237 OA
ATOM     99  O   UNL A   1      45.320  30.981  42.616  1.00  0.00    -0.237 OA
ATOM    100  O   UNL A   1      45.254  29.046  44.142  1.00  0.00    -0.744 OA
ENDBRANCH  96  97
ENDBRANCH  70  91
ENDBRANCH  44  45
ENDBRANCH  37  39
ENDBRANCH  36  37
ENDBRANCH  35  36
ENDBRANCH  34  35
ENDBRANCH  33  34
ENDBRANCH  32  33
ENDBRANCH   1  32
TORSDOF 23
ENDMDL
MODEL 3
REMARK VINA RESULT:     -10.1      3.538      9.494
REMARK SMILES Cc1cc(C(=O)OCCOCCOC(=O)c2ccc(-c3c4nc(c(-c5ccc(S(=O)(=O)[O-])cc5)c5ccc([nH]5)c(-c5ccc(S(=O)(=O)[O-])cc5)c5nc(c(-c6ccc(S(=O)(=O)[O-])cc6)c6ccc3[nH]6)C=C5)C=C4)cc2)ccc1NC(=O)c1ccc(=O)n(CCOc2ccccc2)n1
REMARK SMILES IDX 8 1 7 2 5 3 6 4 4 5 1 6 2 7 3 8 78 9 77 10 76 11 79 12 80 13
REMARK SMILES IDX 81 15 82 16 83 17 97 18 84 19 87 20 85 21 86 22 88 23 89 24
REMARK SMILES IDX 90 25 91 26 92 27 96 28 93 29 95 30 94 31 9 32 10 33 11 34
REMARK SMILES IDX 12 35 13 36 14 37 15 38 16 39 17 40 75 41 18 42 74 43 19 44
REMARK SMILES IDX 20 45 21 46 68 47 22 48 73 49 67 50 69 51 23 52 72 53 66 54
REMARK SMILES IDX 65 55 24 57 54 58 35 59 53 60 36 61 39 62 52 63 70 64 37 65
REMARK SMILES IDX 38 66 51 68 71 69 40 70 25 71 26 72 34 73 27 74 33 75 28 76
REMARK SMILES IDX 29 77 30 78 31 79 32 80 55 81 56 82 64 83 57 84 63 85 58 86
REMARK SMILES IDX 59 87 60 88 61 89 62 90 41 91 42 92 50 93 43 94 49 95 44 96
REMARK SMILES IDX 45 97 46 98 47 99 48 100
REMARK H PARENT 79 14 69 56 39 67
REMARK Flexibility Score: inf
ROOT
ATOM      1  C   UNL A   1      33.966  30.801  27.529  1.00  0.00     0.261 C 
ENDROOT
BRANCH   1   2
ATOM      2  O   UNL A   1      32.872  30.266  26.741  1.00  0.00    -0.460 OA
BRANCH   2   3
ATOM      3  C   UNL A   1      32.430  28.980  26.859  1.00  0.00     0.338 C 
ATOM      4  O   UNL A   1      32.181  28.333  27.845  1.00  0.00    -0.246 OA
BRANCH   3   5
ATOM      5  C   UNL A   1      32.268  28.482  25.476  1.00  0.00     0.060 A 
ATOM      6  C   UNL A   1      29.771  26.753  23.217  1.00  0.00     0.046 C 
ATOM      7  C   UNL A   1      31.086  27.298  23.698  1.00  0.00    -0.027 A 
ATOM      8  C   UNL A   1      31.174  27.724  25.050  1.00  0.00     0.021 A 
ATOM      9  C   UNL A   1      32.150  27.591  22.835  1.00  0.00     0.044 A 
ATOM     10  C   UNL A   1      32.986  28.610  23.216  1.00  0.00     0.027 A 
ATOM     11  C   UNL A   1      33.143  28.969  24.525  1.00  0.00     0.018 A 
BRANCH   9  12
ATOM     12  N   UNL A   1      32.432  26.884  21.644  1.00  0.00    -0.320 N 
ATOM     13  C   UNL A   1      32.892  25.563  21.512  1.00  0.00     0.276 C 
ATOM     14  H   UNL A   1      32.290  27.378  20.805  1.00  0.00     0.170 HD
ATOM     15  O   UNL A   1      33.109  25.068  20.409  1.00  0.00    -0.267 OA
BRANCH  13  16
ATOM     16  C   UNL A   1      33.185  24.710  22.756  1.00  0.00     0.149 A 
ATOM     17  C   UNL A   1      34.460  25.043  23.439  1.00  0.00     0.042 A 
ATOM     18  N   UNL A   1      32.324  23.835  23.202  1.00  0.00    -0.164 NA
ATOM     19  C   UNL A   1      34.444  24.869  24.763  1.00  0.00     0.076 A 
ATOM     20  N   UNL A   1      32.520  23.429  24.536  1.00  0.00    -0.226 N 
ATOM     21  C   UNL A   1      33.274  24.218  25.401  1.00  0.00     0.266 A 
ATOM     22  O   UNL A   1      33.105  24.339  26.609  1.00  0.00    -0.268 OA
BRANCH  20  23
ATOM     23  C   UNL A   1      31.646  22.391  25.098  1.00  0.00     0.190 C 
BRANCH  23  24
ATOM     24  C   UNL A   1      32.370  21.059  25.408  1.00  0.00     0.253 C 
BRANCH  24  25
ATOM     25  O   UNL A   1      31.955  19.925  24.606  1.00  0.00    -0.492 OA
BRANCH  25  26
ATOM     26  C   UNL A   1      32.786  18.848  24.732  1.00  0.00     0.119 A 
ATOM     27  C   UNL A   1      32.351  17.636  25.255  1.00  0.00     0.046 A 
ATOM     28  C   UNL A   1      34.132  19.008  24.448  1.00  0.00     0.046 A 
ATOM     29  C   UNL A   1      33.241  16.554  25.326  1.00  0.00     0.004 A 
ATOM     30  C   UNL A   1      34.999  17.919  24.421  1.00  0.00     0.004 A 
ATOM     31  C   UNL A   1      34.546  16.679  24.848  1.00  0.00     0.000 A 
ENDBRANCH  25  26
ENDBRANCH  24  25
ENDBRANCH  23  24
ENDBRANCH  20  23
ENDBRANCH  13  16
ENDBRANCH   9  12
ENDBRANCH   3   5
ENDBRANCH   2   3
ENDBRANCH   1   2
BRANCH   1  32
ATOM     32  C   UNL A   1      33.813  32.238  27.882  1.00  0.00     0.202 C 
BRANCH  32  33
ATOM     33  O   UNL A   1      35.080  32.824  27.632  1.00  0.00    -0.374 OA
BRANCH  33  34
ATOM     34  C   UNL A   1      35.276  34.089  28.212  1.00  0.00     0.202 C 
BRANCH  34  35
ATOM     35  C   UNL A   1      34.501  34.265  29.521  1.00  0.00     0.261 C 
BRANCH  35  36
ATOM     36  O   UNL A   1      35.360  34.024  30.661  1.00  0.00    -0.460 OA
BRANCH  36  37
ATOM     37  C   UNL A   1      35.091  32.916  31.420  1.00  0.00     0.338 C 
ATOM     38  O   UNL A   1      34.000  32.686  31.911  1.00  0.00    -0.246 OA
BRANCH  37  39
ATOM     39  C   UNL A   1      36.263  31.988  31.443  1.00  0.00     0.060 A 
ATOM     40  C   UNL A   1      36.271  30.802  32.202  1.00  0.00     0.016 A 
ATOM     41  C   UNL A   1      37.430  32.398  30.813  1.00  0.00     0.016 A 
ATOM     42  C   UNL A   1      37.483  30.119  32.457  1.00  0.00     0.010 A 
ATOM     43  C   UNL A   1      38.618  31.778  31.130  1.00  0.00     0.010 A 
ATOM     44  C   UNL A   1      38.675  30.657  31.980  1.00  0.00    -0.014 A 
BRANCH  44  45
ATOM     45  C   UNL A   1      40.052  30.264  32.330  1.00  0.00     0.031 A 
ATOM     46  C   UNL A   1      40.632  29.121  31.587  1.00  0.00     0.074 A 
ATOM     47  C   UNL A   1      40.885  31.126  32.976  1.00  0.00     0.049 A 
ATOM     48  N   UNL A   1      41.829  28.696  31.761  1.00  0.00    -0.248 NA
ATOM     49  C   UNL A   1      39.911  28.335  30.582  1.00  0.00     0.031 C 
ATOM     50  C   UNL A   1      42.339  31.286  32.845  1.00  0.00     0.029 A 
ATOM     51  N   UNL A   1      40.571  32.130  33.886  1.00  0.00    -0.354 N 
ATOM     52  C   UNL A   1      42.149  27.886  30.700  1.00  0.00     0.074 A 
ATOM     53  C   UNL A   1      40.894  27.595  30.058  1.00  0.00     0.031 C 
ATOM     54  C   UNL A   1      42.804  32.104  33.811  1.00  0.00     0.029 A 
ATOM     55  C   UNL A   1      41.683  32.434  34.679  1.00  0.00     0.049 A 
ATOM     56  H   UNL A   1      39.692  32.566  33.963  1.00  0.00     0.167 HD
ATOM     57  C   UNL A   1      43.468  27.676  30.443  1.00  0.00     0.031 A 
ATOM     58  C   UNL A   1      41.585  32.330  36.029  1.00  0.00     0.031 A 
ATOM     59  C   UNL A   1      44.299  28.248  31.515  1.00  0.00     0.049 A 
ATOM     60  C   UNL A   1      42.415  31.128  36.383  1.00  0.00     0.074 A 
ATOM     61  C   UNL A   1      45.144  29.342  31.595  1.00  0.00     0.029 A 
ATOM     62  N   UNL A   1      44.037  27.865  32.833  1.00  0.00    -0.354 N 
ATOM     63  N   UNL A   1      42.649  30.167  35.525  1.00  0.00    -0.248 NA
ATOM     64  C   UNL A   1      43.215  31.009  37.597  1.00  0.00     0.031 C 
ATOM     65  C   UNL A   1      45.280  29.681  32.980  1.00  0.00     0.029 A 
ATOM     66  C   UNL A   1      44.546  28.777  33.739  1.00  0.00     0.049 A 
ATOM     67  H   UNL A   1      43.550  27.048  33.085  1.00  0.00     0.167 HD
ATOM     68  C   UNL A   1      43.723  29.452  35.945  1.00  0.00     0.074 A 
ATOM     69  C   UNL A   1      43.989  29.953  37.287  1.00  0.00     0.031 C 
ATOM     70  C   UNL A   1      44.392  28.550  35.175  1.00  0.00     0.031 A 
BRANCH  57  71
ATOM     71  C   UNL A   1      44.026  27.100  29.160  1.00  0.00    -0.014 A 
ATOM     72  C   UNL A   1      45.244  27.604  28.659  1.00  0.00     0.010 A 
ATOM     73  C   UNL A   1      43.391  26.121  28.365  1.00  0.00     0.010 A 
ATOM     74  C   UNL A   1      45.800  27.152  27.451  1.00  0.00     0.020 A 
ATOM     75  C   UNL A   1      43.947  25.641  27.167  1.00  0.00     0.020 A 
ATOM     76  C   UNL A   1      45.150  26.164  26.714  1.00  0.00     0.054 A 
BRANCH  76  77
ATOM     77  S   UNL A   1      45.894  25.580  25.168  1.00  0.00     0.124 S 
ATOM     78  O   UNL A   1      44.825  24.762  24.597  1.00  0.00    -0.237 OA
ATOM     79  O   UNL A   1      46.178  26.827  24.462  1.00  0.00    -0.237 OA
ATOM     80  O   UNL A   1      47.073  24.836  25.605  1.00  0.00    -0.744 OA
ENDBRANCH  76  77
ENDBRANCH  57  71
BRANCH  58  81
ATOM     81  C   UNL A   1      40.241  32.805  36.522  1.00  0.00    -0.014 A 
ATOM     82  C   UNL A   1      39.113  32.073  36.067  1.00  0.00     0.010 A 
ATOM     83  C   UNL A   1      40.108  33.502  37.739  1.00  0.00     0.010 A 
ATOM     84  C   UNL A   1      37.970  31.898  36.869  1.00  0.00     0.020 A 
ATOM     85  C   UNL A   1      38.967  33.320  38.552  1.00  0.00     0.020 A 
ATOM     86  C   UNL A   1      37.927  32.479  38.136  1.00  0.00     0.054 A 
BRANCH  86  87
ATOM     87  S   UNL A   1      36.669  31.889  39.327  1.00  0.00     0.124 S 
ATOM     88  O   UNL A   1      36.539  30.478  38.982  1.00  0.00    -0.237 OA
ATOM     89  O   UNL A   1      37.287  32.166  40.625  1.00  0.00    -0.237 OA
ATOM     90  O   UNL A   1      35.508  32.721  39.028  1.00  0.00    -0.744 OA
ENDBRANCH  86  87
ENDBRANCH  58  81
BRANCH  70  91
ATOM     91  C   UNL A   1      44.986  27.327  35.799  1.00  0.00    -0.014 A 
ATOM     92  C   UNL A   1      46.375  27.128  35.869  1.00  0.00     0.010 A 
ATOM     93  C   UNL A   1      44.157  26.434  36.508  1.00  0.00     0.010 A 
ATOM     94  C   UNL A   1      46.910  26.021  36.515  1.00  0.00     0.020 A 
ATOM     95  C   UNL A   1      44.687  25.364  37.221  1.00  0.00     0.020 A 
ATOM     96  C   UNL A   1      46.059  25.139  37.176  1.00  0.00     0.054 A 
BRANCH  96  97
ATOM     97  S   UNL A   1      46.774  23.698  37.985  1.00  0.00     0.124 S 
ATOM     98  O   UNL A   1      48.121  23.688  37.422  1.00  0.00    -0.237 OA
ATOM     99  O   UNL A   1      46.688  24.047  39.401  1.00  0.00    -0.237 OA
ATOM    100  O   UNL A   1      45.908  22.601  37.565  1.00  0.00    -0.744 OA
ENDBRANCH  96  97
ENDBRANCH  70  91
ENDBRANCH  44  45
ENDBRANCH  37  39
ENDBRANCH  36  37
ENDBRANCH  35  36
ENDBRANCH  34  35
ENDBRANCH  33  34
ENDBRANCH  32  33
ENDBRANCH   1  32
TORSDOF 23
ENDMDL
