MODEL 1
REMARK VINA RESULT:      -9.9      0.000      0.000
REMARK SMILES O=C(OCCOCCOC(=O)c1ccc(S(=O)(=O)NC[C@H]2CCS(=O)(=O)C2)cc1)c1ccc(-c2c3nc(c(-c4ccc(S(=O)(=O)[O-])cc4)c4ccc([nH]4)c(-c4ccc(S(=O)(=O)[O-])cc4)c4nc(c(-c5ccc(S(=O)(=O)[O-])cc5)c5ccc2[nH]5)C=C4)C=C3)cc1
REMARK SMILES IDX 7 1 6 2 5 3 4 4 3 5 2 6 1 7 30 8 31 9 89 10 32 11 88 12
REMARK SMILES IDX 33 13 34 14 35 15 82 16 36 17 87 18 81 19 83 20 37 21 86 22
REMARK SMILES IDX 80 23 79 24 38 26 68 27 49 28 67 29 50 30 53 31 66 32 84 33
REMARK SMILES IDX 51 34 52 35 65 37 85 38 54 39 39 40 40 41 48 42 41 43 47 44
REMARK SMILES IDX 42 45 43 46 44 47 45 48 46 49 69 50 70 51 78 52 71 53 77 54
REMARK SMILES IDX 72 55 73 56 74 57 75 58 76 59 55 60 56 61 64 62 57 63 63 64
REMARK SMILES IDX 58 65 59 66 60 67 61 68 62 69 8 70 9 71 10 72 11 73 12 74
REMARK SMILES IDX 13 75 29 76 14 77 28 78 15 79 16 80 17 81 18 82 19 83 20 85
REMARK SMILES IDX 21 86 22 87 27 88 23 89 24 90 25 91 26 92
REMARK H PARENT 83 25 53 36 19 84
REMARK Flexibility Score: inf
ROOT
ATOM      1  C   UNL A   1      33.303  29.783  25.862  1.00  0.00     0.202 C 
ENDROOT
BRANCH   1   2
ATOM      2  O   UNL A   1      33.734  29.584  27.216  1.00  0.00    -0.374 OA
BRANCH   2   3
ATOM      3  C   UNL A   1      34.303  30.724  27.863  1.00  0.00     0.202 C 
BRANCH   3   4
ATOM      4  C   UNL A   1      35.823  30.833  27.723  1.00  0.00     0.261 C 
BRANCH   4   5
ATOM      5  O   UNL A   1      36.428  29.564  28.021  1.00  0.00    -0.460 OA
BRANCH   5   6
ATOM      6  C   UNL A   1      37.375  29.269  28.939  1.00  0.00     0.338 C 
ATOM      7  O   UNL A   1      37.017  29.074  30.100  1.00  0.00    -0.246 OA
BRANCH   6   8
ATOM      8  C   UNL A   1      38.834  29.167  28.631  1.00  0.00     0.060 A 
ATOM      9  C   UNL A   1      39.836  28.837  29.550  1.00  0.00     0.016 A 
ATOM     10  C   UNL A   1      39.198  29.311  27.282  1.00  0.00     0.016 A 
ATOM     11  C   UNL A   1      41.167  28.716  29.162  1.00  0.00     0.010 A 
ATOM     12  C   UNL A   1      40.526  29.157  26.877  1.00  0.00     0.010 A 
ATOM     13  C   UNL A   1      41.517  28.877  27.824  1.00  0.00    -0.014 A 
BRANCH  13  14
ATOM     14  C   UNL A   1      42.935  28.832  27.435  1.00  0.00     0.031 A 
ATOM     15  C   UNL A   1      43.483  27.553  26.885  1.00  0.00     0.074 A 
ATOM     16  C   UNL A   1      43.699  29.932  27.550  1.00  0.00     0.049 A 
ATOM     17  N   UNL A   1      44.714  27.244  26.583  1.00  0.00    -0.248 NA
ATOM     18  C   UNL A   1      42.507  26.477  26.640  1.00  0.00     0.031 C 
ATOM     19  C   UNL A   1      43.224  31.244  27.995  1.00  0.00     0.029 A 
ATOM     20  N   UNL A   1      45.034  30.119  27.307  1.00  0.00    -0.354 N 
ATOM     21  C   UNL A   1      44.669  25.927  26.145  1.00  0.00     0.074 A 
ATOM     22  C   UNL A   1      43.290  25.498  26.214  1.00  0.00     0.031 C 
ATOM     23  C   UNL A   1      44.259  32.101  28.002  1.00  0.00     0.029 A 
ATOM     24  C   UNL A   1      45.471  31.385  27.618  1.00  0.00     0.049 A 
ATOM     25  H   UNL A   1      45.621  29.417  26.945  1.00  0.00     0.167 HD
ATOM     26  C   UNL A   1      45.697  25.144  25.743  1.00  0.00     0.031 A 
ATOM     27  C   UNL A   1      46.720  31.889  27.632  1.00  0.00     0.031 A 
ATOM     28  C   UNL A   1      47.062  25.586  25.720  1.00  0.00     0.049 A 
ATOM     29  C   UNL A   1      47.857  30.988  27.242  1.00  0.00     0.074 A 
ATOM     30  C   UNL A   1      48.199  24.874  25.391  1.00  0.00     0.029 A 
ATOM     31  N   UNL A   1      47.472  26.872  26.053  1.00  0.00    -0.354 N 
ATOM     32  N   UNL A   1      47.813  29.730  26.864  1.00  0.00    -0.248 NA
ATOM     33  C   UNL A   1      49.209  31.559  27.287  1.00  0.00     0.031 C 
ATOM     34  C   UNL A   1      49.301  25.720  25.563  1.00  0.00     0.029 A 
ATOM     35  C   UNL A   1      48.846  26.971  25.955  1.00  0.00     0.049 A 
ATOM     36  H   UNL A   1      46.870  27.604  26.321  1.00  0.00     0.167 HD
ATOM     37  C   UNL A   1      49.129  29.360  26.618  1.00  0.00     0.074 A 
ATOM     38  C   UNL A   1      49.945  30.531  26.879  1.00  0.00     0.031 C 
ATOM     39  C   UNL A   1      49.620  28.161  26.218  1.00  0.00     0.031 A 
BRANCH  26  40
ATOM     40  C   UNL A   1      45.360  23.720  25.401  1.00  0.00    -0.014 A 
ATOM     41  C   UNL A   1      45.414  22.699  26.367  1.00  0.00     0.010 A 
ATOM     42  C   UNL A   1      45.068  23.386  24.066  1.00  0.00     0.010 A 
ATOM     43  C   UNL A   1      45.256  21.362  25.991  1.00  0.00     0.020 A 
ATOM     44  C   UNL A   1      44.888  22.053  23.690  1.00  0.00     0.020 A 
ATOM     45  C   UNL A   1      45.018  21.047  24.650  1.00  0.00     0.054 A 
BRANCH  45  46
ATOM     46  S   UNL A   1      44.891  19.302  24.167  1.00  0.00     0.124 S 
ATOM     47  O   UNL A   1      43.825  18.827  25.047  1.00  0.00    -0.237 OA
ATOM     48  O   UNL A   1      44.547  19.380  22.750  1.00  0.00    -0.237 OA
ATOM     49  O   UNL A   1      46.221  18.767  24.454  1.00  0.00    -0.744 OA
ENDBRANCH  45  46
ENDBRANCH  26  40
BRANCH  27  50
ATOM     50  C   UNL A   1      46.934  33.292  28.079  1.00  0.00    -0.014 A 
ATOM     51  C   UNL A   1      47.274  33.583  29.410  1.00  0.00     0.010 A 
ATOM     52  C   UNL A   1      46.884  34.342  27.143  1.00  0.00     0.010 A 
ATOM     53  C   UNL A   1      47.573  34.896  29.795  1.00  0.00     0.020 A 
ATOM     54  C   UNL A   1      47.202  35.651  27.516  1.00  0.00     0.020 A 
ATOM     55  C   UNL A   1      47.545  35.920  28.843  1.00  0.00     0.054 A 
BRANCH  55  56
ATOM     56  S   UNL A   1      48.043  37.596  29.333  1.00  0.00     0.124 S 
ATOM     57  O   UNL A   1      49.124  37.328  30.276  1.00  0.00    -0.237 OA
ATOM     58  O   UNL A   1      48.446  38.193  28.062  1.00  0.00    -0.237 OA
ATOM     59  O   UNL A   1      46.825  38.156  29.916  1.00  0.00    -0.744 OA
ENDBRANCH  55  56
ENDBRANCH  27  50
BRANCH  39  60
ATOM     60  C   UNL A   1      51.103  28.056  26.015  1.00  0.00    -0.014 A 
ATOM     61  C   UNL A   1      51.695  28.473  24.812  1.00  0.00     0.010 A 
ATOM     62  C   UNL A   1      51.919  27.654  27.088  1.00  0.00     0.010 A 
ATOM     63  C   UNL A   1      53.085  28.495  24.685  1.00  0.00     0.020 A 
ATOM     64  C   UNL A   1      53.308  27.691  26.971  1.00  0.00     0.020 A 
ATOM     65  C   UNL A   1      53.883  28.111  25.769  1.00  0.00     0.054 A 
BRANCH  65  66
ATOM     66  S   UNL A   1      55.686  28.248  25.620  1.00  0.00     0.124 S 
ATOM     67  O   UNL A   1      55.828  29.214  24.535  1.00  0.00    -0.237 OA
ATOM     68  O   UNL A   1      56.083  28.725  26.943  1.00  0.00    -0.237 OA
ATOM     69  O   UNL A   1      56.109  26.886  25.304  1.00  0.00    -0.744 OA
ENDBRANCH  65  66
ENDBRANCH  39  60
ENDBRANCH  13  14
ENDBRANCH   6   8
ENDBRANCH   5   6
ENDBRANCH   4   5
ENDBRANCH   3   4
ENDBRANCH   2   3
ENDBRANCH   1   2
BRANCH   1  70
ATOM     70  C   UNL A   1      31.772  29.773  25.812  1.00  0.00     0.261 C 
BRANCH  70  71
ATOM     71  O   UNL A   1      31.349  28.411  25.979  1.00  0.00    -0.460 OA
BRANCH  71  72
ATOM     72  C   UNL A   1      31.113  27.770  24.809  1.00  0.00     0.338 C 
ATOM     73  O   UNL A   1      30.387  28.130  23.900  1.00  0.00    -0.246 OA
BRANCH  72  74
ATOM     74  C   UNL A   1      32.036  26.616  24.714  1.00  0.00     0.060 A 
ATOM     75  C   UNL A   1      33.127  26.724  23.842  1.00  0.00     0.017 A 
ATOM     76  C   UNL A   1      31.870  25.466  25.499  1.00  0.00     0.017 A 
ATOM     77  C   UNL A   1      34.016  25.662  23.707  1.00  0.00     0.022 A 
ATOM     78  C   UNL A   1      32.757  24.400  25.366  1.00  0.00     0.022 A 
ATOM     79  C   UNL A   1      33.792  24.487  24.430  1.00  0.00     0.082 A 
BRANCH  79  80
ATOM     80  S   UNL A   1      34.713  23.029  24.020  1.00  0.00     0.240 S 
ATOM     81  O   UNL A   1      34.906  22.999  22.588  1.00  0.00    -0.207 OA
ATOM     82  O   UNL A   1      35.820  22.934  24.943  1.00  0.00    -0.207 OA
BRANCH  80  83
ATOM     83  N   UNL A   1      33.671  21.763  24.410  1.00  0.00    -0.211 NA
ATOM     84  H   UNL A   1      33.297  21.435  23.520  1.00  0.00     0.141 HD
BRANCH  83  85
ATOM     85  C   UNL A   1      34.055  20.550  25.144  1.00  0.00     0.103 C 
BRANCH  85  86
ATOM     86  C   UNL A   1      33.461  19.229  24.670  1.00  0.00     0.020 C 
ATOM     87  C   UNL A   1      32.632  19.318  23.382  1.00  0.00     0.022 C 
ATOM     88  C   UNL A   1      34.467  18.099  24.479  1.00  0.00     0.142 C 
ATOM     89  C   UNL A   1      32.317  17.901  22.907  1.00  0.00     0.137 C 
ATOM     90  S   UNL A   1      33.543  16.829  23.638  1.00  0.00     0.150 S 
ATOM     91  O   UNL A   1      32.887  16.020  24.646  1.00  0.00    -0.229 OA
ATOM     92  O   UNL A   1      34.364  16.245  22.601  1.00  0.00    -0.229 OA
ENDBRANCH  85  86
ENDBRANCH  83  85
ENDBRANCH  80  83
ENDBRANCH  79  80
ENDBRANCH  72  74
ENDBRANCH  71  72
ENDBRANCH  70  71
ENDBRANCH   1  70
TORSDOF 21
ENDMDL
MODEL 2
REMARK VINA RESULT:      -9.9      6.763     12.214
REMARK SMILES O=C(OCCOCCOC(=O)c1ccc(S(=O)(=O)NC[C@H]2CCS(=O)(=O)C2)cc1)c1ccc(-c2c3nc(c(-c4ccc(S(=O)(=O)[O-])cc4)c4ccc([nH]4)c(-c4ccc(S(=O)(=O)[O-])cc4)c4nc(c(-c5ccc(S(=O)(=O)[O-])cc5)c5ccc2[nH]5)C=C4)C=C3)cc1
REMARK SMILES IDX 7 1 6 2 5 3 4 4 3 5 2 6 1 7 30 8 31 9 89 10 32 11 88 12
REMARK SMILES IDX 33 13 34 14 35 15 82 16 36 17 87 18 81 19 83 20 37 21 86 22
REMARK SMILES IDX 80 23 79 24 38 26 68 27 49 28 67 29 50 30 53 31 66 32 84 33
REMARK SMILES IDX 51 34 52 35 65 37 85 38 54 39 39 40 40 41 48 42 41 43 47 44
REMARK SMILES IDX 42 45 43 46 44 47 45 48 46 49 69 50 70 51 78 52 71 53 77 54
REMARK SMILES IDX 72 55 73 56 74 57 75 58 76 59 55 60 56 61 64 62 57 63 63 64
REMARK SMILES IDX 58 65 59 66 60 67 61 68 62 69 8 70 9 71 10 72 11 73 12 74
REMARK SMILES IDX 13 75 29 76 14 77 28 78 15 79 16 80 17 81 18 82 19 83 20 85
REMARK SMILES IDX 21 86 22 87 27 88 23 89 24 90 25 91 26 92
REMARK H PARENT 83 25 53 36 19 84
REMARK Flexibility Score: inf
ROOT
ATOM      1  C   UNL A   1      40.386  21.454  27.119  1.00  0.00     0.202 C 
ENDROOT
BRANCH   1   2
ATOM      2  O   UNL A   1      41.711  21.994  27.231  1.00  0.00    -0.374 OA
BRANCH   2   3
ATOM      3  C   UNL A   1      42.593  21.710  26.143  1.00  0.00     0.202 C 
BRANCH   3   4
ATOM      4  C   UNL A   1      43.149  22.954  25.445  1.00  0.00     0.261 C 
BRANCH   4   5
ATOM      5  O   UNL A   1      43.062  24.084  26.329  1.00  0.00    -0.460 OA
BRANCH   5   6
ATOM      6  C   UNL A   1      42.418  25.258  26.147  1.00  0.00     0.338 C 
ATOM      7  O   UNL A   1      41.990  25.517  25.023  1.00  0.00    -0.246 OA
BRANCH   6   8
ATOM      8  C   UNL A   1      42.196  26.265  27.229  1.00  0.00     0.060 A 
ATOM      9  C   UNL A   1      42.789  27.530  27.293  1.00  0.00     0.016 A 
ATOM     10  C   UNL A   1      41.228  25.941  28.193  1.00  0.00     0.016 A 
ATOM     11  C   UNL A   1      42.484  28.425  28.315  1.00  0.00     0.010 A 
ATOM     12  C   UNL A   1      40.891  26.845  29.202  1.00  0.00     0.010 A 
ATOM     13  C   UNL A   1      41.535  28.085  29.275  1.00  0.00    -0.014 A 
BRANCH  13  14
ATOM     14  C   UNL A   1      41.280  29.000  30.398  1.00  0.00     0.031 A 
ATOM     15  C   UNL A   1      42.167  28.920  31.599  1.00  0.00     0.074 A 
ATOM     16  C   UNL A   1      40.286  29.901  30.317  1.00  0.00     0.049 A 
ATOM     17  N   UNL A   1      42.067  29.540  32.743  1.00  0.00    -0.248 NA
ATOM     18  C   UNL A   1      43.328  28.019  31.493  1.00  0.00     0.031 C 
ATOM     19  C   UNL A   1      39.427  30.106  29.148  1.00  0.00     0.029 A 
ATOM     20  N   UNL A   1      39.828  30.807  31.236  1.00  0.00    -0.354 N 
ATOM     21  C   UNL A   1      43.131  29.079  33.508  1.00  0.00     0.074 A 
ATOM     22  C   UNL A   1      43.866  28.134  32.698  1.00  0.00     0.031 C 
ATOM     23  C   UNL A   1      38.538  31.074  29.426  1.00  0.00     0.029 A 
ATOM     24  C   UNL A   1      38.730  31.512  30.805  1.00  0.00     0.049 A 
ATOM     25  H   UNL A   1      40.244  30.941  32.118  1.00  0.00     0.167 HD
ATOM     26  C   UNL A   1      43.445  29.404  34.784  1.00  0.00     0.031 A 
ATOM     27  C   UNL A   1      37.943  32.380  31.470  1.00  0.00     0.031 A 
ATOM     28  C   UNL A   1      42.674  30.318  35.577  1.00  0.00     0.049 A 
ATOM     29  C   UNL A   1      38.271  32.684  32.905  1.00  0.00     0.074 A 
ATOM     30  C   UNL A   1      42.853  30.686  36.897  1.00  0.00     0.029 A 
ATOM     31  N   UNL A   1      41.559  31.006  35.112  1.00  0.00    -0.354 N 
ATOM     32  N   UNL A   1      39.257  32.216  33.636  1.00  0.00    -0.248 NA
ATOM     33  C   UNL A   1      37.384  33.617  33.610  1.00  0.00     0.031 C 
ATOM     34  C   UNL A   1      41.821  31.568  37.240  1.00  0.00     0.029 A 
ATOM     35  C   UNL A   1      41.028  31.784  36.123  1.00  0.00     0.049 A 
ATOM     36  H   UNL A   1      41.200  30.947  34.197  1.00  0.00     0.167 HD
ATOM     37  C   UNL A   1      39.115  32.804  34.887  1.00  0.00     0.074 A 
ATOM     38  C   UNL A   1      37.954  33.671  34.808  1.00  0.00     0.031 C 
ATOM     39  C   UNL A   1      39.872  32.639  36.000  1.00  0.00     0.031 A 
BRANCH  26  40
ATOM     40  C   UNL A   1      44.614  28.680  35.390  1.00  0.00    -0.014 A 
ATOM     41  C   UNL A   1      44.449  27.458  36.069  1.00  0.00     0.010 A 
ATOM     42  C   UNL A   1      45.886  29.279  35.355  1.00  0.00     0.010 A 
ATOM     43  C   UNL A   1      45.520  26.887  36.764  1.00  0.00     0.020 A 
ATOM     44  C   UNL A   1      46.963  28.700  36.030  1.00  0.00     0.020 A 
ATOM     45  C   UNL A   1      46.764  27.525  36.758  1.00  0.00     0.054 A 
BRANCH  45  46
ATOM     46  S   UNL A   1      48.121  26.810  37.727  1.00  0.00     0.124 S 
ATOM     47  O   UNL A   1      48.893  28.000  38.080  1.00  0.00    -0.237 OA
ATOM     48  O   UNL A   1      47.425  26.163  38.836  1.00  0.00    -0.237 OA
ATOM     49  O   UNL A   1      48.773  25.900  36.789  1.00  0.00    -0.744 OA
ENDBRANCH  45  46
ENDBRANCH  26  40
BRANCH  27  50
ATOM     50  C   UNL A   1      36.758  32.963  30.784  1.00  0.00    -0.014 A 
ATOM     51  C   UNL A   1      35.454  32.619  31.175  1.00  0.00     0.010 A 
ATOM     52  C   UNL A   1      36.935  33.941  29.786  1.00  0.00     0.010 A 
ATOM     53  C   UNL A   1      34.349  33.250  30.591  1.00  0.00     0.020 A 
ATOM     54  C   UNL A   1      35.837  34.590  29.216  1.00  0.00     0.020 A 
ATOM     55  C   UNL A   1      34.548  34.239  29.623  1.00  0.00     0.054 A 
BRANCH  55  56
ATOM     56  S   UNL A   1      33.110  35.126  28.958  1.00  0.00     0.124 S 
ATOM     57  O   UNL A   1      33.723  36.328  28.403  1.00  0.00    -0.237 OA
ATOM     58  O   UNL A   1      32.577  34.179  27.980  1.00  0.00    -0.237 OA
ATOM     59  O   UNL A   1      32.265  35.335  30.132  1.00  0.00    -0.744 OA
ENDBRANCH  55  56
ENDBRANCH  27  50
BRANCH  39  60
ATOM     60  C   UNL A   1      39.486  33.426  37.219  1.00  0.00    -0.014 A 
ATOM     61  C   UNL A   1      38.701  32.847  38.228  1.00  0.00     0.010 A 
ATOM     62  C   UNL A   1      40.024  34.712  37.408  1.00  0.00     0.010 A 
ATOM     63  C   UNL A   1      38.461  33.542  39.415  1.00  0.00     0.020 A 
ATOM     64  C   UNL A   1      39.800  35.402  38.599  1.00  0.00     0.020 A 
ATOM     65  C   UNL A   1      39.019  34.812  39.596  1.00  0.00     0.054 A 
BRANCH  65  66
ATOM     66  S   UNL A   1      38.784  35.653  41.186  1.00  0.00     0.124 S 
ATOM     67  O   UNL A   1      39.984  35.260  41.918  1.00  0.00    -0.237 OA
ATOM     68  O   UNL A   1      38.715  37.061  40.799  1.00  0.00    -0.237 OA
ATOM     69  O   UNL A   1      37.533  35.092  41.690  1.00  0.00    -0.744 OA
ENDBRANCH  65  66
ENDBRANCH  39  60
ENDBRANCH  13  14
ENDBRANCH   6   8
ENDBRANCH   5   6
ENDBRANCH   4   5
ENDBRANCH   3   4
ENDBRANCH   2   3
ENDBRANCH   1   2
BRANCH   1  70
ATOM     70  C   UNL A   1      39.786  21.862  25.770  1.00  0.00     0.261 C 
BRANCH  70  71
ATOM     71  O   UNL A   1      38.373  22.026  25.965  1.00  0.00    -0.460 OA
BRANCH  71  72
ATOM     72  C   UNL A   1      37.981  23.321  26.026  1.00  0.00     0.338 C 
ATOM     73  O   UNL A   1      38.601  24.262  26.490  1.00  0.00    -0.246 OA
BRANCH  72  74
ATOM     74  C   UNL A   1      36.723  23.467  25.260  1.00  0.00     0.060 A 
ATOM     75  C   UNL A   1      36.714  23.022  23.931  1.00  0.00     0.017 A 
ATOM     76  C   UNL A   1      35.555  23.981  25.839  1.00  0.00     0.017 A 
ATOM     77  C   UNL A   1      35.561  23.148  23.163  1.00  0.00     0.022 A 
ATOM     78  C   UNL A   1      34.398  24.110  25.074  1.00  0.00     0.022 A 
ATOM     79  C   UNL A   1      34.427  23.742  23.725  1.00  0.00     0.082 A 
BRANCH  79  80
ATOM     80  S   UNL A   1      33.080  24.205  22.672  1.00  0.00     0.240 S 
ATOM     81  O   UNL A   1      33.375  23.759  21.330  1.00  0.00    -0.207 OA
ATOM     82  O   UNL A   1      31.853  23.848  23.345  1.00  0.00    -0.207 OA
BRANCH  80  83
ATOM     83  N   UNL A   1      33.130  25.890  22.660  1.00  0.00    -0.211 NA
ATOM     84  H   UNL A   1      32.155  26.190  22.635  1.00  0.00     0.141 HD
BRANCH  83  85
ATOM     85  C   UNL A   1      33.768  26.723  23.688  1.00  0.00     0.103 C 
BRANCH  85  86
ATOM     86  C   UNL A   1      32.863  27.621  24.522  1.00  0.00     0.020 C 
ATOM     87  C   UNL A   1      32.216  26.939  25.735  1.00  0.00     0.022 C 
ATOM     88  C   UNL A   1      33.512  28.906  25.024  1.00  0.00     0.142 C 
ATOM     89  C   UNL A   1      31.549  28.009  26.597  1.00  0.00     0.137 C 
ATOM     90  S   UNL A   1      32.340  29.558  26.197  1.00  0.00     0.150 S 
ATOM     91  O   UNL A   1      31.389  30.372  25.465  1.00  0.00    -0.229 OA
ATOM     92  O   UNL A   1      33.049  30.060  27.354  1.00  0.00    -0.229 OA
ENDBRANCH  85  86
ENDBRANCH  83  85
ENDBRANCH  80  83
ENDBRANCH  79  80
ENDBRANCH  72  74
ENDBRANCH  71  72
ENDBRANCH  70  71
ENDBRANCH   1  70
TORSDOF 21
ENDMDL
MODEL 3
REMARK VINA RESULT:      -9.9      1.817      2.793
REMARK SMILES O=C(OCCOCCOC(=O)c1ccc(S(=O)(=O)NC[C@H]2CCS(=O)(=O)C2)cc1)c1ccc(-c2c3nc(c(-c4ccc(S(=O)(=O)[O-])cc4)c4ccc([nH]4)c(-c4ccc(S(=O)(=O)[O-])cc4)c4nc(c(-c5ccc(S(=O)(=O)[O-])cc5)c5ccc2[nH]5)C=C4)C=C3)cc1
REMARK SMILES IDX 7 1 6 2 5 3 4 4 3 5 2 6 1 7 30 8 31 9 89 10 32 11 88 12
REMARK SMILES IDX 33 13 34 14 35 15 82 16 36 17 87 18 81 19 83 20 37 21 86 22
REMARK SMILES IDX 80 23 79 24 38 26 68 27 49 28 67 29 50 30 53 31 66 32 84 33
REMARK SMILES IDX 51 34 52 35 65 37 85 38 54 39 39 40 40 41 48 42 41 43 47 44
REMARK SMILES IDX 42 45 43 46 44 47 45 48 46 49 69 50 70 51 78 52 71 53 77 54
REMARK SMILES IDX 72 55 73 56 74 57 75 58 76 59 55 60 56 61 64 62 57 63 63 64
REMARK SMILES IDX 58 65 59 66 60 67 61 68 62 69 8 70 9 71 10 72 11 73 12 74
REMARK SMILES IDX 13 75 29 76 14 77 28 78 15 79 16 80 17 81 18 82 19 83 20 85
REMARK SMILES IDX 21 86 22 87 27 88 23 89 24 90 25 91 26 92
REMARK H PARENT 83 25 53 36 19 84
REMARK Flexibility Score: inf
ROOT
ATOM      1  C   UNL A   1      33.324  29.743  25.881  1.00  0.00     0.202 C 
ENDROOT
BRANCH   1   2
ATOM      2  O   UNL A   1      33.737  29.568  27.244  1.00  0.00    -0.374 OA
BRANCH   2   3
ATOM      3  C   UNL A   1      34.306  30.717  27.875  1.00  0.00     0.202 C 
BRANCH   3   4
ATOM      4  C   UNL A   1      35.830  30.808  27.758  1.00  0.00     0.261 C 
BRANCH   4   5
ATOM      5  O   UNL A   1      36.416  29.537  28.086  1.00  0.00    -0.460 OA
BRANCH   5   6
ATOM      6  C   UNL A   1      37.357  29.250  29.012  1.00  0.00     0.338 C 
ATOM      7  O   UNL A   1      36.993  29.062  30.172  1.00  0.00    -0.246 OA
BRANCH   6   8
ATOM      8  C   UNL A   1      38.819  29.149  28.714  1.00  0.00     0.060 A 
ATOM      9  C   UNL A   1      39.815  28.824  29.641  1.00  0.00     0.016 A 
ATOM     10  C   UNL A   1      39.192  29.286  27.367  1.00  0.00     0.016 A 
ATOM     11  C   UNL A   1      41.149  28.703  29.262  1.00  0.00     0.010 A 
ATOM     12  C   UNL A   1      40.522  29.133  26.972  1.00  0.00     0.010 A 
ATOM     13  C   UNL A   1      41.508  28.859  27.927  1.00  0.00    -0.014 A 
BRANCH  13  14
ATOM     14  C   UNL A   1      42.928  28.813  27.547  1.00  0.00     0.031 A 
ATOM     15  C   UNL A   1      43.476  27.539  26.986  1.00  0.00     0.074 A 
ATOM     16  C   UNL A   1      43.694  29.910  27.680  1.00  0.00     0.049 A 
ATOM     17  N   UNL A   1      44.708  27.231  26.689  1.00  0.00    -0.248 NA
ATOM     18  C   UNL A   1      42.498  26.470  26.720  1.00  0.00     0.031 C 
ATOM     19  C   UNL A   1      43.221  31.218  28.138  1.00  0.00     0.029 A 
ATOM     20  N   UNL A   1      45.031  30.095  27.449  1.00  0.00    -0.354 N 
ATOM     21  C   UNL A   1      44.662  25.919  26.234  1.00  0.00     0.074 A 
ATOM     22  C   UNL A   1      43.281  25.493  26.289  1.00  0.00     0.031 C 
ATOM     23  C   UNL A   1      44.258  32.071  28.162  1.00  0.00     0.029 A 
ATOM     24  C   UNL A   1      45.470  31.356  27.778  1.00  0.00     0.049 A 
ATOM     25  H   UNL A   1      45.619  29.396  27.083  1.00  0.00     0.167 HD
ATOM     26  C   UNL A   1      45.690  25.137  25.831  1.00  0.00     0.031 A 
ATOM     27  C   UNL A   1      46.720  31.856  27.807  1.00  0.00     0.031 A 
ATOM     28  C   UNL A   1      47.057  25.575  25.823  1.00  0.00     0.049 A 
ATOM     29  C   UNL A   1      47.858  30.956  27.414  1.00  0.00     0.074 A 
ATOM     30  C   UNL A   1      48.194  24.863  25.493  1.00  0.00     0.029 A 
ATOM     31  N   UNL A   1      47.468  26.855  26.174  1.00  0.00    -0.354 N 
ATOM     32  N   UNL A   1      47.812  29.703  27.021  1.00  0.00    -0.248 NA
ATOM     33  C   UNL A   1      49.211  31.522  27.475  1.00  0.00     0.031 C 
ATOM     34  C   UNL A   1      49.297  25.704  25.682  1.00  0.00     0.029 A 
ATOM     35  C   UNL A   1      48.843  26.951  26.086  1.00  0.00     0.049 A 
ATOM     36  H   UNL A   1      46.867  27.586  26.446  1.00  0.00     0.167 HD
ATOM     37  C   UNL A   1      49.129  29.331  26.780  1.00  0.00     0.074 A 
ATOM     38  C   UNL A   1      49.946  30.497  27.061  1.00  0.00     0.031 C 
ATOM     39  C   UNL A   1      49.619  28.135  26.369  1.00  0.00     0.031 A 
BRANCH  26  40
ATOM     40  C   UNL A   1      45.351  23.718  25.469  1.00  0.00    -0.014 A 
ATOM     41  C   UNL A   1      45.490  22.670  26.397  1.00  0.00     0.010 A 
ATOM     42  C   UNL A   1      44.970  23.419  24.149  1.00  0.00     0.010 A 
ATOM     43  C   UNL A   1      45.326  21.342  25.991  1.00  0.00     0.020 A 
ATOM     44  C   UNL A   1      44.783  22.095  23.745  1.00  0.00     0.020 A 
ATOM     45  C   UNL A   1      44.997  21.063  24.661  1.00  0.00     0.054 A 
BRANCH  45  46
ATOM     46  S   UNL A   1      44.863  19.332  24.135  1.00  0.00     0.124 S 
ATOM     47  O   UNL A   1      44.598  19.476  22.705  1.00  0.00    -0.237 OA
ATOM     48  O   UNL A   1      46.172  18.784  24.478  1.00  0.00    -0.237 OA
ATOM     49  O   UNL A   1      43.748  18.816  24.926  1.00  0.00    -0.744 OA
ENDBRANCH  45  46
ENDBRANCH  26  40
BRANCH  27  50
ATOM     50  C   UNL A   1      46.937  33.252  28.272  1.00  0.00    -0.014 A 
ATOM     51  C   UNL A   1      47.287  33.525  29.605  1.00  0.00     0.010 A 
ATOM     52  C   UNL A   1      46.876  34.316  27.352  1.00  0.00     0.010 A 
ATOM     53  C   UNL A   1      47.587  34.833  30.005  1.00  0.00     0.020 A 
ATOM     54  C   UNL A   1      47.195  35.620  27.742  1.00  0.00     0.020 A 
ATOM     55  C   UNL A   1      47.549  35.870  29.069  1.00  0.00     0.054 A 
BRANCH  55  56
ATOM     56  S   UNL A   1      48.048  37.540  29.579  1.00  0.00     0.124 S 
ATOM     57  O   UNL A   1      49.138  37.261  30.508  1.00  0.00    -0.237 OA
ATOM     58  O   UNL A   1      48.438  38.157  28.312  1.00  0.00    -0.237 OA
ATOM     59  O   UNL A   1      46.834  38.090  30.180  1.00  0.00    -0.744 OA
ENDBRANCH  55  56
ENDBRANCH  27  50
BRANCH  39  60
ATOM     60  C   UNL A   1      51.104  28.028  26.175  1.00  0.00    -0.014 A 
ATOM     61  C   UNL A   1      51.709  28.492  24.997  1.00  0.00     0.010 A 
ATOM     62  C   UNL A   1      51.906  27.575  27.237  1.00  0.00     0.010 A 
ATOM     63  C   UNL A   1      53.101  28.509  24.884  1.00  0.00     0.020 A 
ATOM     64  C   UNL A   1      53.297  27.605  27.135  1.00  0.00     0.020 A 
ATOM     65  C   UNL A   1      53.885  28.073  25.957  1.00  0.00     0.054 A 
BRANCH  65  66
ATOM     66  S   UNL A   1      55.691  28.203  25.831  1.00  0.00     0.124 S 
ATOM     67  O   UNL A   1      55.989  29.245  26.807  1.00  0.00    -0.237 OA
ATOM     68  O   UNL A   1      56.136  26.858  26.190  1.00  0.00    -0.237 OA
ATOM     69  O   UNL A   1      55.912  28.572  24.434  1.00  0.00    -0.744 OA
ENDBRANCH  65  66
ENDBRANCH  39  60
ENDBRANCH  13  14
ENDBRANCH   6   8
ENDBRANCH   5   6
ENDBRANCH   4   5
ENDBRANCH   3   4
ENDBRANCH   2   3
ENDBRANCH   1   2
BRANCH   1  70
ATOM     70  C   UNL A   1      31.794  29.767  25.816  1.00  0.00     0.261 C 
BRANCH  70  71
ATOM     71  O   UNL A   1      31.331  28.459  26.187  1.00  0.00    -0.460 OA
BRANCH  71  72
ATOM     72  C   UNL A   1      31.128  27.635  25.130  1.00  0.00     0.338 C 
ATOM     73  O   UNL A   1      30.523  27.883  24.103  1.00  0.00    -0.246 OA
BRANCH  72  74
ATOM     74  C   UNL A   1      31.930  26.407  25.335  1.00  0.00     0.060 A 
ATOM     75  C   UNL A   1      31.403  25.417  26.175  1.00  0.00     0.017 A 
ATOM     76  C   UNL A   1      33.151  26.199  24.679  1.00  0.00     0.017 A 
ATOM     77  C   UNL A   1      32.123  24.250  26.410  1.00  0.00     0.022 A 
ATOM     78  C   UNL A   1      33.876  25.033  24.912  1.00  0.00     0.022 A 
ATOM     79  C   UNL A   1      33.380  24.092  25.819  1.00  0.00     0.082 A 
BRANCH  79  80
ATOM     80  S   UNL A   1      34.436  22.779  26.369  1.00  0.00     0.240 S 
ATOM     81  O   UNL A   1      34.402  22.740  27.813  1.00  0.00    -0.207 OA
ATOM     82  O   UNL A   1      34.145  21.615  25.565  1.00  0.00    -0.207 OA
BRANCH  80  83
ATOM     83  N   UNL A   1      35.981  23.280  25.919  1.00  0.00    -0.211 NA
ATOM     84  H   UNL A   1      36.398  23.667  26.766  1.00  0.00     0.141 HD
BRANCH  83  85
ATOM     85  C   UNL A   1      37.013  22.413  25.336  1.00  0.00     0.103 C 
BRANCH  85  86
ATOM     86  C   UNL A   1      38.460  22.691  25.724  1.00  0.00     0.020 C 
ATOM     87  C   UNL A   1      38.651  23.828  26.737  1.00  0.00     0.022 C 
ATOM     88  C   UNL A   1      39.230  21.485  26.253  1.00  0.00     0.142 C 
ATOM     89  C   UNL A   1      40.104  23.821  27.208  1.00  0.00     0.137 C 
ATOM     90  S   UNL A   1      40.736  22.180  26.904  1.00  0.00     0.150 S 
ATOM     91  O   UNL A   1      41.691  22.260  25.816  1.00  0.00    -0.229 OA
ATOM     92  O   UNL A   1      41.057  21.538  28.160  1.00  0.00    -0.229 OA
ENDBRANCH  85  86
ENDBRANCH  83  85
ENDBRANCH  80  83
ENDBRANCH  79  80
ENDBRANCH  72  74
ENDBRANCH  71  72
ENDBRANCH  70  71
ENDBRANCH   1  70
TORSDOF 21
ENDMDL
