MODEL 1
REMARK VINA RESULT:      -9.6      0.000      0.000
REMARK SMILES CC[C@@]1(C)C[C@@H]([NH2+]C[C@H]2CC[C@@H](C(=O)OCCOCCOC(=O)c3ccc(-c4c5nc(c(-c6ccc(S(=O)(=O)[O-])cc6)c6ccc([nH]6)c(-c6ccc(S(=O)(=O)[O-])cc6)c6nc(c(-c7ccc(S(=O)(=O)[O-])cc7)c7ccc4[nH]7)C=C6)C=C5)cc3)CC2)CCO1
REMARK SMILES IDX 17 1 16 2 15 3 13 4 14 5 12 6 9 7 10 8 85 9 11 10 84 11 8 12
REMARK SMILES IDX 7 13 6 16 3 17 4 18 5 19 88 20 87 21 86 22 2 23 1 24 18 25
REMARK SMILES IDX 19 26 20 27 21 28 22 29 23 30 24 31 25 32 83 33 26 34 82 35
REMARK SMILES IDX 27 36 28 37 29 38 76 39 30 40 81 41 75 42 77 43 31 44 80 45
REMARK SMILES IDX 74 46 73 47 32 49 62 50 43 51 61 52 44 53 47 54 60 55 78 56
REMARK SMILES IDX 45 57 46 58 59 60 79 61 48 62 33 63 34 64 42 65 35 66 41 67
REMARK SMILES IDX 36 68 37 69 38 70 39 71 40 72 63 73 64 74 72 75 65 76 71 77
REMARK SMILES IDX 66 78 67 79 68 80 69 81 70 82 49 83 50 84 58 85 51 86 57 87
REMARK SMILES IDX 52 88 53 89 54 90 55 91 56 92
REMARK H PARENT 7 14 7 15 77 48 47 59
REMARK Flexibility Score: inf
ROOT
ATOM      1  C   UNL A   1      34.327  29.873  27.482  1.00  0.00     0.202 C 
ENDROOT
BRANCH   1   2
ATOM      2  C   UNL A   1      33.064  30.456  26.844  1.00  0.00     0.261 C 
BRANCH   2   3
ATOM      3  O   UNL A   1      31.874  29.762  27.236  1.00  0.00    -0.463 OA
BRANCH   3   4
ATOM      4  C   UNL A   1      31.836  28.470  26.833  1.00  0.00     0.309 C 
ATOM      5  O   UNL A   1      31.716  27.503  27.581  1.00  0.00    -0.252 OA
BRANCH   4   6
ATOM      6  C   UNL A   1      31.952  28.303  25.331  1.00  0.00     0.099 C 
ATOM      7  C   UNL A   1      31.927  26.333  23.039  1.00  0.00     0.044 C 
ATOM      8  C   UNL A   1      30.708  27.112  23.530  1.00  0.00     0.010 C 
ATOM      9  C   UNL A   1      33.141  27.273  23.287  1.00  0.00     0.010 C 
ATOM     10  C   UNL A   1      30.783  27.407  25.000  1.00  0.00     0.016 C 
ATOM     11  C   UNL A   1      33.266  27.747  24.758  1.00  0.00     0.016 C 
BRANCH   7  12
ATOM     12  C   UNL A   1      32.213  24.914  23.631  1.00  0.00     0.264 C 
BRANCH  12  13
ATOM     13  N   UNL A   1      33.574  24.412  23.864  1.00  0.00    -0.343 N 
ATOM     14  H   UNL A   1      34.219  25.172  23.642  1.00  0.00     0.346 HD
ATOM     15  H   UNL A   1      33.570  24.105  24.837  1.00  0.00     0.346 HD
BRANCH  13  16
ATOM     16  C   UNL A   1      34.013  23.232  23.108  1.00  0.00     0.187 C 
ATOM     17  C   UNL A   1      33.592  21.427  24.937  1.00  0.00     0.071 C 
ATOM     18  C   UNL A   1      32.746  20.155  25.111  1.00  0.00     0.042 C 
ATOM     19  C   UNL A   1      33.267  21.964  23.512  1.00  0.00     0.100 C 
ATOM     20  O   UNL A   1      34.983  21.037  24.850  1.00  0.00    -0.375 OA
ATOM     21  C   UNL A   1      35.869  22.134  24.564  1.00  0.00     0.167 C 
ATOM     22  C   UNL A   1      35.515  22.916  23.295  1.00  0.00     0.093 C 
BRANCH  17  23
ATOM     23  C   UNL A   1      33.443  22.364  26.180  1.00  0.00     0.032 C 
ATOM     24  C   UNL A   1      33.710  21.809  27.577  1.00  0.00     0.007 C 
ENDBRANCH  17  23
ENDBRANCH  13  16
ENDBRANCH  12  13
ENDBRANCH   7  12
ENDBRANCH   4   6
ENDBRANCH   3   4
ENDBRANCH   2   3
ENDBRANCH   1   2
BRANCH   1  25
ATOM     25  O   UNL A   1      35.190  30.735  28.216  1.00  0.00    -0.374 OA
BRANCH  25  26
ATOM     26  C   UNL A   1      34.654  31.868  28.897  1.00  0.00     0.202 C 
BRANCH  26  27
ATOM     27  C   UNL A   1      35.196  32.256  30.278  1.00  0.00     0.261 C 
BRANCH  27  28
ATOM     28  O   UNL A   1      36.141  31.319  30.821  1.00  0.00    -0.460 OA
BRANCH  28  29
ATOM     29  C   UNL A   1      37.347  31.859  31.112  1.00  0.00     0.338 C 
ATOM     30  O   UNL A   1      37.570  32.806  31.859  1.00  0.00    -0.246 OA
BRANCH  29  31
ATOM     31  C   UNL A   1      38.437  31.049  30.550  1.00  0.00     0.060 A 
ATOM     32  C   UNL A   1      39.452  30.633  31.424  1.00  0.00     0.016 A 
ATOM     33  C   UNL A   1      38.543  30.826  29.176  1.00  0.00     0.016 A 
ATOM     34  C   UNL A   1      40.602  30.034  30.921  1.00  0.00     0.010 A 
ATOM     35  C   UNL A   1      39.708  30.238  28.673  1.00  0.00     0.010 A 
ATOM     36  C   UNL A   1      40.756  29.875  29.539  1.00  0.00    -0.014 A 
BRANCH  36  37
ATOM     37  C   UNL A   1      42.073  29.469  28.994  1.00  0.00     0.031 A 
ATOM     38  C   UNL A   1      42.265  28.051  28.532  1.00  0.00     0.074 A 
ATOM     39  C   UNL A   1      43.071  30.362  28.881  1.00  0.00     0.049 A 
ATOM     40  N   UNL A   1      43.344  27.468  28.080  1.00  0.00    -0.248 NA
ATOM     41  C   UNL A   1      41.082  27.174  28.585  1.00  0.00     0.031 C 
ATOM     42  C   UNL A   1      42.980  31.780  29.228  1.00  0.00     0.029 A 
ATOM     43  N   UNL A   1      44.362  30.203  28.444  1.00  0.00    -0.354 N 
ATOM     44  C   UNL A   1      42.976  26.156  27.803  1.00  0.00     0.074 A 
ATOM     45  C   UNL A   1      41.580  26.023  28.156  1.00  0.00     0.031 C 
ATOM     46  C   UNL A   1      44.173  32.359  29.004  1.00  0.00     0.029 A 
ATOM     47  C   UNL A   1      45.118  31.346  28.540  1.00  0.00     0.049 A 
ATOM     48  H   UNL A   1      44.712  29.352  28.096  1.00  0.00     0.167 HD
ATOM     49  C   UNL A   1      43.735  25.154  27.299  1.00  0.00     0.031 A 
ATOM     50  C   UNL A   1      46.432  31.543  28.312  1.00  0.00     0.031 A 
ATOM     51  C   UNL A   1      45.128  25.289  26.963  1.00  0.00     0.049 A 
ATOM     52  C   UNL A   1      47.281  30.386  27.855  1.00  0.00     0.074 A 
ATOM     53  C   UNL A   1      45.982  24.338  26.436  1.00  0.00     0.029 A 
ATOM     54  N   UNL A   1      45.872  26.446  27.133  1.00  0.00    -0.354 N 
ATOM     55  N   UNL A   1      46.919  29.154  27.585  1.00  0.00    -0.248 NA
ATOM     56  C   UNL A   1      48.718  30.645  27.678  1.00  0.00     0.031 C 
ATOM     57  C   UNL A   1      47.259  24.901  26.345  1.00  0.00     0.029 A 
ATOM     58  C   UNL A   1      47.186  26.222  26.758  1.00  0.00     0.049 A 
ATOM     59  H   UNL A   1      45.519  27.301  27.469  1.00  0.00     0.167 HD
ATOM     60  C   UNL A   1      48.079  28.496  27.191  1.00  0.00     0.074 A 
ATOM     61  C   UNL A   1      49.150  29.469  27.241  1.00  0.00     0.031 C 
ATOM     62  C   UNL A   1      48.242  27.202  26.821  1.00  0.00     0.031 A 
BRANCH  49  63
ATOM     63  C   UNL A   1      43.086  23.807  27.121  1.00  0.00    -0.014 A 
ATOM     64  C   UNL A   1      42.982  22.898  28.190  1.00  0.00     0.010 A 
ATOM     65  C   UNL A   1      42.535  23.462  25.874  1.00  0.00     0.010 A 
ATOM     66  C   UNL A   1      42.369  21.656  28.004  1.00  0.00     0.020 A 
ATOM     67  C   UNL A   1      41.899  22.231  25.690  1.00  0.00     0.020 A 
ATOM     68  C   UNL A   1      41.833  21.329  26.755  1.00  0.00     0.054 A 
BRANCH  68  69
ATOM     69  S   UNL A   1      41.024  19.719  26.547  1.00  0.00     0.124 S 
ATOM     70  O   UNL A   1      41.968  19.018  25.681  1.00  0.00    -0.237 OA
ATOM     71  O   UNL A   1      40.942  19.223  27.919  1.00  0.00    -0.237 OA
ATOM     72  O   UNL A   1      39.741  20.051  25.931  1.00  0.00    -0.744 OA
ENDBRANCH  68  69
ENDBRANCH  49  63
BRANCH  50  73
ATOM     73  C   UNL A   1      47.034  32.880  28.560  1.00  0.00    -0.014 A 
ATOM     74  C   UNL A   1      47.096  33.845  27.540  1.00  0.00     0.010 A 
ATOM     75  C   UNL A   1      47.548  33.197  29.833  1.00  0.00     0.010 A 
ATOM     76  C   UNL A   1      47.671  35.096  27.784  1.00  0.00     0.020 A 
ATOM     77  C   UNL A   1      48.098  34.455  30.087  1.00  0.00     0.020 A 
ATOM     78  C   UNL A   1      48.165  35.394  29.058  1.00  0.00     0.054 A 
BRANCH  78  79
ATOM     79  S   UNL A   1      48.855  37.043  29.367  1.00  0.00     0.124 S 
ATOM     80  O   UNL A   1      50.237  36.733  29.717  1.00  0.00    -0.237 OA
ATOM     81  O   UNL A   1      48.659  37.713  28.085  1.00  0.00    -0.237 OA
ATOM     82  O   UNL A   1      48.031  37.556  30.460  1.00  0.00    -0.744 OA
ENDBRANCH  78  79
ENDBRANCH  50  73
BRANCH  62  83
ATOM     83  C   UNL A   1      49.625  26.758  26.427  1.00  0.00    -0.014 A 
ATOM     84  C   UNL A   1      50.463  26.102  27.346  1.00  0.00     0.010 A 
ATOM     85  C   UNL A   1      50.062  26.930  25.101  1.00  0.00     0.010 A 
ATOM     86  C   UNL A   1      51.720  25.638  26.948  1.00  0.00     0.020 A 
ATOM     87  C   UNL A   1      51.307  26.444  24.693  1.00  0.00     0.020 A 
ATOM     88  C   UNL A   1      52.132  25.809  25.623  1.00  0.00     0.054 A 
BRANCH  88  89
ATOM     89  S   UNL A   1      53.740  25.138  25.116  1.00  0.00     0.124 S 
ATOM     90  O   UNL A   1      53.993  25.860  23.872  1.00  0.00    -0.237 OA
ATOM     91  O   UNL A   1      54.604  25.497  26.237  1.00  0.00    -0.237 OA
ATOM     92  O   UNL A   1      53.487  23.707  24.965  1.00  0.00    -0.744 OA
ENDBRANCH  88  89
ENDBRANCH  62  83
ENDBRANCH  36  37
ENDBRANCH  29  31
ENDBRANCH  28  29
ENDBRANCH  27  28
ENDBRANCH  26  27
ENDBRANCH  25  26
ENDBRANCH   1  25
TORSDOF 21
ENDMDL
MODEL 2
REMARK VINA RESULT:      -9.4      1.348      8.260
REMARK SMILES CC[C@@]1(C)C[C@@H]([NH2+]C[C@H]2CC[C@@H](C(=O)OCCOCCOC(=O)c3ccc(-c4c5nc(c(-c6ccc(S(=O)(=O)[O-])cc6)c6ccc([nH]6)c(-c6ccc(S(=O)(=O)[O-])cc6)c6nc(c(-c7ccc(S(=O)(=O)[O-])cc7)c7ccc4[nH]7)C=C6)C=C5)cc3)CC2)CCO1
REMARK SMILES IDX 17 1 16 2 15 3 13 4 14 5 12 6 9 7 10 8 85 9 11 10 84 11 8 12
REMARK SMILES IDX 7 13 6 16 3 17 4 18 5 19 88 20 87 21 86 22 2 23 1 24 18 25
REMARK SMILES IDX 19 26 20 27 21 28 22 29 23 30 24 31 25 32 83 33 26 34 82 35
REMARK SMILES IDX 27 36 28 37 29 38 76 39 30 40 81 41 75 42 77 43 31 44 80 45
REMARK SMILES IDX 74 46 73 47 32 49 62 50 43 51 61 52 44 53 47 54 60 55 78 56
REMARK SMILES IDX 45 57 46 58 59 60 79 61 48 62 33 63 34 64 42 65 35 66 41 67
REMARK SMILES IDX 36 68 37 69 38 70 39 71 40 72 63 73 64 74 72 75 65 76 71 77
REMARK SMILES IDX 66 78 67 79 68 80 69 81 70 82 49 83 50 84 58 85 51 86 57 87
REMARK SMILES IDX 52 88 53 89 54 90 55 91 56 92
REMARK H PARENT 7 14 7 15 77 48 47 59
REMARK Flexibility Score: inf
ROOT
ATOM      1  C   UNL A   1      34.477  33.781  27.816  1.00  0.00     0.202 C 
ENDROOT
BRANCH   1   2
ATOM      2  C   UNL A   1      33.444  32.661  27.962  1.00  0.00     0.261 C 
BRANCH   2   3
ATOM      3  O   UNL A   1      34.021  31.430  28.410  1.00  0.00    -0.463 OA
BRANCH   3   4
ATOM      4  C   UNL A   1      34.159  30.502  27.433  1.00  0.00     0.309 C 
ATOM      5  O   UNL A   1      35.230  30.125  26.966  1.00  0.00    -0.252 OA
BRANCH   4   6
ATOM      6  C   UNL A   1      32.838  29.940  26.945  1.00  0.00     0.099 C 
ATOM      7  C   UNL A   1      31.498  27.683  25.448  1.00  0.00     0.044 C 
ATOM      8  C   UNL A   1      31.680  27.734  26.964  1.00  0.00     0.010 C 
ATOM      9  C   UNL A   1      31.324  29.163  25.006  1.00  0.00     0.010 C 
ATOM     10  C   UNL A   1      32.916  28.489  27.357  1.00  0.00     0.016 C 
ATOM     11  C   UNL A   1      32.490  30.083  25.454  1.00  0.00     0.016 C 
BRANCH   7  12
ATOM     12  C   UNL A   1      32.588  26.982  24.572  1.00  0.00     0.264 C 
BRANCH  12  13
ATOM     13  N   UNL A   1      32.982  25.580  24.770  1.00  0.00    -0.343 N 
ATOM     14  H   UNL A   1      33.985  25.571  24.959  1.00  0.00     0.346 HD
ATOM     15  H   UNL A   1      32.386  25.251  25.529  1.00  0.00     0.346 HD
BRANCH  13  16
ATOM     16  C   UNL A   1      32.737  24.634  23.674  1.00  0.00     0.187 C 
ATOM     17  C   UNL A   1      32.744  22.430  25.060  1.00  0.00     0.071 C 
ATOM     18  C   UNL A   1      31.780  21.272  25.365  1.00  0.00     0.042 C 
ATOM     19  C   UNL A   1      31.963  23.399  24.124  1.00  0.00     0.100 C 
ATOM     20  O   UNL A   1      33.809  21.925  24.221  1.00  0.00    -0.375 OA
ATOM     21  C   UNL A   1      34.715  22.947  23.766  1.00  0.00     0.167 C 
ATOM     22  C   UNL A   1      34.037  24.105  23.026  1.00  0.00     0.093 C 
BRANCH  17  23
ATOM     23  C   UNL A   1      33.396  22.968  26.376  1.00  0.00     0.032 C 
ATOM     24  C   UNL A   1      34.142  22.004  27.294  1.00  0.00     0.007 C 
ENDBRANCH  17  23
ENDBRANCH  13  16
ENDBRANCH  12  13
ENDBRANCH   7  12
ENDBRANCH   4   6
ENDBRANCH   3   4
ENDBRANCH   2   3
ENDBRANCH   1   2
BRANCH   1  25
ATOM     25  O   UNL A   1      34.543  34.793  28.815  1.00  0.00    -0.374 OA
BRANCH  25  26
ATOM     26  C   UNL A   1      34.133  34.504  30.149  1.00  0.00     0.202 C 
BRANCH  26  27
ATOM     27  C   UNL A   1      35.132  33.895  31.141  1.00  0.00     0.261 C 
BRANCH  27  28
ATOM     28  O   UNL A   1      36.097  33.019  30.536  1.00  0.00    -0.460 OA
BRANCH  28  29
ATOM     29  C   UNL A   1      36.269  31.849  31.193  1.00  0.00     0.338 C 
ATOM     30  O   UNL A   1      35.536  31.372  32.054  1.00  0.00    -0.246 OA
BRANCH  29  31
ATOM     31  C   UNL A   1      37.387  31.083  30.625  1.00  0.00     0.060 A 
ATOM     32  C   UNL A   1      38.221  30.395  31.517  1.00  0.00     0.016 A 
ATOM     33  C   UNL A   1      37.700  31.155  29.266  1.00  0.00     0.016 A 
ATOM     34  C   UNL A   1      39.402  29.816  31.062  1.00  0.00     0.010 A 
ATOM     35  C   UNL A   1      38.896  30.585  28.815  1.00  0.00     0.010 A 
ATOM     36  C   UNL A   1      39.767  29.948  29.717  1.00  0.00    -0.014 A 
BRANCH  36  37
ATOM     37  C   UNL A   1      41.129  29.550  29.290  1.00  0.00     0.031 A 
ATOM     38  C   UNL A   1      42.218  30.586  29.268  1.00  0.00     0.074 A 
ATOM     39  C   UNL A   1      41.397  28.274  28.961  1.00  0.00     0.049 A 
ATOM     40  N   UNL A   1      43.460  30.473  28.874  1.00  0.00    -0.248 NA
ATOM     41  C   UNL A   1      41.861  31.929  29.757  1.00  0.00     0.031 C 
ATOM     42  C   UNL A   1      40.441  27.169  29.013  1.00  0.00     0.029 A 
ATOM     43  N   UNL A   1      42.558  27.697  28.511  1.00  0.00    -0.354 N 
ATOM     44  C   UNL A   1      44.030  31.727  29.058  1.00  0.00     0.074 A 
ATOM     45  C   UNL A   1      42.995  32.592  29.580  1.00  0.00     0.031 C 
ATOM     46  C   UNL A   1      41.052  26.047  28.595  1.00  0.00     0.029 A 
ATOM     47  C   UNL A   1      42.425  26.363  28.208  1.00  0.00     0.049 A 
ATOM     48  H   UNL A   1      43.403  28.191  28.414  1.00  0.00     0.167 HD
ATOM     49  C   UNL A   1      45.303  32.120  28.814  1.00  0.00     0.031 A 
ATOM     50  C   UNL A   1      43.302  25.505  27.649  1.00  0.00     0.031 A 
ATOM     51  C   UNL A   1      46.324  31.258  28.282  1.00  0.00     0.049 A 
ATOM     52  C   UNL A   1      44.679  25.994  27.285  1.00  0.00     0.074 A 
ATOM     53  C   UNL A   1      47.647  31.557  28.009  1.00  0.00     0.029 A 
ATOM     54  N   UNL A   1      46.133  29.931  27.931  1.00  0.00    -0.354 N 
ATOM     55  N   UNL A   1      45.210  27.179  27.475  1.00  0.00    -0.248 NA
ATOM     56  C   UNL A   1      45.574  25.031  26.626  1.00  0.00     0.031 C 
ATOM     57  C   UNL A   1      48.239  30.428  27.435  1.00  0.00     0.029 A 
ATOM     58  C   UNL A   1      47.303  29.408  27.406  1.00  0.00     0.049 A 
ATOM     59  H   UNL A   1      45.291  29.434  28.038  1.00  0.00     0.167 HD
ATOM     60  C   UNL A   1      46.505  27.099  26.974  1.00  0.00     0.074 A 
ATOM     61  C   UNL A   1      46.683  25.746  26.489  1.00  0.00     0.031 C 
ATOM     62  C   UNL A   1      47.460  28.059  26.921  1.00  0.00     0.031 A 
BRANCH  49  63
ATOM     63  C   UNL A   1      45.652  33.561  29.079  1.00  0.00    -0.014 A 
ATOM     64  C   UNL A   1      45.492  34.547  28.088  1.00  0.00     0.010 A 
ATOM     65  C   UNL A   1      46.110  33.940  30.354  1.00  0.00     0.010 A 
ATOM     66  C   UNL A   1      45.816  35.879  28.359  1.00  0.00     0.020 A 
ATOM     67  C   UNL A   1      46.411  35.275  30.636  1.00  0.00     0.020 A 
ATOM     68  C   UNL A   1      46.276  36.235  29.630  1.00  0.00     0.054 A 
BRANCH  68  69
ATOM     69  S   UNL A   1      46.668  37.975  29.961  1.00  0.00     0.124 S 
ATOM     70  O   UNL A   1      47.212  38.410  28.677  1.00  0.00    -0.237 OA
ATOM     71  O   UNL A   1      45.366  38.535  30.314  1.00  0.00    -0.237 OA
ATOM     72  O   UNL A   1      47.633  37.913  31.056  1.00  0.00    -0.744 OA
ENDBRANCH  68  69
ENDBRANCH  49  63
BRANCH  50  73
ATOM     73  C   UNL A   1      42.885  24.109  27.354  1.00  0.00    -0.014 A 
ATOM     74  C   UNL A   1      42.787  23.153  28.380  1.00  0.00     0.010 A 
ATOM     75  C   UNL A   1      42.577  23.728  26.034  1.00  0.00     0.010 A 
ATOM     76  C   UNL A   1      42.401  21.841  28.090  1.00  0.00     0.020 A 
ATOM     77  C   UNL A   1      42.165  22.426  25.745  1.00  0.00     0.020 A 
ATOM     78  C   UNL A   1      42.089  21.487  26.773  1.00  0.00     0.054 A 
BRANCH  78  79
ATOM     79  S   UNL A   1      41.535  19.794  26.428  1.00  0.00     0.124 S 
ATOM     80  O   UNL A   1      40.109  19.985  26.185  1.00  0.00    -0.237 OA
ATOM     81  O   UNL A   1      42.335  19.432  25.262  1.00  0.00    -0.237 OA
ATOM     82  O   UNL A   1      41.871  19.070  27.653  1.00  0.00    -0.744 OA
ENDBRANCH  78  79
ENDBRANCH  50  73
BRANCH  62  83
ATOM     83  C   UNL A   1      48.792  27.685  26.328  1.00  0.00    -0.014 A 
ATOM     84  C   UNL A   1      49.853  27.257  27.146  1.00  0.00     0.010 A 
ATOM     85  C   UNL A   1      48.959  27.685  24.931  1.00  0.00     0.010 A 
ATOM     86  C   UNL A   1      51.063  26.851  26.577  1.00  0.00     0.020 A 
ATOM     87  C   UNL A   1      50.158  27.255  24.358  1.00  0.00     0.020 A 
ATOM     88  C   UNL A   1      51.206  26.848  25.186  1.00  0.00     0.054 A 
BRANCH  88  89
ATOM     89  S   UNL A   1      52.763  26.252  24.471  1.00  0.00     0.124 S 
ATOM     90  O   UNL A   1      52.487  26.323  23.038  1.00  0.00    -0.237 OA
ATOM     91  O   UNL A   1      53.736  27.220  24.971  1.00  0.00    -0.237 OA
ATOM     92  O   UNL A   1      52.901  24.902  25.013  1.00  0.00    -0.744 OA
ENDBRANCH  88  89
ENDBRANCH  62  83
ENDBRANCH  36  37
ENDBRANCH  29  31
ENDBRANCH  28  29
ENDBRANCH  27  28
ENDBRANCH  26  27
ENDBRANCH  25  26
ENDBRANCH   1  25
TORSDOF 21
ENDMDL
MODEL 3
REMARK VINA RESULT:      -9.3      5.745      8.338
REMARK SMILES CC[C@@]1(C)C[C@@H]([NH2+]C[C@H]2CC[C@@H](C(=O)OCCOCCOC(=O)c3ccc(-c4c5nc(c(-c6ccc(S(=O)(=O)[O-])cc6)c6ccc([nH]6)c(-c6ccc(S(=O)(=O)[O-])cc6)c6nc(c(-c7ccc(S(=O)(=O)[O-])cc7)c7ccc4[nH]7)C=C6)C=C5)cc3)CC2)CCO1
REMARK SMILES IDX 17 1 16 2 15 3 13 4 14 5 12 6 9 7 10 8 85 9 11 10 84 11 8 12
REMARK SMILES IDX 7 13 6 16 3 17 4 18 5 19 88 20 87 21 86 22 2 23 1 24 18 25
REMARK SMILES IDX 19 26 20 27 21 28 22 29 23 30 24 31 25 32 83 33 26 34 82 35
REMARK SMILES IDX 27 36 28 37 29 38 76 39 30 40 81 41 75 42 77 43 31 44 80 45
REMARK SMILES IDX 74 46 73 47 32 49 62 50 43 51 61 52 44 53 47 54 60 55 78 56
REMARK SMILES IDX 45 57 46 58 59 60 79 61 48 62 33 63 34 64 42 65 35 66 41 67
REMARK SMILES IDX 36 68 37 69 38 70 39 71 40 72 63 73 64 74 72 75 65 76 71 77
REMARK SMILES IDX 66 78 67 79 68 80 69 81 70 82 49 83 50 84 58 85 51 86 57 87
REMARK SMILES IDX 52 88 53 89 54 90 55 91 56 92
REMARK H PARENT 7 14 7 15 77 48 47 59
REMARK Flexibility Score: inf
ROOT
ATOM      1  C   UNL A   1      35.391  30.961  28.211  1.00  0.00     0.202 C 
ENDROOT
BRANCH   1   2
ATOM      2  C   UNL A   1      35.280  29.523  27.698  1.00  0.00     0.261 C 
BRANCH   2   3
ATOM      3  O   UNL A   1      34.549  29.426  26.471  1.00  0.00    -0.463 OA
BRANCH   3   4
ATOM      4  C   UNL A   1      33.408  28.703  26.568  1.00  0.00     0.309 C 
ATOM      5  O   UNL A   1      32.894  28.339  27.622  1.00  0.00    -0.252 OA
BRANCH   4   6
ATOM      6  C   UNL A   1      32.790  28.370  25.225  1.00  0.00     0.099 C 
ATOM      7  C   UNL A   1      31.609  26.182  23.506  1.00  0.00     0.044 C 
ATOM      8  C   UNL A   1      30.798  27.122  24.397  1.00  0.00     0.010 C 
ATOM      9  C   UNL A   1      32.827  27.022  23.026  1.00  0.00     0.010 C 
ATOM     10  C   UNL A   1      31.574  27.560  25.605  1.00  0.00     0.016 C 
ATOM     11  C   UNL A   1      33.653  27.633  24.187  1.00  0.00     0.016 C 
BRANCH   7  12
ATOM     12  C   UNL A   1      32.093  24.812  24.085  1.00  0.00     0.264 C 
BRANCH  12  13
ATOM     13  N   UNL A   1      33.503  24.398  24.068  1.00  0.00    -0.343 N 
ATOM     14  H   UNL A   1      34.055  25.214  23.800  1.00  0.00     0.346 HD
ATOM     15  H   UNL A   1      33.674  24.036  25.006  1.00  0.00     0.346 HD
BRANCH  13  16
ATOM     16  C   UNL A   1      33.888  23.299  23.174  1.00  0.00     0.187 C 
ATOM     17  C   UNL A   1      33.535  21.319  24.828  1.00  0.00     0.071 C 
ATOM     18  C   UNL A   1      32.682  20.042  24.914  1.00  0.00     0.042 C 
ATOM     19  C   UNL A   1      33.147  22.002  23.484  1.00  0.00     0.100 C 
ATOM     20  O   UNL A   1      34.915  20.929  24.631  1.00  0.00    -0.375 OA
ATOM     21  C   UNL A   1      35.800  22.042  24.413  1.00  0.00     0.167 C 
ATOM     22  C   UNL A   1      35.393  22.953  23.250  1.00  0.00     0.093 C 
BRANCH  17  23
ATOM     23  C   UNL A   1      33.461  22.124  26.166  1.00  0.00     0.032 C 
ATOM     24  C   UNL A   1      34.021  21.509  27.447  1.00  0.00     0.007 C 
ENDBRANCH  17  23
ENDBRANCH  13  16
ENDBRANCH  12  13
ENDBRANCH   7  12
ENDBRANCH   4   6
ENDBRANCH   3   4
ENDBRANCH   2   3
ENDBRANCH   1   2
BRANCH   1  25
ATOM     25  O   UNL A   1      34.839  32.016  27.431  1.00  0.00    -0.374 OA
BRANCH  25  26
ATOM     26  C   UNL A   1      33.482  32.408  27.623  1.00  0.00     0.202 C 
BRANCH  26  27
ATOM     27  C   UNL A   1      33.135  33.890  27.817  1.00  0.00     0.261 C 
BRANCH  27  28
ATOM     28  O   UNL A   1      32.651  34.211  29.132  1.00  0.00    -0.460 OA
BRANCH  28  29
ATOM     29  C   UNL A   1      33.518  34.934  29.878  1.00  0.00     0.338 C 
ATOM     30  O   UNL A   1      33.331  36.051  30.351  1.00  0.00    -0.246 OA
BRANCH  29  31
ATOM     31  C   UNL A   1      34.703  34.139  30.228  1.00  0.00     0.060 A 
ATOM     32  C   UNL A   1      34.544  33.121  31.178  1.00  0.00     0.016 A 
ATOM     33  C   UNL A   1      35.971  34.477  29.751  1.00  0.00     0.016 A 
ATOM     34  C   UNL A   1      35.658  32.467  31.693  1.00  0.00     0.010 A 
ATOM     35  C   UNL A   1      37.091  33.827  30.282  1.00  0.00     0.010 A 
ATOM     36  C   UNL A   1      36.940  32.848  31.281  1.00  0.00    -0.014 A 
BRANCH  36  37
ATOM     37  C   UNL A   1      38.123  32.328  32.005  1.00  0.00     0.031 A 
ATOM     38  C   UNL A   1      38.979  31.281  31.347  1.00  0.00     0.074 A 
ATOM     39  C   UNL A   1      38.449  32.808  33.218  1.00  0.00     0.049 A 
ATOM     40  N   UNL A   1      40.019  30.646  31.819  1.00  0.00    -0.248 NA
ATOM     41  C   UNL A   1      38.614  30.900  29.971  1.00  0.00     0.031 C 
ATOM     42  C   UNL A   1      37.737  33.873  33.925  1.00  0.00     0.029 A 
ATOM     43  N   UNL A   1      39.464  32.454  34.072  1.00  0.00    -0.354 N 
ATOM     44  C   UNL A   1      40.429  29.786  30.807  1.00  0.00     0.074 A 
ATOM     45  C   UNL A   1      39.514  29.964  29.701  1.00  0.00     0.031 C 
ATOM     46  C   UNL A   1      38.331  34.076  35.113  1.00  0.00     0.029 A 
ATOM     47  C   UNL A   1      39.434  33.129  35.268  1.00  0.00     0.049 A 
ATOM     48  H   UNL A   1      40.147  31.782  33.848  1.00  0.00     0.167 HD
ATOM     49  C   UNL A   1      41.475  28.926  30.801  1.00  0.00     0.031 A 
ATOM     50  C   UNL A   1      40.188  32.976  36.374  1.00  0.00     0.031 A 
ATOM     51  C   UNL A   1      42.374  28.743  31.909  1.00  0.00     0.049 A 
ATOM     52  C   UNL A   1      41.277  31.936  36.383  1.00  0.00     0.074 A 
ATOM     53  C   UNL A   1      43.471  27.905  31.998  1.00  0.00     0.029 A 
ATOM     54  N   UNL A   1      42.272  29.401  33.125  1.00  0.00    -0.354 N 
ATOM     55  N   UNL A   1      41.662  31.138  35.415  1.00  0.00    -0.248 NA
ATOM     56  C   UNL A   1      42.031  31.772  37.635  1.00  0.00     0.031 C 
ATOM     57  C   UNL A   1      43.995  28.010  33.290  1.00  0.00     0.029 A 
ATOM     58  C   UNL A   1      43.263  28.958  33.985  1.00  0.00     0.049 A 
ATOM     59  H   UNL A   1      41.597  30.082  33.344  1.00  0.00     0.167 HD
ATOM     60  C   UNL A   1      42.712  30.389  35.936  1.00  0.00     0.074 A 
ATOM     61  C   UNL A   1      42.913  30.841  37.297  1.00  0.00     0.031 C 
ATOM     62  C   UNL A   1      43.444  29.415  35.341  1.00  0.00     0.031 A 
BRANCH  49  63
ATOM     63  C   UNL A   1      41.679  28.082  29.570  1.00  0.00    -0.014 A 
ATOM     64  C   UNL A   1      40.767  27.069  29.218  1.00  0.00     0.010 A 
ATOM     65  C   UNL A   1      42.778  28.334  28.731  1.00  0.00     0.010 A 
ATOM     66  C   UNL A   1      40.972  26.303  28.068  1.00  0.00     0.020 A 
ATOM     67  C   UNL A   1      42.974  27.587  27.566  1.00  0.00     0.020 A 
ATOM     68  C   UNL A   1      42.075  26.565  27.250  1.00  0.00     0.054 A 
BRANCH  68  69
ATOM     69  S   UNL A   1      42.306  25.569  25.751  1.00  0.00     0.124 S 
ATOM     70  O   UNL A   1      42.427  24.221  26.301  1.00  0.00    -0.237 OA
ATOM     71  O   UNL A   1      41.080  25.833  25.001  1.00  0.00    -0.237 OA
ATOM     72  O   UNL A   1      43.525  26.111  25.157  1.00  0.00    -0.744 OA
ENDBRANCH  68  69
ENDBRANCH  49  63
BRANCH  50  73
ATOM     73  C   UNL A   1      39.905  33.795  37.582  1.00  0.00    -0.014 A 
ATOM     74  C   UNL A   1      40.448  35.084  37.723  1.00  0.00     0.010 A 
ATOM     75  C   UNL A   1      39.081  33.285  38.604  1.00  0.00     0.010 A 
ATOM     76  C   UNL A   1      40.181  35.842  38.867  1.00  0.00     0.020 A 
ATOM     77  C   UNL A   1      38.791  34.050  39.735  1.00  0.00     0.020 A 
ATOM     78  C   UNL A   1      39.350  35.321  39.865  1.00  0.00     0.054 A 
BRANCH  78  79
ATOM     79  S   UNL A   1      38.971  36.344  41.314  1.00  0.00     0.124 S 
ATOM     80  O   UNL A   1      37.766  35.704  41.831  1.00  0.00    -0.237 OA
ATOM     81  O   UNL A   1      40.171  36.192  42.131  1.00  0.00    -0.237 OA
ATOM     82  O   UNL A   1      38.779  37.678  40.747  1.00  0.00    -0.744 OA
ENDBRANCH  78  79
ENDBRANCH  50  73
BRANCH  62  83
ATOM     83  C   UNL A   1      44.541  28.775  36.149  1.00  0.00    -0.014 A 
ATOM     84  C   UNL A   1      45.824  29.345  36.205  1.00  0.00     0.010 A 
ATOM     85  C   UNL A   1      44.261  27.635  36.925  1.00  0.00     0.010 A 
ATOM     86  C   UNL A   1      46.815  28.777  37.011  1.00  0.00     0.020 A 
ATOM     87  C   UNL A   1      45.241  27.079  37.752  1.00  0.00     0.020 A 
ATOM     88  C   UNL A   1      46.515  27.649  37.782  1.00  0.00     0.054 A 
BRANCH  88  89
ATOM     89  S   UNL A   1      47.798  26.972  38.871  1.00  0.00     0.124 S 
ATOM     90  O   UNL A   1      47.126  26.966  40.167  1.00  0.00    -0.237 OA
ATOM     91  O   UNL A   1      48.050  25.656  38.289  1.00  0.00    -0.237 OA
ATOM     92  O   UNL A   1      48.900  27.923  38.744  1.00  0.00    -0.744 OA
ENDBRANCH  88  89
ENDBRANCH  62  83
ENDBRANCH  36  37
ENDBRANCH  29  31
ENDBRANCH  28  29
ENDBRANCH  27  28
ENDBRANCH  26  27
ENDBRANCH  25  26
ENDBRANCH   1  25
TORSDOF 21
ENDMDL
