MODEL 1
REMARK VINA RESULT:     -10.1      0.000      0.000
REMARK SMILES C#Cc1cccc(NS(=O)(=O)c2cc(C)c(C(=O)OCCOCCOC(=O)c3ccc(-c4c5nc(c(-c6ccc(S(=O)(=O)[O-])cc6)c6ccc([nH]6)c(-c6ccc(S(=O)(=O)[O-])cc6)c6nc(c(-c7ccc(S(=O)(=O)[O-])cc7)c7ccc4[nH]7)C=C6)C=C5)cc3)s2)c1
REMARK SMILES IDX 21 1 20 2 19 3 17 4 18 5 16 6 12 7 13 8 88 9 14 10 15 11
REMARK SMILES IDX 9 12 10 13 11 14 8 15 7 17 3 18 4 19 89 20 5 21 6 22 2 23
REMARK SMILES IDX 1 24 22 25 23 26 24 27 25 28 26 29 27 30 28 31 29 32 87 33
REMARK SMILES IDX 30 34 86 35 31 36 32 37 33 38 80 39 34 40 85 41 79 42 81 43
REMARK SMILES IDX 35 44 84 45 78 46 77 47 36 49 66 50 47 51 65 52 48 53 51 54
REMARK SMILES IDX 64 55 82 56 49 57 50 58 63 60 83 61 52 62 37 63 38 64 46 65
REMARK SMILES IDX 39 66 45 67 40 68 41 69 42 70 43 71 44 72 67 73 68 74 76 75
REMARK SMILES IDX 69 76 75 77 70 78 71 79 72 80 73 81 74 82 53 83 54 84 62 85
REMARK SMILES IDX 55 86 61 87 56 88 57 89 58 90 59 91 60 92
REMARK H PARENT 8 16 81 48 51 59
REMARK Flexibility Score: inf
ROOT
ATOM      1  C   UNL A   1      33.464  35.039  31.948  1.00  0.00     0.202 C 
ENDROOT
BRANCH   1   2
ATOM      2  C   UNL A   1      32.943  35.807  30.731  1.00  0.00     0.261 C 
BRANCH   2   3
ATOM      3  O   UNL A   1      32.711  34.931  29.621  1.00  0.00    -0.459 OA
BRANCH   3   4
ATOM      4  C   UNL A   1      33.686  34.879  28.671  1.00  0.00     0.348 C 
ATOM      5  O   UNL A   1      34.312  35.853  28.275  1.00  0.00    -0.245 OA
BRANCH   4   6
ATOM      6  C   UNL A   1      33.902  33.497  28.257  1.00  0.00     0.116 A 
ATOM      7  C   UNL A   1      33.470  31.211  27.372  1.00  0.00     0.141 A 
ATOM      8  C   UNL A   1      34.659  31.329  28.060  1.00  0.00     0.038 A 
ATOM      9  S   UNL A   1      32.553  32.642  27.590  1.00  0.00    -0.115 S 
ATOM     10  C   UNL A   1      35.043  32.706  28.191  1.00  0.00    -0.024 A 
ATOM     11  C   UNL A   1      36.484  33.104  28.265  1.00  0.00     0.046 C 
BRANCH   7  12
ATOM     12  S   UNL A   1      32.735  29.947  26.356  1.00  0.00     0.271 S 
ATOM     13  O   UNL A   1      31.643  30.604  25.667  1.00  0.00    -0.200 OA
ATOM     14  O   UNL A   1      32.493  28.837  27.255  1.00  0.00    -0.200 OA
BRANCH  12  15
ATOM     15  N   UNL A   1      33.752  29.325  25.155  1.00  0.00    -0.279 N 
ATOM     16  H   UNL A   1      34.455  29.917  24.803  1.00  0.00     0.180 HD
BRANCH  15  17
ATOM     17  C   UNL A   1      33.668  28.008  24.614  1.00  0.00     0.050 A 
ATOM     18  C   UNL A   1      34.030  25.631  24.935  1.00  0.00     0.026 A 
ATOM     19  C   UNL A   1      33.801  25.414  23.579  1.00  0.00     0.017 A 
ATOM     20  C   UNL A   1      33.994  26.931  25.450  1.00  0.00     0.044 A 
ATOM     21  C   UNL A   1      33.350  26.461  22.785  1.00  0.00     0.003 A 
ATOM     22  C   UNL A   1      33.195  27.737  23.331  1.00  0.00     0.027 A 
BRANCH  18  23
ATOM     23  C   UNL A   1      34.200  24.489  25.781  1.00  0.00    -0.070 C 
ATOM     24  C   UNL A   1      34.223  23.459  26.394  1.00  0.00     0.010 C 
ENDBRANCH  18  23
ENDBRANCH  15  17
ENDBRANCH  12  15
ENDBRANCH   7  12
ENDBRANCH   4   6
ENDBRANCH   3   4
ENDBRANCH   2   3
ENDBRANCH   1   2
BRANCH   1  25
ATOM     25  O   UNL A   1      34.726  34.392  31.803  1.00  0.00    -0.374 OA
BRANCH  25  26
ATOM     26  C   UNL A   1      34.741  32.964  31.835  1.00  0.00     0.202 C 
BRANCH  26  27
ATOM     27  C   UNL A   1      36.087  32.278  32.090  1.00  0.00     0.261 C 
BRANCH  27  28
ATOM     28  O   UNL A   1      36.349  31.210  31.163  1.00  0.00    -0.460 OA
BRANCH  28  29
ATOM     29  C   UNL A   1      37.059  30.180  31.686  1.00  0.00     0.338 C 
ATOM     30  O   UNL A   1      36.639  29.280  32.394  1.00  0.00    -0.246 OA
BRANCH  29  31
ATOM     31  C   UNL A   1      38.421  30.179  31.123  1.00  0.00     0.060 A 
ATOM     32  C   UNL A   1      38.552  30.314  29.736  1.00  0.00     0.016 A 
ATOM     33  C   UNL A   1      39.542  29.974  31.928  1.00  0.00     0.016 A 
ATOM     34  C   UNL A   1      39.804  30.185  29.139  1.00  0.00     0.010 A 
ATOM     35  C   UNL A   1      40.797  29.845  31.327  1.00  0.00     0.010 A 
ATOM     36  C   UNL A   1      40.929  29.910  29.927  1.00  0.00    -0.014 A 
BRANCH  36  37
ATOM     37  C   UNL A   1      42.221  29.571  29.283  1.00  0.00     0.031 A 
ATOM     38  C   UNL A   1      42.435  28.180  28.747  1.00  0.00     0.074 A 
ATOM     39  C   UNL A   1      43.191  30.496  29.167  1.00  0.00     0.049 A 
ATOM     40  N   UNL A   1      43.502  27.660  28.199  1.00  0.00    -0.248 NA
ATOM     41  C   UNL A   1      41.297  27.252  28.852  1.00  0.00     0.031 C 
ATOM     42  C   UNL A   1      43.088  31.887  29.608  1.00  0.00     0.029 A 
ATOM     43  N   UNL A   1      44.457  30.400  28.647  1.00  0.00    -0.354 N 
ATOM     44  C   UNL A   1      43.173  26.340  27.908  1.00  0.00     0.074 A 
ATOM     45  C   UNL A   1      41.820  26.131  28.376  1.00  0.00     0.031 C 
ATOM     46  C   UNL A   1      44.246  32.514  29.343  1.00  0.00     0.029 A 
ATOM     47  C   UNL A   1      45.185  31.560  28.757  1.00  0.00     0.049 A 
ATOM     48  H   UNL A   1      44.810  29.579  28.235  1.00  0.00     0.167 HD
ATOM     49  C   UNL A   1      43.928  25.390  27.304  1.00  0.00     0.031 A 
ATOM     50  C   UNL A   1      46.471  31.819  28.448  1.00  0.00     0.031 A 
ATOM     51  C   UNL A   1      45.281  25.604  26.858  1.00  0.00     0.049 A 
ATOM     52  C   UNL A   1      47.318  30.727  27.849  1.00  0.00     0.074 A 
ATOM     53  C   UNL A   1      46.124  24.715  26.214  1.00  0.00     0.029 A 
ATOM     54  N   UNL A   1      45.995  26.783  27.020  1.00  0.00    -0.354 N 
ATOM     55  N   UNL A   1      46.984  29.493  27.554  1.00  0.00    -0.248 NA
ATOM     56  C   UNL A   1      48.711  31.067  27.532  1.00  0.00     0.031 C 
ATOM     57  C   UNL A   1      47.371  25.328  26.060  1.00  0.00     0.029 A 
ATOM     58  C   UNL A   1      47.280  26.631  26.524  1.00  0.00     0.049 A 
ATOM     59  H   UNL A   1      45.641  27.606  27.428  1.00  0.00     0.167 HD
ATOM     60  C   UNL A   1      48.118  28.920  26.985  1.00  0.00     0.074 A 
ATOM     61  C   UNL A   1      49.139  29.946  26.965  1.00  0.00     0.031 C 
ATOM     62  C   UNL A   1      48.292  27.659  26.514  1.00  0.00     0.031 A 
BRANCH  49  63
ATOM     63  C   UNL A   1      43.323  24.020  27.133  1.00  0.00    -0.014 A 
ATOM     64  C   UNL A   1      42.757  23.610  25.910  1.00  0.00     0.010 A 
ATOM     65  C   UNL A   1      43.349  23.110  28.207  1.00  0.00     0.010 A 
ATOM     66  C   UNL A   1      42.187  22.339  25.784  1.00  0.00     0.020 A 
ATOM     67  C   UNL A   1      42.814  21.826  28.073  1.00  0.00     0.020 A 
ATOM     68  C   UNL A   1      42.217  21.456  26.867  1.00  0.00     0.054 A 
BRANCH  68  69
ATOM     69  S   UNL A   1      41.479  19.812  26.668  1.00  0.00     0.124 S 
ATOM     70  O   UNL A   1      41.977  19.415  25.354  1.00  0.00    -0.237 OA
ATOM     71  O   UNL A   1      42.033  19.075  27.800  1.00  0.00    -0.237 OA
ATOM     72  O   UNL A   1      40.042  20.066  26.737  1.00  0.00    -0.744 OA
ENDBRANCH  68  69
ENDBRANCH  49  63
BRANCH  50  73
ATOM     73  C   UNL A   1      47.037  33.170  28.715  1.00  0.00    -0.014 A 
ATOM     74  C   UNL A   1      47.516  33.512  29.991  1.00  0.00     0.010 A 
ATOM     75  C   UNL A   1      47.116  34.120  27.679  1.00  0.00     0.010 A 
ATOM     76  C   UNL A   1      48.056  34.779  30.229  1.00  0.00     0.020 A 
ATOM     77  C   UNL A   1      47.686  35.375  27.904  1.00  0.00     0.020 A 
ATOM     78  C   UNL A   1      48.146  35.699  29.180  1.00  0.00     0.054 A 
BRANCH  78  79
ATOM     79  S   UNL A   1      48.919  37.310  29.497  1.00  0.00     0.124 S 
ATOM     80  O   UNL A   1      48.202  37.764  30.684  1.00  0.00    -0.237 OA
ATOM     81  O   UNL A   1      50.319  36.949  29.699  1.00  0.00    -0.237 OA
ATOM     82  O   UNL A   1      48.647  38.064  28.276  1.00  0.00    -0.744 OA
ENDBRANCH  78  79
ENDBRANCH  50  73
BRANCH  62  83
ATOM     83  C   UNL A   1      49.625  27.323  25.891  1.00  0.00    -0.014 A 
ATOM     84  C   UNL A   1      50.727  26.926  26.671  1.00  0.00     0.010 A 
ATOM     85  C   UNL A   1      49.757  27.350  24.490  1.00  0.00     0.010 A 
ATOM     86  C   UNL A   1      51.942  26.597  26.063  1.00  0.00     0.020 A 
ATOM     87  C   UNL A   1      50.958  26.986  23.876  1.00  0.00     0.020 A 
ATOM     88  C   UNL A   1      52.048  26.625  24.669  1.00  0.00     0.054 A 
BRANCH  88  89
ATOM     89  S   UNL A   1      53.622  26.146  23.905  1.00  0.00     0.124 S 
ATOM     90  O   UNL A   1      54.503  27.239  24.311  1.00  0.00    -0.237 OA
ATOM     91  O   UNL A   1      53.897  24.853  24.525  1.00  0.00    -0.237 OA
ATOM     92  O   UNL A   1      53.314  26.094  22.478  1.00  0.00    -0.744 OA
ENDBRANCH  88  89
ENDBRANCH  62  83
ENDBRANCH  36  37
ENDBRANCH  29  31
ENDBRANCH  28  29
ENDBRANCH  27  28
ENDBRANCH  26  27
ENDBRANCH  25  26
ENDBRANCH   1  25
TORSDOF 21
ENDMDL
MODEL 2
REMARK VINA RESULT:     -10.1      0.572      8.113
REMARK SMILES C#Cc1cccc(NS(=O)(=O)c2cc(C)c(C(=O)OCCOCCOC(=O)c3ccc(-c4c5nc(c(-c6ccc(S(=O)(=O)[O-])cc6)c6ccc([nH]6)c(-c6ccc(S(=O)(=O)[O-])cc6)c6nc(c(-c7ccc(S(=O)(=O)[O-])cc7)c7ccc4[nH]7)C=C6)C=C5)cc3)s2)c1
REMARK SMILES IDX 21 1 20 2 19 3 17 4 18 5 16 6 12 7 13 8 88 9 14 10 15 11
REMARK SMILES IDX 9 12 10 13 11 14 8 15 7 17 3 18 4 19 89 20 5 21 6 22 2 23
REMARK SMILES IDX 1 24 22 25 23 26 24 27 25 28 26 29 27 30 28 31 29 32 87 33
REMARK SMILES IDX 30 34 86 35 31 36 32 37 33 38 80 39 34 40 85 41 79 42 81 43
REMARK SMILES IDX 35 44 84 45 78 46 77 47 36 49 66 50 47 51 65 52 48 53 51 54
REMARK SMILES IDX 64 55 82 56 49 57 50 58 63 60 83 61 52 62 37 63 38 64 46 65
REMARK SMILES IDX 39 66 45 67 40 68 41 69 42 70 43 71 44 72 67 73 68 74 76 75
REMARK SMILES IDX 69 76 75 77 70 78 71 79 72 80 73 81 74 82 53 83 54 84 62 85
REMARK SMILES IDX 55 86 61 87 56 88 57 89 58 90 59 91 60 92
REMARK H PARENT 8 16 81 48 51 59
REMARK Flexibility Score: inf
ROOT
ATOM      1  C   UNL A   1      33.517  35.195  31.648  1.00  0.00     0.202 C 
ENDROOT
BRANCH   1   2
ATOM      2  C   UNL A   1      32.946  35.992  30.472  1.00  0.00     0.261 C 
BRANCH   2   3
ATOM      3  O   UNL A   1      32.694  35.147  29.343  1.00  0.00    -0.459 OA
BRANCH   3   4
ATOM      4  C   UNL A   1      33.723  34.975  28.468  1.00  0.00     0.348 C 
ATOM      5  O   UNL A   1      34.429  35.884  28.051  1.00  0.00    -0.245 OA
BRANCH   4   6
ATOM      6  C   UNL A   1      33.886  33.558  28.165  1.00  0.00     0.116 A 
ATOM      7  C   UNL A   1      33.385  31.243  27.402  1.00  0.00     0.141 A 
ATOM      8  C   UNL A   1      34.523  31.343  28.174  1.00  0.00     0.038 A 
ATOM      9  S   UNL A   1      32.543  32.734  27.450  1.00  0.00    -0.115 S 
ATOM     10  C   UNL A   1      34.979  32.702  28.244  1.00  0.00    -0.024 A 
ATOM     11  C   UNL A   1      36.432  33.024  28.408  1.00  0.00     0.046 C 
BRANCH   7  12
ATOM     12  S   UNL A   1      32.655  29.952  26.416  1.00  0.00     0.271 S 
ATOM     13  O   UNL A   1      31.631  30.610  25.630  1.00  0.00    -0.200 OA
ATOM     14  O   UNL A   1      32.319  28.905  27.359  1.00  0.00    -0.200 OA
BRANCH  12  15
ATOM     15  N   UNL A   1      33.710  29.223  25.312  1.00  0.00    -0.279 N 
ATOM     16  H   UNL A   1      34.420  29.784  24.923  1.00  0.00     0.180 HD
BRANCH  15  17
ATOM     17  C   UNL A   1      33.650  27.859  24.901  1.00  0.00     0.050 A 
ATOM     18  C   UNL A   1      33.084  26.262  23.165  1.00  0.00     0.026 A 
ATOM     19  C   UNL A   1      33.237  25.220  24.076  1.00  0.00     0.017 A 
ATOM     20  C   UNL A   1      33.261  27.585  23.582  1.00  0.00     0.044 A 
ATOM     21  C   UNL A   1      33.749  25.484  25.340  1.00  0.00     0.003 A 
ATOM     22  C   UNL A   1      34.043  26.798  25.715  1.00  0.00     0.027 A 
BRANCH  18  23
ATOM     23  C   UNL A   1      32.846  25.929  21.793  1.00  0.00    -0.070 C 
ATOM     24  C   UNL A   1      32.662  25.489  20.694  1.00  0.00     0.010 C 
ENDBRANCH  18  23
ENDBRANCH  15  17
ENDBRANCH  12  15
ENDBRANCH   7  12
ENDBRANCH   4   6
ENDBRANCH   3   4
ENDBRANCH   2   3
ENDBRANCH   1   2
BRANCH   1  25
ATOM     25  O   UNL A   1      34.784  34.574  31.445  1.00  0.00    -0.374 OA
BRANCH  25  26
ATOM     26  C   UNL A   1      35.180  33.566  32.376  1.00  0.00     0.202 C 
BRANCH  26  27
ATOM     27  C   UNL A   1      35.271  32.126  31.860  1.00  0.00     0.261 C 
BRANCH  27  28
ATOM     28  O   UNL A   1      36.615  31.616  31.878  1.00  0.00    -0.460 OA
BRANCH  28  29
ATOM     29  C   UNL A   1      36.772  30.439  31.222  1.00  0.00     0.338 C 
ATOM     30  O   UNL A   1      35.903  29.635  30.932  1.00  0.00    -0.246 OA
BRANCH  29  31
ATOM     31  C   UNL A   1      38.155  30.330  30.722  1.00  0.00     0.060 A 
ATOM     32  C   UNL A   1      38.338  30.197  29.340  1.00  0.00     0.016 A 
ATOM     33  C   UNL A   1      39.243  30.284  31.593  1.00  0.00     0.016 A 
ATOM     34  C   UNL A   1      39.610  29.956  28.827  1.00  0.00     0.010 A 
ATOM     35  C   UNL A   1      40.518  30.042  31.075  1.00  0.00     0.010 A 
ATOM     36  C   UNL A   1      40.703  29.837  29.695  1.00  0.00    -0.014 A 
BRANCH  36  37
ATOM     37  C   UNL A   1      42.016  29.381  29.177  1.00  0.00     0.031 A 
ATOM     38  C   UNL A   1      43.147  30.369  29.066  1.00  0.00     0.074 A 
ATOM     39  C   UNL A   1      42.201  28.099  28.817  1.00  0.00     0.049 A 
ATOM     40  N   UNL A   1      44.353  30.195  28.591  1.00  0.00    -0.248 NA
ATOM     41  C   UNL A   1      42.879  31.734  29.547  1.00  0.00     0.031 C 
ATOM     42  C   UNL A   1      41.196  27.040  28.917  1.00  0.00     0.029 A 
ATOM     43  N   UNL A   1      43.301  27.471  28.289  1.00  0.00    -0.354 N 
ATOM     44  C   UNL A   1      44.984  31.430  28.699  1.00  0.00     0.074 A 
ATOM     45  C   UNL A   1      44.014  32.352  29.249  1.00  0.00     0.031 C 
ATOM     46  C   UNL A   1      41.726  25.893  28.461  1.00  0.00     0.029 A 
ATOM     47  C   UNL A   1      43.088  26.145  27.995  1.00  0.00     0.049 A 
ATOM     48  H   UNL A   1      44.160  27.926  28.135  1.00  0.00     0.167 HD
ATOM     49  C   UNL A   1      46.256  31.765  28.373  1.00  0.00     0.031 A 
ATOM     50  C   UNL A   1      43.888  25.243  27.393  1.00  0.00     0.031 A 
ATOM     51  C   UNL A   1      47.209  30.843  27.808  1.00  0.00     0.049 A 
ATOM     52  C   UNL A   1      45.272  25.655  26.966  1.00  0.00     0.074 A 
ATOM     53  C   UNL A   1      48.529  31.076  27.464  1.00  0.00     0.029 A 
ATOM     54  N   UNL A   1      46.944  29.519  27.493  1.00  0.00    -0.354 N 
ATOM     55  N   UNL A   1      45.864  26.819  27.101  1.00  0.00    -0.248 NA
ATOM     56  C   UNL A   1      46.098  24.630  26.316  1.00  0.00     0.031 C 
ATOM     57  C   UNL A   1      49.036  29.918  26.867  1.00  0.00     0.029 A 
ATOM     58  C   UNL A   1      48.062  28.933  26.922  1.00  0.00     0.049 A 
ATOM     59  H   UNL A   1      46.086  29.061  27.651  1.00  0.00     0.167 HD
ATOM     60  C   UNL A   1      47.145  26.654  26.583  1.00  0.00     0.074 A 
ATOM     61  C   UNL A   1      47.244  25.277  26.146  1.00  0.00     0.031 C 
ATOM     62  C   UNL A   1      48.150  27.561  26.485  1.00  0.00     0.031 A 
BRANCH  49  63
ATOM     63  C   UNL A   1      46.676  33.199  28.574  1.00  0.00    -0.014 A 
ATOM     64  C   UNL A   1      46.825  34.084  27.490  1.00  0.00     0.010 A 
ATOM     65  C   UNL A   1      46.894  33.682  29.879  1.00  0.00     0.010 A 
ATOM     66  C   UNL A   1      47.233  35.404  27.703  1.00  0.00     0.020 A 
ATOM     67  C   UNL A   1      47.265  35.011  30.099  1.00  0.00     0.020 A 
ATOM     68  C   UNL A   1      47.452  35.859  29.007  1.00  0.00     0.054 A 
BRANCH  68  69
ATOM     69  S   UNL A   1      47.970  37.580  29.251  1.00  0.00     0.124 S 
ATOM     70  O   UNL A   1      48.409  37.956  27.909  1.00  0.00    -0.237 OA
ATOM     71  O   UNL A   1      46.741  38.220  29.712  1.00  0.00    -0.237 OA
ATOM     72  O   UNL A   1      49.032  37.485  30.249  1.00  0.00    -0.744 OA
ENDBRANCH  68  69
ENDBRANCH  49  63
BRANCH  50  73
ATOM     73  C   UNL A   1      43.388  23.862  27.148  1.00  0.00    -0.014 A 
ATOM     74  C   UNL A   1      43.180  22.970  28.214  1.00  0.00     0.010 A 
ATOM     75  C   UNL A   1      43.099  23.438  25.837  1.00  0.00     0.010 A 
ATOM     76  C   UNL A   1      42.699  21.680  27.974  1.00  0.00     0.020 A 
ATOM     77  C   UNL A   1      42.586  22.161  25.597  1.00  0.00     0.020 A 
ATOM     78  C   UNL A   1      42.396  21.287  26.667  1.00  0.00     0.054 A 
BRANCH  78  79
ATOM     79  S   UNL A   1      41.704  19.633  26.391  1.00  0.00     0.124 S 
ATOM     80  O   UNL A   1      42.158  18.911  27.576  1.00  0.00    -0.237 OA
ATOM     81  O   UNL A   1      40.271  19.904  26.321  1.00  0.00    -0.237 OA
ATOM     82  O   UNL A   1      42.314  19.215  25.131  1.00  0.00    -0.744 OA
ENDBRANCH  78  79
ENDBRANCH  50  73
BRANCH  62  83
ATOM     83  C   UNL A   1      49.468  27.088  25.924  1.00  0.00    -0.014 A 
ATOM     84  C   UNL A   1      49.835  27.333  24.589  1.00  0.00     0.010 A 
ATOM     85  C   UNL A   1      50.381  26.432  26.772  1.00  0.00     0.010 A 
ATOM     86  C   UNL A   1      51.075  26.903  24.105  1.00  0.00     0.020 A 
ATOM     87  C   UNL A   1      51.636  26.034  26.303  1.00  0.00     0.020 A 
ATOM     88  C   UNL A   1      51.969  26.260  24.967  1.00  0.00     0.054 A 
BRANCH  88  89
ATOM     89  S   UNL A   1      53.588  25.757  24.325  1.00  0.00     0.124 S 
ATOM     90  O   UNL A   1      53.415  25.936  22.886  1.00  0.00    -0.237 OA
ATOM     91  O   UNL A   1      54.495  26.701  24.972  1.00  0.00    -0.237 OA
ATOM     92  O   UNL A   1      53.722  24.370  24.767  1.00  0.00    -0.744 OA
ENDBRANCH  88  89
ENDBRANCH  62  83
ENDBRANCH  36  37
ENDBRANCH  29  31
ENDBRANCH  28  29
ENDBRANCH  27  28
ENDBRANCH  26  27
ENDBRANCH  25  26
ENDBRANCH   1  25
TORSDOF 21
ENDMDL
MODEL 3
REMARK VINA RESULT:      -9.6      1.957      3.482
REMARK SMILES C#Cc1cccc(NS(=O)(=O)c2cc(C)c(C(=O)OCCOCCOC(=O)c3ccc(-c4c5nc(c(-c6ccc(S(=O)(=O)[O-])cc6)c6ccc([nH]6)c(-c6ccc(S(=O)(=O)[O-])cc6)c6nc(c(-c7ccc(S(=O)(=O)[O-])cc7)c7ccc4[nH]7)C=C6)C=C5)cc3)s2)c1
REMARK SMILES IDX 21 1 20 2 19 3 17 4 18 5 16 6 12 7 13 8 88 9 14 10 15 11
REMARK SMILES IDX 9 12 10 13 11 14 8 15 7 17 3 18 4 19 89 20 5 21 6 22 2 23
REMARK SMILES IDX 1 24 22 25 23 26 24 27 25 28 26 29 27 30 28 31 29 32 87 33
REMARK SMILES IDX 30 34 86 35 31 36 32 37 33 38 80 39 34 40 85 41 79 42 81 43
REMARK SMILES IDX 35 44 84 45 78 46 77 47 36 49 66 50 47 51 65 52 48 53 51 54
REMARK SMILES IDX 64 55 82 56 49 57 50 58 63 60 83 61 52 62 37 63 38 64 46 65
REMARK SMILES IDX 39 66 45 67 40 68 41 69 42 70 43 71 44 72 67 73 68 74 76 75
REMARK SMILES IDX 69 76 75 77 70 78 71 79 72 80 73 81 74 82 53 83 54 84 62 85
REMARK SMILES IDX 55 86 61 87 56 88 57 89 58 90 59 91 60 92
REMARK H PARENT 8 16 81 48 51 59
REMARK Flexibility Score: inf
ROOT
ATOM      1  C   UNL A   1      33.638  30.654  27.602  1.00  0.00     0.202 C 
ENDROOT
BRANCH   1   2
ATOM      2  C   UNL A   1      32.315  30.939  26.886  1.00  0.00     0.261 C 
BRANCH   2   3
ATOM      3  O   UNL A   1      31.976  29.884  25.977  1.00  0.00    -0.459 OA
BRANCH   3   4
ATOM      4  C   UNL A   1      31.876  28.632  26.505  1.00  0.00     0.348 C 
ATOM      5  O   UNL A   1      31.356  28.382  27.584  1.00  0.00    -0.245 OA
BRANCH   4   6
ATOM      6  C   UNL A   1      32.417  27.654  25.569  1.00  0.00     0.116 A 
ATOM      7  C   UNL A   1      32.937  25.477  24.480  1.00  0.00     0.141 A 
ATOM      8  C   UNL A   1      33.730  26.520  24.051  1.00  0.00     0.038 A 
ATOM      9  S   UNL A   1      32.020  25.990  25.833  1.00  0.00    -0.115 S 
ATOM     10  C   UNL A   1      33.144  27.786  24.391  1.00  0.00    -0.024 A 
ATOM     11  C   UNL A   1      33.376  28.999  23.545  1.00  0.00     0.046 C 
BRANCH   7  12
ATOM     12  S   UNL A   1      32.681  23.799  23.940  1.00  0.00     0.271 S 
ATOM     13  O   UNL A   1      33.505  23.655  22.756  1.00  0.00    -0.200 OA
ATOM     14  O   UNL A   1      31.243  23.641  23.876  1.00  0.00    -0.200 OA
BRANCH  12  15
ATOM     15  N   UNL A   1      33.203  22.618  25.032  1.00  0.00    -0.279 N 
ATOM     16  H   UNL A   1      32.525  22.205  25.615  1.00  0.00     0.180 HD
BRANCH  15  17
ATOM     17  C   UNL A   1      34.551  22.174  25.174  1.00  0.00     0.050 A 
ATOM     18  C   UNL A   1      36.863  22.747  25.633  1.00  0.00     0.026 A 
ATOM     19  C   UNL A   1      37.258  21.476  25.220  1.00  0.00     0.017 A 
ATOM     20  C   UNL A   1      35.513  23.108  25.582  1.00  0.00     0.044 A 
ATOM     21  C   UNL A   1      36.294  20.515  24.946  1.00  0.00     0.003 A 
ATOM     22  C   UNL A   1      34.938  20.844  25.015  1.00  0.00     0.027 A 
BRANCH  18  23
ATOM     23  C   UNL A   1      37.855  23.613  26.193  1.00  0.00    -0.070 C 
ATOM     24  C   UNL A   1      38.785  24.288  26.534  1.00  0.00     0.010 C 
ENDBRANCH  18  23
ENDBRANCH  15  17
ENDBRANCH  12  15
ENDBRANCH   7  12
ENDBRANCH   4   6
ENDBRANCH   3   4
ENDBRANCH   2   3
ENDBRANCH   1   2
BRANCH   1  25
ATOM     25  O   UNL A   1      34.592  31.713  27.628  1.00  0.00    -0.374 OA
BRANCH  25  26
ATOM     26  C   UNL A   1      34.437  32.713  28.636  1.00  0.00     0.202 C 
BRANCH  26  27
ATOM     27  C   UNL A   1      35.479  32.751  29.759  1.00  0.00     0.261 C 
BRANCH  27  28
ATOM     28  O   UNL A   1      36.106  31.475  29.974  1.00  0.00    -0.460 OA
BRANCH  28  29
ATOM     29  C   UNL A   1      37.119  31.497  30.877  1.00  0.00     0.338 C 
ATOM     30  O   UNL A   1      37.069  31.889  32.030  1.00  0.00    -0.246 OA
BRANCH  29  31
ATOM     31  C   UNL A   1      38.290  30.792  30.327  1.00  0.00     0.060 A 
ATOM     32  C   UNL A   1      39.340  30.491  31.204  1.00  0.00     0.016 A 
ATOM     33  C   UNL A   1      38.392  30.500  28.967  1.00  0.00     0.016 A 
ATOM     34  C   UNL A   1      40.524  29.948  30.713  1.00  0.00     0.010 A 
ATOM     35  C   UNL A   1      39.582  29.955  28.476  1.00  0.00     0.010 A 
ATOM     36  C   UNL A   1      40.668  29.713  29.339  1.00  0.00    -0.014 A 
BRANCH  36  37
ATOM     37  C   UNL A   1      41.990  29.329  28.786  1.00  0.00     0.031 A 
ATOM     38  C   UNL A   1      42.212  27.913  28.327  1.00  0.00     0.074 A 
ATOM     39  C   UNL A   1      42.978  30.235  28.686  1.00  0.00     0.049 A 
ATOM     40  N   UNL A   1      43.301  27.355  27.865  1.00  0.00    -0.248 NA
ATOM     41  C   UNL A   1      41.056  27.005  28.406  1.00  0.00     0.031 C 
ATOM     42  C   UNL A   1      42.872  31.646  29.059  1.00  0.00     0.029 A 
ATOM     43  N   UNL A   1      44.270  30.099  28.246  1.00  0.00    -0.354 N 
ATOM     44  C   UNL A   1      42.970  26.027  27.615  1.00  0.00     0.074 A 
ATOM     45  C   UNL A   1      41.589  25.856  28.012  1.00  0.00     0.031 C 
ATOM     46  C   UNL A   1      44.052  32.246  28.834  1.00  0.00     0.029 A 
ATOM     47  C   UNL A   1      45.009  31.254  28.347  1.00  0.00     0.049 A 
ATOM     48  H   UNL A   1      44.634  29.256  27.892  1.00  0.00     0.167 HD
ATOM     49  C   UNL A   1      43.743  25.042  27.098  1.00  0.00     0.031 A 
ATOM     50  C   UNL A   1      46.314  31.483  28.101  1.00  0.00     0.031 A 
ATOM     51  C   UNL A   1      45.123  25.218  26.723  1.00  0.00     0.049 A 
ATOM     52  C   UNL A   1      47.178  30.354  27.602  1.00  0.00     0.074 A 
ATOM     53  C   UNL A   1      45.988  24.290  26.170  1.00  0.00     0.029 A 
ATOM     54  N   UNL A   1      45.844  26.393  26.874  1.00  0.00    -0.354 N 
ATOM     55  N   UNL A   1      46.843  29.112  27.344  1.00  0.00    -0.248 NA
ATOM     56  C   UNL A   1      48.592  30.662  27.352  1.00  0.00     0.031 C 
ATOM     57  C   UNL A   1      47.251  24.879  26.061  1.00  0.00     0.029 A 
ATOM     58  C   UNL A   1      47.153  26.203  26.461  1.00  0.00     0.049 A 
ATOM     59  H   UNL A   1      45.480  27.239  27.223  1.00  0.00     0.167 HD
ATOM     60  C   UNL A   1      47.998  28.499  26.867  1.00  0.00     0.074 A 
ATOM     61  C   UNL A   1      49.035  29.511  26.862  1.00  0.00     0.031 C 
ATOM     62  C   UNL A   1      48.180  27.216  26.464  1.00  0.00     0.031 A 
BRANCH  49  63
ATOM     63  C   UNL A   1      43.128  23.672  26.953  1.00  0.00    -0.014 A 
ATOM     64  C   UNL A   1      42.468  23.281  25.773  1.00  0.00     0.010 A 
ATOM     65  C   UNL A   1      43.241  22.745  28.007  1.00  0.00     0.010 A 
ATOM     66  C   UNL A   1      41.890  22.011  25.672  1.00  0.00     0.020 A 
ATOM     67  C   UNL A   1      42.699  21.463  27.895  1.00  0.00     0.020 A 
ATOM     68  C   UNL A   1      42.008  21.111  26.735  1.00  0.00     0.054 A 
BRANCH  68  69
ATOM     69  S   UNL A   1      41.258  19.468  26.568  1.00  0.00     0.124 S 
ATOM     70  O   UNL A   1      40.916  19.151  27.952  1.00  0.00    -0.237 OA
ATOM     71  O   UNL A   1      40.125  19.724  25.683  1.00  0.00    -0.237 OA
ATOM     72  O   UNL A   1      42.326  18.655  25.990  1.00  0.00    -0.744 OA
ENDBRANCH  68  69
ENDBRANCH  49  63
BRANCH  50  73
ATOM     73  C   UNL A   1      46.884  32.837  28.341  1.00  0.00    -0.014 A 
ATOM     74  C   UNL A   1      47.435  33.178  29.588  1.00  0.00     0.010 A 
ATOM     75  C   UNL A   1      46.894  33.792  27.306  1.00  0.00     0.010 A 
ATOM     76  C   UNL A   1      47.978  34.448  29.799  1.00  0.00     0.020 A 
ATOM     77  C   UNL A   1      47.467  35.051  27.502  1.00  0.00     0.020 A 
ATOM     78  C   UNL A   1      48.000  35.373  28.751  1.00  0.00     0.054 A 
BRANCH  78  79
ATOM     79  S   UNL A   1      48.777  36.989  29.028  1.00  0.00     0.124 S 
ATOM     80  O   UNL A   1      48.940  37.004  30.478  1.00  0.00    -0.237 OA
ATOM     81  O   UNL A   1      50.008  36.879  28.251  1.00  0.00    -0.237 OA
ATOM     82  O   UNL A   1      47.797  37.934  28.499  1.00  0.00    -0.744 OA
ENDBRANCH  78  79
ENDBRANCH  50  73
BRANCH  62  83
ATOM     83  C   UNL A   1      49.542  26.835  25.936  1.00  0.00    -0.014 A 
ATOM     84  C   UNL A   1      49.934  27.133  24.619  1.00  0.00     0.010 A 
ATOM     85  C   UNL A   1      50.466  26.217  26.798  1.00  0.00     0.010 A 
ATOM     86  C   UNL A   1      51.211  26.789  24.165  1.00  0.00     0.020 A 
ATOM     87  C   UNL A   1      51.756  25.906  26.362  1.00  0.00     0.020 A 
ATOM     88  C   UNL A   1      52.116  26.182  25.042  1.00  0.00     0.054 A 
BRANCH  88  89
ATOM     89  S   UNL A   1      53.782  25.791  24.442  1.00  0.00     0.124 S 
ATOM     90  O   UNL A   1      53.623  25.919  22.995  1.00  0.00    -0.237 OA
ATOM     91  O   UNL A   1      54.599  26.820  25.078  1.00  0.00    -0.237 OA
ATOM     92  O   UNL A   1      54.015  24.431  24.923  1.00  0.00    -0.744 OA
ENDBRANCH  88  89
ENDBRANCH  62  83
ENDBRANCH  36  37
ENDBRANCH  29  31
ENDBRANCH  28  29
ENDBRANCH  27  28
ENDBRANCH  26  27
ENDBRANCH  25  26
ENDBRANCH   1  25
TORSDOF 21
ENDMDL
