MODEL 1
REMARK VINA RESULT:      -9.1      0.000      0.000
REMARK SMILES O=C(CCOc1ccccc1C(F)(F)F)OCCOCCOC(=O)c1ccc(-c2c3nc(c(-c4ccc(S(=O)(=O)[O-])cc4)c4ccc([nH]4)c(-c4ccc(S(=O)(=O)[O-])cc4)c4nc(c(-c5ccc(S(=O)(=O)[O-])cc5)c5ccc2[nH]5)C=C4)C=C3)cc1
REMARK SMILES IDX 18 1 17 2 16 3 2 4 1 5 3 6 4 7 5 8 6 9 7 10 11 11 8 12 10 13
REMARK SMILES IDX 9 14 12 15 13 16 14 17 15 18 19 19 20 20 21 21 22 22 23 23
REMARK SMILES IDX 24 24 25 25 26 26 84 27 27 28 83 29 28 30 29 31 30 32 77 33
REMARK SMILES IDX 31 34 82 35 76 36 78 37 32 38 81 39 75 40 74 41 33 43 63 44
REMARK SMILES IDX 44 45 62 46 45 47 48 48 61 49 79 50 46 51 47 52 60 54 80 55
REMARK SMILES IDX 49 56 34 57 35 58 43 59 36 60 42 61 37 62 38 63 39 64 40 65
REMARK SMILES IDX 41 66 64 67 65 68 73 69 66 70 72 71 67 72 68 73 69 74 70 75
REMARK SMILES IDX 71 76 50 77 51 78 59 79 52 80 58 81 53 82 54 83 55 84 56 85
REMARK SMILES IDX 57 86
REMARK H PARENT 78 42 48 53
REMARK Flexibility Score: inf
ROOT
ATOM      1  C   UNL A   1      31.771  28.874  23.832  1.00  0.00     0.202 C 
ENDROOT
BRANCH   1   2
ATOM      2  C   UNL A   1      31.491  27.360  23.653  1.00  0.00     0.261 C 
BRANCH   2   3
ATOM      3  O   UNL A   1      32.545  26.362  23.119  1.00  0.00    -0.463 OA
BRANCH   3   4
ATOM      4  C   UNL A   1      33.504  25.543  22.709  1.00  0.00     0.309 C 
ATOM      5  O   UNL A   1      33.612  25.473  21.472  1.00  0.00    -0.252 OA
BRANCH   4   6
ATOM      6  C   UNL A   1      34.672  24.826  23.514  1.00  0.00     0.164 C 
BRANCH   6   7
ATOM      7  C   UNL A   1      35.002  23.909  24.778  1.00  0.00     0.241 C 
BRANCH   7   8
ATOM      8  O   UNL A   1      34.101  23.167  25.667  1.00  0.00    -0.492 OA
BRANCH   8   9
ATOM      9  C   UNL A   1      32.939  22.718  25.130  1.00  0.00     0.131 A 
ATOM     10  C   UNL A   1      31.772  23.478  25.233  1.00  0.00     0.047 A 
ATOM     11  C   UNL A   1      33.015  21.684  24.259  1.00  0.00     0.097 A 
ATOM     12  C   UNL A   1      30.886  23.511  24.162  1.00  0.00     0.004 A 
ATOM     13  C   UNL A   1      32.346  21.997  23.064  1.00  0.00     0.017 A 
ATOM     14  C   UNL A   1      31.282  22.897  22.999  1.00  0.00     0.001 A 
BRANCH  11  15
ATOM     15  C   UNL A   1      33.813  20.468  24.785  1.00  0.00     0.419 C 
ATOM     16  F   UNL A   1      33.622  19.279  24.164  1.00  0.00    -0.166 F 
ATOM     17  F   UNL A   1      35.176  20.585  24.718  1.00  0.00    -0.166 F 
ATOM     18  F   UNL A   1      33.583  20.250  26.109  1.00  0.00    -0.166 F 
ENDBRANCH  11  15
ENDBRANCH   8   9
ENDBRANCH   7   8
ENDBRANCH   6   7
ENDBRANCH   4   6
ENDBRANCH   3   4
ENDBRANCH   2   3
ENDBRANCH   1   2
BRANCH   1  19
ATOM     19  O   UNL A   1      32.597  29.378  24.868  1.00  0.00    -0.374 OA
BRANCH  19  20
ATOM     20  C   UNL A   1      32.070  30.202  25.890  1.00  0.00     0.202 C 
BRANCH  20  21
ATOM     21  C   UNL A   1      32.830  30.291  27.222  1.00  0.00     0.261 C 
BRANCH  21  22
ATOM     22  O   UNL A   1      34.210  30.650  27.105  1.00  0.00    -0.460 OA
BRANCH  22  23
ATOM     23  C   UNL A   1      34.790  31.127  28.235  1.00  0.00     0.338 C 
ATOM     24  O   UNL A   1      34.280  31.863  29.060  1.00  0.00    -0.246 OA
BRANCH  23  25
ATOM     25  C   UNL A   1      36.080  30.409  28.409  1.00  0.00     0.060 A 
ATOM     26  C   UNL A   1      36.382  29.901  29.681  1.00  0.00     0.016 A 
ATOM     27  C   UNL A   1      36.928  30.144  27.325  1.00  0.00     0.016 A 
ATOM     28  C   UNL A   1      37.581  29.224  29.894  1.00  0.00     0.010 A 
ATOM     29  C   UNL A   1      38.140  29.484  27.541  1.00  0.00     0.010 A 
ATOM     30  C   UNL A   1      38.499  29.098  28.845  1.00  0.00    -0.014 A 
BRANCH  30  31
ATOM     31  C   UNL A   1      39.931  28.954  29.196  1.00  0.00     0.031 A 
ATOM     32  C   UNL A   1      40.588  27.647  28.816  1.00  0.00     0.074 A 
ATOM     33  C   UNL A   1      40.648  29.949  29.742  1.00  0.00     0.049 A 
ATOM     34  N   UNL A   1      41.829  27.268  28.951  1.00  0.00    -0.248 NA
ATOM     35  C   UNL A   1      39.717  26.634  28.193  1.00  0.00     0.031 C 
ATOM     36  C   UNL A   1      40.142  31.276  30.086  1.00  0.00     0.029 A 
ATOM     37  N   UNL A   1      41.976  29.995  30.085  1.00  0.00    -0.354 N 
ATOM     38  C   UNL A   1      41.883  25.975  28.440  1.00  0.00     0.074 A 
ATOM     39  C   UNL A   1      40.547  25.619  28.025  1.00  0.00     0.031 C 
ATOM     40  C   UNL A   1      41.153  32.011  30.585  1.00  0.00     0.029 A 
ATOM     41  C   UNL A   1      42.368  31.197  30.622  1.00  0.00     0.049 A 
ATOM     42  H   UNL A   1      42.590  29.236  29.960  1.00  0.00     0.167 HD
ATOM     43  C   UNL A   1      42.951  25.154  28.315  1.00  0.00     0.031 A 
ATOM     44  C   UNL A   1      43.570  31.586  31.091  1.00  0.00     0.031 A 
ATOM     45  C   UNL A   1      44.274  25.508  28.740  1.00  0.00     0.049 A 
ATOM     46  C   UNL A   1      44.730  30.623  31.021  1.00  0.00     0.074 A 
ATOM     47  C   UNL A   1      45.433  24.759  28.656  1.00  0.00     0.029 A 
ATOM     48  N   UNL A   1      44.613  26.711  29.341  1.00  0.00    -0.354 N 
ATOM     49  N   UNL A   1      44.772  29.411  30.517  1.00  0.00    -0.248 NA
ATOM     50  C   UNL A   1      46.011  31.089  31.570  1.00  0.00     0.031 C 
ATOM     51  C   UNL A   1      46.459  25.480  29.273  1.00  0.00     0.029 A 
ATOM     52  C   UNL A   1      45.958  26.713  29.666  1.00  0.00     0.049 A 
ATOM     53  H   UNL A   1      43.990  27.453  29.512  1.00  0.00     0.167 HD
ATOM     54  C   UNL A   1      46.091  28.986  30.653  1.00  0.00     0.074 A 
ATOM     55  C   UNL A   1      46.815  30.077  31.276  1.00  0.00     0.031 C 
ATOM     56  C   UNL A   1      46.657  27.808  30.289  1.00  0.00     0.031 A 
BRANCH  43  57
ATOM     57  C   UNL A   1      42.706  23.778  27.755  1.00  0.00    -0.014 A 
ATOM     58  C   UNL A   1      42.743  23.525  26.371  1.00  0.00     0.010 A 
ATOM     59  C   UNL A   1      42.439  22.716  28.638  1.00  0.00     0.010 A 
ATOM     60  C   UNL A   1      42.477  22.243  25.880  1.00  0.00     0.020 A 
ATOM     61  C   UNL A   1      42.206  21.427  28.153  1.00  0.00     0.020 A 
ATOM     62  C   UNL A   1      42.210  21.202  26.775  1.00  0.00     0.054 A 
BRANCH  62  63
ATOM     63  S   UNL A   1      41.892  19.544  26.115  1.00  0.00     0.124 S 
ATOM     64  O   UNL A   1      42.282  18.693  27.237  1.00  0.00    -0.237 OA
ATOM     65  O   UNL A   1      40.460  19.585  25.826  1.00  0.00    -0.237 OA
ATOM     66  O   UNL A   1      42.760  19.464  24.943  1.00  0.00    -0.744 OA
ENDBRANCH  62  63
ENDBRANCH  43  57
BRANCH  44  67
ATOM     67  C   UNL A   1      43.745  32.948  31.669  1.00  0.00    -0.014 A 
ATOM     68  C   UNL A   1      44.068  34.045  30.851  1.00  0.00     0.010 A 
ATOM     69  C   UNL A   1      43.602  33.153  33.055  1.00  0.00     0.010 A 
ATOM     70  C   UNL A   1      44.259  35.314  31.406  1.00  0.00     0.020 A 
ATOM     71  C   UNL A   1      43.762  34.426  33.610  1.00  0.00     0.020 A 
ATOM     72  C   UNL A   1      44.099  35.498  32.783  1.00  0.00     0.054 A 
BRANCH  72  73
ATOM     73  S   UNL A   1      44.298  37.163  33.473  1.00  0.00     0.124 S 
ATOM     74  O   UNL A   1      42.944  37.473  33.921  1.00  0.00    -0.237 OA
ATOM     75  O   UNL A   1      45.282  36.948  34.530  1.00  0.00    -0.237 OA
ATOM     76  O   UNL A   1      44.777  37.948  32.337  1.00  0.00    -0.744 OA
ENDBRANCH  72  73
ENDBRANCH  44  67
BRANCH  56  77
ATOM     77  C   UNL A   1      48.141  27.652  30.505  1.00  0.00    -0.014 A 
ATOM     78  C   UNL A   1      49.076  28.084  29.549  1.00  0.00     0.010 A 
ATOM     79  C   UNL A   1      48.604  27.099  31.715  1.00  0.00     0.010 A 
ATOM     80  C   UNL A   1      50.445  27.919  29.777  1.00  0.00     0.020 A 
ATOM     81  C   UNL A   1      49.972  26.968  31.963  1.00  0.00     0.020 A 
ATOM     82  C   UNL A   1      50.884  27.360  30.981  1.00  0.00     0.054 A 
BRANCH  82  83
ATOM     83  S   UNL A   1      52.665  27.172  31.260  1.00  0.00     0.124 S 
ATOM     84  O   UNL A   1      52.931  28.221  32.239  1.00  0.00    -0.237 OA
ATOM     85  O   UNL A   1      52.768  25.804  31.760  1.00  0.00    -0.237 OA
ATOM     86  O   UNL A   1      53.248  27.392  29.938  1.00  0.00    -0.744 OA
ENDBRANCH  82  83
ENDBRANCH  56  77
ENDBRANCH  30  31
ENDBRANCH  23  25
ENDBRANCH  22  23
ENDBRANCH  21  22
ENDBRANCH  20  21
ENDBRANCH  19  20
ENDBRANCH   1  19
TORSDOF 21
ENDMDL
MODEL 2
REMARK VINA RESULT:      -8.9      4.292      9.527
REMARK SMILES O=C(CCOc1ccccc1C(F)(F)F)OCCOCCOC(=O)c1ccc(-c2c3nc(c(-c4ccc(S(=O)(=O)[O-])cc4)c4ccc([nH]4)c(-c4ccc(S(=O)(=O)[O-])cc4)c4nc(c(-c5ccc(S(=O)(=O)[O-])cc5)c5ccc2[nH]5)C=C4)C=C3)cc1
REMARK SMILES IDX 18 1 17 2 16 3 2 4 1 5 3 6 4 7 5 8 6 9 7 10 11 11 8 12 10 13
REMARK SMILES IDX 9 14 12 15 13 16 14 17 15 18 19 19 20 20 21 21 22 22 23 23
REMARK SMILES IDX 24 24 25 25 26 26 84 27 27 28 83 29 28 30 29 31 30 32 77 33
REMARK SMILES IDX 31 34 82 35 76 36 78 37 32 38 81 39 75 40 74 41 33 43 63 44
REMARK SMILES IDX 44 45 62 46 45 47 48 48 61 49 79 50 46 51 47 52 60 54 80 55
REMARK SMILES IDX 49 56 34 57 35 58 43 59 36 60 42 61 37 62 38 63 39 64 40 65
REMARK SMILES IDX 41 66 64 67 65 68 73 69 66 70 72 71 67 72 68 73 69 74 70 75
REMARK SMILES IDX 71 76 50 77 51 78 59 79 52 80 58 81 53 82 54 83 55 84 56 85
REMARK SMILES IDX 57 86
REMARK H PARENT 78 42 48 53
REMARK Flexibility Score: inf
ROOT
ATOM      1  C   UNL A   1      31.339  29.994  25.002  1.00  0.00     0.202 C 
ENDROOT
BRANCH   1   2
ATOM      2  C   UNL A   1      31.309  28.661  24.211  1.00  0.00     0.261 C 
BRANCH   2   3
ATOM      3  O   UNL A   1      32.381  27.558  24.370  1.00  0.00    -0.463 OA
BRANCH   3   4
ATOM      4  C   UNL A   1      33.332  26.636  24.433  1.00  0.00     0.309 C 
ATOM      5  O   UNL A   1      33.823  26.496  25.567  1.00  0.00    -0.252 OA
BRANCH   4   6
ATOM      6  C   UNL A   1      33.784  25.536  23.378  1.00  0.00     0.164 C 
BRANCH   6   7
ATOM      7  C   UNL A   1      33.494  24.062  22.837  1.00  0.00     0.241 C 
BRANCH   7   8
ATOM      8  O   UNL A   1      33.598  22.769  23.520  1.00  0.00    -0.492 OA
BRANCH   8   9
ATOM      9  C   UNL A   1      34.731  22.535  24.228  1.00  0.00     0.131 A 
ATOM     10  C   UNL A   1      35.979  22.601  23.605  1.00  0.00     0.047 A 
ATOM     11  C   UNL A   1      34.632  22.533  25.579  1.00  0.00     0.097 A 
ATOM     12  C   UNL A   1      37.058  23.137  24.301  1.00  0.00     0.004 A 
ATOM     13  C   UNL A   1      35.584  23.397  26.143  1.00  0.00     0.017 A 
ATOM     14  C   UNL A   1      36.798  23.702  25.526  1.00  0.00     0.001 A 
BRANCH  11  15
ATOM     15  C   UNL A   1      33.513  21.620  26.132  1.00  0.00     0.419 C 
ATOM     16  F   UNL A   1      32.236  21.917  25.789  1.00  0.00    -0.166 F 
ATOM     17  F   UNL A   1      33.587  20.305  25.758  1.00  0.00    -0.166 F 
ATOM     18  F   UNL A   1      33.540  21.559  27.492  1.00  0.00    -0.166 F 
ENDBRANCH  11  15
ENDBRANCH   8   9
ENDBRANCH   7   8
ENDBRANCH   6   7
ENDBRANCH   4   6
ENDBRANCH   3   4
ENDBRANCH   2   3
ENDBRANCH   1   2
BRANCH   1  19
ATOM     19  O   UNL A   1      31.791  30.073  26.343  1.00  0.00    -0.374 OA
BRANCH  19  20
ATOM     20  C   UNL A   1      32.034  31.321  26.961  1.00  0.00     0.202 C 
BRANCH  20  21
ATOM     21  C   UNL A   1      33.464  31.644  27.419  1.00  0.00     0.261 C 
BRANCH  21  22
ATOM     22  O   UNL A   1      33.860  33.007  27.241  1.00  0.00    -0.460 OA
BRANCH  22  23
ATOM     23  C   UNL A   1      33.624  33.830  28.294  1.00  0.00     0.338 C 
ATOM     24  O   UNL A   1      32.616  34.482  28.497  1.00  0.00    -0.246 OA
BRANCH  23  25
ATOM     25  C   UNL A   1      34.718  33.617  29.278  1.00  0.00     0.060 A 
ATOM     26  C   UNL A   1      35.984  34.142  28.977  1.00  0.00     0.016 A 
ATOM     27  C   UNL A   1      34.484  33.010  30.520  1.00  0.00     0.016 A 
ATOM     28  C   UNL A   1      37.041  33.965  29.866  1.00  0.00     0.010 A 
ATOM     29  C   UNL A   1      35.548  32.813  31.403  1.00  0.00     0.010 A 
ATOM     30  C   UNL A   1      36.843  33.220  31.035  1.00  0.00    -0.014 A 
BRANCH  30  31
ATOM     31  C   UNL A   1      38.019  32.539  31.626  1.00  0.00     0.031 A 
ATOM     32  C   UNL A   1      38.456  33.017  32.991  1.00  0.00     0.074 A 
ATOM     33  C   UNL A   1      38.623  31.494  31.039  1.00  0.00     0.049 A 
ATOM     34  N   UNL A   1      39.411  32.573  33.763  1.00  0.00    -0.248 NA
ATOM     35  C   UNL A   1      37.704  34.150  33.561  1.00  0.00     0.031 C 
ATOM     36  C   UNL A   1      38.245  30.900  29.758  1.00  0.00     0.029 A 
ATOM     37  N   UNL A   1      39.682  30.733  31.465  1.00  0.00    -0.354 N 
ATOM     38  C   UNL A   1      39.377  33.378  34.898  1.00  0.00     0.074 A 
ATOM     39  C   UNL A   1      38.336  34.357  34.702  1.00  0.00     0.031 C 
ATOM     40  C   UNL A   1      39.058  29.858  29.506  1.00  0.00     0.029 A 
ATOM     41  C   UNL A   1      40.030  29.731  30.592  1.00  0.00     0.049 A 
ATOM     42  H   UNL A   1      40.150  30.892  32.316  1.00  0.00     0.167 HD
ATOM     43  C   UNL A   1      40.139  33.305  36.013  1.00  0.00     0.031 A 
ATOM     44  C   UNL A   1      41.022  28.821  30.668  1.00  0.00     0.031 A 
ATOM     45  C   UNL A   1      41.182  32.337  36.198  1.00  0.00     0.049 A 
ATOM     46  C   UNL A   1      41.916  28.812  31.884  1.00  0.00     0.074 A 
ATOM     47  C   UNL A   1      42.012  32.165  37.290  1.00  0.00     0.029 A 
ATOM     48  N   UNL A   1      41.545  31.382  35.259  1.00  0.00    -0.354 N 
ATOM     49  N   UNL A   1      41.862  29.564  32.959  1.00  0.00    -0.248 NA
ATOM     50  C   UNL A   1      42.998  27.818  31.902  1.00  0.00     0.031 C 
ATOM     51  C   UNL A   1      42.926  31.154  36.982  1.00  0.00     0.029 A 
ATOM     52  C   UNL A   1      42.611  30.639  35.732  1.00  0.00     0.049 A 
ATOM     53  H   UNL A   1      41.109  31.253  34.387  1.00  0.00     0.167 HD
ATOM     54  C   UNL A   1      42.875  29.108  33.797  1.00  0.00     0.074 A 
ATOM     55  C   UNL A   1      43.518  28.008  33.107  1.00  0.00     0.031 C 
ATOM     56  C   UNL A   1      43.238  29.550  35.027  1.00  0.00     0.031 A 
BRANCH  43  57
ATOM     57  C   UNL A   1      39.907  34.341  37.081  1.00  0.00    -0.014 A 
ATOM     58  C   UNL A   1      39.104  34.079  38.206  1.00  0.00     0.010 A 
ATOM     59  C   UNL A   1      40.512  35.604  36.953  1.00  0.00     0.010 A 
ATOM     60  C   UNL A   1      38.879  35.074  39.162  1.00  0.00     0.020 A 
ATOM     61  C   UNL A   1      40.318  36.590  37.923  1.00  0.00     0.020 A 
ATOM     62  C   UNL A   1      39.488  36.324  39.014  1.00  0.00     0.054 A 
BRANCH  62  63
ATOM     63  S   UNL A   1      39.201  37.590  40.279  1.00  0.00     0.124 S 
ATOM     64  O   UNL A   1      40.529  38.181  40.422  1.00  0.00    -0.237 OA
ATOM     65  O   UNL A   1      38.197  38.446  39.652  1.00  0.00    -0.237 OA
ATOM     66  O   UNL A   1      38.733  36.827  41.434  1.00  0.00    -0.744 OA
ENDBRANCH  62  63
ENDBRANCH  43  57
BRANCH  44  67
ATOM     67  C   UNL A   1      41.229  27.842  29.563  1.00  0.00    -0.014 A 
ATOM     68  C   UNL A   1      40.420  26.698  29.451  1.00  0.00     0.010 A 
ATOM     69  C   UNL A   1      42.253  28.047  28.619  1.00  0.00     0.010 A 
ATOM     70  C   UNL A   1      40.640  25.769  28.429  1.00  0.00     0.020 A 
ATOM     71  C   UNL A   1      42.456  27.137  27.577  1.00  0.00     0.020 A 
ATOM     72  C   UNL A   1      41.654  25.998  27.494  1.00  0.00     0.054 A 
BRANCH  72  73
ATOM     73  S   UNL A   1      41.886  24.809  26.144  1.00  0.00     0.124 S 
ATOM     74  O   UNL A   1      41.780  25.660  24.964  1.00  0.00    -0.237 OA
ATOM     75  O   UNL A   1      43.216  24.274  26.424  1.00  0.00    -0.237 OA
ATOM     76  O   UNL A   1      40.790  23.861  26.333  1.00  0.00    -0.744 OA
ENDBRANCH  72  73
ENDBRANCH  44  67
BRANCH  56  77
ATOM     77  C   UNL A   1      44.347  28.812  35.734  1.00  0.00    -0.014 A 
ATOM     78  C   UNL A   1      45.691  29.204  35.610  1.00  0.00     0.010 A 
ATOM     79  C   UNL A   1      44.023  27.729  36.574  1.00  0.00     0.010 A 
ATOM     80  C   UNL A   1      46.696  28.495  36.274  1.00  0.00     0.020 A 
ATOM     81  C   UNL A   1      45.021  27.042  37.269  1.00  0.00     0.020 A 
ATOM     82  C   UNL A   1      46.355  27.417  37.096  1.00  0.00     0.054 A 
BRANCH  82  83
ATOM     83  S   UNL A   1      47.675  26.524  37.959  1.00  0.00     0.124 S 
ATOM     84  O   UNL A   1      47.346  25.134  37.662  1.00  0.00    -0.237 OA
ATOM     85  O   UNL A   1      48.882  27.037  37.315  1.00  0.00    -0.237 OA
ATOM     86  O   UNL A   1      47.507  26.919  39.356  1.00  0.00    -0.744 OA
ENDBRANCH  82  83
ENDBRANCH  56  77
ENDBRANCH  30  31
ENDBRANCH  23  25
ENDBRANCH  22  23
ENDBRANCH  21  22
ENDBRANCH  20  21
ENDBRANCH  19  20
ENDBRANCH   1  19
TORSDOF 21
ENDMDL
MODEL 3
REMARK VINA RESULT:      -8.9      2.973      9.216
REMARK SMILES O=C(CCOc1ccccc1C(F)(F)F)OCCOCCOC(=O)c1ccc(-c2c3nc(c(-c4ccc(S(=O)(=O)[O-])cc4)c4ccc([nH]4)c(-c4ccc(S(=O)(=O)[O-])cc4)c4nc(c(-c5ccc(S(=O)(=O)[O-])cc5)c5ccc2[nH]5)C=C4)C=C3)cc1
REMARK SMILES IDX 18 1 17 2 16 3 2 4 1 5 3 6 4 7 5 8 6 9 7 10 11 11 8 12 10 13
REMARK SMILES IDX 9 14 12 15 13 16 14 17 15 18 19 19 20 20 21 21 22 22 23 23
REMARK SMILES IDX 24 24 25 25 26 26 84 27 27 28 83 29 28 30 29 31 30 32 77 33
REMARK SMILES IDX 31 34 82 35 76 36 78 37 32 38 81 39 75 40 74 41 33 43 63 44
REMARK SMILES IDX 44 45 62 46 45 47 48 48 61 49 79 50 46 51 47 52 60 54 80 55
REMARK SMILES IDX 49 56 34 57 35 58 43 59 36 60 42 61 37 62 38 63 39 64 40 65
REMARK SMILES IDX 41 66 64 67 65 68 73 69 66 70 72 71 67 72 68 73 69 74 70 75
REMARK SMILES IDX 71 76 50 77 51 78 59 79 52 80 58 81 53 82 54 83 55 84 56 85
REMARK SMILES IDX 57 86
REMARK H PARENT 78 42 48 53
REMARK Flexibility Score: inf
ROOT
ATOM      1  C   UNL A   1      34.438  32.949  29.070  1.00  0.00     0.202 C 
ENDROOT
BRANCH   1   2
ATOM      2  C   UNL A   1      34.699  31.839  28.020  1.00  0.00     0.261 C 
BRANCH   2   3
ATOM      3  O   UNL A   1      33.601  30.871  27.520  1.00  0.00    -0.463 OA
BRANCH   3   4
ATOM      4  C   UNL A   1      32.621  30.106  27.061  1.00  0.00     0.309 C 
ATOM      5  O   UNL A   1      31.861  30.686  26.265  1.00  0.00    -0.252 OA
BRANCH   4   6
ATOM      6  C   UNL A   1      32.388  28.538  27.171  1.00  0.00     0.164 C 
BRANCH   6   7
ATOM      7  C   UNL A   1      31.389  27.346  26.809  1.00  0.00     0.241 C 
BRANCH   7   8
ATOM      8  O   UNL A   1      30.758  26.999  25.531  1.00  0.00    -0.492 OA
BRANCH   8   9
ATOM      9  C   UNL A   1      31.502  27.173  24.410  1.00  0.00     0.131 A 
ATOM     10  C   UNL A   1      31.434  28.371  23.696  1.00  0.00     0.047 A 
ATOM     11  C   UNL A   1      32.504  26.290  24.185  1.00  0.00     0.097 A 
ATOM     12  C   UNL A   1      32.592  28.889  23.126  1.00  0.00     0.004 A 
ATOM     13  C   UNL A   1      33.712  26.967  23.952  1.00  0.00     0.017 A 
ATOM     14  C   UNL A   1      33.775  28.256  23.419  1.00  0.00     0.001 A 
BRANCH  11  15
ATOM     15  C   UNL A   1      32.073  24.807  24.260  1.00  0.00     0.419 C 
ATOM     16  F   UNL A   1      32.863  23.894  23.645  1.00  0.00    -0.166 F 
ATOM     17  F   UNL A   1      31.993  24.280  25.521  1.00  0.00    -0.166 F 
ATOM     18  F   UNL A   1      30.818  24.623  23.765  1.00  0.00    -0.166 F 
ENDBRANCH  11  15
ENDBRANCH   8   9
ENDBRANCH   7   8
ENDBRANCH   6   7
ENDBRANCH   4   6
ENDBRANCH   3   4
ENDBRANCH   2   3
ENDBRANCH   1   2
BRANCH   1  19
ATOM     19  O   UNL A   1      34.251  32.665  30.447  1.00  0.00    -0.374 OA
BRANCH  19  20
ATOM     20  C   UNL A   1      35.194  33.082  31.415  1.00  0.00     0.202 C 
BRANCH  20  21
ATOM     21  C   UNL A   1      36.598  32.460  31.381  1.00  0.00     0.261 C 
BRANCH  21  22
ATOM     22  O   UNL A   1      36.696  31.162  31.973  1.00  0.00    -0.460 OA
BRANCH  22  23
ATOM     23  C   UNL A   1      36.848  30.130  31.105  1.00  0.00     0.338 C 
ATOM     24  O   UNL A   1      35.964  29.434  30.640  1.00  0.00    -0.246 OA
BRANCH  23  25
ATOM     25  C   UNL A   1      38.260  30.145  30.641  1.00  0.00     0.060 A 
ATOM     26  C   UNL A   1      38.498  30.305  29.267  1.00  0.00     0.016 A 
ATOM     27  C   UNL A   1      39.333  30.113  31.542  1.00  0.00     0.016 A 
ATOM     28  C   UNL A   1      39.804  30.320  28.783  1.00  0.00     0.010 A 
ATOM     29  C   UNL A   1      40.643  30.107  31.056  1.00  0.00     0.010 A 
ATOM     30  C   UNL A   1      40.871  30.129  29.669  1.00  0.00    -0.014 A 
BRANCH  30  31
ATOM     31  C   UNL A   1      42.123  29.553  29.126  1.00  0.00     0.031 A 
ATOM     32  C   UNL A   1      43.330  30.462  29.112  1.00  0.00     0.074 A 
ATOM     33  C   UNL A   1      42.225  28.270  28.743  1.00  0.00     0.049 A 
ATOM     34  N   UNL A   1      44.558  30.211  28.745  1.00  0.00    -0.248 NA
ATOM     35  C   UNL A   1      43.116  31.842  29.583  1.00  0.00     0.031 C 
ATOM     36  C   UNL A   1      41.150  27.281  28.778  1.00  0.00     0.029 A 
ATOM     37  N   UNL A   1      43.308  27.576  28.263  1.00  0.00    -0.354 N 
ATOM     38  C   UNL A   1      45.254  31.402  28.933  1.00  0.00     0.074 A 
ATOM     39  C   UNL A   1      44.309  32.383  29.411  1.00  0.00     0.031 C 
ATOM     40  C   UNL A   1      41.631  26.101  28.345  1.00  0.00     0.029 A 
ATOM     41  C   UNL A   1      43.037  26.260  27.975  1.00  0.00     0.049 A 
ATOM     42  H   UNL A   1      44.194  27.983  28.135  1.00  0.00     0.167 HD
ATOM     43  C   UNL A   1      46.567  31.658  28.736  1.00  0.00     0.031 A 
ATOM     44  C   UNL A   1      43.839  25.301  27.469  1.00  0.00     0.031 A 
ATOM     45  C   UNL A   1      47.499  30.682  28.249  1.00  0.00     0.049 A 
ATOM     46  C   UNL A   1      45.281  25.633  27.175  1.00  0.00     0.074 A 
ATOM     47  C   UNL A   1      48.854  30.829  28.018  1.00  0.00     0.029 A 
ATOM     48  N   UNL A   1      47.169  29.380  27.906  1.00  0.00    -0.354 N 
ATOM     49  N   UNL A   1      45.932  26.755  27.376  1.00  0.00    -0.248 NA
ATOM     50  C   UNL A   1      46.103  24.559  26.599  1.00  0.00     0.031 C 
ATOM     51  C   UNL A   1      49.329  29.636  27.466  1.00  0.00     0.029 A 
ATOM     52  C   UNL A   1      48.288  28.720  27.432  1.00  0.00     0.049 A 
ATOM     53  H   UNL A   1      46.272  28.984  27.988  1.00  0.00     0.167 HD
ATOM     54  C   UNL A   1      47.247  26.510  26.989  1.00  0.00     0.074 A 
ATOM     55  C   UNL A   1      47.298  25.129  26.553  1.00  0.00     0.031 C 
ATOM     56  C   UNL A   1      48.316  27.345  27.000  1.00  0.00     0.031 A 
BRANCH  43  57
ATOM     57  C   UNL A   1      47.045  33.064  28.988  1.00  0.00    -0.014 A 
ATOM     58  C   UNL A   1      47.534  33.466  30.245  1.00  0.00     0.010 A 
ATOM     59  C   UNL A   1      47.006  34.000  27.939  1.00  0.00     0.010 A 
ATOM     60  C   UNL A   1      47.937  34.787  30.457  1.00  0.00     0.020 A 
ATOM     61  C   UNL A   1      47.440  35.312  28.136  1.00  0.00     0.020 A 
ATOM     62  C   UNL A   1      47.887  35.702  29.400  1.00  0.00     0.054 A 
BRANCH  62  63
ATOM     63  S   UNL A   1      48.439  37.404  29.694  1.00  0.00     0.124 S 
ATOM     64  O   UNL A   1      49.891  37.249  29.725  1.00  0.00    -0.237 OA
ATOM     65  O   UNL A   1      47.907  38.116  28.533  1.00  0.00    -0.237 OA
ATOM     66  O   UNL A   1      47.824  37.754  30.971  1.00  0.00    -0.744 OA
ENDBRANCH  62  63
ENDBRANCH  43  57
BRANCH  44  67
ATOM     67  C   UNL A   1      43.302  23.937  27.205  1.00  0.00    -0.014 A 
ATOM     68  C   UNL A   1      42.722  23.616  25.964  1.00  0.00     0.010 A 
ATOM     69  C   UNL A   1      43.357  22.948  28.205  1.00  0.00     0.010 A 
ATOM     70  C   UNL A   1      42.194  22.342  25.734  1.00  0.00     0.020 A 
ATOM     71  C   UNL A   1      42.859  21.664  27.969  1.00  0.00     0.020 A 
ATOM     72  C   UNL A   1      42.271  21.371  26.737  1.00  0.00     0.054 A 
BRANCH  72  73
ATOM     73  S   UNL A   1      41.630  19.708  26.397  1.00  0.00     0.124 S 
ATOM     74  O   UNL A   1      42.440  19.295  25.257  1.00  0.00    -0.237 OA
ATOM     75  O   UNL A   1      41.895  19.008  27.652  1.00  0.00    -0.237 OA
ATOM     76  O   UNL A   1      40.216  19.940  26.110  1.00  0.00    -0.744 OA
ENDBRANCH  72  73
ENDBRANCH  44  67
BRANCH  56  77
ATOM     77  C   UNL A   1      49.647  26.777  26.578  1.00  0.00    -0.014 A 
ATOM     78  C   UNL A   1      50.503  26.141  27.494  1.00  0.00     0.010 A 
ATOM     79  C   UNL A   1      50.024  26.846  25.223  1.00  0.00     0.010 A 
ATOM     80  C   UNL A   1      51.733  25.630  27.072  1.00  0.00     0.020 A 
ATOM     81  C   UNL A   1      51.235  26.302  24.790  1.00  0.00     0.020 A 
ATOM     82  C   UNL A   1      52.093  25.717  25.723  1.00  0.00     0.054 A 
BRANCH  82  83
ATOM     83  S   UNL A   1      53.686  25.032  25.198  1.00  0.00     0.124 S 
ATOM     84  O   UNL A   1      54.581  25.503  26.249  1.00  0.00    -0.237 OA
ATOM     85  O   UNL A   1      53.429  23.594  25.188  1.00  0.00    -0.237 OA
ATOM     86  O   UNL A   1      53.904  25.627  23.881  1.00  0.00    -0.744 OA
ENDBRANCH  82  83
ENDBRANCH  56  77
ENDBRANCH  30  31
ENDBRANCH  23  25
ENDBRANCH  22  23
ENDBRANCH  21  22
ENDBRANCH  20  21
ENDBRANCH  19  20
ENDBRANCH   1  19
TORSDOF 21
ENDMDL
