MODEL 1
REMARK VINA RESULT:      -9.8      0.000      0.000
REMARK SMILES COC(=O)C1=C(C)N(c2ccccc2)C(=S)N[C@@H]1c1ccc(C(=O)OCCOCCOC(=O)c2ccc(-c3c4nc(c(-c5ccc(S(=O)(=O)[O-])cc5)c5ccc([nH]5)c(-c5ccc(S(=O)(=O)[O-])cc5)c5nc(c(-c6ccc(S(=O)(=O)[O-])cc6)c6ccc3[nH]6)C=C5)C=C4)cc2)cc1
REMARK SMILES IDX 28 1 27 2 26 3 25 4 23 5 24 6 22 7 19 8 20 9 95 10 21 11
REMARK SMILES IDX 94 12 18 13 5 14 6 15 7 16 8 17 17 18 15 19 16 21 3 22 4 23
REMARK SMILES IDX 2 24 1 25 9 26 10 27 14 28 11 29 13 30 12 31 29 32 30 33
REMARK SMILES IDX 31 34 32 35 33 36 34 37 35 38 93 39 36 40 92 41 37 42 38 43
REMARK SMILES IDX 39 44 86 45 40 46 91 47 85 48 87 49 41 50 90 51 84 52 83 53
REMARK SMILES IDX 42 55 72 56 53 57 71 58 54 59 57 60 70 61 88 62 55 63 56 64
REMARK SMILES IDX 69 66 89 67 58 68 43 69 44 70 52 71 45 72 51 73 46 74 47 75
REMARK SMILES IDX 48 76 49 77 50 78 73 79 74 80 82 81 75 82 81 83 76 84 77 85
REMARK SMILES IDX 78 86 79 87 80 88 59 89 60 90 68 91 61 92 67 93 62 94 63 95
REMARK SMILES IDX 64 96 65 97 66 98
REMARK H PARENT 17 20 87 54 57 65
REMARK Flexibility Score: inf
ROOT
ATOM      1  O   UNL A   1      31.084  27.828  25.386  1.00  0.00    -0.374 OA
ENDROOT
BRANCH   1   2
ATOM      2  C   UNL A   1      31.367  28.429  24.122  1.00  0.00     0.202 C 
BRANCH   2   3
ATOM      3  C   UNL A   1      31.344  27.500  22.905  1.00  0.00     0.261 C 
BRANCH   3   4
ATOM      4  O   UNL A   1      32.531  27.649  22.111  1.00  0.00    -0.460 OA
BRANCH   4   5
ATOM      5  C   UNL A   1      33.072  26.479  21.702  1.00  0.00     0.338 C 
ATOM      6  O   UNL A   1      33.130  26.056  20.555  1.00  0.00    -0.246 OA
BRANCH   5   7
ATOM      7  C   UNL A   1      33.765  25.803  22.819  1.00  0.00     0.060 A 
ATOM      8  C   UNL A   1      34.883  24.283  24.913  1.00  0.00    -0.021 A 
ATOM      9  C   UNL A   1      34.655  23.715  23.648  1.00  0.00     0.007 A 
ATOM     10  C   UNL A   1      34.626  25.662  25.074  1.00  0.00     0.007 A 
ATOM     11  C   UNL A   1      34.097  24.464  22.618  1.00  0.00     0.016 A 
ATOM     12  C   UNL A   1      34.068  26.420  24.035  1.00  0.00     0.016 A 
BRANCH   8  13
ATOM     13  C   UNL A   1      35.282  23.430  26.125  1.00  0.00     0.151 C 
ATOM     14  C   UNL A   1      36.077  22.204  25.791  1.00  0.00     0.083 C 
ATOM     15  C   UNL A   1      35.477  21.028  25.498  1.00  0.00     0.035 C 
ATOM     16  C   UNL A   1      36.231  19.841  24.941  1.00  0.00     0.065 C 
ATOM     17  N   UNL A   1      34.068  20.931  25.641  1.00  0.00    -0.291 N 
ATOM     18  N   UNL A   1      34.079  22.990  26.798  1.00  0.00    -0.351 N 
ATOM     19  C   UNL A   1      33.362  21.890  26.404  1.00  0.00     0.178 C 
ATOM     20  H   UNL A   1      33.761  23.506  27.574  1.00  0.00     0.163 HD
ATOM     21  S   UNL A   1      31.782  21.803  26.969  1.00  0.00    -0.040 S 
BRANCH  14  22
ATOM     22  C   UNL A   1      37.522  22.431  25.591  1.00  0.00     0.337 C 
ATOM     23  O   UNL A   1      38.314  21.565  25.258  1.00  0.00    -0.246 OA
BRANCH  22  24
ATOM     24  O   UNL A   1      37.816  23.734  25.825  1.00  0.00    -0.466 OA
ATOM     25  C   UNL A   1      38.991  23.914  26.617  1.00  0.00     0.282 C 
ENDBRANCH  22  24
ENDBRANCH  14  22
BRANCH  17  26
ATOM     26  C   UNL A   1      33.320  19.898  24.981  1.00  0.00     0.048 A 
ATOM     27  C   UNL A   1      33.064  18.669  25.596  1.00  0.00     0.027 A 
ATOM     28  C   UNL A   1      32.869  20.117  23.671  1.00  0.00     0.027 A 
ATOM     29  C   UNL A   1      32.390  17.661  24.900  1.00  0.00     0.002 A 
ATOM     30  C   UNL A   1      32.188  19.112  22.981  1.00  0.00     0.002 A 
ATOM     31  C   UNL A   1      31.957  17.882  23.593  1.00  0.00     0.000 A 
ENDBRANCH  17  26
ENDBRANCH   8  13
ENDBRANCH   5   7
ENDBRANCH   4   5
ENDBRANCH   3   4
ENDBRANCH   2   3
ENDBRANCH   1   2
BRANCH   1  32
ATOM     32  C   UNL A   1      32.091  27.932  26.396  1.00  0.00     0.202 C 
BRANCH  32  33
ATOM     33  C   UNL A   1      33.008  29.160  26.327  1.00  0.00     0.261 C 
BRANCH  33  34
ATOM     34  O   UNL A   1      34.079  29.086  27.287  1.00  0.00    -0.460 OA
BRANCH  34  35
ATOM     35  C   UNL A   1      34.459  30.275  27.811  1.00  0.00     0.338 C 
ATOM     36  O   UNL A   1      33.765  31.273  27.957  1.00  0.00    -0.246 OA
BRANCH  35  37
ATOM     37  C   UNL A   1      35.816  30.162  28.379  1.00  0.00     0.060 A 
ATOM     38  C   UNL A   1      36.891  30.553  27.570  1.00  0.00     0.016 A 
ATOM     39  C   UNL A   1      36.041  29.631  29.651  1.00  0.00     0.016 A 
ATOM     40  C   UNL A   1      38.200  30.369  28.010  1.00  0.00     0.010 A 
ATOM     41  C   UNL A   1      37.357  29.437  30.086  1.00  0.00     0.010 A 
ATOM     42  C   UNL A   1      38.441  29.773  29.255  1.00  0.00    -0.014 A 
BRANCH  42  43
ATOM     43  C   UNL A   1      39.819  29.364  29.616  1.00  0.00     0.031 A 
ATOM     44  C   UNL A   1      40.669  30.304  30.429  1.00  0.00     0.074 A 
ATOM     45  C   UNL A   1      40.299  28.161  29.256  1.00  0.00     0.049 A 
ATOM     46  N   UNL A   1      41.900  30.160  30.845  1.00  0.00    -0.248 NA
ATOM     47  C   UNL A   1      40.043  31.578  30.825  1.00  0.00     0.031 C 
ATOM     48  C   UNL A   1      39.558  27.141  28.514  1.00  0.00     0.029 A 
ATOM     49  N   UNL A   1      41.530  27.593  29.470  1.00  0.00    -0.354 N 
ATOM     50  C   UNL A   1      42.199  31.321  31.547  1.00  0.00     0.074 A 
ATOM     51  C   UNL A   1      41.033  32.175  31.473  1.00  0.00     0.031 C 
ATOM     52  C   UNL A   1      40.350  26.069  28.338  1.00  0.00     0.029 A 
ATOM     53  C   UNL A   1      41.662  26.340  28.924  1.00  0.00     0.049 A 
ATOM     54  H   UNL A   1      42.250  28.041  29.970  1.00  0.00     0.167 HD
ATOM     55  C   UNL A   1      43.341  31.648  32.201  1.00  0.00     0.031 A 
ATOM     56  C   UNL A   1      42.724  25.512  28.887  1.00  0.00     0.031 A 
ATOM     57  C   UNL A   1      44.507  30.808  32.257  1.00  0.00     0.049 A 
ATOM     58  C   UNL A   1      44.013  25.933  29.543  1.00  0.00     0.074 A 
ATOM     59  C   UNL A   1      45.710  31.045  32.898  1.00  0.00     0.029 A 
ATOM     60  N   UNL A   1      44.619  29.569  31.642  1.00  0.00    -0.354 N 
ATOM     61  N   UNL A   1      44.276  27.029  30.216  1.00  0.00    -0.248 NA
ATOM     62  C   UNL A   1      45.146  25.004  29.437  1.00  0.00     0.031 C 
ATOM     63  C   UNL A   1      46.569  29.975  32.624  1.00  0.00     0.029 A 
ATOM     64  C   UNL A   1      45.881  29.043  31.863  1.00  0.00     0.049 A 
ATOM     65  H   UNL A   1      43.907  29.130  31.123  1.00  0.00     0.167 HD
ATOM     66  C   UNL A   1      45.595  26.905  30.639  1.00  0.00     0.074 A 
ATOM     67  C   UNL A   1      46.073  25.627  30.154  1.00  0.00     0.031 C 
ATOM     68  C   UNL A   1      46.343  27.770  31.370  1.00  0.00     0.031 A 
BRANCH  55  69
ATOM     69  C   UNL A   1      43.388  32.995  32.873  1.00  0.00    -0.014 A 
ATOM     70  C   UNL A   1      42.996  33.155  34.214  1.00  0.00     0.010 A 
ATOM     71  C   UNL A   1      43.843  34.115  32.154  1.00  0.00     0.010 A 
ATOM     72  C   UNL A   1      43.009  34.420  34.808  1.00  0.00     0.020 A 
ATOM     73  C   UNL A   1      43.883  35.378  32.754  1.00  0.00     0.020 A 
ATOM     74  C   UNL A   1      43.446  35.525  34.071  1.00  0.00     0.054 A 
BRANCH  74  75
ATOM     75  S   UNL A   1      43.449  37.156  34.864  1.00  0.00     0.124 S 
ATOM     76  O   UNL A   1      42.820  36.866  36.150  1.00  0.00    -0.237 OA
ATOM     77  O   UNL A   1      44.872  37.483  34.921  1.00  0.00    -0.237 OA
ATOM     78  O   UNL A   1      42.658  37.985  33.956  1.00  0.00    -0.744 OA
ENDBRANCH  74  75
ENDBRANCH  55  69
BRANCH  56  79
ATOM     79  C   UNL A   1      42.618  24.197  28.198  1.00  0.00    -0.014 A 
ATOM     80  C   UNL A   1      42.833  24.097  26.813  1.00  0.00     0.010 A 
ATOM     81  C   UNL A   1      42.303  23.035  28.928  1.00  0.00     0.010 A 
ATOM     82  C   UNL A   1      42.724  22.861  26.166  1.00  0.00     0.020 A 
ATOM     83  C   UNL A   1      42.219  21.794  28.289  1.00  0.00     0.020 A 
ATOM     84  C   UNL A   1      42.421  21.717  26.910  1.00  0.00     0.054 A 
BRANCH  84  85
ATOM     85  S   UNL A   1      42.339  20.116  26.059  1.00  0.00     0.124 S 
ATOM     86  O   UNL A   1      42.635  19.183  27.141  1.00  0.00    -0.237 OA
ATOM     87  O   UNL A   1      40.965  20.094  25.561  1.00  0.00    -0.237 OA
ATOM     88  O   UNL A   1      43.367  20.227  25.027  1.00  0.00    -0.744 OA
ENDBRANCH  84  85
ENDBRANCH  56  79
BRANCH  68  89
ATOM     89  C   UNL A   1      47.745  27.349  31.724  1.00  0.00    -0.014 A 
ATOM     90  C   UNL A   1      48.841  27.718  30.926  1.00  0.00     0.010 A 
ATOM     91  C   UNL A   1      47.972  26.619  32.905  1.00  0.00     0.010 A 
ATOM     92  C   UNL A   1      50.138  27.338  31.287  1.00  0.00     0.020 A 
ATOM     93  C   UNL A   1      49.268  26.261  33.284  1.00  0.00     0.020 A 
ATOM     94  C   UNL A   1      50.342  26.612  32.464  1.00  0.00     0.054 A 
BRANCH  94  95
ATOM     95  S   UNL A   1      52.038  26.169  32.936  1.00  0.00     0.124 S 
ATOM     96  O   UNL A   1      52.355  25.114  31.976  1.00  0.00    -0.237 OA
ATOM     97  O   UNL A   1      52.760  27.425  32.751  1.00  0.00    -0.237 OA
ATOM     98  O   UNL A   1      51.908  25.730  34.323  1.00  0.00    -0.744 OA
ENDBRANCH  94  95
ENDBRANCH  68  89
ENDBRANCH  42  43
ENDBRANCH  35  37
ENDBRANCH  34  35
ENDBRANCH  33  34
ENDBRANCH  32  33
ENDBRANCH   1  32
TORSDOF 21
ENDMDL
MODEL 2
REMARK VINA RESULT:      -9.7      1.781      7.835
REMARK SMILES COC(=O)C1=C(C)N(c2ccccc2)C(=S)N[C@@H]1c1ccc(C(=O)OCCOCCOC(=O)c2ccc(-c3c4nc(c(-c5ccc(S(=O)(=O)[O-])cc5)c5ccc([nH]5)c(-c5ccc(S(=O)(=O)[O-])cc5)c5nc(c(-c6ccc(S(=O)(=O)[O-])cc6)c6ccc3[nH]6)C=C5)C=C4)cc2)cc1
REMARK SMILES IDX 28 1 27 2 26 3 25 4 23 5 24 6 22 7 19 8 20 9 95 10 21 11
REMARK SMILES IDX 94 12 18 13 5 14 6 15 7 16 8 17 17 18 15 19 16 21 3 22 4 23
REMARK SMILES IDX 2 24 1 25 9 26 10 27 14 28 11 29 13 30 12 31 29 32 30 33
REMARK SMILES IDX 31 34 32 35 33 36 34 37 35 38 93 39 36 40 92 41 37 42 38 43
REMARK SMILES IDX 39 44 86 45 40 46 91 47 85 48 87 49 41 50 90 51 84 52 83 53
REMARK SMILES IDX 42 55 72 56 53 57 71 58 54 59 57 60 70 61 88 62 55 63 56 64
REMARK SMILES IDX 69 66 89 67 58 68 43 69 44 70 52 71 45 72 51 73 46 74 47 75
REMARK SMILES IDX 48 76 49 77 50 78 73 79 74 80 82 81 75 82 81 83 76 84 77 85
REMARK SMILES IDX 78 86 79 87 80 88 59 89 60 90 68 91 61 92 67 93 62 94 63 95
REMARK SMILES IDX 64 96 65 97 66 98
REMARK H PARENT 17 20 87 54 57 65
REMARK Flexibility Score: inf
ROOT
ATOM      1  O   UNL A   1      30.752  27.303  25.704  1.00  0.00    -0.374 OA
ENDROOT
BRANCH   1   2
ATOM      2  C   UNL A   1      30.888  28.285  24.676  1.00  0.00     0.202 C 
BRANCH   2   3
ATOM      3  C   UNL A   1      30.557  27.830  23.251  1.00  0.00     0.261 C 
BRANCH   3   4
ATOM      4  O   UNL A   1      31.724  27.841  22.415  1.00  0.00    -0.460 OA
BRANCH   4   5
ATOM      5  C   UNL A   1      32.112  26.616  21.992  1.00  0.00     0.338 C 
ATOM      6  O   UNL A   1      31.895  26.112  20.899  1.00  0.00    -0.246 OA
BRANCH   5   7
ATOM      7  C   UNL A   1      33.009  25.981  22.981  1.00  0.00     0.060 A 
ATOM      8  C   UNL A   1      34.484  24.579  24.932  1.00  0.00    -0.021 A 
ATOM      9  C   UNL A   1      33.804  23.896  23.909  1.00  0.00     0.007 A 
ATOM     10  C   UNL A   1      34.487  25.990  24.895  1.00  0.00     0.007 A 
ATOM     11  C   UNL A   1      33.071  24.588  22.951  1.00  0.00     0.016 A 
ATOM     12  C   UNL A   1      33.752  26.691  23.927  1.00  0.00     0.016 A 
BRANCH   8  13
ATOM     13  C   UNL A   1      35.109  23.841  26.123  1.00  0.00     0.151 C 
ATOM     14  C   UNL A   1      36.005  22.699  25.751  1.00  0.00     0.083 C 
ATOM     15  C   UNL A   1      35.522  21.448  25.571  1.00  0.00     0.035 C 
ATOM     16  C   UNL A   1      36.351  20.329  24.980  1.00  0.00     0.065 C 
ATOM     17  N   UNL A   1      34.158  21.197  25.873  1.00  0.00    -0.291 N 
ATOM     18  N   UNL A   1      34.045  23.301  26.942  1.00  0.00    -0.351 N 
ATOM     19  C   UNL A   1      33.427  22.107  26.673  1.00  0.00     0.178 C 
ATOM     20  H   UNL A   1      33.750  23.815  27.728  1.00  0.00     0.163 HD
ATOM     21  S   UNL A   1      31.937  21.868  27.412  1.00  0.00    -0.040 S 
BRANCH  14  22
ATOM     22  C   UNL A   1      37.383  23.080  25.383  1.00  0.00     0.337 C 
ATOM     23  O   UNL A   1      37.715  23.472  24.276  1.00  0.00    -0.246 OA
BRANCH  22  24
ATOM     24  O   UNL A   1      38.199  22.932  26.455  1.00  0.00    -0.466 OA
ATOM     25  C   UNL A   1      39.257  23.891  26.497  1.00  0.00     0.282 C 
ENDBRANCH  22  24
ENDBRANCH  14  22
BRANCH  17  26
ATOM     26  C   UNL A   1      33.474  20.053  25.341  1.00  0.00     0.048 A 
ATOM     27  C   UNL A   1      33.308  18.882  26.087  1.00  0.00     0.027 A 
ATOM     28  C   UNL A   1      32.994  20.101  24.023  1.00  0.00     0.027 A 
ATOM     29  C   UNL A   1      32.696  17.764  25.514  1.00  0.00     0.002 A 
ATOM     30  C   UNL A   1      32.375  18.985  23.456  1.00  0.00     0.002 A 
ATOM     31  C   UNL A   1      32.234  17.815  24.199  1.00  0.00     0.000 A 
ENDBRANCH  17  26
ENDBRANCH   8  13
ENDBRANCH   5   7
ENDBRANCH   4   5
ENDBRANCH   3   4
ENDBRANCH   2   3
ENDBRANCH   1   2
BRANCH   1  32
ATOM     32  C   UNL A   1      31.687  27.359  26.784  1.00  0.00     0.202 C 
BRANCH  32  33
ATOM     33  C   UNL A   1      32.230  28.746  27.152  1.00  0.00     0.261 C 
BRANCH  33  34
ATOM     34  O   UNL A   1      33.609  28.691  27.565  1.00  0.00    -0.460 OA
BRANCH  34  35
ATOM     35  C   UNL A   1      34.334  29.799  27.280  1.00  0.00     0.338 C 
ATOM     36  O   UNL A   1      34.015  30.718  26.538  1.00  0.00    -0.246 OA
BRANCH  35  37
ATOM     37  C   UNL A   1      35.522  29.858  28.153  1.00  0.00     0.060 A 
ATOM     38  C   UNL A   1      36.704  30.372  27.602  1.00  0.00     0.016 A 
ATOM     39  C   UNL A   1      35.502  29.370  29.461  1.00  0.00     0.016 A 
ATOM     40  C   UNL A   1      37.884  30.354  28.341  1.00  0.00     0.010 A 
ATOM     41  C   UNL A   1      36.692  29.344  30.197  1.00  0.00     0.010 A 
ATOM     42  C   UNL A   1      37.894  29.803  29.629  1.00  0.00    -0.014 A 
BRANCH  42  43
ATOM     43  C   UNL A   1      39.187  29.570  30.316  1.00  0.00     0.031 A 
ATOM     44  C   UNL A   1      40.093  28.478  29.813  1.00  0.00     0.074 A 
ATOM     45  C   UNL A   1      39.567  30.339  31.351  1.00  0.00     0.049 A 
ATOM     46  N   UNL A   1      41.257  28.093  30.267  1.00  0.00    -0.248 NA
ATOM     47  C   UNL A   1      39.621  27.721  28.641  1.00  0.00     0.031 C 
ATOM     48  C   UNL A   1      38.804  31.461  31.898  1.00  0.00     0.029 A 
ATOM     49  N   UNL A   1      40.697  30.292  32.128  1.00  0.00    -0.354 N 
ATOM     50  C   UNL A   1      41.656  27.048  29.441  1.00  0.00     0.074 A 
ATOM     51  C   UNL A   1      40.595  26.838  28.480  1.00  0.00     0.031 C 
ATOM     52  C   UNL A   1      39.491  31.998  32.920  1.00  0.00     0.029 A 
ATOM     53  C   UNL A   1      40.724  31.239  33.122  1.00  0.00     0.049 A 
ATOM     54  H   UNL A   1      41.422  29.641  31.984  1.00  0.00     0.167 HD
ATOM     55  C   UNL A   1      42.805  26.330  29.475  1.00  0.00     0.031 A 
ATOM     56  C   UNL A   1      41.631  31.458  34.094  1.00  0.00     0.031 A 
ATOM     57  C   UNL A   1      43.850  26.525  30.444  1.00  0.00     0.049 A 
ATOM     58  C   UNL A   1      42.859  30.589  34.168  1.00  0.00     0.074 A 
ATOM     59  C   UNL A   1      45.054  25.854  30.559  1.00  0.00     0.029 A 
ATOM     60  N   UNL A   1      43.812  27.458  31.470  1.00  0.00    -0.354 N 
ATOM     61  N   UNL A   1      43.229  29.614  33.372  1.00  0.00    -0.248 NA
ATOM     62  C   UNL A   1      43.793  30.853  35.272  1.00  0.00     0.031 C 
ATOM     63  C   UNL A   1      45.720  26.343  31.688  1.00  0.00     0.029 A 
ATOM     64  C   UNL A   1      44.958  27.361  32.241  1.00  0.00     0.049 A 
ATOM     65  H   UNL A   1      43.078  28.095  31.627  1.00  0.00     0.167 HD
ATOM     66  C   UNL A   1      44.453  29.170  33.860  1.00  0.00     0.074 A 
ATOM     67  C   UNL A   1      44.765  29.987  35.015  1.00  0.00     0.031 C 
ATOM     68  C   UNL A   1      45.253  28.179  33.391  1.00  0.00     0.031 A 
BRANCH  55  69
ATOM     69  C   UNL A   1      42.964  25.237  28.452  1.00  0.00    -0.014 A 
ATOM     70  C   UNL A   1      42.651  23.900  28.758  1.00  0.00     0.010 A 
ATOM     71  C   UNL A   1      43.422  25.554  27.161  1.00  0.00     0.010 A 
ATOM     72  C   UNL A   1      42.843  22.893  27.807  1.00  0.00     0.020 A 
ATOM     73  C   UNL A   1      43.589  24.554  26.198  1.00  0.00     0.020 A 
ATOM     74  C   UNL A   1      43.318  23.226  26.535  1.00  0.00     0.054 A 
BRANCH  74  75
ATOM     75  S   UNL A   1      43.562  21.902  25.320  1.00  0.00     0.124 S 
ATOM     76  O   UNL A   1      44.876  21.386  25.699  1.00  0.00    -0.237 OA
ATOM     77  O   UNL A   1      42.438  21.009  25.587  1.00  0.00    -0.237 OA
ATOM     78  O   UNL A   1      43.513  22.595  24.035  1.00  0.00    -0.744 OA
ENDBRANCH  74  75
ENDBRANCH  55  69
BRANCH  56  79
ATOM     79  C   UNL A   1      41.412  32.549  35.083  1.00  0.00    -0.014 A 
ATOM     80  C   UNL A   1      41.814  33.865  34.796  1.00  0.00     0.010 A 
ATOM     81  C   UNL A   1      40.796  32.275  36.319  1.00  0.00     0.010 A 
ATOM     82  C   UNL A   1      41.615  34.886  35.731  1.00  0.00     0.020 A 
ATOM     83  C   UNL A   1      40.573  33.298  37.245  1.00  0.00     0.020 A 
ATOM     84  C   UNL A   1      40.993  34.596  36.948  1.00  0.00     0.054 A 
BRANCH  84  85
ATOM     85  S   UNL A   1      40.696  35.947  38.123  1.00  0.00     0.124 S 
ATOM     86  O   UNL A   1      39.755  36.786  37.388  1.00  0.00    -0.237 OA
ATOM     87  O   UNL A   1      40.147  35.243  39.281  1.00  0.00    -0.237 OA
ATOM     88  O   UNL A   1      42.024  36.520  38.325  1.00  0.00    -0.744 OA
ENDBRANCH  84  85
ENDBRANCH  56  79
BRANCH  68  89
ATOM     89  C   UNL A   1      46.559  27.944  34.102  1.00  0.00    -0.014 A 
ATOM     90  C   UNL A   1      46.663  27.016  35.152  1.00  0.00     0.010 A 
ATOM     91  C   UNL A   1      47.713  28.626  33.672  1.00  0.00     0.010 A 
ATOM     92  C   UNL A   1      47.893  26.796  35.780  1.00  0.00     0.020 A 
ATOM     93  C   UNL A   1      48.949  28.388  34.279  1.00  0.00     0.020 A 
ATOM     94  C   UNL A   1      49.027  27.483  35.340  1.00  0.00     0.054 A 
BRANCH  94  95
ATOM     95  S   UNL A   1      50.620  27.148  36.141  1.00  0.00     0.124 S 
ATOM     96  O   UNL A   1      50.624  25.689  36.212  1.00  0.00    -0.237 OA
ATOM     97  O   UNL A   1      51.578  27.734  35.206  1.00  0.00    -0.237 OA
ATOM     98  O   UNL A   1      50.513  27.834  37.426  1.00  0.00    -0.744 OA
ENDBRANCH  94  95
ENDBRANCH  68  89
ENDBRANCH  42  43
ENDBRANCH  35  37
ENDBRANCH  34  35
ENDBRANCH  33  34
ENDBRANCH  32  33
ENDBRANCH   1  32
TORSDOF 21
ENDMDL
MODEL 3
REMARK VINA RESULT:      -9.4      5.946      8.811
REMARK SMILES COC(=O)C1=C(C)N(c2ccccc2)C(=S)N[C@@H]1c1ccc(C(=O)OCCOCCOC(=O)c2ccc(-c3c4nc(c(-c5ccc(S(=O)(=O)[O-])cc5)c5ccc([nH]5)c(-c5ccc(S(=O)(=O)[O-])cc5)c5nc(c(-c6ccc(S(=O)(=O)[O-])cc6)c6ccc3[nH]6)C=C5)C=C4)cc2)cc1
REMARK SMILES IDX 28 1 27 2 26 3 25 4 23 5 24 6 22 7 19 8 20 9 95 10 21 11
REMARK SMILES IDX 94 12 18 13 5 14 6 15 7 16 8 17 17 18 15 19 16 21 3 22 4 23
REMARK SMILES IDX 2 24 1 25 9 26 10 27 14 28 11 29 13 30 12 31 29 32 30 33
REMARK SMILES IDX 31 34 32 35 33 36 34 37 35 38 93 39 36 40 92 41 37 42 38 43
REMARK SMILES IDX 39 44 86 45 40 46 91 47 85 48 87 49 41 50 90 51 84 52 83 53
REMARK SMILES IDX 42 55 72 56 53 57 71 58 54 59 57 60 70 61 88 62 55 63 56 64
REMARK SMILES IDX 69 66 89 67 58 68 43 69 44 70 52 71 45 72 51 73 46 74 47 75
REMARK SMILES IDX 48 76 49 77 50 78 73 79 74 80 82 81 75 82 81 83 76 84 77 85
REMARK SMILES IDX 78 86 79 87 80 88 59 89 60 90 68 91 61 92 67 93 62 94 63 95
REMARK SMILES IDX 64 96 65 97 66 98
REMARK H PARENT 17 20 87 54 57 65
REMARK Flexibility Score: inf
ROOT
ATOM      1  O   UNL A   1      39.283  32.547  32.179  1.00  0.00    -0.374 OA
ENDROOT
BRANCH   1   2
ATOM      2  C   UNL A   1      38.224  32.061  31.353  1.00  0.00     0.202 C 
BRANCH   2   3
ATOM      3  C   UNL A   1      38.596  31.687  29.916  1.00  0.00     0.261 C 
BRANCH   3   4
ATOM      4  O   UNL A   1      39.771  30.863  29.878  1.00  0.00    -0.460 OA
BRANCH   4   5
ATOM      5  C   UNL A   1      39.514  29.534  29.871  1.00  0.00     0.338 C 
ATOM      6  O   UNL A   1      38.463  28.987  30.174  1.00  0.00    -0.246 OA
BRANCH   5   7
ATOM      7  C   UNL A   1      40.641  28.786  29.275  1.00  0.00     0.060 A 
ATOM      8  C   UNL A   1      42.913  27.351  28.423  1.00  0.00    -0.021 A 
ATOM      9  C   UNL A   1      42.155  26.920  29.526  1.00  0.00     0.007 A 
ATOM     10  C   UNL A   1      42.445  28.467  27.697  1.00  0.00     0.007 A 
ATOM     11  C   UNL A   1      41.039  27.632  29.949  1.00  0.00     0.016 A 
ATOM     12  C   UNL A   1      41.316  29.184  28.119  1.00  0.00     0.016 A 
BRANCH   8  13
ATOM     13  C   UNL A   1      44.267  26.720  28.073  1.00  0.00     0.151 C 
ATOM     14  C   UNL A   1      44.396  26.267  26.650  1.00  0.00     0.083 C 
ATOM     15  C   UNL A   1      44.020  25.026  26.265  1.00  0.00     0.035 C 
ATOM     16  C   UNL A   1      43.924  24.614  24.813  1.00  0.00     0.065 C 
ATOM     17  N   UNL A   1      43.619  24.098  27.262  1.00  0.00    -0.291 N 
ATOM     18  N   UNL A   1      44.467  25.559  28.913  1.00  0.00    -0.351 N 
ATOM     19  C   UNL A   1      43.946  24.325  28.619  1.00  0.00     0.178 C 
ATOM     20  H   UNL A   1      45.002  25.660  29.733  1.00  0.00     0.163 HD
ATOM     21  S   UNL A   1      43.864  23.239  29.898  1.00  0.00    -0.040 S 
BRANCH  14  22
ATOM     22  C   UNL A   1      44.744  27.328  25.685  1.00  0.00     0.337 C 
ATOM     23  O   UNL A   1      43.931  27.932  25.005  1.00  0.00    -0.246 OA
BRANCH  22  24
ATOM     24  O   UNL A   1      46.086  27.521  25.685  1.00  0.00    -0.466 OA
ATOM     25  C   UNL A   1      46.588  27.998  24.435  1.00  0.00     0.282 C 
ENDBRANCH  22  24
ENDBRANCH  14  22
BRANCH  17  26
ATOM     26  C   UNL A   1      42.834  22.941  26.932  1.00  0.00     0.048 A 
ATOM     27  C   UNL A   1      41.454  22.902  27.152  1.00  0.00     0.027 A 
ATOM     28  C   UNL A   1      43.479  21.809  26.412  1.00  0.00     0.027 A 
ATOM     29  C   UNL A   1      40.731  21.737  26.882  1.00  0.00     0.002 A 
ATOM     30  C   UNL A   1      42.753  20.649  26.134  1.00  0.00     0.002 A 
ATOM     31  C   UNL A   1      41.382  20.611  26.377  1.00  0.00     0.000 A 
ENDBRANCH  17  26
ENDBRANCH   8  13
ENDBRANCH   5   7
ENDBRANCH   4   5
ENDBRANCH   3   4
ENDBRANCH   2   3
ENDBRANCH   1   2
BRANCH   1  32
ATOM     32  C   UNL A   1      39.212  32.245  33.574  1.00  0.00     0.202 C 
BRANCH  32  33
ATOM     33  C   UNL A   1      38.092  31.292  34.014  1.00  0.00     0.261 C 
BRANCH  33  34
ATOM     34  O   UNL A   1      38.614  30.087  34.606  1.00  0.00    -0.460 OA
BRANCH  34  35
ATOM     35  C   UNL A   1      39.647  30.272  35.461  1.00  0.00     0.338 C 
ATOM     36  O   UNL A   1      39.597  30.757  36.583  1.00  0.00    -0.246 OA
BRANCH  35  37
ATOM     37  C   UNL A   1      40.859  29.619  34.931  1.00  0.00     0.060 A 
ATOM     38  C   UNL A   1      42.099  30.145  35.319  1.00  0.00     0.016 A 
ATOM     39  C   UNL A   1      40.791  28.555  34.029  1.00  0.00     0.016 A 
ATOM     40  C   UNL A   1      43.275  29.642  34.768  1.00  0.00     0.010 A 
ATOM     41  C   UNL A   1      41.974  28.058  33.469  1.00  0.00     0.010 A 
ATOM     42  C   UNL A   1      43.217  28.622  33.810  1.00  0.00    -0.014 A 
BRANCH  42  43
ATOM     43  C   UNL A   1      44.440  28.254  33.057  1.00  0.00     0.031 A 
ATOM     44  C   UNL A   1      44.746  28.972  31.770  1.00  0.00     0.074 A 
ATOM     45  C   UNL A   1      45.284  27.319  33.526  1.00  0.00     0.049 A 
ATOM     46  N   UNL A   1      45.747  28.805  30.945  1.00  0.00    -0.248 NA
ATOM     47  C   UNL A   1      43.794  30.019  31.359  1.00  0.00     0.031 C 
ATOM     48  C   UNL A   1      45.127  26.591  34.785  1.00  0.00     0.029 A 
ATOM     49  N   UNL A   1      46.448  26.824  32.994  1.00  0.00    -0.354 N 
ATOM     50  C   UNL A   1      45.546  29.719  29.918  1.00  0.00     0.074 A 
ATOM     51  C   UNL A   1      44.311  30.415  30.205  1.00  0.00     0.031 C 
ATOM     52  C   UNL A   1      46.159  25.743  34.929  1.00  0.00     0.029 A 
ATOM     53  C   UNL A   1      47.031  25.844  33.760  1.00  0.00     0.049 A 
ATOM     54  H   UNL A   1      46.830  27.142  32.144  1.00  0.00     0.167 HD
ATOM     55  C   UNL A   1      46.323  29.963  28.834  1.00  0.00     0.031 A 
ATOM     56  C   UNL A   1      48.133  25.102  33.536  1.00  0.00     0.031 A 
ATOM     57  C   UNL A   1      47.541  29.257  28.538  1.00  0.00     0.049 A 
ATOM     58  C   UNL A   1      48.933  25.327  32.279  1.00  0.00     0.074 A 
ATOM     59  C   UNL A   1      48.401  29.433  27.470  1.00  0.00     0.029 A 
ATOM     60  N   UNL A   1      48.066  28.231  29.311  1.00  0.00    -0.354 N 
ATOM     61  N   UNL A   1      48.738  26.206  31.325  1.00  0.00    -0.248 NA
ATOM     62  C   UNL A   1      50.103  24.463  32.074  1.00  0.00     0.031 C 
ATOM     63  C   UNL A   1      49.419  28.477  27.567  1.00  0.00     0.029 A 
ATOM     64  C   UNL A   1      49.225  27.746  28.728  1.00  0.00     0.049 A 
ATOM     65  H   UNL A   1      47.674  27.898  30.150  1.00  0.00     0.167 HD
ATOM     66  C   UNL A   1      49.780  26.020  30.420  1.00  0.00     0.074 A 
ATOM     67  C   UNL A   1      50.605  24.952  30.947  1.00  0.00     0.031 C 
ATOM     68  C   UNL A   1      50.034  26.679  29.262  1.00  0.00     0.031 A 
BRANCH  55  69
ATOM     69  C   UNL A   1      45.847  31.017  27.869  1.00  0.00    -0.014 A 
ATOM     70  C   UNL A   1      44.878  30.725  26.891  1.00  0.00     0.010 A 
ATOM     71  C   UNL A   1      46.368  32.320  27.950  1.00  0.00     0.010 A 
ATOM     72  C   UNL A   1      44.478  31.706  25.979  1.00  0.00     0.020 A 
ATOM     73  C   UNL A   1      45.949  33.311  27.056  1.00  0.00     0.020 A 
ATOM     74  C   UNL A   1      45.022  32.991  26.062  1.00  0.00     0.054 A 
BRANCH  74  75
ATOM     75  S   UNL A   1      44.489  34.244  24.865  1.00  0.00     0.124 S 
ATOM     76  O   UNL A   1      45.488  35.291  25.062  1.00  0.00    -0.237 OA
ATOM     77  O   UNL A   1      44.572  33.530  23.593  1.00  0.00    -0.237 OA
ATOM     78  O   UNL A   1      43.135  34.584  25.298  1.00  0.00    -0.744 OA
ENDBRANCH  74  75
ENDBRANCH  55  69
BRANCH  56  79
ATOM     79  C   UNL A   1      48.547  24.068  34.523  1.00  0.00    -0.014 A 
ATOM     80  C   UNL A   1      47.975  22.785  34.497  1.00  0.00     0.010 A 
ATOM     81  C   UNL A   1      49.521  24.363  35.496  1.00  0.00     0.010 A 
ATOM     82  C   UNL A   1      48.359  21.818  35.431  1.00  0.00     0.020 A 
ATOM     83  C   UNL A   1      49.926  23.392  36.416  1.00  0.00     0.020 A 
ATOM     84  C   UNL A   1      49.335  22.128  36.383  1.00  0.00     0.054 A 
BRANCH  84  85
ATOM     85  S   UNL A   1      49.858  20.840  37.551  1.00  0.00     0.124 S 
ATOM     86  O   UNL A   1      51.091  20.357  36.937  1.00  0.00    -0.237 OA
ATOM     87  O   UNL A   1      50.019  21.590  38.795  1.00  0.00    -0.237 OA
ATOM     88  O   UNL A   1      48.741  19.898  37.541  1.00  0.00    -0.744 OA
ENDBRANCH  84  85
ENDBRANCH  56  79
BRANCH  68  89
ATOM     89  C   UNL A   1      51.273  26.291  28.500  1.00  0.00    -0.014 A 
ATOM     90  C   UNL A   1      51.199  25.516  27.330  1.00  0.00     0.010 A 
ATOM     91  C   UNL A   1      52.528  26.757  28.935  1.00  0.00     0.010 A 
ATOM     92  C   UNL A   1      52.361  25.190  26.624  1.00  0.00     0.020 A 
ATOM     93  C   UNL A   1      53.688  26.457  28.216  1.00  0.00     0.020 A 
ATOM     94  C   UNL A   1      53.598  25.662  27.072  1.00  0.00     0.054 A 
BRANCH  94  95
ATOM     95  S   UNL A   1      55.087  25.263  26.115  1.00  0.00     0.124 S 
ATOM     96  O   UNL A   1      55.313  23.865  26.472  1.00  0.00    -0.237 OA
ATOM     97  O   UNL A   1      54.655  25.498  24.738  1.00  0.00    -0.237 OA
ATOM     98  O   UNL A   1      56.085  26.204  26.618  1.00  0.00    -0.744 OA
ENDBRANCH  94  95
ENDBRANCH  68  89
ENDBRANCH  42  43
ENDBRANCH  35  37
ENDBRANCH  34  35
ENDBRANCH  33  34
ENDBRANCH  32  33
ENDBRANCH   1  32
TORSDOF 21
ENDMDL
