MODEL 1
REMARK VINA RESULT:      -9.0      0.000      0.000
REMARK SMILES CCOc1cc(OCC)cc(-c2ccc([C@@H](C)C(=O)OCCOCCOC(=O)c3ccc(-c4c5nc(c(-c6ccc(S(=O)(=O)[O-])cc6)c6ccc([nH]6)c(-c6ccc(S(=O)(=O)[O-])cc6)c6nc(c(-c7ccc(S(=O)(=O)[O-])cc7)c7ccc4[nH]7)C=C6)C=C5)cc3)cc2F)c1
REMARK SMILES IDX 22 1 21 2 20 3 18 4 19 5 16 6 17 7 15 8 12 9 13 10 90 11
REMARK SMILES IDX 14 12 89 13 91 14 11 15 4 16 5 17 92 18 6 19 10 20 3 21 2 22
REMARK SMILES IDX 1 23 7 24 8 25 9 26 23 27 24 28 25 29 26 30 27 31 28 32
REMARK SMILES IDX 29 33 30 34 88 35 31 36 87 37 32 38 33 39 34 40 81 41 35 42
REMARK SMILES IDX 86 43 80 44 82 45 36 46 85 47 79 48 78 49 37 51 67 52 48 53
REMARK SMILES IDX 66 54 49 55 52 56 65 57 83 58 50 59 51 60 64 62 84 63 53 64
REMARK SMILES IDX 38 65 39 66 47 67 40 68 46 69 41 70 42 71 43 72 44 73 45 74
REMARK SMILES IDX 68 75 69 76 77 77 70 78 76 79 71 80 72 81 73 82 74 83 75 84
REMARK SMILES IDX 54 85 55 86 63 87 56 88 62 89 57 90 58 91 59 92 60 93 61 94
REMARK H PARENT 82 50 52 61
REMARK Flexibility Score: inf
ROOT
ATOM      1  C   UNL A   1      34.110  33.123  29.173  1.00  0.00     0.202 C 
ENDROOT
BRANCH   1   2
ATOM      2  C   UNL A   1      33.628  34.561  29.381  1.00  0.00     0.261 C 
BRANCH   2   3
ATOM      3  O   UNL A   1      33.217  34.777  30.743  1.00  0.00    -0.463 OA
BRANCH   3   4
ATOM      4  C   UNL A   1      33.148  36.072  31.149  1.00  0.00     0.313 C 
ATOM      5  O   UNL A   1      32.758  37.001  30.450  1.00  0.00    -0.252 OA
BRANCH   4   6
ATOM      6  C   UNL A   1      33.644  36.291  32.570  1.00  0.00     0.126 C 
ATOM      7  C   UNL A   1      33.955  37.771  32.779  1.00  0.00     0.025 C 
BRANCH   6   8
ATOM      8  C   UNL A   1      34.777  35.403  33.069  1.00  0.00    -0.031 A 
ATOM      9  C   UNL A   1      36.986  33.980  34.177  1.00  0.00     0.018 A 
ATOM     10  C   UNL A   1      36.999  34.428  32.845  1.00  0.00     0.012 A 
ATOM     11  C   UNL A   1      35.816  34.198  34.913  1.00  0.00     0.131 A 
ATOM     12  C   UNL A   1      35.917  35.132  32.301  1.00  0.00     0.005 A 
ATOM     13  C   UNL A   1      34.731  34.892  34.377  1.00  0.00     0.044 A 
ATOM     14  F   UNL A   1      35.729  33.787  36.188  1.00  0.00    -0.206 F 
BRANCH   9  15
ATOM     15  C   UNL A   1      38.191  33.387  34.783  1.00  0.00    -0.008 A 
ATOM     16  C   UNL A   1      40.132  31.930  34.708  1.00  0.00     0.123 A 
ATOM     17  C   UNL A   1      40.452  32.261  36.025  1.00  0.00     0.092 A 
ATOM     18  C   UNL A   1      38.999  32.471  34.099  1.00  0.00     0.055 A 
ATOM     19  C   UNL A   1      39.646  33.145  36.739  1.00  0.00     0.123 A 
ATOM     20  C   UNL A   1      38.532  33.705  36.112  1.00  0.00     0.055 A 
BRANCH  16  21
ATOM     21  O   UNL A   1      40.873  30.958  34.091  1.00  0.00    -0.494 OA
BRANCH  21  22
ATOM     22  C   UNL A   1      40.210  29.691  34.013  1.00  0.00     0.226 C 
ATOM     23  C   UNL A   1      41.119  28.620  33.433  1.00  0.00     0.049 C 
ENDBRANCH  21  22
ENDBRANCH  16  21
BRANCH  19  24
ATOM     24  O   UNL A   1      40.039  33.400  38.025  1.00  0.00    -0.494 OA
BRANCH  24  25
ATOM     25  C   UNL A   1      41.440  33.388  38.312  1.00  0.00     0.226 C 
ATOM     26  C   UNL A   1      41.735  32.679  39.625  1.00  0.00     0.049 C 
ENDBRANCH  24  25
ENDBRANCH  19  24
ENDBRANCH   9  15
ENDBRANCH   6   8
ENDBRANCH   4   6
ENDBRANCH   3   4
ENDBRANCH   2   3
ENDBRANCH   1   2
BRANCH   1  27
ATOM     27  O   UNL A   1      35.212  32.955  28.281  1.00  0.00    -0.374 OA
BRANCH  27  28
ATOM     28  C   UNL A   1      36.523  33.131  28.821  1.00  0.00     0.202 C 
BRANCH  28  29
ATOM     29  C   UNL A   1      37.037  32.028  29.754  1.00  0.00     0.261 C 
BRANCH  29  30
ATOM     30  O   UNL A   1      36.749  30.711  29.253  1.00  0.00    -0.460 OA
BRANCH  30  31
ATOM     31  C   UNL A   1      37.211  29.697  30.019  1.00  0.00     0.338 C 
ATOM     32  O   UNL A   1      36.633  29.157  30.954  1.00  0.00    -0.246 OA
BRANCH  31  33
ATOM     33  C   UNL A   1      38.474  29.175  29.465  1.00  0.00     0.060 A 
ATOM     34  C   UNL A   1      39.302  28.436  30.321  1.00  0.00     0.016 A 
ATOM     35  C   UNL A   1      38.882  29.472  28.163  1.00  0.00     0.016 A 
ATOM     36  C   UNL A   1      40.573  28.046  29.901  1.00  0.00     0.010 A 
ATOM     37  C   UNL A   1      40.161  29.089  27.747  1.00  0.00     0.010 A 
ATOM     38  C   UNL A   1      41.027  28.413  28.629  1.00  0.00    -0.014 A 
BRANCH  38  39
ATOM     39  C   UNL A   1      42.463  28.273  28.286  1.00  0.00     0.031 A 
ATOM     40  C   UNL A   1      43.373  29.447  28.530  1.00  0.00     0.074 A 
ATOM     41  C   UNL A   1      42.953  27.130  27.776  1.00  0.00     0.049 A 
ATOM     42  N   UNL A   1      44.632  29.600  28.210  1.00  0.00    -0.248 NA
ATOM     43  C   UNL A   1      42.782  30.604  29.224  1.00  0.00     0.031 C 
ATOM     44  C   UNL A   1      42.190  25.902  27.557  1.00  0.00     0.029 A 
ATOM     45  N   UNL A   1      44.217  26.825  27.335  1.00  0.00    -0.354 N 
ATOM     46  C   UNL A   1      44.977  30.876  28.643  1.00  0.00     0.074 A 
ATOM     47  C   UNL A   1      43.793  31.460  29.233  1.00  0.00     0.031 C 
ATOM     48  C   UNL A   1      42.999  24.980  27.005  1.00  0.00     0.029 A 
ATOM     49  C   UNL A   1      44.321  25.566  26.793  1.00  0.00     0.049 A 
ATOM     50  H   UNL A   1      44.976  27.449  27.400  1.00  0.00     0.167 HD
ATOM     51  C   UNL A   1      46.172  31.504  28.555  1.00  0.00     0.031 A 
ATOM     52  C   UNL A   1      45.356  24.967  26.169  1.00  0.00     0.031 A 
ATOM     53  C   UNL A   1      47.345  30.923  27.962  1.00  0.00     0.049 A 
ATOM     54  C   UNL A   1      46.656  25.713  26.012  1.00  0.00     0.074 A 
ATOM     55  C   UNL A   1      48.605  31.477  27.824  1.00  0.00     0.029 A 
ATOM     56  N   UNL A   1      47.401  29.653  27.407  1.00  0.00    -0.354 N 
ATOM     57  N   UNL A   1      46.968  26.921  26.420  1.00  0.00    -0.248 NA
ATOM     58  C   UNL A   1      47.747  25.016  25.312  1.00  0.00     0.031 C 
ATOM     59  C   UNL A   1      49.410  30.562  27.140  1.00  0.00     0.029 A 
ATOM     60  C   UNL A   1      48.668  29.414  26.909  1.00  0.00     0.049 A 
ATOM     61  H   UNL A   1      46.650  29.017  27.372  1.00  0.00     0.167 HD
ATOM     62  C   UNL A   1      48.300  27.111  26.064  1.00  0.00     0.074 A 
ATOM     63  C   UNL A   1      48.734  25.898  25.403  1.00  0.00     0.031 C 
ATOM     64  C   UNL A   1      49.092  28.191  26.274  1.00  0.00     0.031 A 
BRANCH  51  65
ATOM     65  C   UNL A   1      46.257  32.915  29.076  1.00  0.00    -0.014 A 
ATOM     66  C   UNL A   1      45.931  34.014  28.262  1.00  0.00     0.010 A 
ATOM     67  C   UNL A   1      46.641  33.139  30.410  1.00  0.00     0.010 A 
ATOM     68  C   UNL A   1      46.026  35.316  28.764  1.00  0.00     0.020 A 
ATOM     69  C   UNL A   1      46.711  34.436  30.923  1.00  0.00     0.020 A 
ATOM     70  C   UNL A   1      46.420  35.519  30.090  1.00  0.00     0.054 A 
BRANCH  70  71
ATOM     71  S   UNL A   1      46.520  37.216  30.720  1.00  0.00     0.124 S 
ATOM     72  O   UNL A   1      47.033  37.005  32.072  1.00  0.00    -0.237 OA
ATOM     73  O   UNL A   1      47.450  37.850  29.788  1.00  0.00    -0.237 OA
ATOM     74  O   UNL A   1      45.143  37.696  30.645  1.00  0.00    -0.744 OA
ENDBRANCH  70  71
ENDBRANCH  51  65
BRANCH  52  75
ATOM     75  C   UNL A   1      45.196  23.594  25.619  1.00  0.00    -0.014 A 
ATOM     76  C   UNL A   1      45.634  22.472  26.346  1.00  0.00     0.010 A 
ATOM     77  C   UNL A   1      44.597  23.400  24.360  1.00  0.00     0.010 A 
ATOM     78  C   UNL A   1      45.488  21.186  25.819  1.00  0.00     0.020 A 
ATOM     79  C   UNL A   1      44.425  22.113  23.842  1.00  0.00     0.020 A 
ATOM     80  C   UNL A   1      44.880  21.015  24.571  1.00  0.00     0.054 A 
BRANCH  80  81
ATOM     81  S   UNL A   1      44.650  19.331  23.932  1.00  0.00     0.124 S 
ATOM     82  O   UNL A   1      43.438  18.906  24.625  1.00  0.00    -0.237 OA
ATOM     83  O   UNL A   1      44.514  19.556  22.495  1.00  0.00    -0.237 OA
ATOM     84  O   UNL A   1      45.876  18.645  24.334  1.00  0.00    -0.744 OA
ENDBRANCH  80  81
ENDBRANCH  52  75
BRANCH  64  85
ATOM     85  C   UNL A   1      50.534  28.103  25.852  1.00  0.00    -0.014 A 
ATOM     86  C   UNL A   1      51.548  27.777  26.768  1.00  0.00     0.010 A 
ATOM     87  C   UNL A   1      50.858  28.239  24.488  1.00  0.00     0.010 A 
ATOM     88  C   UNL A   1      52.862  27.593  26.328  1.00  0.00     0.020 A 
ATOM     89  C   UNL A   1      52.164  28.033  24.041  1.00  0.00     0.020 A 
ATOM     90  C   UNL A   1      53.161  27.716  24.967  1.00  0.00     0.054 A 
BRANCH  90  91
ATOM     91  S   UNL A   1      54.856  27.387  24.409  1.00  0.00     0.124 S 
ATOM     92  O   UNL A   1      54.864  25.930  24.308  1.00  0.00    -0.237 OA
ATOM     93  O   UNL A   1      54.921  28.106  23.139  1.00  0.00    -0.237 OA
ATOM     94  O   UNL A   1      55.686  27.943  25.476  1.00  0.00    -0.744 OA
ENDBRANCH  90  91
ENDBRANCH  64  85
ENDBRANCH  38  39
ENDBRANCH  31  33
ENDBRANCH  30  31
ENDBRANCH  29  30
ENDBRANCH  28  29
ENDBRANCH  27  28
ENDBRANCH   1  27
TORSDOF 23
ENDMDL
MODEL 2
REMARK VINA RESULT:      -8.7      1.832      9.351
REMARK SMILES CCOc1cc(OCC)cc(-c2ccc([C@@H](C)C(=O)OCCOCCOC(=O)c3ccc(-c4c5nc(c(-c6ccc(S(=O)(=O)[O-])cc6)c6ccc([nH]6)c(-c6ccc(S(=O)(=O)[O-])cc6)c6nc(c(-c7ccc(S(=O)(=O)[O-])cc7)c7ccc4[nH]7)C=C6)C=C5)cc3)cc2F)c1
REMARK SMILES IDX 22 1 21 2 20 3 18 4 19 5 16 6 17 7 15 8 12 9 13 10 90 11
REMARK SMILES IDX 14 12 89 13 91 14 11 15 4 16 5 17 92 18 6 19 10 20 3 21 2 22
REMARK SMILES IDX 1 23 7 24 8 25 9 26 23 27 24 28 25 29 26 30 27 31 28 32
REMARK SMILES IDX 29 33 30 34 88 35 31 36 87 37 32 38 33 39 34 40 81 41 35 42
REMARK SMILES IDX 86 43 80 44 82 45 36 46 85 47 79 48 78 49 37 51 67 52 48 53
REMARK SMILES IDX 66 54 49 55 52 56 65 57 83 58 50 59 51 60 64 62 84 63 53 64
REMARK SMILES IDX 38 65 39 66 47 67 40 68 46 69 41 70 42 71 43 72 44 73 45 74
REMARK SMILES IDX 68 75 69 76 77 77 70 78 76 79 71 80 72 81 73 82 74 83 75 84
REMARK SMILES IDX 54 85 55 86 63 87 56 88 62 89 57 90 58 91 59 92 60 93 61 94
REMARK H PARENT 82 50 52 61
REMARK Flexibility Score: inf
ROOT
ATOM      1  C   UNL A   1      39.578  30.918  34.455  1.00  0.00     0.202 C 
ENDROOT
BRANCH   1   2
ATOM      2  C   UNL A   1      41.004  30.416  34.217  1.00  0.00     0.261 C 
BRANCH   2   3
ATOM      3  O   UNL A   1      41.586  31.040  33.059  1.00  0.00    -0.463 OA
BRANCH   3   4
ATOM      4  C   UNL A   1      41.572  32.398  33.038  1.00  0.00     0.313 C 
ATOM      5  O   UNL A   1      41.751  33.111  34.020  1.00  0.00    -0.252 OA
BRANCH   4   6
ATOM      6  C   UNL A   1      41.269  32.982  31.668  1.00  0.00     0.126 C 
ATOM      7  C   UNL A   1      41.870  34.382  31.566  1.00  0.00     0.025 C 
BRANCH   6   8
ATOM      8  C   UNL A   1      39.822  32.956  31.190  1.00  0.00    -0.031 A 
ATOM      9  C   UNL A   1      37.203  33.094  30.070  1.00  0.00     0.018 A 
ATOM     10  C   UNL A   1      37.520  33.751  31.272  1.00  0.00     0.012 A 
ATOM     11  C   UNL A   1      38.205  32.312  29.486  1.00  0.00     0.131 A 
ATOM     12  C   UNL A   1      38.807  33.689  31.820  1.00  0.00     0.005 A 
ATOM     13  C   UNL A   1      39.489  32.239  30.030  1.00  0.00     0.044 A 
ATOM     14  F   UNL A   1      37.971  31.648  28.344  1.00  0.00    -0.206 F 
BRANCH   9  15
ATOM     15  C   UNL A   1      35.897  33.301  29.422  1.00  0.00    -0.008 A 
ATOM     16  C   UNL A   1      34.092  34.728  28.646  1.00  0.00     0.123 A 
ATOM     17  C   UNL A   1      33.373  33.614  28.214  1.00  0.00     0.092 A 
ATOM     18  C   UNL A   1      35.333  34.573  29.264  1.00  0.00     0.055 A 
ATOM     19  C   UNL A   1      33.897  32.334  28.388  1.00  0.00     0.123 A 
ATOM     20  C   UNL A   1      35.153  32.190  28.980  1.00  0.00     0.055 A 
BRANCH  16  21
ATOM     21  O   UNL A   1      33.482  35.953  28.576  1.00  0.00    -0.494 OA
BRANCH  21  22
ATOM     22  C   UNL A   1      33.480  36.666  29.818  1.00  0.00     0.226 C 
ATOM     23  C   UNL A   1      32.574  36.001  30.842  1.00  0.00     0.049 C 
ENDBRANCH  21  22
ENDBRANCH  16  21
BRANCH  19  24
ATOM     24  O   UNL A   1      33.114  31.305  27.939  1.00  0.00    -0.494 OA
BRANCH  24  25
ATOM     25  C   UNL A   1      33.491  30.660  26.720  1.00  0.00     0.226 C 
ATOM     26  C   UNL A   1      34.580  29.624  26.952  1.00  0.00     0.049 C 
ENDBRANCH  24  25
ENDBRANCH  19  24
ENDBRANCH   9  15
ENDBRANCH   6   8
ENDBRANCH   4   6
ENDBRANCH   3   4
ENDBRANCH   2   3
ENDBRANCH   1   2
BRANCH   1  27
ATOM     27  O   UNL A   1      38.529  30.068  33.989  1.00  0.00    -0.374 OA
BRANCH  27  28
ATOM     28  C   UNL A   1      37.299  30.693  33.617  1.00  0.00     0.202 C 
BRANCH  28  29
ATOM     29  C   UNL A   1      36.680  30.254  32.285  1.00  0.00     0.261 C 
BRANCH  29  30
ATOM     30  O   UNL A   1      37.338  29.101  31.730  1.00  0.00    -0.460 OA
BRANCH  30  31
ATOM     31  C   UNL A   1      37.209  28.962  30.391  1.00  0.00     0.338 C 
ATOM     32  O   UNL A   1      36.218  29.208  29.716  1.00  0.00    -0.246 OA
BRANCH  31  33
ATOM     33  C   UNL A   1      38.514  28.632  29.786  1.00  0.00     0.060 A 
ATOM     34  C   UNL A   1      39.559  28.278  30.650  1.00  0.00     0.016 A 
ATOM     35  C   UNL A   1      38.736  28.751  28.412  1.00  0.00     0.016 A 
ATOM     36  C   UNL A   1      40.849  28.103  30.153  1.00  0.00     0.010 A 
ATOM     37  C   UNL A   1      40.033  28.585  27.917  1.00  0.00     0.010 A 
ATOM     38  C   UNL A   1      41.102  28.304  28.791  1.00  0.00    -0.014 A 
BRANCH  38  39
ATOM     39  C   UNL A   1      42.498  28.420  28.306  1.00  0.00     0.031 A 
ATOM     40  C   UNL A   1      43.120  27.230  27.627  1.00  0.00     0.074 A 
ATOM     41  C   UNL A   1      43.200  29.557  28.458  1.00  0.00     0.049 A 
ATOM     42  N   UNL A   1      44.351  27.056  27.221  1.00  0.00    -0.248 NA
ATOM     43  C   UNL A   1      42.234  26.080  27.374  1.00  0.00     0.031 C 
ATOM     44  C   UNL A   1      42.689  30.799  29.036  1.00  0.00     0.029 A 
ATOM     45  N   UNL A   1      44.506  29.842  28.146  1.00  0.00    -0.354 N 
ATOM     46  C   UNL A   1      44.394  25.773  26.688  1.00  0.00     0.074 A 
ATOM     47  C   UNL A   1      43.071  25.207  26.835  1.00  0.00     0.031 C 
ATOM     48  C   UNL A   1      43.679  31.710  29.054  1.00  0.00     0.029 A 
ATOM     49  C   UNL A   1      44.901  31.102  28.530  1.00  0.00     0.049 A 
ATOM     50  H   UNL A   1      45.103  29.205  27.692  1.00  0.00     0.167 HD
ATOM     51  C   UNL A   1      45.441  25.124  26.128  1.00  0.00     0.031 A 
ATOM     52  C   UNL A   1      46.116  31.685  28.492  1.00  0.00     0.031 A 
ATOM     53  C   UNL A   1      46.756  25.688  25.990  1.00  0.00     0.049 A 
ATOM     54  C   UNL A   1      47.288  30.917  27.935  1.00  0.00     0.074 A 
ATOM     55  C   UNL A   1      47.885  25.112  25.436  1.00  0.00     0.029 A 
ATOM     56  N   UNL A   1      47.117  26.958  26.411  1.00  0.00    -0.354 N 
ATOM     57  N   UNL A   1      47.316  29.702  27.439  1.00  0.00    -0.248 NA
ATOM     58  C   UNL A   1      48.592  31.598  27.930  1.00  0.00     0.031 C 
ATOM     59  C   UNL A   1      48.943  26.016  25.568  1.00  0.00     0.029 A 
ATOM     60  C   UNL A   1      48.456  27.178  26.146  1.00  0.00     0.049 A 
ATOM     61  H   UNL A   1      46.511  27.607  26.836  1.00  0.00     0.167 HD
ATOM     62  C   UNL A   1      48.628  29.491  27.026  1.00  0.00     0.074 A 
ATOM     63  C   UNL A   1      49.364  30.699  27.334  1.00  0.00     0.031 C 
ATOM     64  C   UNL A   1      49.170  28.396  26.438  1.00  0.00     0.031 A 
BRANCH  51  65
ATOM     65  C   UNL A   1      45.216  23.710  25.662  1.00  0.00    -0.014 A 
ATOM     66  C   UNL A   1      45.852  22.624  26.289  1.00  0.00     0.010 A 
ATOM     67  C   UNL A   1      44.328  23.464  24.599  1.00  0.00     0.010 A 
ATOM     68  C   UNL A   1      45.635  21.320  25.834  1.00  0.00     0.020 A 
ATOM     69  C   UNL A   1      44.088  22.160  24.159  1.00  0.00     0.020 A 
ATOM     70  C   UNL A   1      44.758  21.097  24.768  1.00  0.00     0.054 A 
BRANCH  70  71
ATOM     71  S   UNL A   1      44.482  19.395  24.208  1.00  0.00     0.124 S 
ATOM     72  O   UNL A   1      44.603  19.533  22.758  1.00  0.00    -0.237 OA
ATOM     73  O   UNL A   1      45.565  18.662  24.860  1.00  0.00    -0.237 OA
ATOM     74  O   UNL A   1      43.141  19.082  24.693  1.00  0.00    -0.744 OA
ENDBRANCH  70  71
ENDBRANCH  51  65
BRANCH  52  75
ATOM     75  C   UNL A   1      46.294  33.064  29.023  1.00  0.00    -0.014 A 
ATOM     76  C   UNL A   1      46.612  33.278  30.375  1.00  0.00     0.010 A 
ATOM     77  C   UNL A   1      46.150  34.175  28.171  1.00  0.00     0.010 A 
ATOM     78  C   UNL A   1      46.770  34.577  30.869  1.00  0.00     0.020 A 
ATOM     79  C   UNL A   1      46.334  35.474  28.655  1.00  0.00     0.020 A 
ATOM     80  C   UNL A   1      46.633  35.666  30.003  1.00  0.00     0.054 A 
BRANCH  80  81
ATOM     81  S   UNL A   1      46.897  37.340  30.653  1.00  0.00     0.124 S 
ATOM     82  O   UNL A   1      47.421  38.040  29.485  1.00  0.00    -0.237 OA
ATOM     83  O   UNL A   1      45.555  37.730  31.077  1.00  0.00    -0.237 OA
ATOM     84  O   UNL A   1      47.851  37.136  31.741  1.00  0.00    -0.744 OA
ENDBRANCH  80  81
ENDBRANCH  52  75
BRANCH  64  85
ATOM     85  C   UNL A   1      50.614  28.461  26.017  1.00  0.00    -0.014 A 
ATOM     86  C   UNL A   1      51.652  28.151  26.911  1.00  0.00     0.010 A 
ATOM     87  C   UNL A   1      50.922  28.726  24.670  1.00  0.00     0.010 A 
ATOM     88  C   UNL A   1      52.977  28.111  26.464  1.00  0.00     0.020 A 
ATOM     89  C   UNL A   1      52.241  28.664  24.214  1.00  0.00     0.020 A 
ATOM     90  C   UNL A   1      53.262  28.362  25.118  1.00  0.00     0.054 A 
BRANCH  90  91
ATOM     91  S   UNL A   1      54.978  28.218  24.544  1.00  0.00     0.124 S 
ATOM     92  O   UNL A   1      55.103  26.780  24.320  1.00  0.00    -0.237 OA
ATOM     93  O   UNL A   1      54.983  29.045  23.340  1.00  0.00    -0.237 OA
ATOM     94  O   UNL A   1      55.761  28.745  25.659  1.00  0.00    -0.744 OA
ENDBRANCH  90  91
ENDBRANCH  64  85
ENDBRANCH  38  39
ENDBRANCH  31  33
ENDBRANCH  30  31
ENDBRANCH  29  30
ENDBRANCH  28  29
ENDBRANCH  27  28
ENDBRANCH   1  27
TORSDOF 23
ENDMDL
MODEL 3
REMARK VINA RESULT:      -8.3      5.237     12.918
REMARK SMILES CCOc1cc(OCC)cc(-c2ccc([C@@H](C)C(=O)OCCOCCOC(=O)c3ccc(-c4c5nc(c(-c6ccc(S(=O)(=O)[O-])cc6)c6ccc([nH]6)c(-c6ccc(S(=O)(=O)[O-])cc6)c6nc(c(-c7ccc(S(=O)(=O)[O-])cc7)c7ccc4[nH]7)C=C6)C=C5)cc3)cc2F)c1
REMARK SMILES IDX 22 1 21 2 20 3 18 4 19 5 16 6 17 7 15 8 12 9 13 10 90 11
REMARK SMILES IDX 14 12 89 13 91 14 11 15 4 16 5 17 92 18 6 19 10 20 3 21 2 22
REMARK SMILES IDX 1 23 7 24 8 25 9 26 23 27 24 28 25 29 26 30 27 31 28 32
REMARK SMILES IDX 29 33 30 34 88 35 31 36 87 37 32 38 33 39 34 40 81 41 35 42
REMARK SMILES IDX 86 43 80 44 82 45 36 46 85 47 79 48 78 49 37 51 67 52 48 53
REMARK SMILES IDX 66 54 49 55 52 56 65 57 83 58 50 59 51 60 64 62 84 63 53 64
REMARK SMILES IDX 38 65 39 66 47 67 40 68 46 69 41 70 42 71 43 72 44 73 45 74
REMARK SMILES IDX 68 75 69 76 77 77 70 78 76 79 71 80 72 81 73 82 74 83 75 84
REMARK SMILES IDX 54 85 55 86 63 87 56 88 62 89 57 90 58 91 59 92 60 93 61 94
REMARK H PARENT 82 50 52 61
REMARK Flexibility Score: inf
ROOT
ATOM      1  C   UNL A   1      44.477  26.491  28.042  1.00  0.00     0.202 C 
ENDROOT
BRANCH   1   2
ATOM      2  C   UNL A   1      43.634  27.704  28.442  1.00  0.00     0.261 C 
BRANCH   2   3
ATOM      3  O   UNL A   1      44.344  28.931  28.199  1.00  0.00    -0.463 OA
BRANCH   3   4
ATOM      4  C   UNL A   1      43.816  29.753  27.255  1.00  0.00     0.313 C 
ATOM      5  O   UNL A   1      43.519  29.405  26.117  1.00  0.00    -0.252 OA
BRANCH   4   6
ATOM      6  C   UNL A   1      43.652  31.190  27.723  1.00  0.00     0.126 C 
ATOM      7  C   UNL A   1      44.469  32.116  26.824  1.00  0.00     0.025 C 
BRANCH   6   8
ATOM      8  C   UNL A   1      43.891  31.487  29.199  1.00  0.00    -0.031 A 
ATOM      9  C   UNL A   1      44.224  32.322  31.905  1.00  0.00     0.018 A 
ATOM     10  C   UNL A   1      45.326  32.164  31.047  1.00  0.00     0.012 A 
ATOM     11  C   UNL A   1      42.965  31.983  31.396  1.00  0.00     0.131 A 
ATOM     12  C   UNL A   1      45.164  31.759  29.716  1.00  0.00     0.005 A 
ATOM     13  C   UNL A   1      42.795  31.573  30.073  1.00  0.00     0.044 A 
ATOM     14  F   UNL A   1      41.869  32.099  32.161  1.00  0.00    -0.206 F 
BRANCH   9  15
ATOM     15  C   UNL A   1      44.393  32.903  33.248  1.00  0.00    -0.008 A 
ATOM     16  C   UNL A   1      45.448  32.977  35.434  1.00  0.00     0.123 A 
ATOM     17  C   UNL A   1      44.625  34.037  35.814  1.00  0.00     0.092 A 
ATOM     18  C   UNL A   1      45.319  32.401  34.170  1.00  0.00     0.055 A 
ATOM     19  C   UNL A   1      43.672  34.536  34.927  1.00  0.00     0.123 A 
ATOM     20  C   UNL A   1      43.570  33.972  33.653  1.00  0.00     0.055 A 
BRANCH  16  21
ATOM     21  O   UNL A   1      46.275  32.434  36.380  1.00  0.00    -0.494 OA
BRANCH  21  22
ATOM     22  C   UNL A   1      47.534  33.106  36.497  1.00  0.00     0.226 C 
ATOM     23  C   UNL A   1      48.697  32.158  36.254  1.00  0.00     0.049 C 
ENDBRANCH  21  22
ENDBRANCH  16  21
BRANCH  19  24
ATOM     24  O   UNL A   1      42.909  35.571  35.395  1.00  0.00    -0.494 OA
BRANCH  24  25
ATOM     25  C   UNL A   1      43.444  36.893  35.303  1.00  0.00     0.226 C 
ATOM     26  C   UNL A   1      43.541  37.552  36.671  1.00  0.00     0.049 C 
ENDBRANCH  24  25
ENDBRANCH  19  24
ENDBRANCH   9  15
ENDBRANCH   6   8
ENDBRANCH   4   6
ENDBRANCH   3   4
ENDBRANCH   2   3
ENDBRANCH   1   2
BRANCH   1  27
ATOM     27  O   UNL A   1      43.994  25.221  28.479  1.00  0.00    -0.374 OA
BRANCH  27  28
ATOM     28  C   UNL A   1      43.450  24.351  27.485  1.00  0.00     0.202 C 
BRANCH  28  29
ATOM     29  C   UNL A   1      42.219  24.859  26.725  1.00  0.00     0.261 C 
BRANCH  29  30
ATOM     30  O   UNL A   1      40.997  24.624  27.445  1.00  0.00    -0.460 OA
BRANCH  30  31
ATOM     31  C   UNL A   1      39.958  25.407  27.076  1.00  0.00     0.338 C 
ATOM     32  O   UNL A   1      39.212  25.240  26.120  1.00  0.00    -0.246 OA
BRANCH  31  33
ATOM     33  C   UNL A   1      39.705  26.435  28.103  1.00  0.00     0.060 A 
ATOM     34  C   UNL A   1      40.251  27.709  27.895  1.00  0.00     0.016 A 
ATOM     35  C   UNL A   1      39.025  26.139  29.286  1.00  0.00     0.016 A 
ATOM     36  C   UNL A   1      40.176  28.676  28.895  1.00  0.00     0.010 A 
ATOM     37  C   UNL A   1      38.959  27.107  30.293  1.00  0.00     0.010 A 
ATOM     38  C   UNL A   1      39.572  28.363  30.119  1.00  0.00    -0.014 A 
BRANCH  38  39
ATOM     39  C   UNL A   1      39.751  29.262  31.284  1.00  0.00     0.031 A 
ATOM     40  C   UNL A   1      40.925  29.026  32.196  1.00  0.00     0.074 A 
ATOM     41  C   UNL A   1      38.895  30.269  31.529  1.00  0.00     0.049 A 
ATOM     42  N   UNL A   1      41.225  29.606  33.329  1.00  0.00    -0.248 NA
ATOM     43  C   UNL A   1      41.889  27.995  31.772  1.00  0.00     0.031 C 
ATOM     44  C   UNL A   1      37.760  30.643  30.686  1.00  0.00     0.029 A 
ATOM     45  N   UNL A   1      38.844  31.157  32.575  1.00  0.00    -0.354 N 
ATOM     46  C   UNL A   1      42.396  28.996  33.765  1.00  0.00     0.074 A 
ATOM     47  C   UNL A   1      42.744  27.992  32.784  1.00  0.00     0.031 C 
ATOM     48  C   UNL A   1      37.114  31.674  31.258  1.00  0.00     0.029 A 
ATOM     49  C   UNL A   1      37.762  32.004  32.527  1.00  0.00     0.049 A 
ATOM     50  H   UNL A   1      39.519  31.185  33.291  1.00  0.00     0.167 HD
ATOM     51  C   UNL A   1      43.115  29.248  34.883  1.00  0.00     0.031 A 
ATOM     52  C   UNL A   1      37.328  32.916  33.419  1.00  0.00     0.031 A 
ATOM     53  C   UNL A   1      42.762  30.243  35.859  1.00  0.00     0.049 A 
ATOM     54  C   UNL A   1      38.101  33.129  34.696  1.00  0.00     0.074 A 
ATOM     55  C   UNL A   1      43.425  30.576  37.026  1.00  0.00     0.029 A 
ATOM     56  N   UNL A   1      41.647  31.063  35.781  1.00  0.00    -0.354 N 
ATOM     57  N   UNL A   1      39.203  32.542  35.098  1.00  0.00    -0.248 NA
ATOM     58  C   UNL A   1      37.574  34.128  35.638  1.00  0.00     0.031 C 
ATOM     59  C   UNL A   1      42.684  31.564  37.680  1.00  0.00     0.029 A 
ATOM     60  C   UNL A   1      41.593  31.889  36.888  1.00  0.00     0.049 A 
ATOM     61  H   UNL A   1      40.990  31.057  35.047  1.00  0.00     0.167 HD
ATOM     62  C   UNL A   1      39.523  33.130  36.318  1.00  0.00     0.074 A 
ATOM     63  C   UNL A   1      38.496  34.114  36.591  1.00  0.00     0.031 C 
ATOM     64  C   UNL A   1      40.576  32.881  37.134  1.00  0.00     0.031 A 
BRANCH  51  65
ATOM     65  C   UNL A   1      44.336  28.402  35.131  1.00  0.00    -0.014 A 
ATOM     66  C   UNL A   1      44.249  27.181  35.822  1.00  0.00     0.010 A 
ATOM     67  C   UNL A   1      45.583  28.824  34.638  1.00  0.00     0.010 A 
ATOM     68  C   UNL A   1      45.397  26.416  36.050  1.00  0.00     0.020 A 
ATOM     69  C   UNL A   1      46.728  28.050  34.839  1.00  0.00     0.020 A 
ATOM     70  C   UNL A   1      46.630  26.857  35.561  1.00  0.00     0.054 A 
BRANCH  70  71
ATOM     71  S   UNL A   1      48.101  25.839  35.856  1.00  0.00     0.124 S 
ATOM     72  O   UNL A   1      49.179  26.757  35.498  1.00  0.00    -0.237 OA
ATOM     73  O   UNL A   1      47.992  25.522  37.278  1.00  0.00    -0.237 OA
ATOM     74  O   UNL A   1      47.924  24.704  34.953  1.00  0.00    -0.744 OA
ENDBRANCH  70  71
ENDBRANCH  51  65
BRANCH  52  75
ATOM     75  C   UNL A   1      36.080  33.681  33.149  1.00  0.00    -0.014 A 
ATOM     76  C   UNL A   1      36.135  35.000  32.665  1.00  0.00     0.010 A 
ATOM     77  C   UNL A   1      34.823  33.088  33.373  1.00  0.00     0.010 A 
ATOM     78  C   UNL A   1      34.958  35.715  32.422  1.00  0.00     0.020 A 
ATOM     79  C   UNL A   1      33.645  33.790  33.106  1.00  0.00     0.020 A 
ATOM     80  C   UNL A   1      33.720  35.103  32.641  1.00  0.00     0.054 A 
BRANCH  80  81
ATOM     81  S   UNL A   1      32.206  36.031  32.265  1.00  0.00     0.124 S 
ATOM     82  O   UNL A   1      32.369  37.225  33.088  1.00  0.00    -0.237 OA
ATOM     83  O   UNL A   1      32.310  36.235  30.823  1.00  0.00    -0.237 OA
ATOM     84  O   UNL A   1      31.139  35.123  32.682  1.00  0.00    -0.744 OA
ENDBRANCH  80  81
ENDBRANCH  52  75
BRANCH  64  85
ATOM     85  C   UNL A   1      40.728  33.724  38.372  1.00  0.00    -0.014 A 
ATOM     86  C   UNL A   1      41.373  34.971  38.335  1.00  0.00     0.010 A 
ATOM     87  C   UNL A   1      40.110  33.304  39.565  1.00  0.00     0.010 A 
ATOM     88  C   UNL A   1      41.402  35.783  39.473  1.00  0.00     0.020 A 
ATOM     89  C   UNL A   1      40.117  34.122  40.697  1.00  0.00     0.020 A 
ATOM     90  C   UNL A   1      40.769  35.356  40.646  1.00  0.00     0.054 A 
BRANCH  90  91
ATOM     91  S   UNL A   1      40.745  36.465  42.082  1.00  0.00     0.124 S 
ATOM     92  O   UNL A   1      41.526  37.601  41.601  1.00  0.00    -0.237 OA
ATOM     93  O   UNL A   1      39.317  36.716  42.268  1.00  0.00    -0.237 OA
ATOM     94  O   UNL A   1      41.376  35.676  43.139  1.00  0.00    -0.744 OA
ENDBRANCH  90  91
ENDBRANCH  64  85
ENDBRANCH  38  39
ENDBRANCH  31  33
ENDBRANCH  30  31
ENDBRANCH  29  30
ENDBRANCH  28  29
ENDBRANCH  27  28
ENDBRANCH   1  27
TORSDOF 23
ENDMDL
