MODEL 1
REMARK VINA RESULT:      -8.9      0.000      0.000
REMARK SMILES O=C(/C=C/c1ccc(O)c(O)c1)OCCOCCOC(=O)c1ccc(-c2c3nc(c(-c4ccc(S(=O)(=O)[O-])cc4)c4ccc([nH]4)c(-c4ccc(S(=O)(=O)[O-])cc4)c4nc(c(-c5ccc(S(=O)(=O)[O-])cc5)c5ccc2[nH]5)C=C4)C=C3)cc1
REMARK SMILES IDX 17 1 16 2 15 3 14 4 13 5 2 6 1 7 3 8 4 9 5 10 6 11 12 12
REMARK SMILES IDX 7 13 10 14 8 15 11 16 9 18 18 20 19 21 20 22 21 23 22 24
REMARK SMILES IDX 23 25 81 26 24 27 80 28 25 29 26 30 27 31 74 32 28 33 79 34
REMARK SMILES IDX 73 35 75 36 29 37 78 38 72 39 71 40 30 42 60 43 41 44 59 45
REMARK SMILES IDX 42 46 45 47 58 48 76 49 43 50 44 51 57 53 77 54 46 55 31 56
REMARK SMILES IDX 32 57 40 58 33 59 39 60 34 61 35 62 36 63 37 64 38 65 61 66
REMARK SMILES IDX 62 67 70 68 63 69 69 70 64 71 65 72 66 73 67 74 68 75 47 76
REMARK SMILES IDX 48 77 56 78 49 79 55 80 50 81 51 82 52 83 53 84 54 85
REMARK H PARENT 11 17 9 19 75 41 45 52
REMARK Flexibility Score: inf
ROOT
ATOM      1  C   UNL A   1      34.022  34.145  28.463  1.00  0.00     0.202 C 
ENDROOT
BRANCH   1   2
ATOM      2  O   UNL A   1      32.956  35.058  28.752  1.00  0.00    -0.374 OA
BRANCH   2   3
ATOM      3  C   UNL A   1      33.267  36.030  29.746  1.00  0.00     0.202 C 
BRANCH   3   4
ATOM      4  C   UNL A   1      32.688  35.775  31.135  1.00  0.00     0.261 C 
BRANCH   4   5
ATOM      5  O   UNL A   1      33.407  34.810  31.925  1.00  0.00    -0.460 OA
BRANCH   5   6
ATOM      6  C   UNL A   1      34.549  34.994  32.620  1.00  0.00     0.330 C 
ATOM      7  O   UNL A   1      34.934  36.131  32.889  1.00  0.00    -0.247 OA
BRANCH   6   8
ATOM      8  C   UNL A   1      35.443  33.873  32.951  1.00  0.00     0.094 C 
ATOM      9  C   UNL A   1      36.520  33.454  32.276  1.00  0.00     0.016 C 
BRANCH   9  10
ATOM     10  C   UNL A   1      37.387  32.390  32.777  1.00  0.00    -0.021 A 
ATOM     11  C   UNL A   1      38.635  32.691  33.336  1.00  0.00     0.012 A 
ATOM     12  C   UNL A   1      36.932  31.065  32.751  1.00  0.00     0.058 A 
ATOM     13  C   UNL A   1      39.412  31.683  33.911  1.00  0.00     0.051 A 
ATOM     14  C   UNL A   1      37.711  30.070  33.325  1.00  0.00     0.157 A 
ATOM     15  C   UNL A   1      38.934  30.376  33.916  1.00  0.00     0.157 A 
BRANCH  14  16
ATOM     16  O   UNL A   1      37.252  28.784  33.332  1.00  0.00    -0.504 OA
ATOM     17  H   UNL A   1      37.726  28.121  33.794  1.00  0.00     0.293 HD
ENDBRANCH  14  16
BRANCH  15  18
ATOM     18  O   UNL A   1      39.629  29.359  34.509  1.00  0.00    -0.504 OA
ATOM     19  H   UNL A   1      40.565  29.385  34.535  1.00  0.00     0.293 HD
ENDBRANCH  15  18
ENDBRANCH   9  10
ENDBRANCH   6   8
ENDBRANCH   5   6
ENDBRANCH   4   5
ENDBRANCH   3   4
ENDBRANCH   2   3
ENDBRANCH   1   2
BRANCH   1  20
ATOM     20  C   UNL A   1      33.555  32.753  28.020  1.00  0.00     0.261 C 
BRANCH  20  21
ATOM     21  O   UNL A   1      34.328  31.721  28.653  1.00  0.00    -0.460 OA
BRANCH  21  22
ATOM     22  C   UNL A   1      34.547  30.623  27.888  1.00  0.00     0.338 C 
ATOM     23  O   UNL A   1      33.831  30.184  27.004  1.00  0.00    -0.246 OA
BRANCH  22  24
ATOM     24  C   UNL A   1      35.924  30.141  28.134  1.00  0.00     0.060 A 
ATOM     25  C   UNL A   1      36.203  29.580  29.387  1.00  0.00     0.016 A 
ATOM     26  C   UNL A   1      36.914  30.207  27.151  1.00  0.00     0.016 A 
ATOM     27  C   UNL A   1      37.484  29.117  29.676  1.00  0.00     0.010 A 
ATOM     28  C   UNL A   1      38.201  29.755  27.445  1.00  0.00     0.010 A 
ATOM     29  C   UNL A   1      38.498  29.241  28.720  1.00  0.00    -0.014 A 
BRANCH  29  30
ATOM     30  C   UNL A   1      39.907  29.020  29.113  1.00  0.00     0.031 A 
ATOM     31  C   UNL A   1      40.539  27.699  28.770  1.00  0.00     0.074 A 
ATOM     32  C   UNL A   1      40.611  29.972  29.751  1.00  0.00     0.049 A 
ATOM     33  N   UNL A   1      41.732  27.252  29.059  1.00  0.00    -0.248 NA
ATOM     34  C   UNL A   1      39.709  26.753  28.005  1.00  0.00     0.031 C 
ATOM     35  C   UNL A   1      40.115  31.303  30.097  1.00  0.00     0.029 A 
ATOM     36  N   UNL A   1      41.896  29.956  30.229  1.00  0.00    -0.354 N 
ATOM     37  C   UNL A   1      41.789  25.968  28.528  1.00  0.00     0.074 A 
ATOM     38  C   UNL A   1      40.504  25.698  27.924  1.00  0.00     0.031 C 
ATOM     39  C   UNL A   1      41.083  31.973  30.747  1.00  0.00     0.029 A 
ATOM     40  C   UNL A   1      42.251  31.106  30.892  1.00  0.00     0.049 A 
ATOM     41  H   UNL A   1      42.506  29.192  30.110  1.00  0.00     0.167 HD
ATOM     42  C   UNL A   1      42.823  25.094  28.541  1.00  0.00     0.031 A 
ATOM     43  C   UNL A   1      43.382  31.412  31.561  1.00  0.00     0.031 A 
ATOM     44  C   UNL A   1      44.093  25.370  29.154  1.00  0.00     0.049 A 
ATOM     45  C   UNL A   1      44.497  30.400  31.615  1.00  0.00     0.074 A 
ATOM     46  C   UNL A   1      45.216  24.563  29.204  1.00  0.00     0.029 A 
ATOM     47  N   UNL A   1      44.409  26.538  29.833  1.00  0.00    -0.354 N 
ATOM     48  N   UNL A   1      44.550  29.201  31.082  1.00  0.00    -0.248 NA
ATOM     49  C   UNL A   1      45.710  30.786  32.350  1.00  0.00     0.031 C 
ATOM     50  C   UNL A   1      46.187  25.216  29.969  1.00  0.00     0.029 A 
ATOM     51  C   UNL A   1      45.697  26.461  30.332  1.00  0.00     0.049 A 
ATOM     52  H   UNL A   1      43.804  27.307  29.943  1.00  0.00     0.167 HD
ATOM     53  C   UNL A   1      45.812  28.701  31.394  1.00  0.00     0.074 A 
ATOM     54  C   UNL A   1      46.493  29.734  32.148  1.00  0.00     0.031 C 
ATOM     55  C   UNL A   1      46.358  27.500  31.082  1.00  0.00     0.031 A 
BRANCH  42  56
ATOM     56  C   UNL A   1      42.605  23.745  27.909  1.00  0.00    -0.014 A 
ATOM     57  C   UNL A   1      43.055  23.462  26.607  1.00  0.00     0.010 A 
ATOM     58  C   UNL A   1      41.970  22.730  28.648  1.00  0.00     0.010 A 
ATOM     59  C   UNL A   1      42.845  22.200  26.044  1.00  0.00     0.020 A 
ATOM     60  C   UNL A   1      41.785  21.457  28.101  1.00  0.00     0.020 A 
ATOM     61  C   UNL A   1      42.212  21.206  26.796  1.00  0.00     0.054 A 
BRANCH  61  62
ATOM     62  S   UNL A   1      41.986  19.566  26.054  1.00  0.00     0.124 S 
ATOM     63  O   UNL A   1      42.482  18.686  27.109  1.00  0.00    -0.237 OA
ATOM     64  O   UNL A   1      40.546  19.517  25.821  1.00  0.00    -0.237 OA
ATOM     65  O   UNL A   1      42.808  19.614  24.847  1.00  0.00    -0.744 OA
ENDBRANCH  61  62
ENDBRANCH  42  56
BRANCH  43  66
ATOM     66  C   UNL A   1      43.504  32.726  32.249  1.00  0.00    -0.014 A 
ATOM     67  C   UNL A   1      43.027  32.901  33.561  1.00  0.00     0.010 A 
ATOM     68  C   UNL A   1      44.111  33.815  31.595  1.00  0.00     0.010 A 
ATOM     69  C   UNL A   1      43.144  34.141  34.198  1.00  0.00     0.020 A 
ATOM     70  C   UNL A   1      44.256  35.047  32.238  1.00  0.00     0.020 A 
ATOM     71  C   UNL A   1      43.764  35.203  33.535  1.00  0.00     0.054 A 
BRANCH  71  72
ATOM     72  S   UNL A   1      43.958  36.784  34.406  1.00  0.00     0.124 S 
ATOM     73  O   UNL A   1      42.574  37.221  34.558  1.00  0.00    -0.237 OA
ATOM     74  O   UNL A   1      44.634  36.382  35.637  1.00  0.00    -0.237 OA
ATOM     75  O   UNL A   1      44.771  37.581  33.490  1.00  0.00    -0.744 OA
ENDBRANCH  71  72
ENDBRANCH  43  66
BRANCH  55  76
ATOM     76  C   UNL A   1      47.778  27.245  31.519  1.00  0.00    -0.014 A 
ATOM     77  C   UNL A   1      48.069  26.508  32.680  1.00  0.00     0.010 A 
ATOM     78  C   UNL A   1      48.839  27.700  30.713  1.00  0.00     0.010 A 
ATOM     79  C   UNL A   1      49.394  26.261  33.046  1.00  0.00     0.020 A 
ATOM     80  C   UNL A   1      50.165  27.427  31.058  1.00  0.00     0.020 A 
ATOM     81  C   UNL A   1      50.434  26.721  32.232  1.00  0.00     0.054 A 
BRANCH  81  82
ATOM     82  S   UNL A   1      52.145  26.351  32.708  1.00  0.00     0.124 S 
ATOM     83  O   UNL A   1      52.783  27.658  32.588  1.00  0.00    -0.237 OA
ATOM     84  O   UNL A   1      51.995  25.846  34.070  1.00  0.00    -0.237 OA
ATOM     85  O   UNL A   1      52.571  25.358  31.725  1.00  0.00    -0.744 OA
ENDBRANCH  81  82
ENDBRANCH  55  76
ENDBRANCH  29  30
ENDBRANCH  22  24
ENDBRANCH  21  22
ENDBRANCH  20  21
ENDBRANCH   1  20
TORSDOF 20
ENDMDL
MODEL 2
REMARK VINA RESULT:      -8.8      4.551     10.434
REMARK SMILES O=C(/C=C/c1ccc(O)c(O)c1)OCCOCCOC(=O)c1ccc(-c2c3nc(c(-c4ccc(S(=O)(=O)[O-])cc4)c4ccc([nH]4)c(-c4ccc(S(=O)(=O)[O-])cc4)c4nc(c(-c5ccc(S(=O)(=O)[O-])cc5)c5ccc2[nH]5)C=C4)C=C3)cc1
REMARK SMILES IDX 17 1 16 2 15 3 14 4 13 5 2 6 1 7 3 8 4 9 5 10 6 11 12 12
REMARK SMILES IDX 7 13 10 14 8 15 11 16 9 18 18 20 19 21 20 22 21 23 22 24
REMARK SMILES IDX 23 25 81 26 24 27 80 28 25 29 26 30 27 31 74 32 28 33 79 34
REMARK SMILES IDX 73 35 75 36 29 37 78 38 72 39 71 40 30 42 60 43 41 44 59 45
REMARK SMILES IDX 42 46 45 47 58 48 76 49 43 50 44 51 57 53 77 54 46 55 31 56
REMARK SMILES IDX 32 57 40 58 33 59 39 60 34 61 35 62 36 63 37 64 38 65 61 66
REMARK SMILES IDX 62 67 70 68 63 69 69 70 64 71 65 72 66 73 67 74 68 75 47 76
REMARK SMILES IDX 48 77 56 78 49 79 55 80 50 81 51 82 52 83 53 84 54 85
REMARK H PARENT 11 17 9 19 75 41 45 52
REMARK Flexibility Score: inf
ROOT
ATOM      1  C   UNL A   1      36.708  21.892  24.222  1.00  0.00     0.202 C 
ENDROOT
BRANCH   1   2
ATOM      2  O   UNL A   1      35.610  22.570  24.844  1.00  0.00    -0.374 OA
BRANCH   2   3
ATOM      3  C   UNL A   1      35.328  23.856  24.299  1.00  0.00     0.202 C 
BRANCH   3   4
ATOM      4  C   UNL A   1      34.109  24.572  24.873  1.00  0.00     0.261 C 
BRANCH   4   5
ATOM      5  O   UNL A   1      33.090  24.904  23.912  1.00  0.00    -0.460 OA
BRANCH   5   6
ATOM      6  C   UNL A   1      31.988  24.193  23.593  1.00  0.00     0.330 C 
ATOM      7  O   UNL A   1      30.967  24.768  23.220  1.00  0.00    -0.247 OA
BRANCH   6   8
ATOM      8  C   UNL A   1      31.914  22.741  23.815  1.00  0.00     0.094 C 
ATOM      9  C   UNL A   1      32.476  21.769  23.085  1.00  0.00     0.016 C 
BRANCH   9  10
ATOM     10  C   UNL A   1      32.412  20.364  23.482  1.00  0.00    -0.021 A 
ATOM     11  C   UNL A   1      32.345  19.353  22.515  1.00  0.00     0.012 A 
ATOM     12  C   UNL A   1      32.483  20.030  24.841  1.00  0.00     0.058 A 
ATOM     13  C   UNL A   1      32.393  18.009  22.895  1.00  0.00     0.051 A 
ATOM     14  C   UNL A   1      32.531  18.693  25.208  1.00  0.00     0.157 A 
ATOM     15  C   UNL A   1      32.503  17.689  24.245  1.00  0.00     0.157 A 
BRANCH  14  16
ATOM     16  O   UNL A   1      32.636  18.368  26.530  1.00  0.00    -0.504 OA
ATOM     17  H   UNL A   1      33.239  18.829  27.079  1.00  0.00     0.293 HD
ENDBRANCH  14  16
BRANCH  15  18
ATOM     18  O   UNL A   1      32.605  16.394  24.669  1.00  0.00    -0.504 OA
ATOM     19  H   UNL A   1      32.916  16.207  25.533  1.00  0.00     0.293 HD
ENDBRANCH  15  18
ENDBRANCH   9  10
ENDBRANCH   6   8
ENDBRANCH   5   6
ENDBRANCH   4   5
ENDBRANCH   3   4
ENDBRANCH   2   3
ENDBRANCH   1   2
BRANCH   1  20
ATOM     20  C   UNL A   1      37.861  21.553  25.176  1.00  0.00     0.261 C 
BRANCH  20  21
ATOM     21  O   UNL A   1      38.135  22.646  26.066  1.00  0.00    -0.460 OA
BRANCH  21  22
ATOM     22  C   UNL A   1      39.447  22.834  26.352  1.00  0.00     0.338 C 
ATOM     23  O   UNL A   1      40.384  22.131  26.012  1.00  0.00    -0.246 OA
BRANCH  22  24
ATOM     24  C   UNL A   1      39.613  24.168  26.966  1.00  0.00     0.060 A 
ATOM     25  C   UNL A   1      40.277  25.152  26.219  1.00  0.00     0.016 A 
ATOM     26  C   UNL A   1      39.104  24.465  28.233  1.00  0.00     0.016 A 
ATOM     27  C   UNL A   1      40.468  26.424  26.752  1.00  0.00     0.010 A 
ATOM     28  C   UNL A   1      39.306  25.737  28.772  1.00  0.00     0.010 A 
ATOM     29  C   UNL A   1      40.020  26.708  28.047  1.00  0.00    -0.014 A 
BRANCH  29  30
ATOM     30  C   UNL A   1      40.465  27.948  28.721  1.00  0.00     0.031 A 
ATOM     31  C   UNL A   1      41.861  27.989  29.279  1.00  0.00     0.074 A 
ATOM     32  C   UNL A   1      39.651  29.014  28.828  1.00  0.00     0.049 A 
ATOM     33  N   UNL A   1      42.453  28.935  29.958  1.00  0.00    -0.248 NA
ATOM     34  C   UNL A   1      42.697  26.799  29.044  1.00  0.00     0.031 C 
ATOM     35  C   UNL A   1      38.294  29.101  28.289  1.00  0.00     0.029 A 
ATOM     36  N   UNL A   1      39.851  30.226  29.437  1.00  0.00    -0.354 N 
ATOM     37  C   UNL A   1      43.723  28.447  30.248  1.00  0.00     0.074 A 
ATOM     38  C   UNL A   1      43.806  27.115  29.695  1.00  0.00     0.031 C 
ATOM     39  C   UNL A   1      37.778  30.302  28.605  1.00  0.00     0.029 A 
ATOM     40  C   UNL A   1      38.753  31.050  29.397  1.00  0.00     0.049 A 
ATOM     41  H   UNL A   1      40.702  30.480  29.864  1.00  0.00     0.167 HD
ATOM     42  C   UNL A   1      44.731  29.060  30.913  1.00  0.00     0.031 A 
ATOM     43  C   UNL A   1      38.551  32.260  29.957  1.00  0.00     0.031 A 
ATOM     44  C   UNL A   1      44.634  30.382  31.468  1.00  0.00     0.049 A 
ATOM     45  C   UNL A   1      39.666  32.897  30.746  1.00  0.00     0.074 A 
ATOM     46  C   UNL A   1      45.603  31.105  32.141  1.00  0.00     0.029 A 
ATOM     47  N   UNL A   1      43.498  31.178  31.424  1.00  0.00    -0.354 N 
ATOM     48  N   UNL A   1      40.873  32.439  30.987  1.00  0.00    -0.248 NA
ATOM     49  C   UNL A   1      39.397  34.219  31.329  1.00  0.00     0.031 C 
ATOM     50  C   UNL A   1      45.033  32.310  32.560  1.00  0.00     0.029 A 
ATOM     51  C   UNL A   1      43.732  32.371  32.085  1.00  0.00     0.049 A 
ATOM     52  H   UNL A   1      42.651  30.929  30.988  1.00  0.00     0.167 HD
ATOM     53  C   UNL A   1      41.516  33.428  31.725  1.00  0.00     0.074 A 
ATOM     54  C   UNL A   1      40.569  34.514  31.877  1.00  0.00     0.031 C 
ATOM     55  C   UNL A   1      42.775  33.440  32.227  1.00  0.00     0.031 A 
BRANCH  42  56
ATOM     56  C   UNL A   1      46.007  28.286  31.112  1.00  0.00    -0.014 A 
ATOM     57  C   UNL A   1      47.100  28.436  30.239  1.00  0.00     0.010 A 
ATOM     58  C   UNL A   1      46.127  27.421  32.215  1.00  0.00     0.010 A 
ATOM     59  C   UNL A   1      48.277  27.711  30.447  1.00  0.00     0.020 A 
ATOM     60  C   UNL A   1      47.313  26.717  32.445  1.00  0.00     0.020 A 
ATOM     61  C   UNL A   1      48.375  26.857  31.550  1.00  0.00     0.054 A 
BRANCH  61  62
ATOM     62  S   UNL A   1      49.927  25.956  31.816  1.00  0.00     0.124 S 
ATOM     63  O   UNL A   1      50.909  27.038  31.809  1.00  0.00    -0.237 OA
ATOM     64  O   UNL A   1      49.707  25.318  33.110  1.00  0.00    -0.237 OA
ATOM     65  O   UNL A   1      50.000  25.044  30.678  1.00  0.00    -0.744 OA
ENDBRANCH  61  62
ENDBRANCH  42  56
BRANCH  43  66
ATOM     66  C   UNL A   1      37.233  32.936  29.809  1.00  0.00    -0.014 A 
ATOM     67  C   UNL A   1      36.271  32.876  30.832  1.00  0.00     0.010 A 
ATOM     68  C   UNL A   1      36.935  33.658  28.637  1.00  0.00     0.010 A 
ATOM     69  C   UNL A   1      35.034  33.512  30.682  1.00  0.00     0.020 A 
ATOM     70  C   UNL A   1      35.712  34.319  28.495  1.00  0.00     0.020 A 
ATOM     71  C   UNL A   1      34.766  34.235  29.517  1.00  0.00     0.054 A 
BRANCH  71  72
ATOM     72  S   UNL A   1      33.178  35.102  29.372  1.00  0.00     0.124 S 
ATOM     73  O   UNL A   1      32.642  34.986  30.725  1.00  0.00    -0.237 OA
ATOM     74  O   UNL A   1      33.590  36.444  28.967  1.00  0.00    -0.237 OA
ATOM     75  O   UNL A   1      32.466  34.342  28.348  1.00  0.00    -0.744 OA
ENDBRANCH  71  72
ENDBRANCH  43  66
BRANCH  55  76
ATOM     76  C   UNL A   1      43.223  34.680  32.958  1.00  0.00    -0.014 A 
ATOM     77  C   UNL A   1      43.831  35.752  32.282  1.00  0.00     0.010 A 
ATOM     78  C   UNL A   1      42.970  34.797  34.337  1.00  0.00     0.010 A 
ATOM     79  C   UNL A   1      44.208  36.903  32.978  1.00  0.00     0.020 A 
ATOM     80  C   UNL A   1      43.317  35.959  35.031  1.00  0.00     0.020 A 
ATOM     81  C   UNL A   1      43.948  37.000  34.349  1.00  0.00     0.054 A 
BRANCH  81  82
ATOM     82  S   UNL A   1      44.411  38.521  35.220  1.00  0.00     0.124 S 
ATOM     83  O   UNL A   1      45.854  38.571  34.999  1.00  0.00    -0.237 OA
ATOM     84  O   UNL A   1      43.632  39.540  34.521  1.00  0.00    -0.237 OA
ATOM     85  O   UNL A   1      44.002  38.269  36.600  1.00  0.00    -0.744 OA
ENDBRANCH  81  82
ENDBRANCH  55  76
ENDBRANCH  29  30
ENDBRANCH  22  24
ENDBRANCH  21  22
ENDBRANCH  20  21
ENDBRANCH   1  20
TORSDOF 20
ENDMDL
MODEL 3
REMARK VINA RESULT:      -8.7      3.529     10.508
REMARK SMILES O=C(/C=C/c1ccc(O)c(O)c1)OCCOCCOC(=O)c1ccc(-c2c3nc(c(-c4ccc(S(=O)(=O)[O-])cc4)c4ccc([nH]4)c(-c4ccc(S(=O)(=O)[O-])cc4)c4nc(c(-c5ccc(S(=O)(=O)[O-])cc5)c5ccc2[nH]5)C=C4)C=C3)cc1
REMARK SMILES IDX 17 1 16 2 15 3 14 4 13 5 2 6 1 7 3 8 4 9 5 10 6 11 12 12
REMARK SMILES IDX 7 13 10 14 8 15 11 16 9 18 18 20 19 21 20 22 21 23 22 24
REMARK SMILES IDX 23 25 81 26 24 27 80 28 25 29 26 30 27 31 74 32 28 33 79 34
REMARK SMILES IDX 73 35 75 36 29 37 78 38 72 39 71 40 30 42 60 43 41 44 59 45
REMARK SMILES IDX 42 46 45 47 58 48 76 49 43 50 44 51 57 53 77 54 46 55 31 56
REMARK SMILES IDX 32 57 40 58 33 59 39 60 34 61 35 62 36 63 37 64 38 65 61 66
REMARK SMILES IDX 62 67 70 68 63 69 69 70 64 71 65 72 66 73 67 74 68 75 47 76
REMARK SMILES IDX 48 77 56 78 49 79 55 80 50 81 51 82 52 83 53 84 54 85
REMARK H PARENT 11 17 9 19 75 41 45 52
REMARK Flexibility Score: inf
ROOT
ATOM      1  C   UNL A   1      32.073  27.741  25.980  1.00  0.00     0.202 C 
ENDROOT
BRANCH   1   2
ATOM      2  O   UNL A   1      31.056  28.319  25.153  1.00  0.00    -0.374 OA
BRANCH   2   3
ATOM      3  C   UNL A   1      31.179  28.011  23.767  1.00  0.00     0.202 C 
BRANCH   3   4
ATOM      4  C   UNL A   1      32.018  26.782  23.428  1.00  0.00     0.261 C 
BRANCH   4   5
ATOM      5  O   UNL A   1      32.263  26.583  22.023  1.00  0.00    -0.460 OA
BRANCH   5   6
ATOM      6  C   UNL A   1      32.780  25.492  21.419  1.00  0.00     0.330 C 
ATOM      7  O   UNL A   1      33.078  25.527  20.226  1.00  0.00    -0.247 OA
BRANCH   6   8
ATOM      8  C   UNL A   1      32.869  24.196  22.109  1.00  0.00     0.094 C 
ATOM      9  C   UNL A   1      33.873  23.735  22.865  1.00  0.00     0.016 C 
BRANCH   9  10
ATOM     10  C   UNL A   1      33.786  22.467  23.585  1.00  0.00    -0.021 A 
ATOM     11  C   UNL A   1      32.592  21.736  23.599  1.00  0.00     0.012 A 
ATOM     12  C   UNL A   1      34.929  21.953  24.212  1.00  0.00     0.058 A 
ATOM     13  C   UNL A   1      32.544  20.474  24.197  1.00  0.00     0.051 A 
ATOM     14  C   UNL A   1      34.873  20.699  24.803  1.00  0.00     0.157 A 
ATOM     15  C   UNL A   1      33.696  19.956  24.782  1.00  0.00     0.157 A 
BRANCH  14  16
ATOM     16  O   UNL A   1      35.996  20.184  25.383  1.00  0.00    -0.504 OA
ATOM     17  H   UNL A   1      36.335  20.567  26.168  1.00  0.00     0.293 HD
ENDBRANCH  14  16
BRANCH  15  18
ATOM     18  O   UNL A   1      33.720  18.707  25.337  1.00  0.00    -0.504 OA
ATOM     19  H   UNL A   1      33.109  18.482  26.011  1.00  0.00     0.293 HD
ENDBRANCH  15  18
ENDBRANCH   9  10
ENDBRANCH   6   8
ENDBRANCH   5   6
ENDBRANCH   4   5
ENDBRANCH   3   4
ENDBRANCH   2   3
ENDBRANCH   1   2
BRANCH   1  20
ATOM     20  C   UNL A   1      32.468  28.602  27.186  1.00  0.00     0.261 C 
BRANCH  20  21
ATOM     21  O   UNL A   1      33.895  28.673  27.327  1.00  0.00    -0.460 OA
BRANCH  21  22
ATOM     22  C   UNL A   1      34.371  29.888  27.697  1.00  0.00     0.338 C 
ATOM     23  O   UNL A   1      33.735  30.919  27.837  1.00  0.00    -0.246 OA
BRANCH  22  24
ATOM     24  C   UNL A   1      35.776  29.735  28.131  1.00  0.00     0.060 A 
ATOM     25  C   UNL A   1      36.780  29.920  27.169  1.00  0.00     0.016 A 
ATOM     26  C   UNL A   1      36.111  29.446  29.456  1.00  0.00     0.016 A 
ATOM     27  C   UNL A   1      38.120  29.780  27.521  1.00  0.00     0.010 A 
ATOM     28  C   UNL A   1      37.454  29.294  29.806  1.00  0.00     0.010 A 
ATOM     29  C   UNL A   1      38.459  29.425  28.832  1.00  0.00    -0.014 A 
BRANCH  29  30
ATOM     30  C   UNL A   1      39.842  28.999  29.141  1.00  0.00     0.031 A 
ATOM     31  C   UNL A   1      40.766  30.000  29.779  1.00  0.00     0.074 A 
ATOM     32  C   UNL A   1      40.264  27.751  28.869  1.00  0.00     0.049 A 
ATOM     33  N   UNL A   1      42.029  29.881  30.088  1.00  0.00    -0.248 NA
ATOM     34  C   UNL A   1      40.186  31.314  30.104  1.00  0.00     0.031 C 
ATOM     35  C   UNL A   1      39.445  26.687  28.290  1.00  0.00     0.029 A 
ATOM     36  N   UNL A   1      41.497  27.175  29.038  1.00  0.00    -0.354 N 
ATOM     37  C   UNL A   1      42.400  31.108  30.626  1.00  0.00     0.074 A 
ATOM     38  C   UNL A   1      41.238  31.965  30.577  1.00  0.00     0.031 C 
ATOM     39  C   UNL A   1      40.204  25.587  28.140  1.00  0.00     0.029 A 
ATOM     40  C   UNL A   1      41.567  25.882  28.578  1.00  0.00     0.049 A 
ATOM     41  H   UNL A   1      42.259  27.643  29.450  1.00  0.00     0.167 HD
ATOM     42  C   UNL A   1      43.603  31.484  31.119  1.00  0.00     0.031 A 
ATOM     43  C   UNL A   1      42.620  25.043  28.497  1.00  0.00     0.031 A 
ATOM     44  C   UNL A   1      44.756  30.627  31.153  1.00  0.00     0.049 A 
ATOM     45  C   UNL A   1      43.964  25.504  28.996  1.00  0.00     0.074 A 
ATOM     46  C   UNL A   1      46.017  30.901  31.653  1.00  0.00     0.029 A 
ATOM     47  N   UNL A   1      44.794  29.331  30.659  1.00  0.00    -0.354 N 
ATOM     48  N   UNL A   1      44.295  26.657  29.531  1.00  0.00    -0.248 NA
ATOM     49  C   UNL A   1      45.077  24.548  28.892  1.00  0.00     0.031 C 
ATOM     50  C   UNL A   1      46.834  29.796  31.402  1.00  0.00     0.029 A 
ATOM     51  C   UNL A   1      46.065  28.804  30.813  1.00  0.00     0.049 A 
ATOM     52  H   UNL A   1      44.030  28.858  30.257  1.00  0.00     0.167 HD
ATOM     53  C   UNL A   1      45.645  26.554  29.853  1.00  0.00     0.074 A 
ATOM     54  C   UNL A   1      46.065  25.222  29.466  1.00  0.00     0.031 C 
ATOM     55  C   UNL A   1      46.463  27.476  30.420  1.00  0.00     0.031 A 
BRANCH  42  56
ATOM     56  C   UNL A   1      43.740  32.897  31.622  1.00  0.00    -0.014 A 
ATOM     57  C   UNL A   1      43.749  33.190  32.998  1.00  0.00     0.010 A 
ATOM     58  C   UNL A   1      43.901  33.947  30.699  1.00  0.00     0.010 A 
ATOM     59  C   UNL A   1      43.883  34.509  33.440  1.00  0.00     0.020 A 
ATOM     60  C   UNL A   1      44.066  35.264  31.137  1.00  0.00     0.020 A 
ATOM     61  C   UNL A   1      44.042  35.537  32.506  1.00  0.00     0.054 A 
BRANCH  61  62
ATOM     62  S   UNL A   1      44.250  37.235  33.110  1.00  0.00     0.124 S 
ATOM     63  O   UNL A   1      44.535  37.961  31.874  1.00  0.00    -0.237 OA
ATOM     64  O   UNL A   1      42.954  37.519  33.719  1.00  0.00    -0.237 OA
ATOM     65  O   UNL A   1      45.368  37.137  34.045  1.00  0.00    -0.744 OA
ENDBRANCH  61  62
ENDBRANCH  42  56
BRANCH  43  66
ATOM     66  C   UNL A   1      42.446  23.689  27.901  1.00  0.00    -0.014 A 
ATOM     67  C   UNL A   1      42.798  23.440  26.562  1.00  0.00     0.010 A 
ATOM     68  C   UNL A   1      41.931  22.634  28.677  1.00  0.00     0.010 A 
ATOM     69  C   UNL A   1      42.629  22.165  26.010  1.00  0.00     0.020 A 
ATOM     70  C   UNL A   1      41.788  21.352  28.138  1.00  0.00     0.020 A 
ATOM     71  C   UNL A   1      42.130  21.129  26.804  1.00  0.00     0.054 A 
BRANCH  71  72
ATOM     72  S   UNL A   1      41.977  19.471  26.082  1.00  0.00     0.124 S 
ATOM     73  O   UNL A   1      42.751  19.601  24.851  1.00  0.00    -0.237 OA
ATOM     74  O   UNL A   1      42.567  18.624  27.115  1.00  0.00    -0.237 OA
ATOM     75  O   UNL A   1      40.536  19.308  25.902  1.00  0.00    -0.744 OA
ENDBRANCH  71  72
ENDBRANCH  43  66
BRANCH  55  76
ATOM     76  C   UNL A   1      47.888  27.067  30.696  1.00  0.00    -0.014 A 
ATOM     77  C   UNL A   1      48.912  27.299  29.763  1.00  0.00     0.010 A 
ATOM     78  C   UNL A   1      48.212  26.500  31.943  1.00  0.00     0.010 A 
ATOM     79  C   UNL A   1      50.230  26.938  30.057  1.00  0.00     0.020 A 
ATOM     80  C   UNL A   1      49.533  26.167  32.253  1.00  0.00     0.020 A 
ATOM     81  C   UNL A   1      50.532  26.375  31.301  1.00  0.00     0.054 A 
BRANCH  81  82
ATOM     82  S   UNL A   1      52.257  25.954  31.672  1.00  0.00     0.124 S 
ATOM     83  O   UNL A   1      52.918  26.232  30.401  1.00  0.00    -0.237 OA
ATOM     84  O   UNL A   1      52.582  26.869  32.764  1.00  0.00    -0.237 OA
ATOM     85  O   UNL A   1      52.196  24.543  32.047  1.00  0.00    -0.744 OA
ENDBRANCH  81  82
ENDBRANCH  55  76
ENDBRANCH  29  30
ENDBRANCH  22  24
ENDBRANCH  21  22
ENDBRANCH  20  21
ENDBRANCH   1  20
TORSDOF 20
ENDMDL
