MODEL 1
REMARK VINA RESULT:     -10.2      0.000      0.000
REMARK SMILES CC(C)(C)c1nnsc1C(=O)N[C@](C)(C(=O)OCCOCCOC(=O)c1ccc(-c2c3nc(c(-c4ccc(S(=O)(=O)[O-])cc4)c4ccc([nH]4)c(-c4ccc(S(=O)(=O)[O-])cc4)c4nc(c(-c5ccc(S(=O)(=O)[O-])cc5)c5ccc2[nH]5)C=C4)C=C3)cc1)C(F)(F)F
REMARK SMILES IDX 20 1 19 2 18 3 17 4 15 5 16 6 13 7 14 8 12 9 10 10 11 11
REMARK SMILES IDX 9 13 5 14 6 15 7 16 8 17 2 18 1 19 3 20 4 21 86 22 87 23
REMARK SMILES IDX 88 24 89 25 21 26 22 27 23 28 24 29 25 30 26 31 27 32 85 33
REMARK SMILES IDX 28 34 84 35 29 36 30 37 31 38 78 39 32 40 83 41 77 42 79 43
REMARK SMILES IDX 33 44 82 45 76 46 75 47 34 49 64 50 45 51 63 52 46 53 49 54
REMARK SMILES IDX 62 55 80 56 47 57 48 58 61 60 81 61 50 62 35 63 36 64 44 65
REMARK SMILES IDX 37 66 43 67 38 68 39 69 40 70 41 71 42 72 65 73 66 74 74 75
REMARK SMILES IDX 67 76 73 77 68 78 69 79 70 80 71 81 72 82 51 83 52 84 60 85
REMARK SMILES IDX 53 86 59 87 54 88 55 89 56 90 57 91 58 92
REMARK H PARENT 12 12 79 48 49 59
REMARK Flexibility Score: inf
ROOT
ATOM      1  O   UNL A   1      31.696  29.417  26.141  1.00  0.00    -0.374 OA
ENDROOT
BRANCH   1   2
ATOM      2  C   UNL A   1      31.324  28.865  24.884  1.00  0.00     0.202 C 
BRANCH   2   3
ATOM      3  C   UNL A   1      31.130  27.348  24.797  1.00  0.00     0.261 C 
BRANCH   3   4
ATOM      4  O   UNL A   1      31.223  26.830  23.458  1.00  0.00    -0.461 OA
BRANCH   4   5
ATOM      5  C   UNL A   1      32.371  26.143  23.246  1.00  0.00     0.341 C 
ATOM      6  O   UNL A   1      33.390  26.669  22.804  1.00  0.00    -0.249 OA
BRANCH   5   7
ATOM      7  C   UNL A   1      32.304  24.657  23.575  1.00  0.00     0.231 C 
ATOM      8  C   UNL A   1      33.090  23.975  22.419  1.00  0.00     0.058 C 
BRANCH   7   9
ATOM      9  N   UNL A   1      33.135  24.443  24.836  1.00  0.00    -0.328 N 
ATOM     10  C   UNL A   1      33.825  23.468  25.525  1.00  0.00     0.266 C 
ATOM     11  O   UNL A   1      34.141  23.878  26.652  1.00  0.00    -0.268 OA
ATOM     12  H   UNL A   1      33.201  25.294  25.326  1.00  0.00     0.165 HD
BRANCH  10  13
ATOM     13  C   UNL A   1      34.173  22.108  25.140  1.00  0.00     0.137 A 
ATOM     14  C   UNL A   1      35.341  21.367  24.904  1.00  0.00     0.094 A 
ATOM     15  N   UNL A   1      35.165  19.984  24.845  1.00  0.00    -0.142 NA
ATOM     16  N   UNL A   1      33.916  19.628  25.046  1.00  0.00    -0.090 NA
ATOM     17  S   UNL A   1      32.904  20.928  25.283  1.00  0.00    -0.006 S 
BRANCH  14  18
ATOM     18  C   UNL A   1      36.739  21.863  24.643  1.00  0.00     0.008 C 
ATOM     19  C   UNL A   1      37.614  20.609  24.769  1.00  0.00     0.018 C 
ATOM     20  C   UNL A   1      37.343  22.821  25.690  1.00  0.00     0.018 C 
ATOM     21  C   UNL A   1      36.746  22.656  23.319  1.00  0.00     0.018 C 
ENDBRANCH  14  18
ENDBRANCH  10  13
ENDBRANCH   7   9
BRANCH   7  22
ATOM     22  C   UNL A   1      30.936  23.942  23.488  1.00  0.00     0.422 C 
ATOM     23  F   UNL A   1      31.019  22.725  22.901  1.00  0.00    -0.168 F 
ATOM     24  F   UNL A   1      30.449  23.721  24.743  1.00  0.00    -0.168 F 
ATOM     25  F   UNL A   1      29.961  24.596  22.850  1.00  0.00    -0.168 F 
ENDBRANCH   7  22
ENDBRANCH   5   7
ENDBRANCH   4   5
ENDBRANCH   3   4
ENDBRANCH   2   3
ENDBRANCH   1   2
BRANCH   1  26
ATOM     26  C   UNL A   1      31.685  30.835  26.292  1.00  0.00     0.202 C 
BRANCH  26  27
ATOM     27  C   UNL A   1      32.812  31.523  27.069  1.00  0.00     0.261 C 
BRANCH  27  28
ATOM     28  O   UNL A   1      33.773  30.600  27.606  1.00  0.00    -0.460 OA
BRANCH  28  29
ATOM     29  C   UNL A   1      34.694  31.174  28.421  1.00  0.00     0.338 C 
ATOM     30  O   UNL A   1      34.528  32.120  29.167  1.00  0.00    -0.246 OA
BRANCH  29  31
ATOM     31  C   UNL A   1      35.917  30.354  28.448  1.00  0.00     0.060 A 
ATOM     32  C   UNL A   1      36.237  29.722  29.658  1.00  0.00     0.016 A 
ATOM     33  C   UNL A   1      36.788  30.306  27.360  1.00  0.00     0.016 A 
ATOM     34  C   UNL A   1      37.467  29.095  29.808  1.00  0.00     0.010 A 
ATOM     35  C   UNL A   1      38.031  29.687  27.517  1.00  0.00     0.010 A 
ATOM     36  C   UNL A   1      38.390  29.127  28.756  1.00  0.00    -0.014 A 
BRANCH  36  37
ATOM     37  C   UNL A   1      39.794  28.756  29.035  1.00  0.00     0.031 A 
ATOM     38  C   UNL A   1      40.674  29.757  29.735  1.00  0.00     0.074 A 
ATOM     39  C   UNL A   1      40.249  27.527  28.737  1.00  0.00     0.049 A 
ATOM     40  N   UNL A   1      41.934  29.663  30.065  1.00  0.00    -0.248 NA
ATOM     41  C   UNL A   1      40.045  31.034  30.119  1.00  0.00     0.031 C 
ATOM     42  C   UNL A   1      39.456  26.456  28.133  1.00  0.00     0.029 A 
ATOM     43  N   UNL A   1      41.488  26.971  28.913  1.00  0.00    -0.354 N 
ATOM     44  C   UNL A   1      42.250  30.865  30.691  1.00  0.00     0.074 A 
ATOM     45  C   UNL A   1      41.061  31.686  30.663  1.00  0.00     0.031 C 
ATOM     46  C   UNL A   1      40.233  25.369  27.986  1.00  0.00     0.029 A 
ATOM     47  C   UNL A   1      41.583  25.681  28.447  1.00  0.00     0.049 A 
ATOM     48  H   UNL A   1      42.239  27.449  29.332  1.00  0.00     0.167 HD
ATOM     49  C   UNL A   1      43.425  31.243  31.248  1.00  0.00     0.031 A 
ATOM     50  C   UNL A   1      42.648  24.860  28.382  1.00  0.00     0.031 A 
ATOM     51  C   UNL A   1      44.605  30.420  31.255  1.00  0.00     0.049 A 
ATOM     52  C   UNL A   1      43.974  25.348  28.909  1.00  0.00     0.074 A 
ATOM     53  C   UNL A   1      45.854  30.709  31.774  1.00  0.00     0.029 A 
ATOM     54  N   UNL A   1      44.680  29.144  30.715  1.00  0.00    -0.354 N 
ATOM     55  N   UNL A   1      44.261  26.489  29.490  1.00  0.00    -0.248 NA
ATOM     56  C   UNL A   1      45.116  24.434  28.776  1.00  0.00     0.031 C 
ATOM     57  C   UNL A   1      46.700  29.631  31.495  1.00  0.00     0.029 A 
ATOM     58  C   UNL A   1      45.959  28.641  30.867  1.00  0.00     0.049 A 
ATOM     59  H   UNL A   1      43.932  28.667  30.288  1.00  0.00     0.167 HD
ATOM     60  C   UNL A   1      45.610  26.414  29.825  1.00  0.00     0.074 A 
ATOM     61  C   UNL A   1      46.073  25.111  29.395  1.00  0.00     0.031 C 
ATOM     62  C   UNL A   1      46.395  27.337  30.436  1.00  0.00     0.031 A 
BRANCH  49  63
ATOM     63  C   UNL A   1      43.498  32.616  31.864  1.00  0.00    -0.014 A 
ATOM     64  C   UNL A   1      43.198  32.824  33.223  1.00  0.00     0.010 A 
ATOM     65  C   UNL A   1      43.918  33.709  31.084  1.00  0.00     0.010 A 
ATOM     66  C   UNL A   1      43.286  34.102  33.781  1.00  0.00     0.020 A 
ATOM     67  C   UNL A   1      44.035  34.984  31.645  1.00  0.00     0.020 A 
ATOM     68  C   UNL A   1      43.706  35.175  32.988  1.00  0.00     0.054 A 
BRANCH  68  69
ATOM     69  S   UNL A   1      43.845  36.815  33.750  1.00  0.00     0.124 S 
ATOM     70  O   UNL A   1      44.984  36.636  34.647  1.00  0.00    -0.237 OA
ATOM     71  O   UNL A   1      44.082  37.682  32.599  1.00  0.00    -0.237 OA
ATOM     72  O   UNL A   1      42.556  37.001  34.413  1.00  0.00    -0.744 OA
ENDBRANCH  68  69
ENDBRANCH  49  63
BRANCH  50  73
ATOM     73  C   UNL A   1      42.518  23.506  27.775  1.00  0.00    -0.014 A 
ATOM     74  C   UNL A   1      42.114  22.405  28.551  1.00  0.00     0.010 A 
ATOM     75  C   UNL A   1      42.825  23.307  26.417  1.00  0.00     0.010 A 
ATOM     76  C   UNL A   1      42.052  21.127  27.988  1.00  0.00     0.020 A 
ATOM     77  C   UNL A   1      42.730  22.036  25.841  1.00  0.00     0.020 A 
ATOM     78  C   UNL A   1      42.363  20.951  26.637  1.00  0.00     0.054 A 
BRANCH  78  79
ATOM     79  S   UNL A   1      42.258  19.285  25.925  1.00  0.00     0.124 S 
ATOM     80  O   UNL A   1      42.818  18.464  26.993  1.00  0.00    -0.237 OA
ATOM     81  O   UNL A   1      40.824  19.132  25.692  1.00  0.00    -0.237 OA
ATOM     82  O   UNL A   1      43.072  19.380  24.715  1.00  0.00    -0.744 OA
ENDBRANCH  78  79
ENDBRANCH  50  73
BRANCH  62  83
ATOM     83  C   UNL A   1      47.823  26.950  30.721  1.00  0.00    -0.014 A 
ATOM     84  C   UNL A   1      48.845  27.176  29.783  1.00  0.00     0.010 A 
ATOM     85  C   UNL A   1      48.151  26.402  31.975  1.00  0.00     0.010 A 
ATOM     86  C   UNL A   1      50.165  26.826  30.081  1.00  0.00     0.020 A 
ATOM     87  C   UNL A   1      49.474  26.083  32.289  1.00  0.00     0.020 A 
ATOM     88  C   UNL A   1      50.471  26.283  31.332  1.00  0.00     0.054 A 
BRANCH  88  89
ATOM     89  S   UNL A   1      52.197  25.880  31.708  1.00  0.00     0.124 S 
ATOM     90  O   UNL A   1      52.519  26.859  32.744  1.00  0.00    -0.237 OA
ATOM     91  O   UNL A   1      52.111  24.494  32.158  1.00  0.00    -0.237 OA
ATOM     92  O   UNL A   1      52.885  26.074  30.434  1.00  0.00    -0.744 OA
ENDBRANCH  88  89
ENDBRANCH  62  83
ENDBRANCH  36  37
ENDBRANCH  29  31
ENDBRANCH  28  29
ENDBRANCH  27  28
ENDBRANCH  26  27
ENDBRANCH   1  26
TORSDOF 21
ENDMDL
MODEL 2
REMARK VINA RESULT:      -9.9      2.839      8.418
REMARK SMILES CC(C)(C)c1nnsc1C(=O)N[C@](C)(C(=O)OCCOCCOC(=O)c1ccc(-c2c3nc(c(-c4ccc(S(=O)(=O)[O-])cc4)c4ccc([nH]4)c(-c4ccc(S(=O)(=O)[O-])cc4)c4nc(c(-c5ccc(S(=O)(=O)[O-])cc5)c5ccc2[nH]5)C=C4)C=C3)cc1)C(F)(F)F
REMARK SMILES IDX 20 1 19 2 18 3 17 4 15 5 16 6 13 7 14 8 12 9 10 10 11 11
REMARK SMILES IDX 9 13 5 14 6 15 7 16 8 17 2 18 1 19 3 20 4 21 86 22 87 23
REMARK SMILES IDX 88 24 89 25 21 26 22 27 23 28 24 29 25 30 26 31 27 32 85 33
REMARK SMILES IDX 28 34 84 35 29 36 30 37 31 38 78 39 32 40 83 41 77 42 79 43
REMARK SMILES IDX 33 44 82 45 76 46 75 47 34 49 64 50 45 51 63 52 46 53 49 54
REMARK SMILES IDX 62 55 80 56 47 57 48 58 61 60 81 61 50 62 35 63 36 64 44 65
REMARK SMILES IDX 37 66 43 67 38 68 39 69 40 70 41 71 42 72 65 73 66 74 74 75
REMARK SMILES IDX 67 76 73 77 68 78 69 79 70 80 71 81 72 82 51 83 52 84 60 85
REMARK SMILES IDX 53 86 59 87 54 88 55 89 56 90 57 91 58 92
REMARK H PARENT 12 12 79 48 49 59
REMARK Flexibility Score: inf
ROOT
ATOM      1  O   UNL A   1      32.325  29.319  24.160  1.00  0.00    -0.374 OA
ENDROOT
BRANCH   1   2
ATOM      2  C   UNL A   1      31.328  29.300  23.146  1.00  0.00     0.202 C 
BRANCH   2   3
ATOM      3  C   UNL A   1      30.750  27.943  22.735  1.00  0.00     0.261 C 
BRANCH   3   4
ATOM      4  O   UNL A   1      31.586  26.827  23.091  1.00  0.00    -0.461 OA
BRANCH   4   5
ATOM      5  C   UNL A   1      31.074  26.100  24.114  1.00  0.00     0.341 C 
ATOM      6  O   UNL A   1      29.969  26.325  24.602  1.00  0.00    -0.249 OA
BRANCH   5   7
ATOM      7  C   UNL A   1      31.980  24.990  24.633  1.00  0.00     0.231 C 
ATOM      8  C   UNL A   1      31.001  23.984  25.303  1.00  0.00     0.058 C 
BRANCH   7   9
ATOM      9  N   UNL A   1      32.552  24.276  23.413  1.00  0.00    -0.328 N 
ATOM     10  C   UNL A   1      33.310  23.181  23.057  1.00  0.00     0.266 C 
ATOM     11  O   UNL A   1      33.624  23.244  21.859  1.00  0.00    -0.268 OA
ATOM     12  H   UNL A   1      32.289  24.766  22.601  1.00  0.00     0.165 HD
BRANCH  10  13
ATOM     13  C   UNL A   1      33.785  22.062  23.858  1.00  0.00     0.137 A 
ATOM     14  C   UNL A   1      34.944  21.719  24.570  1.00  0.00     0.094 A 
ATOM     15  N   UNL A   1      34.808  20.639  25.443  1.00  0.00    -0.142 NA
ATOM     16  N   UNL A   1      33.588  20.149  25.447  1.00  0.00    -0.090 NA
ATOM     17  S   UNL A   1      32.571  20.938  24.393  1.00  0.00    -0.006 S 
BRANCH  14  18
ATOM     18  C   UNL A   1      36.324  22.314  24.473  1.00  0.00     0.008 C 
ATOM     19  C   UNL A   1      36.296  23.496  25.451  1.00  0.00     0.018 C 
ATOM     20  C   UNL A   1      36.702  22.976  23.132  1.00  0.00     0.018 C 
ATOM     21  C   UNL A   1      37.365  21.193  24.678  1.00  0.00     0.018 C 
ENDBRANCH  14  18
ENDBRANCH  10  13
ENDBRANCH   7   9
BRANCH   7  22
ATOM     22  C   UNL A   1      32.946  25.310  25.796  1.00  0.00     0.422 C 
ATOM     23  F   UNL A   1      33.254  24.218  26.534  1.00  0.00    -0.168 F 
ATOM     24  F   UNL A   1      34.129  25.773  25.300  1.00  0.00    -0.168 F 
ATOM     25  F   UNL A   1      32.546  26.242  26.665  1.00  0.00    -0.168 F 
ENDBRANCH   7  22
ENDBRANCH   5   7
ENDBRANCH   4   5
ENDBRANCH   3   4
ENDBRANCH   2   3
ENDBRANCH   1   2
BRANCH   1  26
ATOM     26  C   UNL A   1      31.911  29.363  25.523  1.00  0.00     0.202 C 
BRANCH  26  27
ATOM     27  C   UNL A   1      32.328  30.545  26.404  1.00  0.00     0.261 C 
BRANCH  27  28
ATOM     28  O   UNL A   1      33.404  30.229  27.302  1.00  0.00    -0.460 OA
BRANCH  28  29
ATOM     29  C   UNL A   1      34.120  31.308  27.707  1.00  0.00     0.338 C 
ATOM     30  O   UNL A   1      33.699  32.426  27.934  1.00  0.00    -0.246 OA
BRANCH  29  31
ATOM     31  C   UNL A   1      35.492  30.898  28.050  1.00  0.00     0.060 A 
ATOM     32  C   UNL A   1      35.677  29.572  28.467  1.00  0.00     0.016 A 
ATOM     33  C   UNL A   1      36.542  31.815  28.083  1.00  0.00     0.016 A 
ATOM     34  C   UNL A   1      36.902  29.174  28.985  1.00  0.00     0.010 A 
ATOM     35  C   UNL A   1      37.769  31.417  28.618  1.00  0.00     0.010 A 
ATOM     36  C   UNL A   1      37.933  30.112  29.116  1.00  0.00    -0.014 A 
BRANCH  36  37
ATOM     37  C   UNL A   1      39.099  29.769  29.960  1.00  0.00     0.031 A 
ATOM     38  C   UNL A   1      40.003  28.651  29.513  1.00  0.00     0.074 A 
ATOM     39  C   UNL A   1      39.383  30.490  31.058  1.00  0.00     0.049 A 
ATOM     40  N   UNL A   1      41.066  28.164  30.096  1.00  0.00    -0.248 NA
ATOM     41  C   UNL A   1      39.665  27.999  28.235  1.00  0.00     0.031 C 
ATOM     42  C   UNL A   1      38.618  31.644  31.533  1.00  0.00     0.029 A 
ATOM     43  N   UNL A   1      40.399  30.361  31.967  1.00  0.00    -0.354 N 
ATOM     44  C   UNL A   1      41.521  27.149  29.260  1.00  0.00     0.074 A 
ATOM     45  C   UNL A   1      40.600  27.066  28.149  1.00  0.00     0.031 C 
ATOM     46  C   UNL A   1      39.194  32.117  32.651  1.00  0.00     0.029 A 
ATOM     47  C   UNL A   1      40.340  31.277  32.990  1.00  0.00     0.049 A 
ATOM     48  H   UNL A   1      41.104  29.678  31.895  1.00  0.00     0.167 HD
ATOM     49  C   UNL A   1      42.616  26.365  29.403  1.00  0.00     0.031 A 
ATOM     50  C   UNL A   1      41.112  31.402  34.087  1.00  0.00     0.031 A 
ATOM     51  C   UNL A   1      43.516  26.450  30.522  1.00  0.00     0.049 A 
ATOM     52  C   UNL A   1      42.260  30.443  34.279  1.00  0.00     0.074 A 
ATOM     53  C   UNL A   1      44.645  25.695  30.779  1.00  0.00     0.029 A 
ATOM     54  N   UNL A   1      43.386  27.348  31.573  1.00  0.00    -0.354 N 
ATOM     55  N   UNL A   1      42.675  29.483  33.486  1.00  0.00    -0.248 NA
ATOM     56  C   UNL A   1      43.047  30.591  35.510  1.00  0.00     0.031 C 
ATOM     57  C   UNL A   1      45.163  26.095  32.014  1.00  0.00     0.029 A 
ATOM     58  C   UNL A   1      44.400  27.150  32.492  1.00  0.00     0.049 A 
ATOM     59  H   UNL A   1      42.676  28.026  31.652  1.00  0.00     0.167 HD
ATOM     60  C   UNL A   1      43.794  28.936  34.106  1.00  0.00     0.074 A 
ATOM     61  C   UNL A   1      43.997  29.684  35.330  1.00  0.00     0.031 C 
ATOM     62  C   UNL A   1      44.585  27.911  33.700  1.00  0.00     0.031 A 
BRANCH  49  63
ATOM     63  C   UNL A   1      42.880  25.330  28.341  1.00  0.00    -0.014 A 
ATOM     64  C   UNL A   1      43.697  25.614  27.231  1.00  0.00     0.010 A 
ATOM     65  C   UNL A   1      42.340  24.038  28.477  1.00  0.00     0.010 A 
ATOM     66  C   UNL A   1      43.943  24.636  26.263  1.00  0.00     0.020 A 
ATOM     67  C   UNL A   1      42.607  23.048  27.526  1.00  0.00     0.020 A 
ATOM     68  C   UNL A   1      43.397  23.358  26.419  1.00  0.00     0.054 A 
BRANCH  68  69
ATOM     69  S   UNL A   1      43.764  22.099  25.164  1.00  0.00     0.124 S 
ATOM     70  O   UNL A   1      45.155  21.769  25.466  1.00  0.00    -0.237 OA
ATOM     71  O   UNL A   1      42.791  21.054  25.468  1.00  0.00    -0.237 OA
ATOM     72  O   UNL A   1      43.551  22.798  23.899  1.00  0.00    -0.744 OA
ENDBRANCH  68  69
ENDBRANCH  49  63
BRANCH  50  73
ATOM     73  C   UNL A   1      40.816  32.453  35.100  1.00  0.00    -0.014 A 
ATOM     74  C   UNL A   1      41.529  33.665  35.110  1.00  0.00     0.010 A 
ATOM     75  C   UNL A   1      39.831  32.233  36.080  1.00  0.00     0.010 A 
ATOM     76  C   UNL A   1      41.286  34.621  36.101  1.00  0.00     0.020 A 
ATOM     77  C   UNL A   1      39.561  33.201  37.051  1.00  0.00     0.020 A 
ATOM     78  C   UNL A   1      40.304  34.382  37.066  1.00  0.00     0.054 A 
BRANCH  78  79
ATOM     79  S   UNL A   1      39.995  35.645  38.331  1.00  0.00     0.124 S 
ATOM     80  O   UNL A   1      38.894  35.055  39.084  1.00  0.00    -0.237 OA
ATOM     81  O   UNL A   1      41.277  35.712  39.028  1.00  0.00    -0.237 OA
ATOM     82  O   UNL A   1      39.655  36.833  37.550  1.00  0.00    -0.744 OA
ENDBRANCH  78  79
ENDBRANCH  50  73
BRANCH  62  83
ATOM     83  C   UNL A   1      45.772  27.572  34.563  1.00  0.00    -0.014 A 
ATOM     84  C   UNL A   1      45.689  26.603  35.579  1.00  0.00     0.010 A 
ATOM     85  C   UNL A   1      47.008  28.197  34.312  1.00  0.00     0.010 A 
ATOM     86  C   UNL A   1      46.811  26.293  36.351  1.00  0.00     0.020 A 
ATOM     87  C   UNL A   1      48.140  27.864  35.059  1.00  0.00     0.020 A 
ATOM     88  C   UNL A   1      48.030  26.924  36.085  1.00  0.00     0.054 A 
BRANCH  88  89
ATOM     89  S   UNL A   1      49.480  26.469  37.073  1.00  0.00     0.124 S 
ATOM     90  O   UNL A   1      50.129  27.763  37.273  1.00  0.00    -0.237 OA
ATOM     91  O   UNL A   1      48.881  25.875  38.265  1.00  0.00    -0.237 OA
ATOM     92  O   UNL A   1      50.205  25.535  36.216  1.00  0.00    -0.744 OA
ENDBRANCH  88  89
ENDBRANCH  62  83
ENDBRANCH  36  37
ENDBRANCH  29  31
ENDBRANCH  28  29
ENDBRANCH  27  28
ENDBRANCH  26  27
ENDBRANCH   1  26
TORSDOF 21
ENDMDL
MODEL 3
REMARK VINA RESULT:      -9.9      4.664     10.579
REMARK SMILES CC(C)(C)c1nnsc1C(=O)N[C@](C)(C(=O)OCCOCCOC(=O)c1ccc(-c2c3nc(c(-c4ccc(S(=O)(=O)[O-])cc4)c4ccc([nH]4)c(-c4ccc(S(=O)(=O)[O-])cc4)c4nc(c(-c5ccc(S(=O)(=O)[O-])cc5)c5ccc2[nH]5)C=C4)C=C3)cc1)C(F)(F)F
REMARK SMILES IDX 20 1 19 2 18 3 17 4 15 5 16 6 13 7 14 8 12 9 10 10 11 11
REMARK SMILES IDX 9 13 5 14 6 15 7 16 8 17 2 18 1 19 3 20 4 21 86 22 87 23
REMARK SMILES IDX 88 24 89 25 21 26 22 27 23 28 24 29 25 30 26 31 27 32 85 33
REMARK SMILES IDX 28 34 84 35 29 36 30 37 31 38 78 39 32 40 83 41 77 42 79 43
REMARK SMILES IDX 33 44 82 45 76 46 75 47 34 49 64 50 45 51 63 52 46 53 49 54
REMARK SMILES IDX 62 55 80 56 47 57 48 58 61 60 81 61 50 62 35 63 36 64 44 65
REMARK SMILES IDX 37 66 43 67 38 68 39 69 40 70 41 71 42 72 65 73 66 74 74 75
REMARK SMILES IDX 67 76 73 77 68 78 69 79 70 80 71 81 72 82 51 83 52 84 60 85
REMARK SMILES IDX 53 86 59 87 54 88 55 89 56 90 57 91 58 92
REMARK H PARENT 12 12 79 48 49 59
REMARK Flexibility Score: inf
ROOT
ATOM      1  O   UNL A   1      39.503  22.686  26.470  1.00  0.00    -0.374 OA
ENDROOT
BRANCH   1   2
ATOM      2  C   UNL A   1      38.734  21.587  25.998  1.00  0.00     0.202 C 
BRANCH   2   3
ATOM      3  C   UNL A   1      37.866  21.801  24.755  1.00  0.00     0.261 C 
BRANCH   3   4
ATOM      4  O   UNL A   1      36.694  22.600  24.999  1.00  0.00    -0.461 OA
BRANCH   4   5
ATOM      5  C   UNL A   1      36.046  22.934  23.857  1.00  0.00     0.341 C 
ATOM      6  O   UNL A   1      36.588  22.911  22.754  1.00  0.00    -0.249 OA
BRANCH   5   7
ATOM      7  C   UNL A   1      34.595  23.362  24.040  1.00  0.00     0.231 C 
ATOM      8  C   UNL A   1      34.569  24.023  25.448  1.00  0.00     0.058 C 
BRANCH   7   9
ATOM      9  N   UNL A   1      34.334  24.484  23.041  1.00  0.00    -0.328 N 
ATOM     10  C   UNL A   1      33.413  25.463  22.728  1.00  0.00     0.266 C 
ATOM     11  O   UNL A   1      33.671  25.959  21.621  1.00  0.00    -0.268 OA
ATOM     12  H   UNL A   1      35.080  24.524  22.399  1.00  0.00     0.165 HD
BRANCH  10  13
ATOM     13  C   UNL A   1      32.244  25.925  23.460  1.00  0.00     0.137 A 
ATOM     14  C   UNL A   1      31.839  27.089  24.132  1.00  0.00     0.094 A 
ATOM     15  N   UNL A   1      30.477  27.161  24.428  1.00  0.00    -0.142 NA
ATOM     16  N   UNL A   1      29.814  26.112  23.994  1.00  0.00    -0.090 NA
ATOM     17  S   UNL A   1      30.792  24.993  23.246  1.00  0.00    -0.006 S 
BRANCH  14  18
ATOM     18  C   UNL A   1      32.680  28.234  24.632  1.00  0.00     0.008 C 
ATOM     19  C   UNL A   1      33.471  27.637  25.804  1.00  0.00     0.018 C 
ATOM     20  C   UNL A   1      31.929  29.416  25.279  1.00  0.00     0.018 C 
ATOM     21  C   UNL A   1      33.447  28.846  23.441  1.00  0.00     0.018 C 
ENDBRANCH  14  18
ENDBRANCH  10  13
ENDBRANCH   7   9
BRANCH   7  22
ATOM     22  C   UNL A   1      33.515  22.267  24.187  1.00  0.00     0.422 C 
ATOM     23  F   UNL A   1      32.768  22.116  23.068  1.00  0.00    -0.168 F 
ATOM     24  F   UNL A   1      34.108  21.059  24.407  1.00  0.00    -0.168 F 
ATOM     25  F   UNL A   1      32.649  22.414  25.192  1.00  0.00    -0.168 F 
ENDBRANCH   7  22
ENDBRANCH   5   7
ENDBRANCH   4   5
ENDBRANCH   3   4
ENDBRANCH   2   3
ENDBRANCH   1   2
BRANCH   1  26
ATOM     26  C   UNL A   1      40.908  22.690  26.224  1.00  0.00     0.202 C 
BRANCH  26  27
ATOM     27  C   UNL A   1      41.724  23.953  26.515  1.00  0.00     0.261 C 
BRANCH  27  28
ATOM     28  O   UNL A   1      41.063  24.859  27.412  1.00  0.00    -0.460 OA
BRANCH  28  29
ATOM     29  C   UNL A   1      40.783  26.071  26.867  1.00  0.00     0.338 C 
ATOM     30  O   UNL A   1      40.709  26.345  25.685  1.00  0.00    -0.246 OA
BRANCH  29  31
ATOM     31  C   UNL A   1      40.364  27.008  27.922  1.00  0.00     0.060 A 
ATOM     32  C   UNL A   1      40.978  28.268  27.941  1.00  0.00     0.016 A 
ATOM     33  C   UNL A   1      39.487  26.621  28.936  1.00  0.00     0.016 A 
ATOM     34  C   UNL A   1      40.771  29.124  29.014  1.00  0.00     0.010 A 
ATOM     35  C   UNL A   1      39.292  27.477  30.022  1.00  0.00     0.010 A 
ATOM     36  C   UNL A   1      39.974  28.706  30.085  1.00  0.00    -0.014 A 
BRANCH  36  37
ATOM     37  C   UNL A   1      40.028  29.472  31.350  1.00  0.00     0.031 A 
ATOM     38  C   UNL A   1      41.177  29.220  32.291  1.00  0.00     0.074 A 
ATOM     39  C   UNL A   1      39.115  30.421  31.614  1.00  0.00     0.049 A 
ATOM     40  N   UNL A   1      41.423  29.754  33.457  1.00  0.00    -0.248 NA
ATOM     41  C   UNL A   1      42.185  28.238  31.853  1.00  0.00     0.031 C 
ATOM     42  C   UNL A   1      38.010  30.800  30.732  1.00  0.00     0.029 A 
ATOM     43  N   UNL A   1      38.979  31.246  32.699  1.00  0.00    -0.354 N 
ATOM     44  C   UNL A   1      42.609  29.172  33.894  1.00  0.00     0.074 A 
ATOM     45  C   UNL A   1      43.014  28.219  32.885  1.00  0.00     0.031 C 
ATOM     46  C   UNL A   1      37.306  31.785  31.316  1.00  0.00     0.029 A 
ATOM     47  C   UNL A   1      37.886  32.076  32.624  1.00  0.00     0.049 A 
ATOM     48  H   UNL A   1      39.605  31.245  33.459  1.00  0.00     0.167 HD
ATOM     49  C   UNL A   1      43.302  29.420  35.031  1.00  0.00     0.031 A 
ATOM     50  C   UNL A   1      37.401  32.953  33.525  1.00  0.00     0.031 A 
ATOM     51  C   UNL A   1      42.878  30.362  36.033  1.00  0.00     0.049 A 
ATOM     52  C   UNL A   1      38.131  33.128  34.832  1.00  0.00     0.074 A 
ATOM     53  C   UNL A   1      43.492  30.680  37.230  1.00  0.00     0.029 A 
ATOM     54  N   UNL A   1      41.730  31.137  35.952  1.00  0.00    -0.354 N 
ATOM     55  N   UNL A   1      39.246  32.567  35.237  1.00  0.00    -0.248 NA
ATOM     56  C   UNL A   1      37.540  34.062  35.800  1.00  0.00     0.031 C 
ATOM     57  C   UNL A   1      42.683  31.603  37.900  1.00  0.00     0.029 A 
ATOM     58  C   UNL A   1      41.604  31.915  37.088  1.00  0.00     0.049 A 
ATOM     59  H   UNL A   1      41.098  31.134  35.196  1.00  0.00     0.167 HD
ATOM     60  C   UNL A   1      39.509  33.107  36.492  1.00  0.00     0.074 A 
ATOM     61  C   UNL A   1      38.444  34.050  36.770  1.00  0.00     0.031 C 
ATOM     62  C   UNL A   1      40.538  32.852  37.338  1.00  0.00     0.031 A 
BRANCH  49  63
ATOM     63  C   UNL A   1      44.569  28.640  35.263  1.00  0.00    -0.014 A 
ATOM     64  C   UNL A   1      44.545  27.375  35.882  1.00  0.00     0.010 A 
ATOM     65  C   UNL A   1      45.799  29.156  34.817  1.00  0.00     0.010 A 
ATOM     66  C   UNL A   1      45.729  26.659  36.076  1.00  0.00     0.020 A 
ATOM     67  C   UNL A   1      46.982  28.430  34.984  1.00  0.00     0.020 A 
ATOM     68  C   UNL A   1      46.940  27.191  35.623  1.00  0.00     0.054 A 
BRANCH  68  69
ATOM     69  S   UNL A   1      48.456  26.221  35.857  1.00  0.00     0.124 S 
ATOM     70  O   UNL A   1      47.942  25.004  36.482  1.00  0.00    -0.237 OA
ATOM     71  O   UNL A   1      48.949  26.066  34.492  1.00  0.00    -0.237 OA
ATOM     72  O   UNL A   1      49.277  27.064  36.723  1.00  0.00    -0.744 OA
ENDBRANCH  68  69
ENDBRANCH  49  63
BRANCH  50  73
ATOM     73  C   UNL A   1      36.151  33.710  33.239  1.00  0.00    -0.014 A 
ATOM     74  C   UNL A   1      34.890  33.136  33.483  1.00  0.00     0.010 A 
ATOM     75  C   UNL A   1      36.216  35.006  32.696  1.00  0.00     0.010 A 
ATOM     76  C   UNL A   1      33.721  33.831  33.157  1.00  0.00     0.020 A 
ATOM     77  C   UNL A   1      35.050  35.717  32.401  1.00  0.00     0.020 A 
ATOM     78  C   UNL A   1      33.809  35.116  32.616  1.00  0.00     0.054 A 
BRANCH  78  79
ATOM     79  S   UNL A   1      32.278  36.004  32.218  1.00  0.00     0.124 S 
ATOM     80  O   UNL A   1      31.259  35.008  32.536  1.00  0.00    -0.237 OA
ATOM     81  O   UNL A   1      32.340  37.156  33.113  1.00  0.00    -0.237 OA
ATOM     82  O   UNL A   1      32.425  36.318  30.798  1.00  0.00    -0.744 OA
ENDBRANCH  78  79
ENDBRANCH  50  73
BRANCH  62  83
ATOM     83  C   UNL A   1      40.589  33.638  38.622  1.00  0.00    -0.014 A 
ATOM     84  C   UNL A   1      39.954  33.181  39.789  1.00  0.00     0.010 A 
ATOM     85  C   UNL A   1      41.336  34.831  38.670  1.00  0.00     0.010 A 
ATOM     86  C   UNL A   1      40.034  33.920  40.972  1.00  0.00     0.020 A 
ATOM     87  C   UNL A   1      41.446  35.554  39.859  1.00  0.00     0.020 A 
ATOM     88  C   UNL A   1      40.781  35.102  41.000  1.00  0.00     0.054 A 
BRANCH  88  89
ATOM     89  S   UNL A   1      40.905  36.017  42.559  1.00  0.00     0.124 S 
ATOM     90  O   UNL A   1      39.726  36.877  42.501  1.00  0.00    -0.237 OA
ATOM     91  O   UNL A   1      40.860  34.953  43.558  1.00  0.00    -0.237 OA
ATOM     92  O   UNL A   1      42.187  36.711  42.454  1.00  0.00    -0.744 OA
ENDBRANCH  88  89
ENDBRANCH  62  83
ENDBRANCH  36  37
ENDBRANCH  29  31
ENDBRANCH  28  29
ENDBRANCH  27  28
ENDBRANCH  26  27
ENDBRANCH   1  26
TORSDOF 21
ENDMDL
