MODEL 1
REMARK VINA RESULT:      -8.2      0.000      0.000
REMARK SMILES CNC(=O)CNC(=O)NC[C@H](CC(C)C)C(=O)OCCOCCOC(=O)c1ccc(-c2c3nc(c(-c4ccc(S(=O)(=O)[O-])cc4)c4ccc([nH]4)c(-c4ccc(S(=O)(=O)[O-])cc4)c4nc(c(-c5ccc(S(=O)(=O)[O-])cc5)c5ccc2[nH]5)C=C4)C=C3)cc1
REMARK SMILES IDX 20 1 19 2 18 3 16 4 17 5 11 6 10 7 9 8 6 9 7 10 8 12 5 14
REMARK SMILES IDX 3 15 1 16 2 17 4 19 12 20 13 21 14 22 15 23 21 24 22 25
REMARK SMILES IDX 23 26 24 27 25 28 26 29 27 30 28 31 86 32 29 33 85 34 30 35
REMARK SMILES IDX 31 36 32 37 79 38 33 39 84 40 78 41 80 42 34 43 83 44 77 45
REMARK SMILES IDX 76 46 35 48 65 49 46 50 64 51 47 52 50 53 63 54 81 55 48 56
REMARK SMILES IDX 49 57 62 59 82 60 51 61 36 62 37 63 45 64 38 65 44 66 39 67
REMARK SMILES IDX 40 68 41 69 42 70 43 71 66 72 67 73 75 74 68 75 74 76 69 77
REMARK SMILES IDX 70 78 71 79 72 80 73 81 52 82 53 83 61 84 54 85 60 86 55 87
REMARK SMILES IDX 56 88 57 89 58 90 59 91
REMARK H PARENT 6 11 9 13 2 18 80 47 50 58
REMARK Flexibility Score: inf
ROOT
ATOM      1  C   UNL A   1      32.420  29.555  27.160  1.00  0.00     0.202 C 
ENDROOT
BRANCH   1   2
ATOM      2  C   UNL A   1      31.739  29.010  25.908  1.00  0.00     0.261 C 
BRANCH   2   3
ATOM      3  O   UNL A   1      31.368  27.636  26.124  1.00  0.00    -0.463 OA
BRANCH   3   4
ATOM      4  C   UNL A   1      31.323  26.812  25.052  1.00  0.00     0.310 C 
ATOM      5  O   UNL A   1      30.836  27.096  23.965  1.00  0.00    -0.252 OA
BRANCH   4   6
ATOM      6  C   UNL A   1      31.923  25.451  25.355  1.00  0.00     0.119 C 
BRANCH   6   7
ATOM      7  C   UNL A   1      33.276  25.238  24.675  1.00  0.00     0.133 C 
BRANCH   7   8
ATOM      8  N   UNL A   1      33.210  24.801  23.301  1.00  0.00    -0.337 N 
ATOM      9  N   UNL A   1      34.044  22.591  23.256  1.00  0.00    -0.329 N 
ATOM     10  C   UNL A   1      33.564  23.682  22.657  1.00  0.00     0.315 C 
ATOM     11  H   UNL A   1      34.133  21.834  22.633  1.00  0.00     0.165 HD
ATOM     12  O   UNL A   1      33.402  23.648  21.437  1.00  0.00    -0.249 OA
ATOM     13  H   UNL A   1      32.818  25.477  22.702  1.00  0.00     0.165 HD
BRANCH   9  14
ATOM     14  C   UNL A   1      34.467  22.247  24.600  1.00  0.00     0.217 C 
BRANCH  14  15
ATOM     15  C   UNL A   1      34.515  20.775  25.042  1.00  0.00     0.239 C 
ATOM     16  C   UNL A   1      37.040  20.323  24.925  1.00  0.00     0.142 C 
ATOM     17  N   UNL A   1      35.643  20.026  25.124  1.00  0.00    -0.358 N 
ATOM     18  H   UNL A   1      35.473  19.089  25.371  1.00  0.00     0.163 HD
ATOM     19  O   UNL A   1      33.451  20.160  25.200  1.00  0.00    -0.273 OA
ENDBRANCH  14  15
ENDBRANCH   9  14
ENDBRANCH   7   8
ENDBRANCH   6   7
BRANCH   6  20
ATOM     20  C   UNL A   1      30.990  24.220  25.322  1.00  0.00     0.020 C 
BRANCH  20  21
ATOM     21  C   UNL A   1      31.144  23.031  26.288  1.00  0.00    -0.017 C 
ATOM     22  C   UNL A   1      32.272  23.123  27.307  1.00  0.00     0.007 C 
ATOM     23  C   UNL A   1      29.816  22.827  27.034  1.00  0.00     0.007 C 
ENDBRANCH  20  21
ENDBRANCH   6  20
ENDBRANCH   4   6
ENDBRANCH   3   4
ENDBRANCH   2   3
ENDBRANCH   1   2
BRANCH   1  24
ATOM     24  O   UNL A   1      32.787  30.934  27.088  1.00  0.00    -0.374 OA
BRANCH  24  25
ATOM     25  C   UNL A   1      34.164  31.242  27.299  1.00  0.00     0.202 C 
BRANCH  25  26
ATOM     26  C   UNL A   1      34.446  32.619  27.923  1.00  0.00     0.261 C 
BRANCH  26  27
ATOM     27  O   UNL A   1      33.427  33.029  28.856  1.00  0.00    -0.460 OA
BRANCH  27  28
ATOM     28  C   UNL A   1      33.766  34.062  29.664  1.00  0.00     0.338 C 
ATOM     29  O   UNL A   1      33.158  35.115  29.790  1.00  0.00    -0.246 OA
BRANCH  28  30
ATOM     30  C   UNL A   1      34.898  33.686  30.544  1.00  0.00     0.060 A 
ATOM     31  C   UNL A   1      36.135  34.297  30.294  1.00  0.00     0.016 A 
ATOM     32  C   UNL A   1      34.788  32.724  31.550  1.00  0.00     0.016 A 
ATOM     33  C   UNL A   1      37.274  33.898  30.995  1.00  0.00     0.010 A 
ATOM     34  C   UNL A   1      35.933  32.331  32.261  1.00  0.00     0.010 A 
ATOM     35  C   UNL A   1      37.194  32.879  31.954  1.00  0.00    -0.014 A 
BRANCH  35  36
ATOM     36  C   UNL A   1      38.446  32.272  32.489  1.00  0.00     0.031 A 
ATOM     37  C   UNL A   1      38.873  32.606  33.900  1.00  0.00     0.074 A 
ATOM     38  C   UNL A   1      39.166  31.384  31.775  1.00  0.00     0.049 A 
ATOM     39  N   UNL A   1      39.932  32.215  34.562  1.00  0.00    -0.248 NA
ATOM     40  C   UNL A   1      37.986  33.500  34.665  1.00  0.00     0.031 C 
ATOM     41  C   UNL A   1      38.846  30.920  30.425  1.00  0.00     0.029 A 
ATOM     42  N   UNL A   1      40.321  30.707  32.094  1.00  0.00    -0.354 N 
ATOM     43  C   UNL A   1      39.840  32.813  35.814  1.00  0.00     0.074 A 
ATOM     44  C   UNL A   1      38.646  33.628  35.806  1.00  0.00     0.031 C 
ATOM     45  C   UNL A   1      39.781  30.038  30.032  1.00  0.00     0.029 A 
ATOM     46  C   UNL A   1      40.790  29.899  31.082  1.00  0.00     0.049 A 
ATOM     47  H   UNL A   1      40.771  30.793  32.964  1.00  0.00     0.167 HD
ATOM     48  C   UNL A   1      40.661  32.685  36.883  1.00  0.00     0.031 A 
ATOM     49  C   UNL A   1      41.910  29.152  31.001  1.00  0.00     0.031 A 
ATOM     50  C   UNL A   1      41.849  31.874  36.904  1.00  0.00     0.049 A 
ATOM     51  C   UNL A   1      42.860  29.101  32.175  1.00  0.00     0.074 A 
ATOM     52  C   UNL A   1      42.744  31.691  37.945  1.00  0.00     0.029 A 
ATOM     53  N   UNL A   1      42.306  31.107  35.844  1.00  0.00    -0.354 N 
ATOM     54  N   UNL A   1      42.752  29.671  33.351  1.00  0.00    -0.248 NA
ATOM     55  C   UNL A   1      44.081  28.295  32.014  1.00  0.00     0.031 C 
ATOM     56  C   UNL A   1      43.771  30.857  37.497  1.00  0.00     0.029 A 
ATOM     57  C   UNL A   1      43.479  30.464  36.202  1.00  0.00     0.049 A 
ATOM     58  H   UNL A   1      41.862  31.031  34.969  1.00  0.00     0.167 HD
ATOM     59  C   UNL A   1      43.865  29.255  34.080  1.00  0.00     0.074 A 
ATOM     60  C   UNL A   1      44.629  28.380  33.217  1.00  0.00     0.031 C 
ATOM     61  C   UNL A   1      44.220  29.569  35.349  1.00  0.00     0.031 A 
BRANCH  48  62
ATOM     62  C   UNL A   1      40.314  33.452  38.133  1.00  0.00    -0.014 A 
ATOM     63  C   UNL A   1      40.715  34.790  38.297  1.00  0.00     0.010 A 
ATOM     64  C   UNL A   1      39.504  32.854  39.116  1.00  0.00     0.010 A 
ATOM     65  C   UNL A   1      40.328  35.510  39.430  1.00  0.00     0.020 A 
ATOM     66  C   UNL A   1      39.090  33.580  40.236  1.00  0.00     0.020 A 
ATOM     67  C   UNL A   1      39.512  34.900  40.390  1.00  0.00     0.054 A 
BRANCH  67  68
ATOM     68  S   UNL A   1      38.978  35.880  41.820  1.00  0.00     0.124 S 
ATOM     69  O   UNL A   1      37.613  35.403  42.019  1.00  0.00    -0.237 OA
ATOM     70  O   UNL A   1      39.937  35.487  42.850  1.00  0.00    -0.237 OA
ATOM     71  O   UNL A   1      39.093  37.261  41.359  1.00  0.00    -0.744 OA
ENDBRANCH  67  68
ENDBRANCH  48  62
BRANCH  49  72
ATOM     72  C   UNL A   1      42.239  28.412  29.746  1.00  0.00    -0.014 A 
ATOM     73  C   UNL A   1      43.008  29.009  28.730  1.00  0.00     0.010 A 
ATOM     74  C   UNL A   1      41.722  27.120  29.535  1.00  0.00     0.010 A 
ATOM     75  C   UNL A   1      43.211  28.349  27.513  1.00  0.00     0.020 A 
ATOM     76  C   UNL A   1      41.953  26.443  28.336  1.00  0.00     0.020 A 
ATOM     77  C   UNL A   1      42.678  27.072  27.322  1.00  0.00     0.054 A 
BRANCH  77  78
ATOM     78  S   UNL A   1      42.947  26.235  25.734  1.00  0.00     0.124 S 
ATOM     79  O   UNL A   1      43.136  24.849  26.150  1.00  0.00    -0.237 OA
ATOM     80  O   UNL A   1      41.708  26.517  25.014  1.00  0.00    -0.237 OA
ATOM     81  O   UNL A   1      44.136  26.895  25.197  1.00  0.00    -0.744 OA
ENDBRANCH  77  78
ENDBRANCH  49  72
BRANCH  61  82
ATOM     82  C   UNL A   1      45.447  28.911  35.929  1.00  0.00    -0.014 A 
ATOM     83  C   UNL A   1      46.713  29.519  35.863  1.00  0.00     0.010 A 
ATOM     84  C   UNL A   1      45.309  27.696  36.628  1.00  0.00     0.010 A 
ATOM     85  C   UNL A   1      47.821  28.912  36.461  1.00  0.00     0.020 A 
ATOM     86  C   UNL A   1      46.408  27.101  37.254  1.00  0.00     0.020 A 
ATOM     87  C   UNL A   1      47.661  27.709  37.157  1.00  0.00     0.054 A 
BRANCH  87  88
ATOM     88  S   UNL A   1      49.104  26.974  37.976  1.00  0.00     0.124 S 
ATOM     89  O   UNL A   1      49.261  25.718  37.249  1.00  0.00    -0.237 OA
ATOM     90  O   UNL A   1      50.147  27.971  37.741  1.00  0.00    -0.237 OA
ATOM     91  O   UNL A   1      48.683  26.838  39.369  1.00  0.00    -0.744 OA
ENDBRANCH  87  88
ENDBRANCH  61  82
ENDBRANCH  35  36
ENDBRANCH  28  30
ENDBRANCH  27  28
ENDBRANCH  26  27
ENDBRANCH  25  26
ENDBRANCH  24  25
ENDBRANCH   1  24
TORSDOF 23
ENDMDL
MODEL 2
REMARK VINA RESULT:      -8.2      4.832     10.332
REMARK SMILES CNC(=O)CNC(=O)NC[C@H](CC(C)C)C(=O)OCCOCCOC(=O)c1ccc(-c2c3nc(c(-c4ccc(S(=O)(=O)[O-])cc4)c4ccc([nH]4)c(-c4ccc(S(=O)(=O)[O-])cc4)c4nc(c(-c5ccc(S(=O)(=O)[O-])cc5)c5ccc2[nH]5)C=C4)C=C3)cc1
REMARK SMILES IDX 20 1 19 2 18 3 16 4 17 5 11 6 10 7 9 8 6 9 7 10 8 12 5 14
REMARK SMILES IDX 3 15 1 16 2 17 4 19 12 20 13 21 14 22 15 23 21 24 22 25
REMARK SMILES IDX 23 26 24 27 25 28 26 29 27 30 28 31 86 32 29 33 85 34 30 35
REMARK SMILES IDX 31 36 32 37 79 38 33 39 84 40 78 41 80 42 34 43 83 44 77 45
REMARK SMILES IDX 76 46 35 48 65 49 46 50 64 51 47 52 50 53 63 54 81 55 48 56
REMARK SMILES IDX 49 57 62 59 82 60 51 61 36 62 37 63 45 64 38 65 44 66 39 67
REMARK SMILES IDX 40 68 41 69 42 70 43 71 66 72 67 73 75 74 68 75 74 76 69 77
REMARK SMILES IDX 70 78 71 79 72 80 73 81 52 82 53 83 61 84 54 85 60 86 55 87
REMARK SMILES IDX 56 88 57 89 58 90 59 91
REMARK H PARENT 6 11 9 13 2 18 80 47 50 58
REMARK Flexibility Score: inf
ROOT
ATOM      1  C   UNL A   1      42.655  21.970  27.484  1.00  0.00     0.202 C 
ENDROOT
BRANCH   1   2
ATOM      2  C   UNL A   1      42.871  21.871  25.976  1.00  0.00     0.261 C 
BRANCH   2   3
ATOM      3  O   UNL A   1      43.456  23.095  25.495  1.00  0.00    -0.463 OA
BRANCH   3   4
ATOM      4  C   UNL A   1      44.674  23.447  25.966  1.00  0.00     0.310 C 
ATOM      5  O   UNL A   1      45.594  22.671  26.191  1.00  0.00    -0.252 OA
BRANCH   4   6
ATOM      6  C   UNL A   1      44.772  24.939  26.227  1.00  0.00     0.119 C 
BRANCH   6   7
ATOM      7  C   UNL A   1      46.217  25.438  26.256  1.00  0.00     0.133 C 
BRANCH   7   8
ATOM      8  N   UNL A   1      46.776  25.780  24.970  1.00  0.00    -0.337 N 
ATOM      9  N   UNL A   1      47.529  28.014  25.133  1.00  0.00    -0.329 N 
ATOM     10  C   UNL A   1      47.315  26.888  24.448  1.00  0.00     0.315 C 
ATOM     11  H   UNL A   1      48.040  28.674  24.612  1.00  0.00     0.165 HD
ATOM     12  O   UNL A   1      47.669  26.853  23.269  1.00  0.00    -0.249 OA
ATOM     13  H   UNL A   1      46.755  25.030  24.332  1.00  0.00     0.165 HD
BRANCH   9  14
ATOM     14  C   UNL A   1      47.190  28.501  26.456  1.00  0.00     0.217 C 
BRANCH  14  15
ATOM     15  C   UNL A   1      47.379  29.988  26.803  1.00  0.00     0.239 C 
ATOM     16  C   UNL A   1      44.948  30.691  27.240  1.00  0.00     0.142 C 
ATOM     17  N   UNL A   1      46.374  30.851  27.094  1.00  0.00    -0.358 N 
ATOM     18  H   UNL A   1      46.680  31.775  27.235  1.00  0.00     0.163 HD
ATOM     19  O   UNL A   1      48.502  30.497  26.673  1.00  0.00    -0.273 OA
ENDBRANCH  14  15
ENDBRANCH   9  14
ENDBRANCH   7   8
ENDBRANCH   6   7
BRANCH   6  20
ATOM     20  C   UNL A   1      43.863  25.550  27.316  1.00  0.00     0.020 C 
BRANCH  20  21
ATOM     21  C   UNL A   1      44.377  25.921  28.719  1.00  0.00    -0.017 C 
ATOM     22  C   UNL A   1      44.493  27.407  29.031  1.00  0.00     0.007 C 
ATOM     23  C   UNL A   1      43.465  25.264  29.768  1.00  0.00     0.007 C 
ENDBRANCH  20  21
ENDBRANCH   6  20
ENDBRANCH   4   6
ENDBRANCH   3   4
ENDBRANCH   2   3
ENDBRANCH   1   2
BRANCH   1  24
ATOM     24  O   UNL A   1      41.287  21.919  27.896  1.00  0.00    -0.374 OA
BRANCH  24  25
ATOM     25  C   UNL A   1      40.305  22.012  26.866  1.00  0.00     0.202 C 
BRANCH  25  26
ATOM     26  C   UNL A   1      39.673  23.402  26.679  1.00  0.00     0.261 C 
BRANCH  26  27
ATOM     27  O   UNL A   1      40.082  24.342  27.692  1.00  0.00    -0.460 OA
BRANCH  27  28
ATOM     28  C   UNL A   1      40.296  25.606  27.254  1.00  0.00     0.338 C 
ATOM     29  O   UNL A   1      40.478  25.951  26.095  1.00  0.00    -0.246 OA
BRANCH  28  30
ATOM     30  C   UNL A   1      40.095  26.580  28.353  1.00  0.00     0.060 A 
ATOM     31  C   UNL A   1      40.896  27.730  28.344  1.00  0.00     0.016 A 
ATOM     32  C   UNL A   1      39.198  26.365  29.401  1.00  0.00     0.016 A 
ATOM     33  C   UNL A   1      40.856  28.627  29.414  1.00  0.00     0.010 A 
ATOM     34  C   UNL A   1      39.152  27.272  30.471  1.00  0.00     0.010 A 
ATOM     35  C   UNL A   1      40.017  28.384  30.509  1.00  0.00    -0.014 A 
BRANCH  35  36
ATOM     36  C   UNL A   1      40.183  29.184  31.756  1.00  0.00     0.031 A 
ATOM     37  C   UNL A   1      39.182  30.274  32.062  1.00  0.00     0.074 A 
ATOM     38  C   UNL A   1      41.160  28.917  32.646  1.00  0.00     0.049 A 
ATOM     39  N   UNL A   1      39.143  31.107  33.071  1.00  0.00    -0.248 NA
ATOM     40  C   UNL A   1      38.079  30.447  31.101  1.00  0.00     0.031 C 
ATOM     41  C   UNL A   1      42.162  27.859  32.516  1.00  0.00     0.029 A 
ATOM     42  N   UNL A   1      41.464  29.516  33.847  1.00  0.00    -0.354 N 
ATOM     43  C   UNL A   1      38.019  31.898  32.866  1.00  0.00     0.074 A 
ATOM     44  C   UNL A   1      37.426  31.478  31.617  1.00  0.00     0.031 C 
ATOM     45  C   UNL A   1      42.970  27.886  33.591  1.00  0.00     0.029 A 
ATOM     46  C   UNL A   1      42.571  28.985  34.470  1.00  0.00     0.049 A 
ATOM     47  H   UNL A   1      40.940  30.258  34.224  1.00  0.00     0.167 HD
ATOM     48  C   UNL A   1      37.510  32.877  33.653  1.00  0.00     0.031 A 
ATOM     49  C   UNL A   1      43.203  29.352  35.604  1.00  0.00     0.031 A 
ATOM     50  C   UNL A   1      38.087  33.300  34.901  1.00  0.00     0.049 A 
ATOM     51  C   UNL A   1      42.668  30.509  36.416  1.00  0.00     0.074 A 
ATOM     52  C   UNL A   1      37.639  34.290  35.760  1.00  0.00     0.029 A 
ATOM     53  N   UNL A   1      39.229  32.762  35.471  1.00  0.00    -0.354 N 
ATOM     54  N   UNL A   1      41.601  31.242  36.206  1.00  0.00    -0.248 NA
ATOM     55  C   UNL A   1      43.420  30.883  37.625  1.00  0.00     0.031 C 
ATOM     56  C   UNL A   1      38.540  34.387  36.823  1.00  0.00     0.029 A 
ATOM     57  C   UNL A   1      39.509  33.410  36.662  1.00  0.00     0.049 A 
ATOM     58  H   UNL A   1      39.760  32.029  35.087  1.00  0.00     0.167 HD
ATOM     59  C   UNL A   1      41.531  32.128  37.280  1.00  0.00     0.074 A 
ATOM     60  C   UNL A   1      42.658  31.836  38.140  1.00  0.00     0.031 C 
ATOM     61  C   UNL A   1      40.615  33.095  37.530  1.00  0.00     0.031 A 
BRANCH  48  62
ATOM     62  C   UNL A   1      36.259  33.575  33.187  1.00  0.00    -0.014 A 
ATOM     63  C   UNL A   1      34.988  33.144  33.610  1.00  0.00     0.010 A 
ATOM     64  C   UNL A   1      36.360  34.729  32.389  1.00  0.00     0.010 A 
ATOM     65  C   UNL A   1      33.841  33.843  33.226  1.00  0.00     0.020 A 
ATOM     66  C   UNL A   1      35.217  35.448  32.027  1.00  0.00     0.020 A 
ATOM     67  C   UNL A   1      33.964  34.995  32.441  1.00  0.00     0.054 A 
BRANCH  67  68
ATOM     68  S   UNL A   1      32.461  35.913  32.008  1.00  0.00     0.124 S 
ATOM     69  O   UNL A   1      32.644  37.158  32.749  1.00  0.00    -0.237 OA
ATOM     70  O   UNL A   1      32.564  36.026  30.555  1.00  0.00    -0.237 OA
ATOM     71  O   UNL A   1      31.380  35.057  32.489  1.00  0.00    -0.744 OA
ENDBRANCH  67  68
ENDBRANCH  48  62
BRANCH  49  72
ATOM     72  C   UNL A   1      44.449  28.653  36.038  1.00  0.00    -0.014 A 
ATOM     73  C   UNL A   1      44.399  27.561  36.924  1.00  0.00     0.010 A 
ATOM     74  C   UNL A   1      45.705  29.125  35.613  1.00  0.00     0.010 A 
ATOM     75  C   UNL A   1      45.579  26.989  37.413  1.00  0.00     0.020 A 
ATOM     76  C   UNL A   1      46.884  28.532  36.070  1.00  0.00     0.020 A 
ATOM     77  C   UNL A   1      46.814  27.482  36.987  1.00  0.00     0.054 A 
BRANCH  77  78
ATOM     78  S   UNL A   1      48.332  26.730  37.638  1.00  0.00     0.124 S 
ATOM     79  O   UNL A   1      49.246  26.866  36.507  1.00  0.00    -0.237 OA
ATOM     80  O   UNL A   1      48.629  27.568  38.796  1.00  0.00    -0.237 OA
ATOM     81  O   UNL A   1      47.928  25.362  37.954  1.00  0.00    -0.744 OA
ENDBRANCH  77  78
ENDBRANCH  49  72
BRANCH  61  82
ATOM     82  C   UNL A   1      40.731  33.869  38.819  1.00  0.00    -0.014 A 
ATOM     83  C   UNL A   1      41.430  35.086  38.891  1.00  0.00     0.010 A 
ATOM     84  C   UNL A   1      40.051  33.404  39.963  1.00  0.00     0.010 A 
ATOM     85  C   UNL A   1      41.471  35.810  40.087  1.00  0.00     0.020 A 
ATOM     86  C   UNL A   1      40.063  34.140  41.151  1.00  0.00     0.020 A 
ATOM     87  C   UNL A   1      40.783  35.334  41.209  1.00  0.00     0.054 A 
BRANCH  87  88
ATOM     88  S   UNL A   1      40.800  36.323  42.730  1.00  0.00     0.124 S 
ATOM     89  O   UNL A   1      41.640  37.455  42.348  1.00  0.00    -0.237 OA
ATOM     90  O   UNL A   1      39.384  36.630  42.928  1.00  0.00    -0.237 OA
ATOM     91  O   UNL A   1      41.381  35.424  43.724  1.00  0.00    -0.744 OA
ENDBRANCH  87  88
ENDBRANCH  61  82
ENDBRANCH  35  36
ENDBRANCH  28  30
ENDBRANCH  27  28
ENDBRANCH  26  27
ENDBRANCH  25  26
ENDBRANCH  24  25
ENDBRANCH   1  24
TORSDOF 23
ENDMDL
MODEL 3
REMARK VINA RESULT:      -8.1      9.779     16.395
REMARK SMILES CNC(=O)CNC(=O)NC[C@H](CC(C)C)C(=O)OCCOCCOC(=O)c1ccc(-c2c3nc(c(-c4ccc(S(=O)(=O)[O-])cc4)c4ccc([nH]4)c(-c4ccc(S(=O)(=O)[O-])cc4)c4nc(c(-c5ccc(S(=O)(=O)[O-])cc5)c5ccc2[nH]5)C=C4)C=C3)cc1
REMARK SMILES IDX 20 1 19 2 18 3 16 4 17 5 11 6 10 7 9 8 6 9 7 10 8 12 5 14
REMARK SMILES IDX 3 15 1 16 2 17 4 19 12 20 13 21 14 22 15 23 21 24 22 25
REMARK SMILES IDX 23 26 24 27 25 28 26 29 27 30 28 31 86 32 29 33 85 34 30 35
REMARK SMILES IDX 31 36 32 37 79 38 33 39 84 40 78 41 80 42 34 43 83 44 77 45
REMARK SMILES IDX 76 46 35 48 65 49 46 50 64 51 47 52 50 53 63 54 81 55 48 56
REMARK SMILES IDX 49 57 62 59 82 60 51 61 36 62 37 63 45 64 38 65 44 66 39 67
REMARK SMILES IDX 40 68 41 69 42 70 43 71 66 72 67 73 75 74 68 75 74 76 69 77
REMARK SMILES IDX 70 78 71 79 72 80 73 81 52 82 53 83 61 84 54 85 60 86 55 87
REMARK SMILES IDX 56 88 57 89 58 90 59 91
REMARK H PARENT 6 11 9 13 2 18 80 47 50 58
REMARK Flexibility Score: inf
ROOT
ATOM      1  C   UNL A   1      45.907  41.345  24.968  1.00  0.00     0.202 C 
ENDROOT
BRANCH   1   2
ATOM      2  C   UNL A   1      46.010  42.859  25.128  1.00  0.00     0.261 C 
BRANCH   2   3
ATOM      3  O   UNL A   1      45.405  43.504  23.992  1.00  0.00    -0.463 OA
BRANCH   3   4
ATOM      4  C   UNL A   1      46.218  43.979  23.022  1.00  0.00     0.310 C 
ATOM      5  O   UNL A   1      47.396  44.276  23.172  1.00  0.00    -0.252 OA
BRANCH   4   6
ATOM      6  C   UNL A   1      45.490  44.143  21.700  1.00  0.00     0.119 C 
BRANCH   6   7
ATOM      7  C   UNL A   1      44.591  42.952  21.369  1.00  0.00     0.133 C 
BRANCH   7   8
ATOM      8  N   UNL A   1      43.408  42.828  22.188  1.00  0.00    -0.337 N 
ATOM      9  N   UNL A   1      41.558  43.089  20.742  1.00  0.00    -0.329 N 
ATOM     10  C   UNL A   1      42.094  42.915  21.952  1.00  0.00     0.315 C 
ATOM     11  H   UNL A   1      40.577  43.009  20.756  1.00  0.00     0.165 HD
ATOM     12  O   UNL A   1      41.331  42.793  22.910  1.00  0.00    -0.249 OA
ATOM     13  H   UNL A   1      43.615  42.636  23.131  1.00  0.00     0.165 HD
BRANCH   9  14
ATOM     14  C   UNL A   1      42.067  43.366  19.413  1.00  0.00     0.217 C 
BRANCH  14  15
ATOM     15  C   UNL A   1      41.143  43.972  18.343  1.00  0.00     0.239 C 
ATOM     16  C   UNL A   1      42.859  44.655  16.559  1.00  0.00     0.142 C 
ATOM     17  N   UNL A   1      41.563  44.522  17.177  1.00  0.00    -0.358 N 
ATOM     18  H   UNL A   1      40.834  44.910  16.642  1.00  0.00     0.163 HD
ATOM     19  O   UNL A   1      39.939  44.114  18.600  1.00  0.00    -0.273 OA
ENDBRANCH  14  15
ENDBRANCH   9  14
ENDBRANCH   7   8
ENDBRANCH   6   7
BRANCH   6  20
ATOM     20  C   UNL A   1      46.283  44.699  20.496  1.00  0.00     0.020 C 
BRANCH  20  21
ATOM     21  C   UNL A   1      46.356  46.201  20.167  1.00  0.00    -0.017 C 
ATOM     22  C   UNL A   1      45.596  47.139  21.095  1.00  0.00     0.007 C 
ATOM     23  C   UNL A   1      47.832  46.627  20.131  1.00  0.00     0.007 C 
ENDBRANCH  20  21
ENDBRANCH   6  20
ENDBRANCH   4   6
ENDBRANCH   3   4
ENDBRANCH   2   3
ENDBRANCH   1   2
BRANCH   1  24
ATOM     24  O   UNL A   1      47.104  40.629  25.282  1.00  0.00    -0.374 OA
BRANCH  24  25
ATOM     25  C   UNL A   1      46.948  39.267  25.677  1.00  0.00     0.202 C 
BRANCH  25  26
ATOM     26  C   UNL A   1      47.566  38.897  27.035  1.00  0.00     0.261 C 
BRANCH  26  27
ATOM     27  O   UNL A   1      46.862  37.828  27.697  1.00  0.00    -0.460 OA
BRANCH  27  28
ATOM     28  C   UNL A   1      47.576  37.159  28.634  1.00  0.00     0.338 C 
ATOM     29  O   UNL A   1      48.179  37.652  29.576  1.00  0.00    -0.246 OA
BRANCH  28  30
ATOM     30  C   UNL A   1      47.387  35.696  28.488  1.00  0.00     0.060 A 
ATOM     31  C   UNL A   1      47.002  35.222  27.227  1.00  0.00     0.016 A 
ATOM     32  C   UNL A   1      47.521  34.804  29.555  1.00  0.00     0.016 A 
ATOM     33  C   UNL A   1      46.680  33.876  27.046  1.00  0.00     0.010 A 
ATOM     34  C   UNL A   1      47.206  33.450  29.369  1.00  0.00     0.010 A 
ATOM     35  C   UNL A   1      46.735  32.984  28.126  1.00  0.00    -0.014 A 
BRANCH  35  36
ATOM     36  C   UNL A   1      46.128  31.629  27.993  1.00  0.00     0.031 A 
ATOM     37  C   UNL A   1      46.958  30.514  27.400  1.00  0.00     0.074 A 
ATOM     38  C   UNL A   1      44.888  31.359  28.448  1.00  0.00     0.049 A 
ATOM     39  N   UNL A   1      46.631  29.267  27.169  1.00  0.00    -0.248 NA
ATOM     40  C   UNL A   1      48.341  30.849  27.020  1.00  0.00     0.031 C 
ATOM     41  C   UNL A   1      43.992  32.318  29.095  1.00  0.00     0.029 A 
ATOM     42  N   UNL A   1      44.168  30.186  28.438  1.00  0.00    -0.354 N 
ATOM     43  C   UNL A   1      47.760  28.674  26.617  1.00  0.00     0.074 A 
ATOM     44  C   UNL A   1      48.769  29.705  26.507  1.00  0.00     0.031 C 
ATOM     45  C   UNL A   1      42.844  31.696  29.418  1.00  0.00     0.029 A 
ATOM     46  C   UNL A   1      42.903  30.305  28.967  1.00  0.00     0.049 A 
ATOM     47  H   UNL A   1      44.524  29.341  28.083  1.00  0.00     0.167 HD
ATOM     48  C   UNL A   1      47.954  27.385  26.250  1.00  0.00     0.031 A 
ATOM     49  C   UNL A   1      41.900  29.407  29.061  1.00  0.00     0.031 A 
ATOM     50  C   UNL A   1      46.960  26.350  26.359  1.00  0.00     0.049 A 
ATOM     51  C   UNL A   1      42.111  27.998  28.557  1.00  0.00     0.074 A 
ATOM     52  C   UNL A   1      47.070  25.016  26.004  1.00  0.00     0.029 A 
ATOM     53  N   UNL A   1      45.682  26.527  26.862  1.00  0.00    -0.354 N 
ATOM     54  N   UNL A   1      43.188  27.457  28.042  1.00  0.00    -0.248 NA
ATOM     55  C   UNL A   1      40.968  27.075  28.656  1.00  0.00     0.031 C 
ATOM     56  C   UNL A   1      45.841  24.398  26.242  1.00  0.00     0.029 A 
ATOM     57  C   UNL A   1      44.988  25.329  26.811  1.00  0.00     0.049 A 
ATOM     58  H   UNL A   1      45.322  27.375  27.205  1.00  0.00     0.167 HD
ATOM     59  C   UNL A   1      42.866  26.123  27.801  1.00  0.00     0.074 A 
ATOM     60  C   UNL A   1      41.497  25.936  28.232  1.00  0.00     0.031 C 
ATOM     61  C   UNL A   1      43.636  25.141  27.271  1.00  0.00     0.031 A 
BRANCH  48  62
ATOM     62  C   UNL A   1      49.297  27.009  25.680  1.00  0.00    -0.014 A 
ATOM     63  C   UNL A   1      49.579  27.187  24.313  1.00  0.00     0.010 A 
ATOM     64  C   UNL A   1      50.317  26.556  26.536  1.00  0.00     0.010 A 
ATOM     65  C   UNL A   1      50.851  26.899  23.811  1.00  0.00     0.020 A 
ATOM     66  C   UNL A   1      51.598  26.295  26.043  1.00  0.00     0.020 A 
ATOM     67  C   UNL A   1      51.854  26.460  24.682  1.00  0.00     0.054 A 
BRANCH  67  68
ATOM     68  S   UNL A   1      53.510  26.152  24.010  1.00  0.00     0.124 S 
ATOM     69  O   UNL A   1      54.269  27.278  24.547  1.00  0.00    -0.237 OA
ATOM     70  O   UNL A   1      53.843  24.845  24.571  1.00  0.00    -0.237 OA
ATOM     71  O   UNL A   1      53.309  26.172  22.563  1.00  0.00    -0.744 OA
ENDBRANCH  67  68
ENDBRANCH  48  62
BRANCH  49  72
ATOM     72  C   UNL A   1      40.574  29.807  29.618  1.00  0.00    -0.014 A 
ATOM     73  C   UNL A   1      39.505  30.155  28.772  1.00  0.00     0.010 A 
ATOM     74  C   UNL A   1      40.396  29.906  31.011  1.00  0.00     0.010 A 
ATOM     75  C   UNL A   1      38.305  30.639  29.305  1.00  0.00     0.020 A 
ATOM     76  C   UNL A   1      39.187  30.353  31.548  1.00  0.00     0.020 A 
ATOM     77  C   UNL A   1      38.156  30.740  30.691  1.00  0.00     0.054 A 
BRANCH  77  78
ATOM     78  S   UNL A   1      36.594  31.375  31.363  1.00  0.00     0.124 S 
ATOM     79  O   UNL A   1      36.245  30.348  32.339  1.00  0.00    -0.237 OA
ATOM     80  O   UNL A   1      36.990  32.667  31.917  1.00  0.00    -0.237 OA
ATOM     81  O   UNL A   1      35.722  31.448  30.192  1.00  0.00    -0.744 OA
ENDBRANCH  77  78
ENDBRANCH  49  72
BRANCH  61  82
ATOM     82  C   UNL A   1      43.060  23.750  27.191  1.00  0.00    -0.014 A 
ATOM     83  C   UNL A   1      42.389  23.292  26.044  1.00  0.00     0.010 A 
ATOM     84  C   UNL A   1      43.272  22.857  28.260  1.00  0.00     0.010 A 
ATOM     85  C   UNL A   1      41.917  21.977  25.978  1.00  0.00     0.020 A 
ATOM     86  C   UNL A   1      42.830  21.532  28.185  1.00  0.00     0.020 A 
ATOM     87  C   UNL A   1      42.145  21.104  27.047  1.00  0.00     0.054 A 
BRANCH  87  88
ATOM     88  S   UNL A   1      41.577  19.386  26.911  1.00  0.00     0.124 S 
ATOM     89  O   UNL A   1      42.835  18.646  26.937  1.00  0.00    -0.237 OA
ATOM     90  O   UNL A   1      40.733  19.233  28.095  1.00  0.00    -0.237 OA
ATOM     91  O   UNL A   1      40.863  19.355  25.636  1.00  0.00    -0.744 OA
ENDBRANCH  87  88
ENDBRANCH  61  82
ENDBRANCH  35  36
ENDBRANCH  28  30
ENDBRANCH  27  28
ENDBRANCH  26  27
ENDBRANCH  25  26
ENDBRANCH  24  25
ENDBRANCH   1  24
TORSDOF 23
ENDMDL
