MODEL 1
REMARK VINA RESULT:      -9.5      0.000      0.000
REMARK SMILES Cc1cc(Cl)ccc1-c1ccc(C(=O)OCCOCCOC(=O)c2ccc(-c3c4nc(c(-c5ccc(S(=O)(=O)[O-])cc5)c5ccc([nH]5)c(-c5ccc(S(=O)(=O)[O-])cc5)c5nc(c(-c6ccc(S(=O)(=O)[O-])cc6)c6ccc3[nH]6)C=C5)C=C4)cc2)c(Cl)c1
REMARK SMILES IDX 19 1 18 2 17 3 16 4 15 5 13 6 14 7 12 8 9 9 10 10 86 11
REMARK SMILES IDX 11 12 84 13 85 14 8 15 1 16 2 17 3 18 4 19 7 20 5 21 6 22
REMARK SMILES IDX 20 23 21 24 22 25 23 26 24 27 25 28 83 29 26 30 82 31 27 32
REMARK SMILES IDX 28 33 29 34 76 35 30 36 81 37 75 38 77 39 31 40 80 41 74 42
REMARK SMILES IDX 73 43 32 45 62 46 43 47 61 48 44 49 47 50 60 51 78 52 45 53
REMARK SMILES IDX 46 54 59 56 79 57 48 58 33 59 34 60 42 61 35 62 41 63 36 64
REMARK SMILES IDX 37 65 38 66 39 67 40 68 63 69 64 70 72 71 65 72 71 73 66 74
REMARK SMILES IDX 67 75 68 76 69 77 70 78 49 79 50 80 58 81 51 82 57 83 52 84
REMARK SMILES IDX 53 85 54 86 55 87 56 88
REMARK H PARENT 77 44 47 55
REMARK Flexibility Score: inf
ROOT
ATOM      1  C   UNL A   1      42.247  20.483  26.312  1.00  0.00     0.202 C 
ENDROOT
BRANCH   1   2
ATOM      2  O   UNL A   1      42.881  21.150  25.220  1.00  0.00    -0.374 OA
BRANCH   2   3
ATOM      3  C   UNL A   1      42.907  22.579  25.256  1.00  0.00     0.202 C 
BRANCH   3   4
ATOM      4  C   UNL A   1      44.045  23.234  24.470  1.00  0.00     0.261 C 
BRANCH   4   5
ATOM      5  O   UNL A   1      45.019  23.777  25.377  1.00  0.00    -0.460 OA
BRANCH   5   6
ATOM      6  C   UNL A   1      45.483  22.930  26.317  1.00  0.00     0.339 C 
ATOM      7  O   UNL A   1      46.080  21.876  26.126  1.00  0.00    -0.246 OA
BRANCH   6   8
ATOM      8  C   UNL A   1      45.375  23.525  27.665  1.00  0.00     0.078 A 
ATOM      9  C   UNL A   1      44.826  24.662  30.192  1.00  0.00    -0.017 A 
ATOM     10  C   UNL A   1      44.077  23.577  29.724  1.00  0.00     0.010 A 
ATOM     11  C   UNL A   1      45.899  25.122  29.404  1.00  0.00     0.030 A 
ATOM     12  C   UNL A   1      44.348  23.015  28.475  1.00  0.00     0.018 A 
ATOM     13  C   UNL A   1      46.173  24.566  28.145  1.00  0.00     0.056 A 
ATOM     14  Cl  UNL A   1      47.444  25.290  27.229  1.00  0.00    -0.083 Cl
BRANCH   9  15
ATOM     15  C   UNL A   1      44.403  25.398  31.396  1.00  0.00    -0.015 A 
ATOM     16  C   UNL A   1      44.938  23.490  33.033  1.00  0.00     0.045 C 
ATOM     17  C   UNL A   1      44.423  24.866  32.703  1.00  0.00    -0.042 A 
ATOM     18  C   UNL A   1      43.911  25.635  33.769  1.00  0.00     0.024 A 
ATOM     19  C   UNL A   1      43.407  26.916  33.552  1.00  0.00     0.041 A 
ATOM     20  C   UNL A   1      43.894  26.702  31.210  1.00  0.00     0.010 A 
ATOM     21  Cl  UNL A   1      42.777  27.827  34.868  1.00  0.00    -0.084 Cl
ATOM     22  C   UNL A   1      43.401  27.457  32.275  1.00  0.00     0.021 A 
ENDBRANCH   9  15
ENDBRANCH   6   8
ENDBRANCH   5   6
ENDBRANCH   4   5
ENDBRANCH   3   4
ENDBRANCH   2   3
ENDBRANCH   1   2
BRANCH   1  23
ATOM     23  C   UNL A   1      40.724  20.327  26.226  1.00  0.00     0.261 C 
BRANCH  23  24
ATOM     24  O   UNL A   1      40.033  21.207  27.129  1.00  0.00    -0.460 OA
BRANCH  24  25
ATOM     25  C   UNL A   1      39.427  22.259  26.530  1.00  0.00     0.338 C 
ATOM     26  O   UNL A   1      38.602  22.212  25.625  1.00  0.00    -0.246 OA
BRANCH  25  27
ATOM     27  C   UNL A   1      39.758  23.518  27.224  1.00  0.00     0.060 A 
ATOM     28  C   UNL A   1      39.075  24.669  26.813  1.00  0.00     0.016 A 
ATOM     29  C   UNL A   1      40.770  23.599  28.184  1.00  0.00     0.016 A 
ATOM     30  C   UNL A   1      39.454  25.916  27.299  1.00  0.00     0.010 A 
ATOM     31  C   UNL A   1      41.152  24.856  28.671  1.00  0.00     0.010 A 
ATOM     32  C   UNL A   1      40.530  26.023  28.190  1.00  0.00    -0.014 A 
BRANCH  32  33
ATOM     33  C   UNL A   1      41.100  27.368  28.456  1.00  0.00     0.031 A 
ATOM     34  C   UNL A   1      42.453  27.710  27.889  1.00  0.00     0.074 A 
ATOM     35  C   UNL A   1      40.386  28.303  29.107  1.00  0.00     0.049 A 
ATOM     36  N   UNL A   1      43.091  28.851  27.897  1.00  0.00    -0.248 NA
ATOM     37  C   UNL A   1      43.178  26.620  27.217  1.00  0.00     0.031 C 
ATOM     38  C   UNL A   1      39.047  28.113  29.662  1.00  0.00     0.029 A 
ATOM     39  N   UNL A   1      40.685  29.613  29.388  1.00  0.00    -0.354 N 
ATOM     40  C   UNL A   1      44.288  28.620  27.229  1.00  0.00     0.074 A 
ATOM     41  C   UNL A   1      44.305  27.219  26.869  1.00  0.00     0.031 C 
ATOM     42  C   UNL A   1      38.628  29.273  30.196  1.00  0.00     0.029 A 
ATOM     43  C   UNL A   1      39.676  30.280  30.040  1.00  0.00     0.049 A 
ATOM     44  H   UNL A   1      41.540  30.035  29.145  1.00  0.00     0.167 HD
ATOM     45  C   UNL A   1      45.279  29.494  26.926  1.00  0.00     0.031 A 
ATOM     46  C   UNL A   1      39.602  31.561  30.454  1.00  0.00     0.031 A 
ATOM     47  C   UNL A   1      45.276  30.881  27.307  1.00  0.00     0.049 A 
ATOM     48  C   UNL A   1      40.748  32.496  30.174  1.00  0.00     0.074 A 
ATOM     49  C   UNL A   1      46.235  31.848  27.055  1.00  0.00     0.029 A 
ATOM     50  N   UNL A   1      44.266  31.500  28.027  1.00  0.00    -0.354 N 
ATOM     51  N   UNL A   1      41.864  32.265  29.526  1.00  0.00    -0.248 NA
ATOM     52  C   UNL A   1      40.612  33.872  30.671  1.00  0.00     0.031 C 
ATOM     53  C   UNL A   1      45.826  33.039  27.666  1.00  0.00     0.029 A 
ATOM     54  C   UNL A   1      44.585  32.829  28.247  1.00  0.00     0.049 A 
ATOM     55  H   UNL A   1      43.442  31.058  28.336  1.00  0.00     0.167 HD
ATOM     56  C   UNL A   1      42.547  33.478  29.504  1.00  0.00     0.074 A 
ATOM     57  C   UNL A   1      41.714  34.439  30.200  1.00  0.00     0.031 C 
ATOM     58  C   UNL A   1      43.750  33.773  28.948  1.00  0.00     0.031 A 
BRANCH  45  59
ATOM     59  C   UNL A   1      46.467  28.946  26.177  1.00  0.00    -0.014 A 
ATOM     60  C   UNL A   1      46.328  28.414  24.882  1.00  0.00     0.010 A 
ATOM     61  C   UNL A   1      47.735  28.949  26.784  1.00  0.00     0.010 A 
ATOM     62  C   UNL A   1      47.424  27.837  24.233  1.00  0.00     0.020 A 
ATOM     63  C   UNL A   1      48.840  28.399  26.126  1.00  0.00     0.020 A 
ATOM     64  C   UNL A   1      48.670  27.823  24.866  1.00  0.00     0.054 A 
BRANCH  64  65
ATOM     65  S   UNL A   1      50.073  27.045  24.016  1.00  0.00     0.124 S 
ATOM     66  O   UNL A   1      51.044  28.136  23.982  1.00  0.00    -0.237 OA
ATOM     67  O   UNL A   1      50.409  25.933  24.900  1.00  0.00    -0.237 OA
ATOM     68  O   UNL A   1      49.522  26.662  22.719  1.00  0.00    -0.744 OA
ENDBRANCH  64  65
ENDBRANCH  45  59
BRANCH  46  69
ATOM     69  C   UNL A   1      38.380  32.043  31.152  1.00  0.00    -0.014 A 
ATOM     70  C   UNL A   1      38.263  31.926  32.549  1.00  0.00     0.010 A 
ATOM     71  C   UNL A   1      37.329  32.631  30.424  1.00  0.00     0.010 A 
ATOM     72  C   UNL A   1      37.113  32.378  33.204  1.00  0.00     0.020 A 
ATOM     73  C   UNL A   1      36.188  33.106  31.079  1.00  0.00     0.020 A 
ATOM     74  C   UNL A   1      36.084  32.968  32.464  1.00  0.00     0.054 A 
BRANCH  74  75
ATOM     75  S   UNL A   1      34.629  33.605  33.342  1.00  0.00     0.124 S 
ATOM     76  O   UNL A   1      34.559  34.979  32.858  1.00  0.00    -0.237 OA
ATOM     77  O   UNL A   1      33.567  32.716  32.878  1.00  0.00    -0.237 OA
ATOM     78  O   UNL A   1      34.988  33.453  34.750  1.00  0.00    -0.744 OA
ENDBRANCH  74  75
ENDBRANCH  46  69
BRANCH  58  79
ATOM     79  C   UNL A   1      44.216  35.204  29.031  1.00  0.00    -0.014 A 
ATOM     80  C   UNL A   1      43.874  36.146  28.044  1.00  0.00     0.010 A 
ATOM     81  C   UNL A   1      44.994  35.615  30.128  1.00  0.00     0.010 A 
ATOM     82  C   UNL A   1      44.344  37.460  28.129  1.00  0.00     0.020 A 
ATOM     83  C   UNL A   1      45.442  36.934  30.232  1.00  0.00     0.020 A 
ATOM     84  C   UNL A   1      45.131  37.843  29.219  1.00  0.00     0.054 A 
BRANCH  84  85
ATOM     85  S   UNL A   1      45.722  39.556  29.316  1.00  0.00     0.124 S 
ATOM     86  O   UNL A   1      45.146  40.004  30.581  1.00  0.00    -0.237 OA
ATOM     87  O   UNL A   1      47.174  39.398  29.307  1.00  0.00    -0.237 OA
ATOM     88  O   UNL A   1      45.162  40.183  28.121  1.00  0.00    -0.744 OA
ENDBRANCH  84  85
ENDBRANCH  58  79
ENDBRANCH  32  33
ENDBRANCH  25  27
ENDBRANCH  24  25
ENDBRANCH  23  24
ENDBRANCH   1  23
TORSDOF 18
ENDMDL
MODEL 2
REMARK VINA RESULT:      -9.4      4.562     12.530
REMARK SMILES Cc1cc(Cl)ccc1-c1ccc(C(=O)OCCOCCOC(=O)c2ccc(-c3c4nc(c(-c5ccc(S(=O)(=O)[O-])cc5)c5ccc([nH]5)c(-c5ccc(S(=O)(=O)[O-])cc5)c5nc(c(-c6ccc(S(=O)(=O)[O-])cc6)c6ccc3[nH]6)C=C5)C=C4)cc2)c(Cl)c1
REMARK SMILES IDX 19 1 18 2 17 3 16 4 15 5 13 6 14 7 12 8 9 9 10 10 86 11
REMARK SMILES IDX 11 12 84 13 85 14 8 15 1 16 2 17 3 18 4 19 7 20 5 21 6 22
REMARK SMILES IDX 20 23 21 24 22 25 23 26 24 27 25 28 83 29 26 30 82 31 27 32
REMARK SMILES IDX 28 33 29 34 76 35 30 36 81 37 75 38 77 39 31 40 80 41 74 42
REMARK SMILES IDX 73 43 32 45 62 46 43 47 61 48 44 49 47 50 60 51 78 52 45 53
REMARK SMILES IDX 46 54 59 56 79 57 48 58 33 59 34 60 42 61 35 62 41 63 36 64
REMARK SMILES IDX 37 65 38 66 39 67 40 68 63 69 64 70 72 71 65 72 71 73 66 74
REMARK SMILES IDX 67 75 68 76 69 77 70 78 49 79 50 80 58 81 51 82 57 83 52 84
REMARK SMILES IDX 53 85 54 86 55 87 56 88
REMARK H PARENT 77 44 47 55
REMARK Flexibility Score: inf
ROOT
ATOM      1  C   UNL A   1      32.913  34.679  28.728  1.00  0.00     0.202 C 
ENDROOT
BRANCH   1   2
ATOM      2  O   UNL A   1      33.730  35.312  29.714  1.00  0.00    -0.374 OA
BRANCH   2   3
ATOM      3  C   UNL A   1      33.107  35.652  30.956  1.00  0.00     0.202 C 
BRANCH   3   4
ATOM      4  C   UNL A   1      34.045  35.727  32.162  1.00  0.00     0.261 C 
BRANCH   4   5
ATOM      5  O   UNL A   1      34.059  34.467  32.852  1.00  0.00    -0.460 OA
BRANCH   5   6
ATOM      6  C   UNL A   1      34.976  33.574  32.428  1.00  0.00     0.339 C 
ATOM      7  O   UNL A   1      34.782  32.622  31.681  1.00  0.00    -0.246 OA
BRANCH   6   8
ATOM      8  C   UNL A   1      36.340  33.995  32.808  1.00  0.00     0.078 A 
ATOM      9  C   UNL A   1      39.060  34.587  33.289  1.00  0.00    -0.017 A 
ATOM     10  C   UNL A   1      38.567  34.523  31.980  1.00  0.00     0.010 A 
ATOM     11  C   UNL A   1      38.153  34.419  34.352  1.00  0.00     0.030 A 
ATOM     12  C   UNL A   1      37.223  34.230  31.742  1.00  0.00     0.018 A 
ATOM     13  C   UNL A   1      36.801  34.118  34.121  1.00  0.00     0.056 A 
ATOM     14  Cl  UNL A   1      35.815  33.827  35.507  1.00  0.00    -0.083 Cl
BRANCH   9  15
ATOM     15  C   UNL A   1      40.509  34.670  33.538  1.00  0.00    -0.015 A 
ATOM     16  C   UNL A   1      41.178  33.281  31.481  1.00  0.00     0.045 C 
ATOM     17  C   UNL A   1      41.493  34.055  32.734  1.00  0.00    -0.042 A 
ATOM     18  C   UNL A   1      42.847  34.131  33.122  1.00  0.00     0.024 A 
ATOM     19  C   UNL A   1      43.227  34.820  34.273  1.00  0.00     0.041 A 
ATOM     20  C   UNL A   1      40.927  35.368  34.693  1.00  0.00     0.010 A 
ATOM     21  Cl  UNL A   1      44.883  34.886  34.729  1.00  0.00    -0.084 Cl
ATOM     22  C   UNL A   1      42.270  35.445  35.059  1.00  0.00     0.021 A 
ENDBRANCH   9  15
ENDBRANCH   6   8
ENDBRANCH   5   6
ENDBRANCH   4   5
ENDBRANCH   3   4
ENDBRANCH   2   3
ENDBRANCH   1   2
BRANCH   1  23
ATOM     23  C   UNL A   1      33.597  33.630  27.846  1.00  0.00     0.261 C 
BRANCH  23  24
ATOM     24  O   UNL A   1      33.882  32.416  28.562  1.00  0.00    -0.460 OA
BRANCH  24  25
ATOM     25  C   UNL A   1      34.230  31.371  27.774  1.00  0.00     0.338 C 
ATOM     26  O   UNL A   1      33.591  30.920  26.831  1.00  0.00    -0.246 OA
BRANCH  25  27
ATOM     27  C   UNL A   1      35.599  30.917  28.081  1.00  0.00     0.060 A 
ATOM     28  C   UNL A   1      35.777  29.547  28.312  1.00  0.00     0.016 A 
ATOM     29  C   UNL A   1      36.666  31.806  28.234  1.00  0.00     0.016 A 
ATOM     30  C   UNL A   1      37.000  29.071  28.774  1.00  0.00     0.010 A 
ATOM     31  C   UNL A   1      37.896  31.325  28.701  1.00  0.00     0.010 A 
ATOM     32  C   UNL A   1      38.051  29.964  29.023  1.00  0.00    -0.014 A 
BRANCH  32  33
ATOM     33  C   UNL A   1      39.227  29.479  29.788  1.00  0.00     0.031 A 
ATOM     34  C   UNL A   1      39.383  29.901  31.226  1.00  0.00     0.074 A 
ATOM     35  C   UNL A   1      40.090  28.602  29.245  1.00  0.00     0.049 A 
ATOM     36  N   UNL A   1      40.262  29.513  32.113  1.00  0.00    -0.248 NA
ATOM     37  C   UNL A   1      38.414  30.886  31.730  1.00  0.00     0.031 C 
ATOM     38  C   UNL A   1      40.021  28.079  27.882  1.00  0.00     0.029 A 
ATOM     39  N   UNL A   1      41.182  27.976  29.793  1.00  0.00    -0.354 N 
ATOM     40  C   UNL A   1      39.949  30.200  33.281  1.00  0.00     0.074 A 
ATOM     41  C   UNL A   1      38.828  31.061  32.975  1.00  0.00     0.031 C 
ATOM     42  C   UNL A   1      41.015  27.192  27.705  1.00  0.00     0.029 A 
ATOM     43  C   UNL A   1      41.800  27.099  28.934  1.00  0.00     0.049 A 
ATOM     44  H   UNL A   1      41.492  28.139  30.712  1.00  0.00     0.167 HD
ATOM     45  C   UNL A   1      40.530  30.113  34.502  1.00  0.00     0.031 A 
ATOM     46  C   UNL A   1      42.873  26.304  29.122  1.00  0.00     0.031 A 
ATOM     47  C   UNL A   1      41.661  29.278  34.802  1.00  0.00     0.049 A 
ATOM     48  C   UNL A   1      43.550  26.280  30.467  1.00  0.00     0.074 A 
ATOM     49  C   UNL A   1      42.328  29.125  36.006  1.00  0.00     0.029 A 
ATOM     50  N   UNL A   1      42.301  28.457  33.885  1.00  0.00    -0.354 N 
ATOM     51  N   UNL A   1      43.230  26.923  31.565  1.00  0.00    -0.248 NA
ATOM     52  C   UNL A   1      44.724  25.408  30.599  1.00  0.00     0.031 C 
ATOM     53  C   UNL A   1      43.399  28.247  35.804  1.00  0.00     0.029 A 
ATOM     54  C   UNL A   1      43.366  27.809  34.489  1.00  0.00     0.049 A 
ATOM     55  H   UNL A   1      42.036  28.350  32.943  1.00  0.00     0.167 HD
ATOM     56  C   UNL A   1      44.142  26.503  32.529  1.00  0.00     0.074 A 
ATOM     57  C   UNL A   1      45.021  25.549  31.883  1.00  0.00     0.031 C 
ATOM     58  C   UNL A   1      44.237  26.867  33.833  1.00  0.00     0.031 A 
BRANCH  45  59
ATOM     59  C   UNL A   1      39.960  30.987  35.591  1.00  0.00    -0.014 A 
ATOM     60  C   UNL A   1      40.731  32.002  36.188  1.00  0.00     0.010 A 
ATOM     61  C   UNL A   1      38.643  30.777  36.035  1.00  0.00     0.010 A 
ATOM     62  C   UNL A   1      40.216  32.749  37.251  1.00  0.00     0.020 A 
ATOM     63  C   UNL A   1      38.113  31.543  37.079  1.00  0.00     0.020 A 
ATOM     64  C   UNL A   1      38.913  32.506  37.697  1.00  0.00     0.054 A 
BRANCH  64  65
ATOM     65  S   UNL A   1      38.274  33.469  39.096  1.00  0.00     0.124 S 
ATOM     66  O   UNL A   1      39.100  32.982  40.197  1.00  0.00    -0.237 OA
ATOM     67  O   UNL A   1      38.529  34.846  38.682  1.00  0.00    -0.237 OA
ATOM     68  O   UNL A   1      36.865  33.092  39.160  1.00  0.00    -0.744 OA
ENDBRANCH  64  65
ENDBRANCH  45  59
BRANCH  46  69
ATOM     69  C   UNL A   1      43.355  25.437  28.014  1.00  0.00    -0.014 A 
ATOM     70  C   UNL A   1      42.928  24.100  27.916  1.00  0.00     0.010 A 
ATOM     71  C   UNL A   1      44.238  25.946  27.044  1.00  0.00     0.010 A 
ATOM     72  C   UNL A   1      43.383  23.286  26.874  1.00  0.00     0.020 A 
ATOM     73  C   UNL A   1      44.676  25.142  25.987  1.00  0.00     0.020 A 
ATOM     74  C   UNL A   1      44.252  23.814  25.915  1.00  0.00     0.054 A 
BRANCH  74  75
ATOM     75  S   UNL A   1      44.780  22.757  24.537  1.00  0.00     0.124 S 
ATOM     76  O   UNL A   1      43.536  22.580  23.796  1.00  0.00    -0.237 OA
ATOM     77  O   UNL A   1      45.797  23.576  23.883  1.00  0.00    -0.237 OA
ATOM     78  O   UNL A   1      45.289  21.560  25.202  1.00  0.00    -0.744 OA
ENDBRANCH  74  75
ENDBRANCH  46  69
BRANCH  58  79
ATOM     79  C   UNL A   1      45.302  26.194  34.661  1.00  0.00    -0.014 A 
ATOM     80  C   UNL A   1      45.036  25.018  35.383  1.00  0.00     0.010 A 
ATOM     81  C   UNL A   1      46.597  26.742  34.698  1.00  0.00     0.010 A 
ATOM     82  C   UNL A   1      46.034  24.429  36.167  1.00  0.00     0.020 A 
ATOM     83  C   UNL A   1      47.604  26.143  35.458  1.00  0.00     0.020 A 
ATOM     84  C   UNL A   1      47.309  25.001  36.205  1.00  0.00     0.054 A 
BRANCH  84  85
ATOM     85  S   UNL A   1      48.593  24.216  37.220  1.00  0.00     0.124 S 
ATOM     86  O   UNL A   1      49.038  23.126  36.356  1.00  0.00    -0.237 OA
ATOM     87  O   UNL A   1      49.556  25.297  37.415  1.00  0.00    -0.237 OA
ATOM     88  O   UNL A   1      47.876  23.803  38.425  1.00  0.00    -0.744 OA
ENDBRANCH  84  85
ENDBRANCH  58  79
ENDBRANCH  32  33
ENDBRANCH  25  27
ENDBRANCH  24  25
ENDBRANCH  23  24
ENDBRANCH   1  23
TORSDOF 18
ENDMDL
MODEL 3
REMARK VINA RESULT:      -9.3      3.882     11.489
REMARK SMILES Cc1cc(Cl)ccc1-c1ccc(C(=O)OCCOCCOC(=O)c2ccc(-c3c4nc(c(-c5ccc(S(=O)(=O)[O-])cc5)c5ccc([nH]5)c(-c5ccc(S(=O)(=O)[O-])cc5)c5nc(c(-c6ccc(S(=O)(=O)[O-])cc6)c6ccc3[nH]6)C=C5)C=C4)cc2)c(Cl)c1
REMARK SMILES IDX 19 1 18 2 17 3 16 4 15 5 13 6 14 7 12 8 9 9 10 10 86 11
REMARK SMILES IDX 11 12 84 13 85 14 8 15 1 16 2 17 3 18 4 19 7 20 5 21 6 22
REMARK SMILES IDX 20 23 21 24 22 25 23 26 24 27 25 28 83 29 26 30 82 31 27 32
REMARK SMILES IDX 28 33 29 34 76 35 30 36 81 37 75 38 77 39 31 40 80 41 74 42
REMARK SMILES IDX 73 43 32 45 62 46 43 47 61 48 44 49 47 50 60 51 78 52 45 53
REMARK SMILES IDX 46 54 59 56 79 57 48 58 33 59 34 60 42 61 35 62 41 63 36 64
REMARK SMILES IDX 37 65 38 66 39 67 40 68 63 69 64 70 72 71 65 72 71 73 66 74
REMARK SMILES IDX 67 75 68 76 69 77 70 78 49 79 50 80 58 81 51 82 57 83 52 84
REMARK SMILES IDX 53 85 54 86 55 87 56 88
REMARK H PARENT 77 44 47 55
REMARK Flexibility Score: inf
ROOT
ATOM      1  C   UNL A   1      33.621  34.719  28.608  1.00  0.00     0.202 C 
ENDROOT
BRANCH   1   2
ATOM      2  O   UNL A   1      32.569  35.120  29.486  1.00  0.00    -0.374 OA
BRANCH   2   3
ATOM      3  C   UNL A   1      32.904  36.048  30.522  1.00  0.00     0.202 C 
BRANCH   3   4
ATOM      4  C   UNL A   1      32.555  35.600  31.943  1.00  0.00     0.261 C 
BRANCH   4   5
ATOM      5  O   UNL A   1      33.565  34.706  32.438  1.00  0.00    -0.460 OA
BRANCH   5   6
ATOM      6  C   UNL A   1      34.636  35.289  33.012  1.00  0.00     0.339 C 
ATOM      7  O   UNL A   1      34.728  36.453  33.383  1.00  0.00    -0.246 OA
BRANCH   6   8
ATOM      8  C   UNL A   1      35.666  34.285  33.352  1.00  0.00     0.078 A 
ATOM      9  C   UNL A   1      37.723  32.575  34.259  1.00  0.00    -0.017 A 
ATOM     10  C   UNL A   1      36.837  33.165  35.168  1.00  0.00     0.010 A 
ATOM     11  C   UNL A   1      37.517  32.800  32.885  1.00  0.00     0.030 A 
ATOM     12  C   UNL A   1      35.821  34.011  34.720  1.00  0.00     0.018 A 
ATOM     13  C   UNL A   1      36.501  33.653  32.427  1.00  0.00     0.056 A 
ATOM     14  Cl  UNL A   1      36.421  33.934  30.726  1.00  0.00    -0.083 Cl
BRANCH   9  15
ATOM     15  C   UNL A   1      38.925  31.871  34.737  1.00  0.00    -0.015 A 
ATOM     16  C   UNL A   1      38.704  29.900  33.103  1.00  0.00     0.045 C 
ATOM     17  C   UNL A   1      39.374  30.630  34.236  1.00  0.00    -0.042 A 
ATOM     18  C   UNL A   1      40.491  30.009  34.834  1.00  0.00     0.024 A 
ATOM     19  C   UNL A   1      41.166  30.611  35.894  1.00  0.00     0.041 A 
ATOM     20  C   UNL A   1      39.636  32.460  35.807  1.00  0.00     0.010 A 
ATOM     21  Cl  UNL A   1      42.517  29.825  36.611  1.00  0.00    -0.084 Cl
ATOM     22  C   UNL A   1      40.746  31.840  36.381  1.00  0.00     0.021 A 
ENDBRANCH   9  15
ENDBRANCH   6   8
ENDBRANCH   5   6
ENDBRANCH   4   5
ENDBRANCH   3   4
ENDBRANCH   2   3
ENDBRANCH   1   2
BRANCH   1  23
ATOM     23  C   UNL A   1      33.505  33.316  28.001  1.00  0.00     0.261 C 
BRANCH  23  24
ATOM     24  O   UNL A   1      34.475  32.404  28.545  1.00  0.00    -0.460 OA
BRANCH  24  25
ATOM     25  C   UNL A   1      34.293  31.113  28.181  1.00  0.00     0.338 C 
ATOM     26  O   UNL A   1      33.276  30.622  27.706  1.00  0.00    -0.246 OA
BRANCH  25  27
ATOM     27  C   UNL A   1      35.559  30.361  28.269  1.00  0.00     0.060 A 
ATOM     28  C   UNL A   1      35.943  29.908  29.537  1.00  0.00     0.016 A 
ATOM     29  C   UNL A   1      36.399  30.179  27.167  1.00  0.00     0.016 A 
ATOM     30  C   UNL A   1      37.201  29.345  29.725  1.00  0.00     0.010 A 
ATOM     31  C   UNL A   1      37.666  29.614  27.359  1.00  0.00     0.010 A 
ATOM     32  C   UNL A   1      38.091  29.243  28.648  1.00  0.00    -0.014 A 
BRANCH  32  33
ATOM     33  C   UNL A   1      39.513  28.922  28.930  1.00  0.00     0.031 A 
ATOM     34  C   UNL A   1      40.343  29.915  29.702  1.00  0.00     0.074 A 
ATOM     35  C   UNL A   1      40.031  27.727  28.594  1.00  0.00     0.049 A 
ATOM     36  N   UNL A   1      41.563  29.798  30.158  1.00  0.00    -0.248 NA
ATOM     37  C   UNL A   1      39.709  31.208  30.003  1.00  0.00     0.031 C 
ATOM     38  C   UNL A   1      39.317  26.663  27.890  1.00  0.00     0.029 A 
ATOM     39  N   UNL A   1      41.277  27.202  28.826  1.00  0.00    -0.354 N 
ATOM     40  C   UNL A   1      41.841  30.997  30.805  1.00  0.00     0.074 A 
ATOM     41  C   UNL A   1      40.678  31.842  30.643  1.00  0.00     0.031 C 
ATOM     42  C   UNL A   1      40.131  25.600  27.768  1.00  0.00     0.029 A 
ATOM     43  C   UNL A   1      41.426  25.916  28.366  1.00  0.00     0.049 A 
ATOM     44  H   UNL A   1      41.996  27.699  29.279  1.00  0.00     0.167 HD
ATOM     45  C   UNL A   1      42.955  31.360  31.487  1.00  0.00     0.031 A 
ATOM     46  C   UNL A   1      42.485  25.084  28.431  1.00  0.00     0.031 A 
ATOM     47  C   UNL A   1      44.122  30.531  31.627  1.00  0.00     0.049 A 
ATOM     48  C   UNL A   1      43.741  25.536  29.127  1.00  0.00     0.074 A 
ATOM     49  C   UNL A   1      45.305  30.810  32.291  1.00  0.00     0.029 A 
ATOM     50  N   UNL A   1      44.258  29.261  31.086  1.00  0.00    -0.354 N 
ATOM     51  N   UNL A   1      43.980  26.667  29.749  1.00  0.00    -0.248 NA
ATOM     52  C   UNL A   1      44.864  24.589  29.143  1.00  0.00     0.031 C 
ATOM     53  C   UNL A   1      46.173  29.727  32.111  1.00  0.00     0.029 A 
ATOM     54  C   UNL A   1      45.510  28.750  31.384  1.00  0.00     0.049 A 
ATOM     55  H   UNL A   1      43.566  28.793  30.567  1.00  0.00     0.167 HD
ATOM     56  C   UNL A   1      45.269  26.550  30.263  1.00  0.00     0.074 A 
ATOM     57  C   UNL A   1      45.753  25.239  29.883  1.00  0.00     0.031 C 
ATOM     58  C   UNL A   1      45.983  27.445  30.993  1.00  0.00     0.031 A 
BRANCH  45  59
ATOM     59  C   UNL A   1      42.963  32.739  32.096  1.00  0.00    -0.014 A 
ATOM     60  C   UNL A   1      43.460  33.846  31.385  1.00  0.00     0.010 A 
ATOM     61  C   UNL A   1      42.482  32.925  33.404  1.00  0.00     0.010 A 
ATOM     62  C   UNL A   1      43.535  35.102  31.992  1.00  0.00     0.020 A 
ATOM     63  C   UNL A   1      42.528  34.187  34.005  1.00  0.00     0.020 A 
ATOM     64  C   UNL A   1      43.079  35.261  33.304  1.00  0.00     0.054 A 
BRANCH  64  65
ATOM     65  S   UNL A   1      43.210  36.895  34.083  1.00  0.00     0.124 S 
ATOM     66  O   UNL A   1      44.402  36.737  34.912  1.00  0.00    -0.237 OA
ATOM     67  O   UNL A   1      43.357  37.788  32.937  1.00  0.00    -0.237 OA
ATOM     68  O   UNL A   1      41.954  37.030  34.817  1.00  0.00    -0.744 OA
ENDBRANCH  64  65
ENDBRANCH  45  59
BRANCH  46  69
ATOM     69  C   UNL A   1      42.391  23.720  27.843  1.00  0.00    -0.014 A 
ATOM     70  C   UNL A   1      42.742  23.496  26.499  1.00  0.00     0.010 A 
ATOM     71  C   UNL A   1      41.958  22.636  28.627  1.00  0.00     0.010 A 
ATOM     72  C   UNL A   1      42.652  22.215  25.948  1.00  0.00     0.020 A 
ATOM     73  C   UNL A   1      41.890  21.348  28.086  1.00  0.00     0.020 A 
ATOM     74  C   UNL A   1      42.229  21.148  26.747  1.00  0.00     0.054 A 
BRANCH  74  75
ATOM     75  S   UNL A   1      42.180  19.483  26.027  1.00  0.00     0.124 S 
ATOM     76  O   UNL A   1      42.655  18.659  27.134  1.00  0.00    -0.237 OA
ATOM     77  O   UNL A   1      40.768  19.329  25.683  1.00  0.00    -0.237 OA
ATOM     78  O   UNL A   1      43.084  19.579  24.884  1.00  0.00    -0.744 OA
ENDBRANCH  74  75
ENDBRANCH  46  69
BRANCH  58  79
ATOM     79  C   UNL A   1      47.346  27.015  31.468  1.00  0.00    -0.014 A 
ATOM     80  C   UNL A   1      48.519  27.455  30.828  1.00  0.00     0.010 A 
ATOM     81  C   UNL A   1      47.453  26.171  32.588  1.00  0.00     0.010 A 
ATOM     82  C   UNL A   1      49.772  27.018  31.271  1.00  0.00     0.020 A 
ATOM     83  C   UNL A   1      48.704  25.754  33.051  1.00  0.00     0.020 A 
ATOM     84  C   UNL A   1      49.855  26.164  32.375  1.00  0.00     0.054 A 
BRANCH  84  85
ATOM     85  S   UNL A   1      51.490  25.617  32.940  1.00  0.00     0.124 S 
ATOM     86  O   UNL A   1      51.698  24.411  32.143  1.00  0.00    -0.237 OA
ATOM     87  O   UNL A   1      52.345  26.751  32.600  1.00  0.00    -0.237 OA
ATOM     88  O   UNL A   1      51.304  25.392  34.372  1.00  0.00    -0.744 OA
ENDBRANCH  84  85
ENDBRANCH  58  79
ENDBRANCH  32  33
ENDBRANCH  25  27
ENDBRANCH  24  25
ENDBRANCH  23  24
ENDBRANCH   1  23
TORSDOF 18
ENDMDL
