MODEL 1
REMARK VINA RESULT:     -10.3      0.000      0.000
REMARK SMILES CCN(Cc1cn(CC)nc1C)C(=O)c1ccn([C@@H](C)C(=O)OCCOCCOC(=O)c2ccc(-c3c4nc(c(-c5ccc(S(=O)(=O)[O-])cc5)c5ccc([nH]5)c(-c5ccc(S(=O)(=O)[O-])cc5)c5nc(c(-c6ccc(S(=O)(=O)[O-])cc6)c6ccc3[nH]6)C=C5)C=C4)cc2)n1
REMARK SMILES IDX 24 1 23 2 21 3 22 4 19 5 20 6 18 7 15 8 16 9 92 10 17 11
REMARK SMILES IDX 13 12 14 13 3 14 2 15 1 16 4 17 5 18 6 19 11 20 7 21 10 22
REMARK SMILES IDX 12 23 8 24 9 25 25 26 26 27 27 28 28 29 29 30 30 31 31 32
REMARK SMILES IDX 32 33 33 34 91 35 34 36 90 37 35 38 36 39 37 40 84 41 38 42
REMARK SMILES IDX 89 43 83 44 85 45 39 46 88 47 82 48 81 49 40 51 70 52 51 53
REMARK SMILES IDX 69 54 52 55 55 56 68 57 86 58 53 59 54 60 67 62 87 63 56 64
REMARK SMILES IDX 41 65 42 66 50 67 43 68 49 69 44 70 45 71 46 72 47 73 48 74
REMARK SMILES IDX 71 75 72 76 80 77 73 78 79 79 74 80 75 81 76 82 77 83 78 84
REMARK SMILES IDX 57 85 58 86 66 87 59 88 65 89 60 90 61 91 62 92 63 93 64 94
REMARK H PARENT 85 50 55 61
REMARK Flexibility Score: inf
ROOT
ATOM      1  C   UNL A   1      34.171  22.060  24.379  1.00  0.00     0.261 C 
ENDROOT
BRANCH   1   2
ATOM      2  O   UNL A   1      32.764  21.866  24.621  1.00  0.00    -0.462 OA
BRANCH   2   3
ATOM      3  C   UNL A   1      32.146  22.803  25.383  1.00  0.00     0.330 C 
ATOM      4  O   UNL A   1      32.109  22.767  26.612  1.00  0.00    -0.250 OA
BRANCH   3   5
ATOM      5  C   UNL A   1      31.432  23.884  24.599  1.00  0.00     0.213 C 
ATOM      6  C   UNL A   1      30.847  23.279  23.330  1.00  0.00     0.046 C 
BRANCH   5   7
ATOM      7  N   UNL A   1      32.166  25.123  24.326  1.00  0.00    -0.258 N 
ATOM      8  C   UNL A   1      32.401  27.126  23.600  1.00  0.00     0.150 A 
ATOM      9  C   UNL A   1      33.683  26.668  23.980  1.00  0.00     0.056 A 
ATOM     10  N   UNL A   1      31.476  26.168  23.800  1.00  0.00    -0.167 NA
ATOM     11  C   UNL A   1      33.507  25.366  24.384  1.00  0.00     0.110 A 
BRANCH   8  12
ATOM     12  C   UNL A   1      32.072  28.468  23.087  1.00  0.00     0.274 C 
ATOM     13  O   UNL A   1      32.730  28.958  22.169  1.00  0.00    -0.267 OA
BRANCH  12  14
ATOM     14  N   UNL A   1      30.973  29.133  23.651  1.00  0.00    -0.333 N 
BRANCH  14  15
ATOM     15  C   UNL A   1      29.709  29.130  22.915  1.00  0.00     0.117 C 
ATOM     16  C   UNL A   1      28.832  27.943  23.278  1.00  0.00     0.027 C 
ENDBRANCH  14  15
BRANCH  14  17
ATOM     17  C   UNL A   1      31.031  29.905  24.894  1.00  0.00     0.159 C 
BRANCH  17  18
ATOM     18  C   UNL A   1      32.156  29.446  25.758  1.00  0.00     0.012 A 
ATOM     19  C   UNL A   1      33.456  29.910  25.765  1.00  0.00     0.114 A 
ATOM     20  C   UNL A   1      32.144  28.444  26.776  1.00  0.00     0.064 A 
ATOM     21  N   UNL A   1      34.111  29.227  26.745  1.00  0.00    -0.272 N 
ATOM     22  N   UNL A   1      33.332  28.336  27.384  1.00  0.00    -0.178 NA
ATOM     23  C   UNL A   1      31.020  27.600  27.253  1.00  0.00     0.069 C 
BRANCH  21  24
ATOM     24  C   UNL A   1      35.397  29.601  27.304  1.00  0.00     0.141 C 
ATOM     25  C   UNL A   1      35.303  31.027  27.776  1.00  0.00     0.029 C 
ENDBRANCH  21  24
ENDBRANCH  17  18
ENDBRANCH  14  17
ENDBRANCH  12  14
ENDBRANCH   8  12
ENDBRANCH   5   7
ENDBRANCH   3   5
ENDBRANCH   2   3
ENDBRANCH   1   2
BRANCH   1  26
ATOM     26  C   UNL A   1      35.017  21.322  25.415  1.00  0.00     0.202 C 
BRANCH  26  27
ATOM     27  O   UNL A   1      36.355  21.794  25.580  1.00  0.00    -0.374 OA
BRANCH  27  28
ATOM     28  C   UNL A   1      37.413  21.076  24.950  1.00  0.00     0.202 C 
BRANCH  28  29
ATOM     29  C   UNL A   1      38.775  21.097  25.631  1.00  0.00     0.261 C 
BRANCH  29  30
ATOM     30  O   UNL A   1      39.059  22.362  26.209  1.00  0.00    -0.460 OA
BRANCH  30  31
ATOM     31  C   UNL A   1      40.061  22.408  27.131  1.00  0.00     0.338 C 
ATOM     32  O   UNL A   1      40.417  21.532  27.878  1.00  0.00    -0.246 OA
BRANCH  31  33
ATOM     33  C   UNL A   1      40.542  23.806  27.150  1.00  0.00     0.060 A 
ATOM     34  C   UNL A   1      41.805  24.081  27.679  1.00  0.00     0.016 A 
ATOM     35  C   UNL A   1      39.625  24.826  26.920  1.00  0.00     0.016 A 
ATOM     36  C   UNL A   1      42.048  25.344  28.206  1.00  0.00     0.010 A 
ATOM     37  C   UNL A   1      39.839  26.037  27.514  1.00  0.00     0.010 A 
ATOM     38  C   UNL A   1      41.009  26.277  28.219  1.00  0.00    -0.014 A 
BRANCH  38  39
ATOM     39  C   UNL A   1      41.137  27.564  28.887  1.00  0.00     0.031 A 
ATOM     40  C   UNL A   1      42.260  28.383  28.362  1.00  0.00     0.074 A 
ATOM     41  C   UNL A   1      40.204  28.039  29.750  1.00  0.00     0.049 A 
ATOM     42  N   UNL A   1      43.329  28.725  28.994  1.00  0.00    -0.248 NA
ATOM     43  C   UNL A   1      42.282  28.757  26.935  1.00  0.00     0.031 C 
ATOM     44  C   UNL A   1      38.902  27.445  30.087  1.00  0.00     0.029 A 
ATOM     45  N   UNL A   1      40.174  29.215  30.447  1.00  0.00    -0.354 N 
ATOM     46  C   UNL A   1      44.027  29.567  28.135  1.00  0.00     0.074 A 
ATOM     47  C   UNL A   1      43.430  29.424  26.838  1.00  0.00     0.031 C 
ATOM     48  C   UNL A   1      38.145  28.346  30.762  1.00  0.00     0.029 A 
ATOM     49  C   UNL A   1      38.942  29.531  31.033  1.00  0.00     0.049 A 
ATOM     50  H   UNL A   1      40.963  29.798  30.532  1.00  0.00     0.167 HD
ATOM     51  C   UNL A   1      44.862  30.519  28.623  1.00  0.00     0.031 A 
ATOM     52  C   UNL A   1      38.601  30.681  31.683  1.00  0.00     0.031 A 
ATOM     53  C   UNL A   1      45.219  30.249  29.991  1.00  0.00     0.049 A 
ATOM     54  C   UNL A   1      39.868  31.332  32.086  1.00  0.00     0.074 A 
ATOM     55  C   UNL A   1      45.808  29.176  30.628  1.00  0.00     0.029 A 
ATOM     56  N   UNL A   1      44.548  30.961  30.958  1.00  0.00    -0.354 N 
ATOM     57  N   UNL A   1      40.677  30.835  32.978  1.00  0.00    -0.248 NA
ATOM     58  C   UNL A   1      40.454  32.310  31.186  1.00  0.00     0.031 C 
ATOM     59  C   UNL A   1      45.082  29.033  31.844  1.00  0.00     0.029 A 
ATOM     60  C   UNL A   1      44.166  30.083  31.939  1.00  0.00     0.049 A 
ATOM     61  H   UNL A   1      44.374  31.930  30.947  1.00  0.00     0.167 HD
ATOM     62  C   UNL A   1      41.943  31.077  32.472  1.00  0.00     0.074 A 
ATOM     63  C   UNL A   1      41.747  32.077  31.423  1.00  0.00     0.031 C 
ATOM     64  C   UNL A   1      42.981  30.238  32.758  1.00  0.00     0.031 A 
BRANCH  51  65
ATOM     65  C   UNL A   1      44.988  31.886  28.007  1.00  0.00    -0.014 A 
ATOM     66  C   UNL A   1      46.260  32.319  27.591  1.00  0.00     0.010 A 
ATOM     67  C   UNL A   1      43.967  32.860  28.084  1.00  0.00     0.010 A 
ATOM     68  C   UNL A   1      46.514  33.669  27.326  1.00  0.00     0.020 A 
ATOM     69  C   UNL A   1      44.199  34.201  27.780  1.00  0.00     0.020 A 
ATOM     70  C   UNL A   1      45.483  34.602  27.432  1.00  0.00     0.054 A 
BRANCH  70  71
ATOM     71  S   UNL A   1      45.850  36.353  27.170  1.00  0.00     0.124 S 
ATOM     72  O   UNL A   1      44.580  36.980  27.521  1.00  0.00    -0.237 OA
ATOM     73  O   UNL A   1      46.950  36.578  28.104  1.00  0.00    -0.237 OA
ATOM     74  O   UNL A   1      46.215  36.418  25.757  1.00  0.00    -0.744 OA
ENDBRANCH  70  71
ENDBRANCH  51  65
BRANCH  52  75
ATOM     75  C   UNL A   1      37.300  31.406  31.798  1.00  0.00    -0.014 A 
ATOM     76  C   UNL A   1      36.719  31.673  33.060  1.00  0.00     0.010 A 
ATOM     77  C   UNL A   1      36.792  32.117  30.695  1.00  0.00     0.010 A 
ATOM     78  C   UNL A   1      35.735  32.669  33.223  1.00  0.00     0.020 A 
ATOM     79  C   UNL A   1      35.810  33.110  30.849  1.00  0.00     0.020 A 
ATOM     80  C   UNL A   1      35.306  33.403  32.116  1.00  0.00     0.054 A 
BRANCH  80  81
ATOM     81  S   UNL A   1      34.198  34.832  32.352  1.00  0.00     0.124 S 
ATOM     82  O   UNL A   1      34.096  35.377  31.002  1.00  0.00    -0.237 OA
ATOM     83  O   UNL A   1      32.985  34.213  32.877  1.00  0.00    -0.237 OA
ATOM     84  O   UNL A   1      34.923  35.669  33.307  1.00  0.00    -0.744 OA
ENDBRANCH  80  81
ENDBRANCH  52  75
BRANCH  64  85
ATOM     85  C   UNL A   1      42.821  29.245  33.889  1.00  0.00    -0.014 A 
ATOM     86  C   UNL A   1      42.953  29.558  35.257  1.00  0.00     0.010 A 
ATOM     87  C   UNL A   1      42.360  27.963  33.538  1.00  0.00     0.010 A 
ATOM     88  C   UNL A   1      42.648  28.603  36.241  1.00  0.00     0.020 A 
ATOM     89  C   UNL A   1      42.032  27.020  34.511  1.00  0.00     0.020 A 
ATOM     90  C   UNL A   1      42.187  27.338  35.859  1.00  0.00     0.054 A 
BRANCH  90  91
ATOM     91  S   UNL A   1      41.747  26.117  37.127  1.00  0.00     0.124 S 
ATOM     92  O   UNL A   1      42.779  26.324  38.138  1.00  0.00    -0.237 OA
ATOM     93  O   UNL A   1      40.396  26.521  37.513  1.00  0.00    -0.237 OA
ATOM     94  O   UNL A   1      41.822  24.839  36.420  1.00  0.00    -0.744 OA
ENDBRANCH  90  91
ENDBRANCH  64  85
ENDBRANCH  38  39
ENDBRANCH  31  33
ENDBRANCH  30  31
ENDBRANCH  29  30
ENDBRANCH  28  29
ENDBRANCH  27  28
ENDBRANCH  26  27
ENDBRANCH   1  26
TORSDOF 24
ENDMDL
MODEL 2
REMARK VINA RESULT:     -10.2      0.850      2.217
REMARK SMILES CCN(Cc1cn(CC)nc1C)C(=O)c1ccn([C@@H](C)C(=O)OCCOCCOC(=O)c2ccc(-c3c4nc(c(-c5ccc(S(=O)(=O)[O-])cc5)c5ccc([nH]5)c(-c5ccc(S(=O)(=O)[O-])cc5)c5nc(c(-c6ccc(S(=O)(=O)[O-])cc6)c6ccc3[nH]6)C=C5)C=C4)cc2)n1
REMARK SMILES IDX 24 1 23 2 21 3 22 4 19 5 20 6 18 7 15 8 16 9 92 10 17 11
REMARK SMILES IDX 13 12 14 13 3 14 2 15 1 16 4 17 5 18 6 19 11 20 7 21 10 22
REMARK SMILES IDX 12 23 8 24 9 25 25 26 26 27 27 28 28 29 29 30 30 31 31 32
REMARK SMILES IDX 32 33 33 34 91 35 34 36 90 37 35 38 36 39 37 40 84 41 38 42
REMARK SMILES IDX 89 43 83 44 85 45 39 46 88 47 82 48 81 49 40 51 70 52 51 53
REMARK SMILES IDX 69 54 52 55 55 56 68 57 86 58 53 59 54 60 67 62 87 63 56 64
REMARK SMILES IDX 41 65 42 66 50 67 43 68 49 69 44 70 45 71 46 72 47 73 48 74
REMARK SMILES IDX 71 75 72 76 80 77 73 78 79 79 74 80 75 81 76 82 77 83 78 84
REMARK SMILES IDX 57 85 58 86 66 87 59 88 65 89 60 90 61 91 62 92 63 93 64 94
REMARK H PARENT 85 50 55 61
REMARK Flexibility Score: inf
ROOT
ATOM      1  C   UNL A   1      34.279  22.173  24.217  1.00  0.00     0.261 C 
ENDROOT
BRANCH   1   2
ATOM      2  O   UNL A   1      32.933  21.682  24.064  1.00  0.00    -0.462 OA
BRANCH   2   3
ATOM      3  C   UNL A   1      32.027  22.100  24.984  1.00  0.00     0.330 C 
ATOM      4  O   UNL A   1      31.615  21.396  25.904  1.00  0.00    -0.250 OA
BRANCH   3   5
ATOM      5  C   UNL A   1      31.496  23.499  24.757  1.00  0.00     0.213 C 
ATOM      6  C   UNL A   1      31.203  23.690  23.275  1.00  0.00     0.046 C 
BRANCH   5   7
ATOM      7  N   UNL A   1      32.268  24.618  25.309  1.00  0.00    -0.258 N 
ATOM      8  C   UNL A   1      32.529  26.539  26.222  1.00  0.00     0.150 A 
ATOM      9  C   UNL A   1      33.814  26.071  25.862  1.00  0.00     0.056 A 
ATOM     10  N   UNL A   1      31.583  25.648  25.866  1.00  0.00    -0.167 NA
ATOM     11  C   UNL A   1      33.606  24.869  25.229  1.00  0.00     0.110 A 
BRANCH   8  12
ATOM     12  C   UNL A   1      32.226  27.799  26.923  1.00  0.00     0.274 C 
ATOM     13  O   UNL A   1      31.238  27.880  27.653  1.00  0.00    -0.267 OA
BRANCH  12  14
ATOM     14  N   UNL A   1      33.118  28.870  26.760  1.00  0.00    -0.333 N 
BRANCH  14  15
ATOM     15  C   UNL A   1      34.116  29.106  27.802  1.00  0.00     0.117 C 
ATOM     16  C   UNL A   1      35.437  29.602  27.235  1.00  0.00     0.027 C 
ENDBRANCH  14  15
BRANCH  14  17
ATOM     17  C   UNL A   1      33.059  29.822  25.649  1.00  0.00     0.159 C 
BRANCH  17  18
ATOM     18  C   UNL A   1      32.183  29.317  24.555  1.00  0.00     0.012 A 
ATOM     19  C   UNL A   1      30.808  29.407  24.468  1.00  0.00     0.114 A 
ATOM     20  C   UNL A   1      32.559  28.646  23.352  1.00  0.00     0.064 A 
ATOM     21  N   UNL A   1      30.452  28.847  23.278  1.00  0.00    -0.272 N 
ATOM     22  N   UNL A   1      31.500  28.385  22.573  1.00  0.00    -0.178 NA
ATOM     23  C   UNL A   1      33.911  28.277  22.862  1.00  0.00     0.069 C 
BRANCH  21  24
ATOM     24  C   UNL A   1      29.156  28.997  22.641  1.00  0.00     0.141 C 
ATOM     25  C   UNL A   1      28.760  30.446  22.728  1.00  0.00     0.029 C 
ENDBRANCH  21  24
ENDBRANCH  17  18
ENDBRANCH  14  17
ENDBRANCH  12  14
ENDBRANCH   8  12
ENDBRANCH   5   7
ENDBRANCH   3   5
ENDBRANCH   2   3
ENDBRANCH   1   2
BRANCH   1  26
ATOM     26  C   UNL A   1      35.137  21.193  25.017  1.00  0.00     0.202 C 
BRANCH  26  27
ATOM     27  O   UNL A   1      36.435  21.659  25.389  1.00  0.00    -0.374 OA
BRANCH  27  28
ATOM     28  C   UNL A   1      37.576  21.006  24.839  1.00  0.00     0.202 C 
BRANCH  28  29
ATOM     29  C   UNL A   1      38.842  20.980  25.685  1.00  0.00     0.261 C 
BRANCH  29  30
ATOM     30  O   UNL A   1      39.104  22.238  26.286  1.00  0.00    -0.460 OA
BRANCH  30  31
ATOM     31  C   UNL A   1      40.124  22.291  27.188  1.00  0.00     0.338 C 
ATOM     32  O   UNL A   1      40.499  21.418  27.930  1.00  0.00    -0.246 OA
BRANCH  31  33
ATOM     33  C   UNL A   1      40.599  23.691  27.194  1.00  0.00     0.060 A 
ATOM     34  C   UNL A   1      41.867  23.974  27.708  1.00  0.00     0.016 A 
ATOM     35  C   UNL A   1      39.676  24.705  26.967  1.00  0.00     0.016 A 
ATOM     36  C   UNL A   1      42.109  25.241  28.226  1.00  0.00     0.010 A 
ATOM     37  C   UNL A   1      39.891  25.921  27.552  1.00  0.00     0.010 A 
ATOM     38  C   UNL A   1      41.067  26.170  28.244  1.00  0.00    -0.014 A 
BRANCH  38  39
ATOM     39  C   UNL A   1      41.196  27.461  28.903  1.00  0.00     0.031 A 
ATOM     40  C   UNL A   1      42.337  28.263  28.391  1.00  0.00     0.074 A 
ATOM     41  C   UNL A   1      40.254  27.953  29.744  1.00  0.00     0.049 A 
ATOM     42  N   UNL A   1      43.398  28.600  29.040  1.00  0.00    -0.248 NA
ATOM     43  C   UNL A   1      42.389  28.625  26.961  1.00  0.00     0.031 C 
ATOM     44  C   UNL A   1      38.940  27.376  30.062  1.00  0.00     0.029 A 
ATOM     45  N   UNL A   1      40.223  29.136  30.431  1.00  0.00    -0.354 N 
ATOM     46  C   UNL A   1      44.120  29.427  28.186  1.00  0.00     0.074 A 
ATOM     47  C   UNL A   1      43.546  29.279  26.879  1.00  0.00     0.031 C 
ATOM     48  C   UNL A   1      38.180  28.290  30.716  1.00  0.00     0.029 A 
ATOM     49  C   UNL A   1      38.984  29.469  30.991  1.00  0.00     0.049 A 
ATOM     50  H   UNL A   1      41.016  29.711  30.525  1.00  0.00     0.167 HD
ATOM     51  C   UNL A   1      44.957  30.375  28.681  1.00  0.00     0.031 A 
ATOM     52  C   UNL A   1      38.643  30.628  31.625  1.00  0.00     0.031 A 
ATOM     53  C   UNL A   1      45.286  30.114  30.058  1.00  0.00     0.049 A 
ATOM     54  C   UNL A   1      39.910  31.270  32.046  1.00  0.00     0.074 A 
ATOM     55  C   UNL A   1      45.852  29.040  30.715  1.00  0.00     0.029 A 
ATOM     56  N   UNL A   1      44.605  30.841  31.006  1.00  0.00    -0.354 N 
ATOM     57  N   UNL A   1      40.697  30.773  32.957  1.00  0.00    -0.248 NA
ATOM     58  C   UNL A   1      40.522  32.234  31.148  1.00  0.00     0.031 C 
ATOM     59  C   UNL A   1      45.103  28.915  31.918  1.00  0.00     0.029 A 
ATOM     60  C   UNL A   1      44.196  29.975  31.988  1.00  0.00     0.049 A 
ATOM     61  H   UNL A   1      44.442  31.811  30.984  1.00  0.00     0.167 HD
ATOM     62  C   UNL A   1      41.974  30.997  32.471  1.00  0.00     0.074 A 
ATOM     63  C   UNL A   1      41.808  31.990  31.410  1.00  0.00     0.031 C 
ATOM     64  C   UNL A   1      42.998  30.150  32.783  1.00  0.00     0.031 A 
BRANCH  51  65
ATOM     65  C   UNL A   1      45.108  31.736  28.056  1.00  0.00    -0.014 A 
ATOM     66  C   UNL A   1      46.311  32.435  28.257  1.00  0.00     0.010 A 
ATOM     67  C   UNL A   1      44.019  32.462  27.525  1.00  0.00     0.010 A 
ATOM     68  C   UNL A   1      46.402  33.808  28.002  1.00  0.00     0.020 A 
ATOM     69  C   UNL A   1      44.112  33.821  27.225  1.00  0.00     0.020 A 
ATOM     70  C   UNL A   1      45.297  34.493  27.496  1.00  0.00     0.054 A 
BRANCH  70  71
ATOM     71  S   UNL A   1      45.406  36.281  27.253  1.00  0.00     0.124 S 
ATOM     72  O   UNL A   1      44.017  36.691  27.431  1.00  0.00    -0.237 OA
ATOM     73  O   UNL A   1      46.328  36.678  28.314  1.00  0.00    -0.237 OA
ATOM     74  O   UNL A   1      45.932  36.410  25.896  1.00  0.00    -0.744 OA
ENDBRANCH  70  71
ENDBRANCH  51  65
BRANCH  52  75
ATOM     75  C   UNL A   1      37.348  31.368  31.710  1.00  0.00    -0.014 A 
ATOM     76  C   UNL A   1      36.792  31.730  32.960  1.00  0.00     0.010 A 
ATOM     77  C   UNL A   1      36.823  32.000  30.567  1.00  0.00     0.010 A 
ATOM     78  C   UNL A   1      35.816  32.742  33.067  1.00  0.00     0.020 A 
ATOM     79  C   UNL A   1      35.848  33.007  30.666  1.00  0.00     0.020 A 
ATOM     80  C   UNL A   1      35.369  33.395  31.917  1.00  0.00     0.054 A 
BRANCH  80  81
ATOM     81  S   UNL A   1      34.273  34.844  32.067  1.00  0.00     0.124 S 
ATOM     82  O   UNL A   1      33.125  34.296  32.782  1.00  0.00    -0.237 OA
ATOM     83  O   UNL A   1      35.094  35.789  32.819  1.00  0.00    -0.237 OA
ATOM     84  O   UNL A   1      34.017  35.222  30.678  1.00  0.00    -0.744 OA
ENDBRANCH  80  81
ENDBRANCH  52  75
BRANCH  64  85
ATOM     85  C   UNL A   1      42.808  29.168  33.920  1.00  0.00    -0.014 A 
ATOM     86  C   UNL A   1      42.868  29.502  35.288  1.00  0.00     0.010 A 
ATOM     87  C   UNL A   1      42.391  27.872  33.566  1.00  0.00     0.010 A 
ATOM     88  C   UNL A   1      42.539  28.554  36.270  1.00  0.00     0.020 A 
ATOM     89  C   UNL A   1      42.038  26.934  34.536  1.00  0.00     0.020 A 
ATOM     90  C   UNL A   1      42.123  27.274  35.885  1.00  0.00     0.054 A 
BRANCH  90  91
ATOM     91  S   UNL A   1      41.651  26.060  37.148  1.00  0.00     0.124 S 
ATOM     92  O   UNL A   1      42.796  26.084  38.055  1.00  0.00    -0.237 OA
ATOM     93  O   UNL A   1      40.410  26.615  37.686  1.00  0.00    -0.237 OA
ATOM     94  O   UNL A   1      41.488  24.818  36.394  1.00  0.00    -0.744 OA
ENDBRANCH  90  91
ENDBRANCH  64  85
ENDBRANCH  38  39
ENDBRANCH  31  33
ENDBRANCH  30  31
ENDBRANCH  29  30
ENDBRANCH  28  29
ENDBRANCH  27  28
ENDBRANCH  26  27
ENDBRANCH   1  26
TORSDOF 24
ENDMDL
MODEL 3
REMARK VINA RESULT:     -10.2      1.493      2.591
REMARK SMILES CCN(Cc1cn(CC)nc1C)C(=O)c1ccn([C@@H](C)C(=O)OCCOCCOC(=O)c2ccc(-c3c4nc(c(-c5ccc(S(=O)(=O)[O-])cc5)c5ccc([nH]5)c(-c5ccc(S(=O)(=O)[O-])cc5)c5nc(c(-c6ccc(S(=O)(=O)[O-])cc6)c6ccc3[nH]6)C=C5)C=C4)cc2)n1
REMARK SMILES IDX 24 1 23 2 21 3 22 4 19 5 20 6 18 7 15 8 16 9 92 10 17 11
REMARK SMILES IDX 13 12 14 13 3 14 2 15 1 16 4 17 5 18 6 19 11 20 7 21 10 22
REMARK SMILES IDX 12 23 8 24 9 25 25 26 26 27 27 28 28 29 29 30 30 31 31 32
REMARK SMILES IDX 32 33 33 34 91 35 34 36 90 37 35 38 36 39 37 40 84 41 38 42
REMARK SMILES IDX 89 43 83 44 85 45 39 46 88 47 82 48 81 49 40 51 70 52 51 53
REMARK SMILES IDX 69 54 52 55 55 56 68 57 86 58 53 59 54 60 67 62 87 63 56 64
REMARK SMILES IDX 41 65 42 66 50 67 43 68 49 69 44 70 45 71 46 72 47 73 48 74
REMARK SMILES IDX 71 75 72 76 80 77 73 78 79 79 74 80 75 81 76 82 77 83 78 84
REMARK SMILES IDX 57 85 58 86 66 87 59 88 65 89 60 90 61 91 62 92 63 93 64 94
REMARK H PARENT 85 50 55 61
REMARK Flexibility Score: inf
ROOT
ATOM      1  C   UNL A   1      36.246  21.171  25.509  1.00  0.00     0.261 C 
ENDROOT
BRANCH   1   2
ATOM      2  O   UNL A   1      35.278  21.168  24.441  1.00  0.00    -0.462 OA
BRANCH   2   3
ATOM      3  C   UNL A   1      34.163  20.420  24.637  1.00  0.00     0.330 C 
ATOM      4  O   UNL A   1      34.175  19.197  24.764  1.00  0.00    -0.250 OA
BRANCH   3   5
ATOM      5  C   UNL A   1      32.867  21.203  24.621  1.00  0.00     0.213 C 
ATOM      6  C   UNL A   1      32.277  21.168  23.218  1.00  0.00     0.046 C 
BRANCH   5   7
ATOM      7  N   UNL A   1      32.887  22.562  25.171  1.00  0.00    -0.258 N 
ATOM      8  C   UNL A   1      33.024  24.699  25.074  1.00  0.00     0.150 A 
ATOM      9  C   UNL A   1      33.020  24.344  26.443  1.00  0.00     0.056 A 
ATOM     10  N   UNL A   1      32.958  23.600  24.298  1.00  0.00    -0.167 NA
ATOM     11  C   UNL A   1      32.991  22.970  26.468  1.00  0.00     0.110 A 
BRANCH   8  12
ATOM     12  C   UNL A   1      33.057  26.068  24.530  1.00  0.00     0.274 C 
ATOM     13  O   UNL A   1      33.963  26.839  24.848  1.00  0.00    -0.267 OA
BRANCH  12  14
ATOM     14  N   UNL A   1      32.054  26.435  23.620  1.00  0.00    -0.333 N 
BRANCH  14  15
ATOM     15  C   UNL A   1      32.451  26.789  22.258  1.00  0.00     0.117 C 
ATOM     16  C   UNL A   1      31.765  25.923  21.213  1.00  0.00     0.027 C 
ENDBRANCH  14  15
BRANCH  14  17
ATOM     17  C   UNL A   1      30.639  26.570  23.971  1.00  0.00     0.159 C 
BRANCH  17  18
ATOM     18  C   UNL A   1      30.146  27.949  23.690  1.00  0.00     0.012 A 
ATOM     19  C   UNL A   1      29.103  28.318  22.863  1.00  0.00     0.114 A 
ATOM     20  C   UNL A   1      30.622  29.188  24.215  1.00  0.00     0.064 A 
ATOM     21  N   UNL A   1      28.993  29.673  22.951  1.00  0.00    -0.272 N 
ATOM     22  N   UNL A   1      29.899  30.227  23.777  1.00  0.00    -0.178 NA
ATOM     23  C   UNL A   1      31.721  29.442  25.181  1.00  0.00     0.069 C 
BRANCH  21  24
ATOM     24  C   UNL A   1      27.852  30.447  22.498  1.00  0.00     0.141 C 
ATOM     25  C   UNL A   1      27.656  31.592  23.454  1.00  0.00     0.029 C 
ENDBRANCH  21  24
ENDBRANCH  17  18
ENDBRANCH  14  17
ENDBRANCH  12  14
ENDBRANCH   8  12
ENDBRANCH   5   7
ENDBRANCH   3   5
ENDBRANCH   2   3
ENDBRANCH   1   2
BRANCH   1  26
ATOM     26  C   UNL A   1      37.638  21.530  24.992  1.00  0.00     0.202 C 
BRANCH  26  27
ATOM     27  O   UNL A   1      38.704  20.684  25.427  1.00  0.00    -0.374 OA
BRANCH  27  28
ATOM     28  C   UNL A   1      39.703  21.234  26.282  1.00  0.00     0.202 C 
BRANCH  28  29
ATOM     29  C   UNL A   1      41.089  20.605  26.232  1.00  0.00     0.261 C 
BRANCH  29  30
ATOM     30  O   UNL A   1      42.101  21.521  26.620  1.00  0.00    -0.460 OA
BRANCH  30  31
ATOM     31  C   UNL A   1      42.221  22.659  25.880  1.00  0.00     0.338 C 
ATOM     32  O   UNL A   1      42.813  22.804  24.840  1.00  0.00    -0.246 OA
BRANCH  31  33
ATOM     33  C   UNL A   1      41.601  23.738  26.677  1.00  0.00     0.060 A 
ATOM     34  C   UNL A   1      40.963  24.789  26.014  1.00  0.00     0.016 A 
ATOM     35  C   UNL A   1      41.922  23.832  28.027  1.00  0.00     0.016 A 
ATOM     36  C   UNL A   1      40.876  26.024  26.649  1.00  0.00     0.010 A 
ATOM     37  C   UNL A   1      41.909  25.067  28.612  1.00  0.00     0.010 A 
ATOM     38  C   UNL A   1      41.461  26.174  27.908  1.00  0.00    -0.014 A 
BRANCH  38  39
ATOM     39  C   UNL A   1      41.544  27.468  28.569  1.00  0.00     0.031 A 
ATOM     40  C   UNL A   1      42.750  28.243  28.180  1.00  0.00     0.074 A 
ATOM     41  C   UNL A   1      40.526  27.985  29.300  1.00  0.00     0.049 A 
ATOM     42  N   UNL A   1      43.741  28.564  28.938  1.00  0.00    -0.248 NA
ATOM     43  C   UNL A   1      42.965  28.592  26.762  1.00  0.00     0.031 C 
ATOM     44  C   UNL A   1      39.174  27.437  29.477  1.00  0.00     0.029 A 
ATOM     45  N   UNL A   1      40.445  29.174  29.973  1.00  0.00    -0.354 N 
ATOM     46  C   UNL A   1      44.569  29.370  28.163  1.00  0.00     0.074 A 
ATOM     47  C   UNL A   1      44.137  29.223  26.803  1.00  0.00     0.031 C 
ATOM     48  C   UNL A   1      38.366  28.371  30.039  1.00  0.00     0.029 A 
ATOM     49  C   UNL A   1      39.160  29.536  30.392  1.00  0.00     0.049 A 
ATOM     50  H   UNL A   1      41.235  29.734  30.149  1.00  0.00     0.167 HD
ATOM     51  C   UNL A   1      45.366  30.305  28.740  1.00  0.00     0.031 A 
ATOM     52  C   UNL A   1      38.776  30.707  30.978  1.00  0.00     0.031 A 
ATOM     53  C   UNL A   1      45.538  30.049  30.146  1.00  0.00     0.049 A 
ATOM     54  C   UNL A   1      40.002  31.327  31.531  1.00  0.00     0.074 A 
ATOM     55  C   UNL A   1      46.008  28.970  30.867  1.00  0.00     0.029 A 
ATOM     56  N   UNL A   1      44.773  30.797  31.011  1.00  0.00    -0.354 N 
ATOM     57  N   UNL A   1      40.675  30.822  32.525  1.00  0.00    -0.248 NA
ATOM     58  C   UNL A   1      40.728  32.271  30.699  1.00  0.00     0.031 C 
ATOM     59  C   UNL A   1      45.130  28.870  31.983  1.00  0.00     0.029 A 
ATOM     60  C   UNL A   1      44.242  29.947  31.947  1.00  0.00     0.049 A 
ATOM     61  H   UNL A   1      44.633  31.770  30.965  1.00  0.00     0.167 HD
ATOM     62  C   UNL A   1      42.002  31.017  32.180  1.00  0.00     0.074 A 
ATOM     63  C   UNL A   1      41.973  32.004  31.101  1.00  0.00     0.031 C 
ATOM     64  C   UNL A   1      42.968  30.153  32.606  1.00  0.00     0.031 A 
BRANCH  51  65
ATOM     65  C   UNL A   1      45.612  31.658  28.127  1.00  0.00    -0.014 A 
ATOM     66  C   UNL A   1      46.709  32.410  28.583  1.00  0.00     0.010 A 
ATOM     67  C   UNL A   1      44.652  32.327  27.336  1.00  0.00     0.010 A 
ATOM     68  C   UNL A   1      46.809  33.779  28.314  1.00  0.00     0.020 A 
ATOM     69  C   UNL A   1      44.766  33.683  27.025  1.00  0.00     0.020 A 
ATOM     70  C   UNL A   1      45.830  34.408  27.545  1.00  0.00     0.054 A 
BRANCH  70  71
ATOM     71  S   UNL A   1      45.931  36.194  27.280  1.00  0.00     0.124 S 
ATOM     72  O   UNL A   1      46.773  36.272  26.091  1.00  0.00    -0.237 OA
ATOM     73  O   UNL A   1      44.528  36.555  27.092  1.00  0.00    -0.237 OA
ATOM     74  O   UNL A   1      46.538  36.688  28.514  1.00  0.00    -0.744 OA
ENDBRANCH  70  71
ENDBRANCH  51  65
BRANCH  52  75
ATOM     75  C   UNL A   1      37.495  31.472  30.918  1.00  0.00    -0.014 A 
ATOM     76  C   UNL A   1      36.358  31.058  31.652  1.00  0.00     0.010 A 
ATOM     77  C   UNL A   1      37.482  32.781  30.401  1.00  0.00     0.010 A 
ATOM     78  C   UNL A   1      35.297  31.944  31.929  1.00  0.00     0.020 A 
ATOM     79  C   UNL A   1      36.426  33.668  30.671  1.00  0.00     0.020 A 
ATOM     80  C   UNL A   1      35.352  33.256  31.457  1.00  0.00     0.054 A 
BRANCH  80  81
ATOM     81  S   UNL A   1      34.093  34.462  31.991  1.00  0.00     0.124 S 
ATOM     82  O   UNL A   1      33.420  34.789  30.738  1.00  0.00    -0.237 OA
ATOM     83  O   UNL A   1      33.303  33.697  32.952  1.00  0.00    -0.237 OA
ATOM     84  O   UNL A   1      34.884  35.545  32.572  1.00  0.00    -0.744 OA
ENDBRANCH  80  81
ENDBRANCH  52  75
BRANCH  64  85
ATOM     85  C   UNL A   1      42.636  29.184  33.721  1.00  0.00    -0.014 A 
ATOM     86  C   UNL A   1      41.758  28.088  33.598  1.00  0.00     0.010 A 
ATOM     87  C   UNL A   1      43.382  29.312  34.907  1.00  0.00     0.010 A 
ATOM     88  C   UNL A   1      41.621  27.161  34.644  1.00  0.00     0.020 A 
ATOM     89  C   UNL A   1      43.268  28.381  35.939  1.00  0.00     0.020 A 
ATOM     90  C   UNL A   1      42.380  27.315  35.810  1.00  0.00     0.054 A 
BRANCH  90  91
ATOM     91  S   UNL A   1      42.241  26.095  37.145  1.00  0.00     0.124 S 
ATOM     92  O   UNL A   1      43.030  26.702  38.213  1.00  0.00    -0.237 OA
ATOM     93  O   UNL A   1      40.801  26.033  37.382  1.00  0.00    -0.237 OA
ATOM     94  O   UNL A   1      42.816  24.880  36.568  1.00  0.00    -0.744 OA
ENDBRANCH  90  91
ENDBRANCH  64  85
ENDBRANCH  38  39
ENDBRANCH  31  33
ENDBRANCH  30  31
ENDBRANCH  29  30
ENDBRANCH  28  29
ENDBRANCH  27  28
ENDBRANCH  26  27
ENDBRANCH   1  26
TORSDOF 24
ENDMDL
