MODEL 1
REMARK VINA RESULT:     -10.6      0.000      0.000
REMARK SMILES O=C(C[C@@H]([NH2+]Cc1cccnc1)C(=O)OCCOCCOC(=O)c1ccc(-c2c3nc(c(-c4ccc(S(=O)(=O)[O-])cc4)c4ccc([nH]4)c(-c4ccc(S(=O)(=O)[O-])cc4)c4nc(c(-c5ccc(S(=O)(=O)[O-])cc5)c5ccc2[nH]5)C=C4)C=C3)cc1)Nc1ccc2ccccc2c1
REMARK SMILES IDX 18 1 17 2 16 3 15 4 13 5 14 6 4 7 3 8 2 9 1 10 84 11 85 13
REMARK SMILES IDX 86 14 94 15 87 16 93 17 88 18 92 19 89 20 91 21 90 22 5 23
REMARK SMILES IDX 6 26 7 27 8 28 12 29 9 30 11 31 10 32 19 33 20 34 21 35
REMARK SMILES IDX 22 36 23 37 24 38 25 39 83 40 26 41 82 42 27 43 28 44 29 45
REMARK SMILES IDX 76 46 30 47 81 48 75 49 77 50 31 51 80 52 74 53 73 54 32 56
REMARK SMILES IDX 62 57 43 58 61 59 44 60 47 61 60 62 78 63 45 64 46 65 59 67
REMARK SMILES IDX 79 68 48 69 33 70 34 71 42 72 35 73 41 74 36 75 37 76 38 77
REMARK SMILES IDX 39 78 40 79 63 80 64 81 72 82 65 83 71 84 66 85 67 86 68 87
REMARK SMILES IDX 69 88 70 89 49 90 50 91 58 92 51 93 57 94 52 95 53 96 54 97
REMARK SMILES IDX 55 98 56 99
REMARK H PARENT 84 12 5 24 5 25 77 55 47 66
REMARK Flexibility Score: inf
ROOT
ATOM      1  O   UNL A   1      36.601  23.788  25.750  1.00  0.00    -0.374 OA
ENDROOT
BRANCH   1   2
ATOM      2  C   UNL A   1      35.466  24.078  24.942  1.00  0.00     0.202 C 
BRANCH   2   3
ATOM      3  C   UNL A   1      34.899  22.979  24.029  1.00  0.00     0.261 C 
BRANCH   3   4
ATOM      4  O   UNL A   1      34.823  23.326  22.640  1.00  0.00    -0.459 OA
BRANCH   4   5
ATOM      5  C   UNL A   1      33.551  23.324  22.162  1.00  0.00     0.365 C 
ATOM      6  O   UNL A   1      33.276  23.548  20.986  1.00  0.00    -0.245 OA
BRANCH   5   7
ATOM      7  C   UNL A   1      32.481  22.934  23.204  1.00  0.00     0.303 C 
BRANCH   7   8
ATOM      8  C   UNL A   1      31.248  23.873  23.199  1.00  0.00     0.177 C 
BRANCH   8   9
ATOM      9  C   UNL A   1      31.266  24.873  24.350  1.00  0.00     0.231 C 
ATOM     10  O   UNL A   1      30.417  24.866  25.234  1.00  0.00    -0.274 OA
ATOM     11  N   UNL A   1      32.273  25.809  24.196  1.00  0.00    -0.326 N 
ATOM     12  H   UNL A   1      32.965  25.613  23.524  1.00  0.00     0.169 HD
BRANCH  11  13
ATOM     13  C   UNL A   1      32.400  27.010  24.908  1.00  0.00     0.041 A 
ATOM     14  C   UNL A   1      31.414  27.973  24.684  1.00  0.00     0.027 A 
ATOM     15  C   UNL A   1      33.461  27.289  25.771  1.00  0.00     0.034 A 
ATOM     16  C   UNL A   1      31.446  29.188  25.363  1.00  0.00     0.011 A 
ATOM     17  C   UNL A   1      33.565  28.562  26.373  1.00  0.00    -0.016 A 
ATOM     18  C   UNL A   1      32.523  29.505  26.192  1.00  0.00    -0.018 A 
ATOM     19  C   UNL A   1      34.688  28.947  27.127  1.00  0.00     0.009 A 
ATOM     20  C   UNL A   1      32.594  30.759  26.815  1.00  0.00     0.009 A 
ATOM     21  C   UNL A   1      34.770  30.222  27.698  1.00  0.00     0.001 A 
ATOM     22  C   UNL A   1      33.716  31.119  27.558  1.00  0.00     0.001 A 
ENDBRANCH  11  13
ENDBRANCH   8   9
ENDBRANCH   7   8
BRANCH   7  23
ATOM     23  N   UNL A   1      32.057  21.502  23.096  1.00  0.00    -0.330 N 
ATOM     24  H   UNL A   1      32.592  21.084  22.335  1.00  0.00     0.347 HD
ATOM     25  H   UNL A   1      31.048  21.545  22.955  1.00  0.00     0.347 HD
BRANCH  23  26
ATOM     26  C   UNL A   1      32.226  20.639  24.274  1.00  0.00     0.299 C 
BRANCH  26  27
ATOM     27  C   UNL A   1      32.926  19.333  24.001  1.00  0.00     0.024 A 
ATOM     28  C   UNL A   1      32.436  18.462  23.019  1.00  0.00     0.013 A 
ATOM     29  C   UNL A   1      34.092  18.939  24.652  1.00  0.00     0.120 A 
ATOM     30  C   UNL A   1      33.096  17.266  22.751  1.00  0.00     0.021 A 
ATOM     31  N   UNL A   1      34.742  17.772  24.429  1.00  0.00    -0.264 NA
ATOM     32  C   UNL A   1      34.232  16.964  23.481  1.00  0.00     0.111 A 
ENDBRANCH  26  27
ENDBRANCH  23  26
ENDBRANCH   7  23
ENDBRANCH   5   7
ENDBRANCH   4   5
ENDBRANCH   3   4
ENDBRANCH   2   3
ENDBRANCH   1   2
BRANCH   1  33
ATOM     33  C   UNL A   1      36.888  22.434  26.099  1.00  0.00     0.202 C 
BRANCH  33  34
ATOM     34  C   UNL A   1      38.141  21.771  25.520  1.00  0.00     0.261 C 
BRANCH  34  35
ATOM     35  O   UNL A   1      39.287  22.639  25.581  1.00  0.00    -0.460 OA
BRANCH  35  36
ATOM     36  C   UNL A   1      39.843  22.748  26.814  1.00  0.00     0.338 C 
ATOM     37  O   UNL A   1      40.437  21.883  27.434  1.00  0.00    -0.246 OA
BRANCH  36  38
ATOM     38  C   UNL A   1      39.817  24.153  27.252  1.00  0.00     0.060 A 
ATOM     39  C   UNL A   1      40.625  25.068  26.562  1.00  0.00     0.016 A 
ATOM     40  C   UNL A   1      39.113  24.538  28.392  1.00  0.00     0.016 A 
ATOM     41  C   UNL A   1      40.781  26.364  27.048  1.00  0.00     0.010 A 
ATOM     42  C   UNL A   1      39.282  25.833  28.886  1.00  0.00     0.010 A 
ATOM     43  C   UNL A   1      40.150  26.734  28.241  1.00  0.00    -0.014 A 
BRANCH  43  44
ATOM     44  C   UNL A   1      40.549  27.983  28.930  1.00  0.00     0.031 A 
ATOM     45  C   UNL A   1      41.907  28.041  29.574  1.00  0.00     0.074 A 
ATOM     46  C   UNL A   1      39.722  29.042  28.984  1.00  0.00     0.049 A 
ATOM     47  N   UNL A   1      42.426  28.973  30.330  1.00  0.00    -0.248 NA
ATOM     48  C   UNL A   1      42.796  26.892  29.335  1.00  0.00     0.031 C 
ATOM     49  C   UNL A   1      38.414  29.129  28.335  1.00  0.00     0.029 A 
ATOM     50  N   UNL A   1      39.862  30.245  29.627  1.00  0.00    -0.354 N 
ATOM     51  C   UNL A   1      43.694  28.515  30.672  1.00  0.00     0.074 A 
ATOM     52  C   UNL A   1      43.858  27.216  30.058  1.00  0.00     0.031 C 
ATOM     53  C   UNL A   1      37.863  30.319  28.631  1.00  0.00     0.029 A 
ATOM     54  C   UNL A   1      38.758  31.055  29.523  1.00  0.00     0.049 A 
ATOM     55  H   UNL A   1      40.676  30.503  30.117  1.00  0.00     0.167 HD
ATOM     56  C   UNL A   1      44.634  29.122  31.433  1.00  0.00     0.031 A 
ATOM     57  C   UNL A   1      38.488  32.239  30.108  1.00  0.00     0.031 A 
ATOM     58  C   UNL A   1      44.455  30.406  32.053  1.00  0.00     0.049 A 
ATOM     59  C   UNL A   1      39.512  32.856  31.026  1.00  0.00     0.074 A 
ATOM     60  C   UNL A   1      45.342  31.109  32.850  1.00  0.00     0.029 A 
ATOM     61  N   UNL A   1      43.310  31.181  31.946  1.00  0.00    -0.354 N 
ATOM     62  N   UNL A   1      40.702  32.410  31.350  1.00  0.00    -0.248 NA
ATOM     63  C   UNL A   1      39.157  34.136  31.657  1.00  0.00     0.031 C 
ATOM     64  C   UNL A   1      44.712  32.285  33.267  1.00  0.00     0.029 A 
ATOM     65  C   UNL A   1      43.458  32.346  32.678  1.00  0.00     0.049 A 
ATOM     66  H   UNL A   1      42.510  30.937  31.428  1.00  0.00     0.167 HD
ATOM     67  C   UNL A   1      41.253  33.373  32.189  1.00  0.00     0.074 A 
ATOM     68  C   UNL A   1      40.265  34.423  32.327  1.00  0.00     0.031 C 
ATOM     69  C   UNL A   1      42.470  33.390  32.785  1.00  0.00     0.031 A 
BRANCH  56  70
ATOM     70  C   UNL A   1      45.921  28.379  31.672  1.00  0.00    -0.014 A 
ATOM     71  C   UNL A   1      47.050  28.595  30.861  1.00  0.00     0.010 A 
ATOM     72  C   UNL A   1      46.009  27.466  32.738  1.00  0.00     0.010 A 
ATOM     73  C   UNL A   1      48.229  27.880  31.086  1.00  0.00     0.020 A 
ATOM     74  C   UNL A   1      47.195  26.770  32.985  1.00  0.00     0.020 A 
ATOM     75  C   UNL A   1      48.292  26.967  32.144  1.00  0.00     0.054 A 
BRANCH  75  76
ATOM     76  S   UNL A   1      49.839  26.061  32.422  1.00  0.00     0.124 S 
ATOM     77  O   UNL A   1      49.679  25.610  33.802  1.00  0.00    -0.237 OA
ATOM     78  O   UNL A   1      49.783  25.011  31.408  1.00  0.00    -0.237 OA
ATOM     79  O   UNL A   1      50.874  27.070  32.213  1.00  0.00    -0.744 OA
ENDBRANCH  75  76
ENDBRANCH  56  70
BRANCH  57  80
ATOM     80  C   UNL A   1      37.181  32.907  29.862  1.00  0.00    -0.014 A 
ATOM     81  C   UNL A   1      36.095  32.694  30.728  1.00  0.00     0.010 A 
ATOM     82  C   UNL A   1      37.019  33.768  28.762  1.00  0.00     0.010 A 
ATOM     83  C   UNL A   1      34.867  33.320  30.492  1.00  0.00     0.020 A 
ATOM     84  C   UNL A   1      35.801  34.417  28.536  1.00  0.00     0.020 A 
ATOM     85  C   UNL A   1      34.730  34.181  29.398  1.00  0.00     0.054 A 
BRANCH  85  86
ATOM     86  S   UNL A   1      33.145  35.027  29.144  1.00  0.00     0.124 S 
ATOM     87  O   UNL A   1      32.553  34.970  30.477  1.00  0.00    -0.237 OA
ATOM     88  O   UNL A   1      33.563  36.352  28.692  1.00  0.00    -0.237 OA
ATOM     89  O   UNL A   1      32.483  34.212  28.127  1.00  0.00    -0.744 OA
ENDBRANCH  85  86
ENDBRANCH  57  80
BRANCH  69  90
ATOM     90  C   UNL A   1      42.845  34.604  33.591  1.00  0.00    -0.014 A 
ATOM     91  C   UNL A   1      42.674  34.639  34.986  1.00  0.00     0.010 A 
ATOM     92  C   UNL A   1      43.484  35.682  32.949  1.00  0.00     0.010 A 
ATOM     93  C   UNL A   1      43.131  35.735  35.723  1.00  0.00     0.020 A 
ATOM     94  C   UNL A   1      43.963  36.767  33.686  1.00  0.00     0.020 A 
ATOM     95  C   UNL A   1      43.780  36.788  35.069  1.00  0.00     0.054 A 
BRANCH  95  96
ATOM     96  S   UNL A   1      44.444  38.155  36.059  1.00  0.00     0.124 S 
ATOM     97  O   UNL A   1      45.868  37.834  36.105  1.00  0.00    -0.237 OA
ATOM     98  O   UNL A   1      44.089  39.329  35.265  1.00  0.00    -0.237 OA
ATOM     99  O   UNL A   1      43.737  38.036  37.333  1.00  0.00    -0.744 OA
ENDBRANCH  95  96
ENDBRANCH  69  90
ENDBRANCH  43  44
ENDBRANCH  36  38
ENDBRANCH  35  36
ENDBRANCH  34  35
ENDBRANCH  33  34
ENDBRANCH   1  33
TORSDOF 23
ENDMDL
MODEL 2
REMARK VINA RESULT:     -10.3      2.805      3.429
REMARK SMILES O=C(C[C@@H]([NH2+]Cc1cccnc1)C(=O)OCCOCCOC(=O)c1ccc(-c2c3nc(c(-c4ccc(S(=O)(=O)[O-])cc4)c4ccc([nH]4)c(-c4ccc(S(=O)(=O)[O-])cc4)c4nc(c(-c5ccc(S(=O)(=O)[O-])cc5)c5ccc2[nH]5)C=C4)C=C3)cc1)Nc1ccc2ccccc2c1
REMARK SMILES IDX 18 1 17 2 16 3 15 4 13 5 14 6 4 7 3 8 2 9 1 10 84 11 85 13
REMARK SMILES IDX 86 14 94 15 87 16 93 17 88 18 92 19 89 20 91 21 90 22 5 23
REMARK SMILES IDX 6 26 7 27 8 28 12 29 9 30 11 31 10 32 19 33 20 34 21 35
REMARK SMILES IDX 22 36 23 37 24 38 25 39 83 40 26 41 82 42 27 43 28 44 29 45
REMARK SMILES IDX 76 46 30 47 81 48 75 49 77 50 31 51 80 52 74 53 73 54 32 56
REMARK SMILES IDX 62 57 43 58 61 59 44 60 47 61 60 62 78 63 45 64 46 65 59 67
REMARK SMILES IDX 79 68 48 69 33 70 34 71 42 72 35 73 41 74 36 75 37 76 38 77
REMARK SMILES IDX 39 78 40 79 63 80 64 81 72 82 65 83 71 84 66 85 67 86 68 87
REMARK SMILES IDX 69 88 70 89 49 90 50 91 58 92 51 93 57 94 52 95 53 96 54 97
REMARK SMILES IDX 55 98 56 99
REMARK H PARENT 84 12 5 24 5 25 77 55 47 66
REMARK Flexibility Score: inf
ROOT
ATOM      1  O   UNL A   1      37.196  22.166  25.795  1.00  0.00    -0.374 OA
ENDROOT
BRANCH   1   2
ATOM      2  C   UNL A   1      35.865  21.998  25.323  1.00  0.00     0.202 C 
BRANCH   2   3
ATOM      3  C   UNL A   1      34.921  23.210  25.306  1.00  0.00     0.261 C 
BRANCH   3   4
ATOM      4  O   UNL A   1      34.888  23.933  24.068  1.00  0.00    -0.459 OA
BRANCH   4   5
ATOM      5  C   UNL A   1      33.915  23.497  23.225  1.00  0.00     0.365 C 
ATOM      6  O   UNL A   1      34.077  23.389  22.012  1.00  0.00    -0.245 OA
BRANCH   5   7
ATOM      7  C   UNL A   1      32.610  23.067  23.929  1.00  0.00     0.303 C 
BRANCH   7   8
ATOM      8  C   UNL A   1      31.395  23.958  23.567  1.00  0.00     0.177 C 
BRANCH   8   9
ATOM      9  C   UNL A   1      31.217  25.128  24.529  1.00  0.00     0.231 C 
ATOM     10  O   UNL A   1      30.112  25.509  24.896  1.00  0.00    -0.274 OA
ATOM     11  N   UNL A   1      32.426  25.731  24.827  1.00  0.00    -0.326 N 
ATOM     12  H   UNL A   1      33.243  25.239  24.582  1.00  0.00     0.169 HD
BRANCH  11  13
ATOM     13  C   UNL A   1      32.597  26.978  25.446  1.00  0.00     0.041 A 
ATOM     14  C   UNL A   1      31.569  27.905  25.270  1.00  0.00     0.027 A 
ATOM     15  C   UNL A   1      33.736  27.331  26.170  1.00  0.00     0.034 A 
ATOM     16  C   UNL A   1      31.641  29.161  25.866  1.00  0.00     0.011 A 
ATOM     17  C   UNL A   1      33.871  28.642  26.678  1.00  0.00    -0.016 A 
ATOM     18  C   UNL A   1      32.792  29.551  26.553  1.00  0.00    -0.018 A 
ATOM     19  C   UNL A   1      35.058  29.095  27.282  1.00  0.00     0.009 A 
ATOM     20  C   UNL A   1      32.896  30.844  27.087  1.00  0.00     0.009 A 
ATOM     21  C   UNL A   1      35.166  30.406  27.761  1.00  0.00     0.001 A 
ATOM     22  C   UNL A   1      34.081  31.272  27.681  1.00  0.00     0.001 A 
ENDBRANCH  11  13
ENDBRANCH   8   9
ENDBRANCH   7   8
BRANCH   7  23
ATOM     23  N   UNL A   1      32.286  21.619  23.721  1.00  0.00    -0.330 N 
ATOM     24  H   UNL A   1      33.015  21.229  23.124  1.00  0.00     0.347 HD
ATOM     25  H   UNL A   1      31.345  21.623  23.328  1.00  0.00     0.347 HD
BRANCH  23  26
ATOM     26  C   UNL A   1      32.185  20.757  24.906  1.00  0.00     0.299 C 
BRANCH  26  27
ATOM     27  C   UNL A   1      32.552  19.314  24.668  1.00  0.00     0.024 A 
ATOM     28  C   UNL A   1      32.632  18.814  23.362  1.00  0.00     0.013 A 
ATOM     29  C   UNL A   1      32.872  18.427  25.692  1.00  0.00     0.120 A 
ATOM     30  C   UNL A   1      32.994  17.488  23.141  1.00  0.00     0.021 A 
ATOM     31  N   UNL A   1      33.204  17.127  25.509  1.00  0.00    -0.264 NA
ATOM     32  C   UNL A   1      33.262  16.689  24.238  1.00  0.00     0.111 A 
ENDBRANCH  26  27
ENDBRANCH  23  26
ENDBRANCH   7  23
ENDBRANCH   5   7
ENDBRANCH   4   5
ENDBRANCH   3   4
ENDBRANCH   2   3
ENDBRANCH   1   2
BRANCH   1  33
ATOM     33  C   UNL A   1      37.967  23.280  25.345  1.00  0.00     0.202 C 
BRANCH  33  34
ATOM     34  C   UNL A   1      38.448  24.309  26.371  1.00  0.00     0.261 C 
BRANCH  34  35
ATOM     35  O   UNL A   1      39.861  24.201  26.620  1.00  0.00    -0.460 OA
BRANCH  35  36
ATOM     36  C   UNL A   1      40.565  25.331  26.360  1.00  0.00     0.338 C 
ATOM     37  O   UNL A   1      40.857  25.782  25.266  1.00  0.00    -0.246 OA
BRANCH  36  38
ATOM     38  C   UNL A   1      40.773  26.090  27.604  1.00  0.00     0.060 A 
ATOM     39  C   UNL A   1      39.862  25.890  28.651  1.00  0.00     0.016 A 
ATOM     40  C   UNL A   1      41.764  27.065  27.694  1.00  0.00     0.016 A 
ATOM     41  C   UNL A   1      39.902  26.712  29.775  1.00  0.00     0.010 A 
ATOM     42  C   UNL A   1      41.793  27.898  28.815  1.00  0.00     0.010 A 
ATOM     43  C   UNL A   1      40.835  27.753  29.836  1.00  0.00    -0.014 A 
BRANCH  43  44
ATOM     44  C   UNL A   1      40.690  28.816  30.857  1.00  0.00     0.031 A 
ATOM     45  C   UNL A   1      41.575  28.763  32.072  1.00  0.00     0.074 A 
ATOM     46  C   UNL A   1      39.794  29.806  30.707  1.00  0.00     0.049 A 
ATOM     47  N   UNL A   1      41.550  29.507  33.147  1.00  0.00    -0.248 NA
ATOM     48  C   UNL A   1      42.625  27.731  32.076  1.00  0.00     0.031 C 
ATOM     49  C   UNL A   1      38.936  30.003  29.539  1.00  0.00     0.029 A 
ATOM     50  N   UNL A   1      39.451  30.828  31.555  1.00  0.00    -0.354 N 
ATOM     51  C   UNL A   1      42.566  29.021  33.963  1.00  0.00     0.074 A 
ATOM     52  C   UNL A   1      43.176  27.910  33.268  1.00  0.00     0.031 C 
ATOM     53  C   UNL A   1      38.149  31.072  29.754  1.00  0.00     0.029 A 
ATOM     54  C   UNL A   1      38.418  31.605  31.089  1.00  0.00     0.049 A 
ATOM     55  H   UNL A   1      39.901  30.989  32.416  1.00  0.00     0.167 HD
ATOM     56  C   UNL A   1      42.953  29.461  35.183  1.00  0.00     0.031 A 
ATOM     57  C   UNL A   1      37.746  32.609  31.687  1.00  0.00     0.031 A 
ATOM     58  C   UNL A   1      42.331  30.558  35.873  1.00  0.00     0.049 A 
ATOM     59  C   UNL A   1      38.132  33.025  33.083  1.00  0.00     0.074 A 
ATOM     60  C   UNL A   1      42.641  31.081  37.116  1.00  0.00     0.029 A 
ATOM     61  N   UNL A   1      41.268  31.300  35.378  1.00  0.00    -0.354 N 
ATOM     62  N   UNL A   1      39.088  32.552  33.848  1.00  0.00    -0.248 NA
ATOM     63  C   UNL A   1      37.351  34.108  33.697  1.00  0.00     0.031 C 
ATOM     64  C   UNL A   1      41.732  32.106  37.394  1.00  0.00     0.029 A 
ATOM     65  C   UNL A   1      40.897  32.263  36.299  1.00  0.00     0.049 A 
ATOM     66  H   UNL A   1      40.841  31.160  34.503  1.00  0.00     0.167 HD
ATOM     67  C   UNL A   1      39.048  33.308  35.016  1.00  0.00     0.074 A 
ATOM     68  C   UNL A   1      37.972  34.265  34.859  1.00  0.00     0.031 C 
ATOM     69  C   UNL A   1      39.837  33.222  36.114  1.00  0.00     0.031 A 
BRANCH  56  70
ATOM     70  C   UNL A   1      44.074  28.724  35.864  1.00  0.00    -0.014 A 
ATOM     71  C   UNL A   1      43.822  27.621  36.700  1.00  0.00     0.010 A 
ATOM     72  C   UNL A   1      45.404  29.127  35.646  1.00  0.00     0.010 A 
ATOM     73  C   UNL A   1      44.875  26.962  37.339  1.00  0.00     0.020 A 
ATOM     74  C   UNL A   1      46.463  28.453  36.261  1.00  0.00     0.020 A 
ATOM     75  C   UNL A   1      46.190  27.387  37.119  1.00  0.00     0.054 A 
BRANCH  75  76
ATOM     76  S   UNL A   1      47.539  26.508  37.954  1.00  0.00     0.124 S 
ATOM     77  O   UNL A   1      47.251  26.779  39.359  1.00  0.00    -0.237 OA
ATOM     78  O   UNL A   1      47.337  25.126  37.526  1.00  0.00    -0.237 OA
ATOM     79  O   UNL A   1      48.745  27.148  37.431  1.00  0.00    -0.744 OA
ENDBRANCH  75  76
ENDBRANCH  56  70
BRANCH  57  80
ATOM     80  C   UNL A   1      36.621  33.275  30.975  1.00  0.00    -0.014 A 
ATOM     81  C   UNL A   1      35.299  33.125  31.428  1.00  0.00     0.010 A 
ATOM     82  C   UNL A   1      36.870  34.072  29.842  1.00  0.00     0.010 A 
ATOM     83  C   UNL A   1      34.245  33.749  30.754  1.00  0.00     0.020 A 
ATOM     84  C   UNL A   1      35.822  34.719  29.181  1.00  0.00     0.020 A 
ATOM     85  C   UNL A   1      34.514  34.545  29.636  1.00  0.00     0.054 A 
BRANCH  85  86
ATOM     86  S   UNL A   1      33.137  35.392  28.813  1.00  0.00     0.124 S 
ATOM     87  O   UNL A   1      32.467  36.045  29.933  1.00  0.00    -0.237 OA
ATOM     88  O   UNL A   1      33.824  36.280  27.880  1.00  0.00    -0.237 OA
ATOM     89  O   UNL A   1      32.392  34.301  28.186  1.00  0.00    -0.744 OA
ENDBRANCH  85  86
ENDBRANCH  57  80
BRANCH  69  90
ATOM     90  C   UNL A   1      39.623  34.223  37.217  1.00  0.00    -0.014 A 
ATOM     91  C   UNL A   1      38.928  33.884  38.391  1.00  0.00     0.010 A 
ATOM     92  C   UNL A   1      40.228  35.491  37.117  1.00  0.00     0.010 A 
ATOM     93  C   UNL A   1      38.839  34.798  39.444  1.00  0.00     0.020 A 
ATOM     94  C   UNL A   1      40.160  36.397  38.178  1.00  0.00     0.020 A 
ATOM     95  C   UNL A   1      39.462  36.046  39.334  1.00  0.00     0.054 A 
BRANCH  95  96
ATOM     96  S   UNL A   1      39.408  37.178  40.750  1.00  0.00     0.124 S 
ATOM     97  O   UNL A   1      38.689  36.388  41.745  1.00  0.00    -0.237 OA
ATOM     98  O   UNL A   1      40.823  37.407  41.032  1.00  0.00    -0.237 OA
ATOM     99  O   UNL A   1      38.685  38.340  40.238  1.00  0.00    -0.744 OA
ENDBRANCH  95  96
ENDBRANCH  69  90
ENDBRANCH  43  44
ENDBRANCH  36  38
ENDBRANCH  35  36
ENDBRANCH  34  35
ENDBRANCH  33  34
ENDBRANCH   1  33
TORSDOF 23
ENDMDL
MODEL 3
REMARK VINA RESULT:      -9.9      3.541      8.449
REMARK SMILES O=C(C[C@@H]([NH2+]Cc1cccnc1)C(=O)OCCOCCOC(=O)c1ccc(-c2c3nc(c(-c4ccc(S(=O)(=O)[O-])cc4)c4ccc([nH]4)c(-c4ccc(S(=O)(=O)[O-])cc4)c4nc(c(-c5ccc(S(=O)(=O)[O-])cc5)c5ccc2[nH]5)C=C4)C=C3)cc1)Nc1ccc2ccccc2c1
REMARK SMILES IDX 18 1 17 2 16 3 15 4 13 5 14 6 4 7 3 8 2 9 1 10 84 11 85 13
REMARK SMILES IDX 86 14 94 15 87 16 93 17 88 18 92 19 89 20 91 21 90 22 5 23
REMARK SMILES IDX 6 26 7 27 8 28 12 29 9 30 11 31 10 32 19 33 20 34 21 35
REMARK SMILES IDX 22 36 23 37 24 38 25 39 83 40 26 41 82 42 27 43 28 44 29 45
REMARK SMILES IDX 76 46 30 47 81 48 75 49 77 50 31 51 80 52 74 53 73 54 32 56
REMARK SMILES IDX 62 57 43 58 61 59 44 60 47 61 60 62 78 63 45 64 46 65 59 67
REMARK SMILES IDX 79 68 48 69 33 70 34 71 42 72 35 73 41 74 36 75 37 76 38 77
REMARK SMILES IDX 39 78 40 79 63 80 64 81 72 82 65 83 71 84 66 85 67 86 68 87
REMARK SMILES IDX 69 88 70 89 49 90 50 91 58 92 51 93 57 94 52 95 53 96 54 97
REMARK SMILES IDX 55 98 56 99
REMARK H PARENT 84 12 5 24 5 25 77 55 47 66
REMARK Flexibility Score: inf
ROOT
ATOM      1  O   UNL A   1      33.796  29.132  27.640  1.00  0.00    -0.374 OA
ENDROOT
BRANCH   1   2
ATOM      2  C   UNL A   1      32.747  28.240  27.281  1.00  0.00     0.202 C 
BRANCH   2   3
ATOM      3  C   UNL A   1      33.065  27.042  26.372  1.00  0.00     0.261 C 
BRANCH   3   4
ATOM      4  O   UNL A   1      32.094  26.784  25.349  1.00  0.00    -0.459 OA
BRANCH   4   5
ATOM      5  C   UNL A   1      31.300  25.718  25.629  1.00  0.00     0.365 C 
ATOM      6  O   UNL A   1      30.783  25.536  26.730  1.00  0.00    -0.245 OA
BRANCH   5   7
ATOM      7  C   UNL A   1      31.029  24.792  24.424  1.00  0.00     0.303 C 
BRANCH   7   8
ATOM      8  C   UNL A   1      30.876  23.301  24.817  1.00  0.00     0.177 C 
BRANCH   8   9
ATOM      9  C   UNL A   1      32.143  22.724  25.439  1.00  0.00     0.231 C 
ATOM     10  O   UNL A   1      32.206  22.413  26.623  1.00  0.00    -0.274 OA
ATOM     11  N   UNL A   1      33.191  22.706  24.536  1.00  0.00    -0.326 N 
ATOM     12  H   UNL A   1      32.966  22.847  23.588  1.00  0.00     0.169 HD
BRANCH  11  13
ATOM     13  C   UNL A   1      34.544  22.502  24.845  1.00  0.00     0.041 A 
ATOM     14  C   UNL A   1      35.013  21.191  24.752  1.00  0.00     0.027 A 
ATOM     15  C   UNL A   1      35.401  23.518  25.270  1.00  0.00     0.034 A 
ATOM     16  C   UNL A   1      36.347  20.896  25.019  1.00  0.00     0.011 A 
ATOM     17  C   UNL A   1      36.724  23.211  25.656  1.00  0.00    -0.016 A 
ATOM     18  C   UNL A   1      37.207  21.889  25.491  1.00  0.00    -0.018 A 
ATOM     19  C   UNL A   1      37.580  24.166  26.233  1.00  0.00     0.009 A 
ATOM     20  C   UNL A   1      38.531  21.576  25.833  1.00  0.00     0.009 A 
ATOM     21  C   UNL A   1      38.881  23.826  26.621  1.00  0.00     0.001 A 
ATOM     22  C   UNL A   1      39.361  22.539  26.404  1.00  0.00     0.001 A 
ENDBRANCH  11  13
ENDBRANCH   8   9
ENDBRANCH   7   8
BRANCH   7  23
ATOM     23  N   UNL A   1      29.868  25.243  23.592  1.00  0.00    -0.330 N 
ATOM     24  H   UNL A   1      29.277  24.428  23.430  1.00  0.00     0.347 HD
ATOM     25  H   UNL A   1      30.294  25.652  22.761  1.00  0.00     0.347 HD
BRANCH  23  26
ATOM     26  C   UNL A   1      29.007  26.308  24.125  1.00  0.00     0.299 C 
BRANCH  26  27
ATOM     27  C   UNL A   1      29.001  27.578  23.313  1.00  0.00     0.024 A 
ATOM     28  C   UNL A   1      27.827  28.332  23.195  1.00  0.00     0.013 A 
ATOM     29  C   UNL A   1      30.133  28.092  22.687  1.00  0.00     0.120 A 
ATOM     30  C   UNL A   1      27.826  29.517  22.463  1.00  0.00     0.021 A 
ATOM     31  N   UNL A   1      30.158  29.228  21.950  1.00  0.00    -0.264 NA
ATOM     32  C   UNL A   1      29.005  29.917  21.859  1.00  0.00     0.111 A 
ENDBRANCH  26  27
ENDBRANCH  23  26
ENDBRANCH   7  23
ENDBRANCH   5   7
ENDBRANCH   4   5
ENDBRANCH   3   4
ENDBRANCH   2   3
ENDBRANCH   1   2
BRANCH   1  33
ATOM     33  C   UNL A   1      33.959  30.353  26.919  1.00  0.00     0.202 C 
BRANCH  33  34
ATOM     34  C   UNL A   1      33.199  31.596  27.389  1.00  0.00     0.261 C 
BRANCH  34  35
ATOM     35  O   UNL A   1      34.038  32.766  27.403  1.00  0.00    -0.460 OA
BRANCH  35  36
ATOM     36  C   UNL A   1      33.778  33.630  28.417  1.00  0.00     0.338 C 
ATOM     37  O   UNL A   1      32.766  34.288  28.583  1.00  0.00    -0.246 OA
BRANCH  36  38
ATOM     38  C   UNL A   1      34.826  33.526  29.444  1.00  0.00     0.060 A 
ATOM     39  C   UNL A   1      36.051  34.162  29.196  1.00  0.00     0.016 A 
ATOM     40  C   UNL A   1      34.654  32.720  30.569  1.00  0.00     0.016 A 
ATOM     41  C   UNL A   1      37.134  33.943  30.044  1.00  0.00     0.010 A 
ATOM     42  C   UNL A   1      35.745  32.490  31.409  1.00  0.00     0.010 A 
ATOM     43  C   UNL A   1      36.999  33.064  31.124  1.00  0.00    -0.014 A 
BRANCH  43  44
ATOM     44  C   UNL A   1      38.202  32.580  31.839  1.00  0.00     0.031 A 
ATOM     45  C   UNL A   1      39.081  31.570  31.154  1.00  0.00     0.074 A 
ATOM     46  C   UNL A   1      38.507  33.027  33.070  1.00  0.00     0.049 A 
ATOM     47  N   UNL A   1      40.112  30.917  31.622  1.00  0.00    -0.248 NA
ATOM     48  C   UNL A   1      38.750  31.254  29.754  1.00  0.00     0.031 C 
ATOM     49  C   UNL A   1      37.772  34.058  33.802  1.00  0.00     0.029 A 
ATOM     50  N   UNL A   1      39.514  32.657  33.923  1.00  0.00    -0.354 N 
ATOM     51  C   UNL A   1      40.541  30.098  30.582  1.00  0.00     0.074 A 
ATOM     52  C   UNL A   1      39.649  30.325  29.466  1.00  0.00     0.031 C 
ATOM     53  C   UNL A   1      38.344  34.223  35.007  1.00  0.00     0.029 A 
ATOM     54  C   UNL A   1      39.455  33.282  35.146  1.00  0.00     0.049 A 
ATOM     55  H   UNL A   1      40.211  32.005  33.684  1.00  0.00     0.167 HD
ATOM     56  C   UNL A   1      41.582  29.235  30.562  1.00  0.00     0.031 A 
ATOM     57  C   UNL A   1      40.192  33.090  36.258  1.00  0.00     0.031 A 
ATOM     58  C   UNL A   1      42.454  29.005  31.682  1.00  0.00     0.049 A 
ATOM     59  C   UNL A   1      41.289  32.058  36.245  1.00  0.00     0.074 A 
ATOM     60  C   UNL A   1      43.535  28.146  31.769  1.00  0.00     0.029 A 
ATOM     61  N   UNL A   1      42.342  29.637  32.911  1.00  0.00    -0.354 N 
ATOM     62  N   UNL A   1      41.680  31.284  35.259  1.00  0.00    -0.248 NA
ATOM     63  C   UNL A   1      42.046  31.873  37.491  1.00  0.00     0.031 C 
ATOM     64  C   UNL A   1      44.045  28.222  33.069  1.00  0.00     0.029 A 
ATOM     65  C   UNL A   1      43.322  29.174  33.770  1.00  0.00     0.049 A 
ATOM     66  H   UNL A   1      41.664  30.314  33.138  1.00  0.00     0.167 HD
ATOM     67  C   UNL A   1      42.752  30.550  35.756  1.00  0.00     0.074 A 
ATOM     68  C   UNL A   1      42.947  30.968  37.129  1.00  0.00     0.031 C 
ATOM     69  C   UNL A   1      43.512  29.620  35.128  1.00  0.00     0.031 A 
BRANCH  56  70
ATOM     70  C   UNL A   1      41.804  28.443  29.301  1.00  0.00    -0.014 A 
ATOM     71  C   UNL A   1      41.058  27.284  29.026  1.00  0.00     0.010 A 
ATOM     72  C   UNL A   1      42.760  28.880  28.366  1.00  0.00     0.010 A 
ATOM     73  C   UNL A   1      41.293  26.552  27.859  1.00  0.00     0.020 A 
ATOM     74  C   UNL A   1      42.979  28.167  27.185  1.00  0.00     0.020 A 
ATOM     75  C   UNL A   1      42.258  26.996  26.948  1.00  0.00     0.054 A 
BRANCH  75  76
ATOM     76  S   UNL A   1      42.536  26.033  25.436  1.00  0.00     0.124 S 
ATOM     77  O   UNL A   1      43.040  27.052  24.520  1.00  0.00    -0.237 OA
ATOM     78  O   UNL A   1      43.512  25.035  25.864  1.00  0.00    -0.237 OA
ATOM     79  O   UNL A   1      41.212  25.506  25.113  1.00  0.00    -0.744 OA
ENDBRANCH  75  76
ENDBRANCH  56  70
BRANCH  57  80
ATOM     80  C   UNL A   1      39.899  33.878  37.486  1.00  0.00    -0.014 A 
ATOM     81  C   UNL A   1      40.622  35.048  37.775  1.00  0.00     0.010 A 
ATOM     82  C   UNL A   1      38.884  33.466  38.370  1.00  0.00     0.010 A 
ATOM     83  C   UNL A   1      40.346  35.784  38.932  1.00  0.00     0.020 A 
ATOM     84  C   UNL A   1      38.587  34.213  39.513  1.00  0.00     0.020 A 
ATOM     85  C   UNL A   1      39.327  35.362  39.792  1.00  0.00     0.054 A 
BRANCH  85  86
ATOM     86  S   UNL A   1      38.948  36.364  41.256  1.00  0.00     0.124 S 
ATOM     87  O   UNL A   1      38.595  37.650  40.662  1.00  0.00    -0.237 OA
ATOM     88  O   UNL A   1      37.848  35.625  41.869  1.00  0.00    -0.237 OA
ATOM     89  O   UNL A   1      40.198  36.346  42.015  1.00  0.00    -0.744 OA
ENDBRANCH  85  86
ENDBRANCH  57  80
BRANCH  69  90
ATOM     90  C   UNL A   1      44.671  29.028  35.884  1.00  0.00    -0.014 A 
ATOM     91  C   UNL A   1      45.894  29.710  36.003  1.00  0.00     0.010 A 
ATOM     92  C   UNL A   1      44.487  27.818  36.581  1.00  0.00     0.010 A 
ATOM     93  C   UNL A   1      46.915  29.190  36.802  1.00  0.00     0.020 A 
ATOM     94  C   UNL A   1      45.498  27.307  37.399  1.00  0.00     0.020 A 
ATOM     95  C   UNL A   1      46.708  27.994  37.501  1.00  0.00     0.054 A 
BRANCH  95  96
ATOM     96  S   UNL A   1      48.016  27.387  38.601  1.00  0.00     0.124 S 
ATOM     97  O   UNL A   1      49.192  28.086  38.091  1.00  0.00    -0.237 OA
ATOM     98  O   UNL A   1      47.552  27.817  39.919  1.00  0.00    -0.237 OA
ATOM     99  O   UNL A   1      48.007  25.942  38.386  1.00  0.00    -0.744 OA
ENDBRANCH  95  96
ENDBRANCH  69  90
ENDBRANCH  43  44
ENDBRANCH  36  38
ENDBRANCH  35  36
ENDBRANCH  34  35
ENDBRANCH  33  34
ENDBRANCH   1  33
TORSDOF 23
ENDMDL
