MODEL 1
REMARK VINA RESULT:     -10.6      0.000      0.000
REMARK SMILES CC(C)CN(C)c1cc2c(cc1Cl)C=C(C(=O)OCCOCCOC(=O)c1ccc(-c3c4nc(c(-c5ccc(S(=O)(=O)[O-])cc5)c5ccc([nH]5)c(-c5ccc(S(=O)(=O)[O-])cc5)c5nc(c(-c6ccc(S(=O)(=O)[O-])cc6)c6ccc3[nH]6)C=C5)C=C4)cc1)[C@@H](C(F)(F)F)O2
REMARK SMILES IDX 21 1 20 2 19 3 18 4 16 5 17 6 15 7 7 8 8 9 12 10 9 11 11 12
REMARK SMILES IDX 13 13 10 14 92 15 14 16 87 17 5 18 6 19 4 20 2 21 1 22 3 23
REMARK SMILES IDX 88 24 89 25 90 26 91 27 22 28 23 29 24 30 25 31 26 32 27 33
REMARK SMILES IDX 28 34 86 35 29 36 85 37 30 38 31 39 32 40 79 41 33 42 84 43
REMARK SMILES IDX 78 44 80 45 34 46 83 47 77 48 76 49 35 51 65 52 46 53 64 54
REMARK SMILES IDX 47 55 50 56 63 57 81 58 48 59 49 60 62 62 82 63 51 64 36 65
REMARK SMILES IDX 37 66 45 67 38 68 44 69 39 70 40 71 41 72 42 73 43 74 66 75
REMARK SMILES IDX 67 76 75 77 68 78 74 79 69 80 70 81 71 82 72 83 73 84 52 85
REMARK SMILES IDX 53 86 61 87 54 88 60 89 55 90 56 91 57 92 58 93 59 94
REMARK H PARENT 80 50 50 61
REMARK Flexibility Score: inf
ROOT
ATOM      1  O   UNL A   1      35.426  32.617  28.515  1.00  0.00    -0.374 OA
ENDROOT
BRANCH   1   2
ATOM      2  C   UNL A   1      35.110  31.451  27.759  1.00  0.00     0.202 C 
BRANCH   2   3
ATOM      3  C   UNL A   1      33.646  31.199  27.381  1.00  0.00     0.261 C 
BRANCH   3   4
ATOM      4  O   UNL A   1      33.492  30.157  26.406  1.00  0.00    -0.460 OA
BRANCH   4   5
ATOM      5  C   UNL A   1      32.209  29.967  26.022  1.00  0.00     0.338 C 
ATOM      6  O   UNL A   1      31.358  30.833  25.880  1.00  0.00    -0.246 OA
BRANCH   5   7
ATOM      7  C   UNL A   1      31.970  28.561  25.659  1.00  0.00     0.087 C 
ATOM      8  C   UNL A   1      32.873  23.787  24.380  1.00  0.00     0.059 A 
ATOM      9  C   UNL A   1      31.709  24.588  24.402  1.00  0.00     0.074 A 
ATOM     10  C   UNL A   1      34.081  24.382  24.806  1.00  0.00     0.065 A 
ATOM     11  C   UNL A   1      31.748  25.906  24.873  1.00  0.00     0.130 A 
ATOM     12  C   UNL A   1      34.093  25.647  25.385  1.00  0.00     0.034 A 
ATOM     13  Cl  UNL A   1      35.622  23.622  24.593  1.00  0.00    -0.082 Cl
ATOM     14  C   UNL A   1      32.926  26.401  25.424  1.00  0.00     0.019 A 
ATOM     15  O   UNL A   1      30.606  26.662  24.792  1.00  0.00    -0.475 OA
ATOM     16  C   UNL A   1      32.973  27.735  25.977  1.00  0.00     0.027 C 
ATOM     17  C   UNL A   1      30.757  28.120  24.886  1.00  0.00     0.316 C 
BRANCH   8  18
ATOM     18  N   UNL A   1      32.828  22.450  23.965  1.00  0.00    -0.373 N 
ATOM     19  C   UNL A   1      32.774  22.235  22.523  1.00  0.00     0.143 C 
BRANCH  18  20
ATOM     20  C   UNL A   1      32.135  21.480  24.838  1.00  0.00     0.119 C 
BRANCH  20  21
ATOM     21  C   UNL A   1      32.957  20.191  25.076  1.00  0.00     0.002 C 
ATOM     22  C   UNL A   1      32.593  19.072  24.092  1.00  0.00     0.009 C 
ATOM     23  C   UNL A   1      34.463  20.451  24.970  1.00  0.00     0.009 C 
ENDBRANCH  20  21
ENDBRANCH  18  20
ENDBRANCH   8  18
BRANCH  17  24
ATOM     24  C   UNL A   1      30.729  28.762  23.490  1.00  0.00     0.430 C 
ATOM     25  F   UNL A   1      29.963  29.877  23.473  1.00  0.00    -0.167 F 
ATOM     26  F   UNL A   1      31.971  29.129  23.095  1.00  0.00    -0.167 F 
ATOM     27  F   UNL A   1      30.240  27.917  22.554  1.00  0.00    -0.167 F 
ENDBRANCH  17  24
ENDBRANCH   5   7
ENDBRANCH   4   5
ENDBRANCH   3   4
ENDBRANCH   2   3
ENDBRANCH   1   2
BRANCH   1  28
ATOM     28  C   UNL A   1      34.933  32.731  29.848  1.00  0.00     0.202 C 
BRANCH  28  29
ATOM     29  C   UNL A   1      35.689  32.035  30.988  1.00  0.00     0.261 C 
BRANCH  29  30
ATOM     30  O   UNL A   1      36.157  30.720  30.645  1.00  0.00    -0.460 OA
BRANCH  30  31
ATOM     31  C   UNL A   1      36.987  30.155  31.558  1.00  0.00     0.338 C 
ATOM     32  O   UNL A   1      36.676  29.671  32.637  1.00  0.00    -0.246 OA
BRANCH  31  33
ATOM     33  C   UNL A   1      38.331  30.013  30.972  1.00  0.00     0.060 A 
ATOM     34  C   UNL A   1      39.432  29.699  31.768  1.00  0.00     0.016 A 
ATOM     35  C   UNL A   1      38.471  30.155  29.585  1.00  0.00     0.016 A 
ATOM     36  C   UNL A   1      40.676  29.503  31.164  1.00  0.00     0.010 A 
ATOM     37  C   UNL A   1      39.715  29.962  28.984  1.00  0.00     0.010 A 
ATOM     38  C   UNL A   1      40.824  29.614  29.768  1.00  0.00    -0.014 A 
BRANCH  38  39
ATOM     39  C   UNL A   1      42.104  29.233  29.121  1.00  0.00     0.031 A 
ATOM     40  C   UNL A   1      43.221  30.220  28.950  1.00  0.00     0.074 A 
ATOM     41  C   UNL A   1      42.241  27.970  28.672  1.00  0.00     0.049 A 
ATOM     42  N   UNL A   1      44.416  30.018  28.459  1.00  0.00    -0.248 NA
ATOM     43  C   UNL A   1      42.972  31.606  29.375  1.00  0.00     0.031 C 
ATOM     44  C   UNL A   1      41.204  26.938  28.750  1.00  0.00     0.029 A 
ATOM     45  N   UNL A   1      43.299  27.331  28.071  1.00  0.00    -0.354 N 
ATOM     46  C   UNL A   1      45.073  31.240  28.539  1.00  0.00     0.074 A 
ATOM     47  C   UNL A   1      44.126  32.192  29.078  1.00  0.00     0.031 C 
ATOM     48  C   UNL A   1      41.684  25.793  28.244  1.00  0.00     0.029 A 
ATOM     49  C   UNL A   1      43.048  26.013  27.769  1.00  0.00     0.049 A 
ATOM     50  H   UNL A   1      44.155  27.776  27.874  1.00  0.00     0.167 HD
ATOM     51  C   UNL A   1      46.355  31.524  28.216  1.00  0.00     0.031 A 
ATOM     52  C   UNL A   1      43.822  25.080  27.177  1.00  0.00     0.031 A 
ATOM     53  C   UNL A   1      47.286  30.564  27.674  1.00  0.00     0.049 A 
ATOM     54  C   UNL A   1      45.235  25.434  26.800  1.00  0.00     0.074 A 
ATOM     55  C   UNL A   1      48.619  30.759  27.354  1.00  0.00     0.029 A 
ATOM     56  N   UNL A   1      46.993  29.242  27.371  1.00  0.00    -0.354 N 
ATOM     57  N   UNL A   1      45.866  26.572  26.966  1.00  0.00    -0.248 NA
ATOM     58  C   UNL A   1      46.050  24.381  26.178  1.00  0.00     0.031 C 
ATOM     59  C   UNL A   1      49.109  29.583  26.785  1.00  0.00     0.029 A 
ATOM     60  C   UNL A   1      48.111  28.624  26.835  1.00  0.00     0.049 A 
ATOM     61  H   UNL A   1      46.121  28.809  27.514  1.00  0.00     0.167 HD
ATOM     62  C   UNL A   1      47.155  26.366  26.487  1.00  0.00     0.074 A 
ATOM     63  C   UNL A   1      47.224  24.987  26.051  1.00  0.00     0.031 C 
ATOM     64  C   UNL A   1      48.182  27.246  26.410  1.00  0.00     0.031 A 
BRANCH  51  65
ATOM     65  C   UNL A   1      46.882  32.914  28.468  1.00  0.00    -0.014 A 
ATOM     66  C   UNL A   1      46.866  33.870  27.435  1.00  0.00     0.010 A 
ATOM     67  C   UNL A   1      47.583  33.200  29.654  1.00  0.00     0.010 A 
ATOM     68  C   UNL A   1      47.600  35.054  27.553  1.00  0.00     0.020 A 
ATOM     69  C   UNL A   1      48.293  34.397  29.788  1.00  0.00     0.020 A 
ATOM     70  C   UNL A   1      48.327  35.299  28.722  1.00  0.00     0.054 A 
BRANCH  70  71
ATOM     71  S   UNL A   1      49.362  36.786  28.810  1.00  0.00     0.124 S 
ATOM     72  O   UNL A   1      49.848  36.743  30.186  1.00  0.00    -0.237 OA
ATOM     73  O   UNL A   1      50.365  36.534  27.778  1.00  0.00    -0.237 OA
ATOM     74  O   UNL A   1      48.431  37.871  28.511  1.00  0.00    -0.744 OA
ENDBRANCH  70  71
ENDBRANCH  51  65
BRANCH  52  75
ATOM     75  C   UNL A   1      43.265  23.718  26.937  1.00  0.00    -0.014 A 
ATOM     76  C   UNL A   1      43.188  22.789  27.994  1.00  0.00     0.010 A 
ATOM     77  C   UNL A   1      42.874  23.313  25.648  1.00  0.00     0.010 A 
ATOM     78  C   UNL A   1      42.785  21.473  27.759  1.00  0.00     0.020 A 
ATOM     79  C   UNL A   1      42.430  22.006  25.416  1.00  0.00     0.020 A 
ATOM     80  C   UNL A   1      42.419  21.087  26.468  1.00  0.00     0.054 A 
BRANCH  80  81
ATOM     81  S   UNL A   1      41.935  19.362  26.183  1.00  0.00     0.124 S 
ATOM     82  O   UNL A   1      42.308  18.734  27.448  1.00  0.00    -0.237 OA
ATOM     83  O   UNL A   1      40.500  19.472  25.935  1.00  0.00    -0.237 OA
ATOM     84  O   UNL A   1      42.737  18.967  25.028  1.00  0.00    -0.744 OA
ENDBRANCH  80  81
ENDBRANCH  52  75
BRANCH  64  85
ATOM     85  C   UNL A   1      49.495  26.774  25.834  1.00  0.00    -0.014 A 
ATOM     86  C   UNL A   1      50.461  26.195  26.680  1.00  0.00     0.010 A 
ATOM     87  C   UNL A   1      49.836  27.047  24.498  1.00  0.00     0.010 A 
ATOM     88  C   UNL A   1      51.756  25.947  26.216  1.00  0.00     0.020 A 
ATOM     89  C   UNL A   1      51.119  26.765  24.020  1.00  0.00     0.020 A 
ATOM     90  C   UNL A   1      52.080  26.246  24.891  1.00  0.00     0.054 A 
BRANCH  90  91
ATOM     91  S   UNL A   1      53.781  25.974  24.325  1.00  0.00     0.124 S 
ATOM     92  O   UNL A   1      53.643  26.069  22.874  1.00  0.00    -0.237 OA
ATOM     93  O   UNL A   1      54.509  27.069  24.961  1.00  0.00    -0.237 OA
ATOM     94  O   UNL A   1      54.105  24.643  24.834  1.00  0.00    -0.744 OA
ENDBRANCH  90  91
ENDBRANCH  64  85
ENDBRANCH  38  39
ENDBRANCH  31  33
ENDBRANCH  30  31
ENDBRANCH  29  30
ENDBRANCH  28  29
ENDBRANCH   1  28
TORSDOF 21
ENDMDL
MODEL 2
REMARK VINA RESULT:     -10.2      6.742     11.984
REMARK SMILES CC(C)CN(C)c1cc2c(cc1Cl)C=C(C(=O)OCCOCCOC(=O)c1ccc(-c3c4nc(c(-c5ccc(S(=O)(=O)[O-])cc5)c5ccc([nH]5)c(-c5ccc(S(=O)(=O)[O-])cc5)c5nc(c(-c6ccc(S(=O)(=O)[O-])cc6)c6ccc3[nH]6)C=C5)C=C4)cc1)[C@@H](C(F)(F)F)O2
REMARK SMILES IDX 21 1 20 2 19 3 18 4 16 5 17 6 15 7 7 8 8 9 12 10 9 11 11 12
REMARK SMILES IDX 13 13 10 14 92 15 14 16 87 17 5 18 6 19 4 20 2 21 1 22 3 23
REMARK SMILES IDX 88 24 89 25 90 26 91 27 22 28 23 29 24 30 25 31 26 32 27 33
REMARK SMILES IDX 28 34 86 35 29 36 85 37 30 38 31 39 32 40 79 41 33 42 84 43
REMARK SMILES IDX 78 44 80 45 34 46 83 47 77 48 76 49 35 51 65 52 46 53 64 54
REMARK SMILES IDX 47 55 50 56 63 57 81 58 48 59 49 60 62 62 82 63 51 64 36 65
REMARK SMILES IDX 37 66 45 67 38 68 44 69 39 70 40 71 41 72 42 73 43 74 66 75
REMARK SMILES IDX 67 76 75 77 68 78 74 79 69 80 70 81 71 82 72 83 73 84 52 85
REMARK SMILES IDX 53 86 61 87 54 88 60 89 55 90 56 91 57 92 58 93 59 94
REMARK H PARENT 80 50 50 61
REMARK Flexibility Score: inf
ROOT
ATOM      1  O   UNL A   1      36.849  22.785  24.803  1.00  0.00    -0.374 OA
ENDROOT
BRANCH   1   2
ATOM      2  C   UNL A   1      36.457  21.674  25.603  1.00  0.00     0.202 C 
BRANCH   2   3
ATOM      3  C   UNL A   1      35.028  21.139  25.463  1.00  0.00     0.261 C 
BRANCH   3   4
ATOM      4  O   UNL A   1      34.462  21.390  24.168  1.00  0.00    -0.460 OA
BRANCH   4   5
ATOM      5  C   UNL A   1      33.126  21.183  24.118  1.00  0.00     0.338 C 
ATOM      6  O   UNL A   1      32.557  20.100  24.141  1.00  0.00    -0.246 OA
BRANCH   5   7
ATOM      7  C   UNL A   1      32.393  22.458  24.159  1.00  0.00     0.087 C 
ATOM      8  C   UNL A   1      31.378  27.350  23.625  1.00  0.00     0.059 A 
ATOM      9  C   UNL A   1      30.738  26.289  24.305  1.00  0.00     0.074 A 
ATOM     10  C   UNL A   1      32.557  27.048  22.909  1.00  0.00     0.065 A 
ATOM     11  C   UNL A   1      31.232  24.981  24.230  1.00  0.00     0.130 A 
ATOM     12  C   UNL A   1      32.974  25.731  22.737  1.00  0.00     0.034 A 
ATOM     13  Cl  UNL A   1      33.588  28.271  22.249  1.00  0.00    -0.082 Cl
ATOM     14  C   UNL A   1      32.306  24.702  23.390  1.00  0.00     0.019 A 
ATOM     15  O   UNL A   1      30.618  24.008  24.979  1.00  0.00    -0.475 OA
ATOM     16  C   UNL A   1      32.791  23.350  23.245  1.00  0.00     0.027 C 
ATOM     17  C   UNL A   1      31.374  22.771  25.221  1.00  0.00     0.316 C 
BRANCH   8  18
ATOM     18  N   UNL A   1      30.855  28.649  23.650  1.00  0.00    -0.373 N 
ATOM     19  C   UNL A   1      31.271  29.479  24.774  1.00  0.00     0.143 C 
BRANCH  18  20
ATOM     20  C   UNL A   1      29.501  28.858  23.095  1.00  0.00     0.119 C 
BRANCH  20  21
ATOM     21  C   UNL A   1      29.166  30.351  22.873  1.00  0.00     0.002 C 
ATOM     22  C   UNL A   1      29.155  30.736  21.388  1.00  0.00     0.009 C 
ATOM     23  C   UNL A   1      27.806  30.724  23.473  1.00  0.00     0.009 C 
ENDBRANCH  20  21
ENDBRANCH  18  20
ENDBRANCH   8  18
BRANCH  17  24
ATOM     24  C   UNL A   1      32.017  22.790  26.617  1.00  0.00     0.430 C 
ATOM     25  F   UNL A   1      31.187  23.331  27.537  1.00  0.00    -0.167 F 
ATOM     26  F   UNL A   1      32.311  21.537  27.036  1.00  0.00    -0.167 F 
ATOM     27  F   UNL A   1      33.166  23.503  26.634  1.00  0.00    -0.167 F 
ENDBRANCH  17  24
ENDBRANCH   5   7
ENDBRANCH   4   5
ENDBRANCH   3   4
ENDBRANCH   2   3
ENDBRANCH   1   2
BRANCH   1  28
ATOM     28  C   UNL A   1      37.288  23.979  25.446  1.00  0.00     0.202 C 
BRANCH  28  29
ATOM     29  C   UNL A   1      38.535  23.933  26.341  1.00  0.00     0.261 C 
BRANCH  29  30
ATOM     30  O   UNL A   1      38.575  24.983  27.321  1.00  0.00    -0.460 OA
BRANCH  30  31
ATOM     31  C   UNL A   1      39.686  25.761  27.276  1.00  0.00     0.338 C 
ATOM     32  O   UNL A   1      40.506  25.823  26.371  1.00  0.00    -0.246 OA
BRANCH  31  33
ATOM     33  C   UNL A   1      39.667  26.702  28.408  1.00  0.00     0.060 A 
ATOM     34  C   UNL A   1      38.974  26.402  29.581  1.00  0.00     0.016 A 
ATOM     35  C   UNL A   1      40.403  27.890  28.299  1.00  0.00     0.016 A 
ATOM     36  C   UNL A   1      39.039  27.290  30.658  1.00  0.00     0.010 A 
ATOM     37  C   UNL A   1      40.465  28.776  29.375  1.00  0.00     0.010 A 
ATOM     38  C   UNL A   1      39.799  28.472  30.570  1.00  0.00    -0.014 A 
BRANCH  38  39
ATOM     39  C   UNL A   1      40.004  29.317  31.774  1.00  0.00     0.031 A 
ATOM     40  C   UNL A   1      39.064  30.433  32.119  1.00  0.00     0.074 A 
ATOM     41  C   UNL A   1      41.076  29.068  32.553  1.00  0.00     0.049 A 
ATOM     42  N   UNL A   1      39.080  31.215  33.167  1.00  0.00    -0.248 NA
ATOM     43  C   UNL A   1      37.969  30.713  31.176  1.00  0.00     0.031 C 
ATOM     44  C   UNL A   1      42.078  28.032  32.288  1.00  0.00     0.029 A 
ATOM     45  N   UNL A   1      41.500  29.650  33.722  1.00  0.00    -0.354 N 
ATOM     46  C   UNL A   1      37.988  32.064  33.027  1.00  0.00     0.074 A 
ATOM     47  C   UNL A   1      37.359  31.735  31.766  1.00  0.00     0.031 C 
ATOM     48  C   UNL A   1      42.983  28.035  33.278  1.00  0.00     0.029 A 
ATOM     49  C   UNL A   1      42.652  29.094  34.228  1.00  0.00     0.049 A 
ATOM     50  H   UNL A   1      41.025  30.395  34.156  1.00  0.00     0.167 HD
ATOM     51  C   UNL A   1      37.545  33.007  33.888  1.00  0.00     0.031 A 
ATOM     52  C   UNL A   1      43.368  29.396  35.332  1.00  0.00     0.031 A 
ATOM     53  C   UNL A   1      38.187  33.327  35.141  1.00  0.00     0.049 A 
ATOM     54  C   UNL A   1      42.866  30.472  36.256  1.00  0.00     0.074 A 
ATOM     55  C   UNL A   1      37.782  34.244  36.095  1.00  0.00     0.029 A 
ATOM     56  N   UNL A   1      39.358  32.752  35.614  1.00  0.00    -0.354 N 
ATOM     57  N   UNL A   1      41.783  31.203  36.150  1.00  0.00    -0.248 NA
ATOM     58  C   UNL A   1      43.666  30.754  37.457  1.00  0.00     0.031 C 
ATOM     59  C   UNL A   1      38.745  34.283  37.103  1.00  0.00     0.029 A 
ATOM     60  C   UNL A   1      39.704  33.322  36.828  1.00  0.00     0.049 A 
ATOM     61  H   UNL A   1      39.866  32.045  35.155  1.00  0.00     0.167 HD
ATOM     62  C   UNL A   1      41.759  32.015  37.278  1.00  0.00     0.074 A 
ATOM     63  C   UNL A   1      42.922  31.668  38.068  1.00  0.00     0.031 C 
ATOM     64  C   UNL A   1      40.858  32.968  37.619  1.00  0.00     0.031 A 
BRANCH  51  65
ATOM     65  C   UNL A   1      36.278  33.757  33.564  1.00  0.00    -0.014 A 
ATOM     66  C   UNL A   1      35.037  33.094  33.610  1.00  0.00     0.010 A 
ATOM     67  C   UNL A   1      36.343  35.049  33.010  1.00  0.00     0.010 A 
ATOM     68  C   UNL A   1      33.899  33.678  33.045  1.00  0.00     0.020 A 
ATOM     69  C   UNL A   1      35.202  35.648  32.470  1.00  0.00     0.020 A 
ATOM     70  C   UNL A   1      33.995  34.943  32.458  1.00  0.00     0.054 A 
BRANCH  70  71
ATOM     71  S   UNL A   1      32.537  35.634  31.629  1.00  0.00     0.124 S 
ATOM     72  O   UNL A   1      32.841  37.061  31.609  1.00  0.00    -0.237 OA
ATOM     73  O   UNL A   1      32.565  34.963  30.331  1.00  0.00    -0.237 OA
ATOM     74  O   UNL A   1      31.430  35.243  32.499  1.00  0.00    -0.744 OA
ENDBRANCH  70  71
ENDBRANCH  51  65
BRANCH  52  75
ATOM     75  C   UNL A   1      44.620  28.639  35.617  1.00  0.00    -0.014 A 
ATOM     76  C   UNL A   1      45.841  29.054  35.048  1.00  0.00     0.010 A 
ATOM     77  C   UNL A   1      44.598  27.469  36.396  1.00  0.00     0.010 A 
ATOM     78  C   UNL A   1      46.998  28.287  35.204  1.00  0.00     0.020 A 
ATOM     79  C   UNL A   1      45.764  26.720  36.589  1.00  0.00     0.020 A 
ATOM     80  C   UNL A   1      46.949  27.118  35.967  1.00  0.00     0.054 A 
BRANCH  80  81
ATOM     81  S   UNL A   1      48.457  26.121  36.124  1.00  0.00     0.124 S 
ATOM     82  O   UNL A   1      48.568  25.537  34.790  1.00  0.00    -0.237 OA
ATOM     83  O   UNL A   1      49.465  27.123  36.459  1.00  0.00    -0.237 OA
ATOM     84  O   UNL A   1      48.135  25.181  37.194  1.00  0.00    -0.744 OA
ENDBRANCH  80  81
ENDBRANCH  52  75
BRANCH  64  85
ATOM     85  C   UNL A   1      41.064  33.728  38.907  1.00  0.00    -0.014 A 
ATOM     86  C   UNL A   1      40.564  33.203  40.116  1.00  0.00     0.010 A 
ATOM     87  C   UNL A   1      41.605  35.025  38.900  1.00  0.00     0.010 A 
ATOM     88  C   UNL A   1      40.554  33.980  41.278  1.00  0.00     0.020 A 
ATOM     89  C   UNL A   1      41.631  35.791  40.070  1.00  0.00     0.020 A 
ATOM     90  C   UNL A   1      41.076  35.274  41.244  1.00  0.00     0.054 A 
BRANCH  90  91
ATOM     91  S   UNL A   1      40.998  36.288  42.746  1.00  0.00     0.124 S 
ATOM     92  O   UNL A   1      41.393  35.336  43.781  1.00  0.00    -0.237 OA
ATOM     93  O   UNL A   1      41.962  37.349  42.466  1.00  0.00    -0.237 OA
ATOM     94  O   UNL A   1      39.603  36.722  42.797  1.00  0.00    -0.744 OA
ENDBRANCH  90  91
ENDBRANCH  64  85
ENDBRANCH  38  39
ENDBRANCH  31  33
ENDBRANCH  30  31
ENDBRANCH  29  30
ENDBRANCH  28  29
ENDBRANCH   1  28
TORSDOF 21
ENDMDL
MODEL 3
REMARK VINA RESULT:     -10.0      6.792     12.134
REMARK SMILES CC(C)CN(C)c1cc2c(cc1Cl)C=C(C(=O)OCCOCCOC(=O)c1ccc(-c3c4nc(c(-c5ccc(S(=O)(=O)[O-])cc5)c5ccc([nH]5)c(-c5ccc(S(=O)(=O)[O-])cc5)c5nc(c(-c6ccc(S(=O)(=O)[O-])cc6)c6ccc3[nH]6)C=C5)C=C4)cc1)[C@@H](C(F)(F)F)O2
REMARK SMILES IDX 21 1 20 2 19 3 18 4 16 5 17 6 15 7 7 8 8 9 12 10 9 11 11 12
REMARK SMILES IDX 13 13 10 14 92 15 14 16 87 17 5 18 6 19 4 20 2 21 1 22 3 23
REMARK SMILES IDX 88 24 89 25 90 26 91 27 22 28 23 29 24 30 25 31 26 32 27 33
REMARK SMILES IDX 28 34 86 35 29 36 85 37 30 38 31 39 32 40 79 41 33 42 84 43
REMARK SMILES IDX 78 44 80 45 34 46 83 47 77 48 76 49 35 51 65 52 46 53 64 54
REMARK SMILES IDX 47 55 50 56 63 57 81 58 48 59 49 60 62 62 82 63 51 64 36 65
REMARK SMILES IDX 37 66 45 67 38 68 44 69 39 70 40 71 41 72 42 73 43 74 66 75
REMARK SMILES IDX 67 76 75 77 68 78 74 79 69 80 70 81 71 82 72 83 73 84 52 85
REMARK SMILES IDX 53 86 61 87 54 88 60 89 55 90 56 91 57 92 58 93 59 94
REMARK H PARENT 80 50 50 61
REMARK Flexibility Score: inf
ROOT
ATOM      1  O   UNL A   1      36.905  22.564  24.506  1.00  0.00    -0.374 OA
ENDROOT
BRANCH   1   2
ATOM      2  C   UNL A   1      37.078  21.293  25.126  1.00  0.00     0.202 C 
BRANCH   2   3
ATOM      3  C   UNL A   1      35.903  20.310  25.119  1.00  0.00     0.261 C 
BRANCH   3   4
ATOM      4  O   UNL A   1      34.820  20.739  24.279  1.00  0.00    -0.460 OA
BRANCH   4   5
ATOM      5  C   UNL A   1      33.618  20.710  24.897  1.00  0.00     0.338 C 
ATOM      6  O   UNL A   1      33.026  19.715  25.290  1.00  0.00    -0.246 OA
BRANCH   5   7
ATOM      7  C   UNL A   1      33.133  22.073  25.170  1.00  0.00     0.087 C 
ATOM      8  C   UNL A   1      32.652  27.067  24.892  1.00  0.00     0.059 A 
ATOM      9  C   UNL A   1      32.186  26.090  25.801  1.00  0.00     0.074 A 
ATOM     10  C   UNL A   1      33.416  26.620  23.792  1.00  0.00     0.065 A 
ATOM     11  C   UNL A   1      32.434  24.728  25.589  1.00  0.00     0.130 A 
ATOM     12  C   UNL A   1      33.557  25.262  23.520  1.00  0.00     0.034 A 
ATOM     13  Cl  UNL A   1      34.270  27.703  22.747  1.00  0.00    -0.082 Cl
ATOM     14  C   UNL A   1      33.059  24.322  24.414  1.00  0.00     0.019 A 
ATOM     15  O   UNL A   1      32.029  23.834  26.549  1.00  0.00    -0.475 OA
ATOM     16  C   UNL A   1      33.267  22.919  24.143  1.00  0.00     0.027 C 
ATOM     17  C   UNL A   1      32.648  22.502  26.528  1.00  0.00     0.316 C 
BRANCH   8  18
ATOM     18  N   UNL A   1      32.356  28.424  25.069  1.00  0.00    -0.373 N 
ATOM     19  C   UNL A   1      33.227  29.149  25.986  1.00  0.00     0.143 C 
BRANCH  18  20
ATOM     20  C   UNL A   1      30.940  28.838  24.982  1.00  0.00     0.119 C 
BRANCH  20  21
ATOM     21  C   UNL A   1      30.493  29.151  23.535  1.00  0.00     0.002 C 
ATOM     22  C   UNL A   1      29.842  27.944  22.847  1.00  0.00     0.009 C 
ATOM     23  C   UNL A   1      29.504  30.320  23.486  1.00  0.00     0.009 C 
ENDBRANCH  20  21
ENDBRANCH  18  20
ENDBRANCH   8  18
BRANCH  17  24
ATOM     24  C   UNL A   1      33.772  22.407  27.572  1.00  0.00     0.430 C 
ATOM     25  F   UNL A   1      34.132  21.123  27.797  1.00  0.00    -0.167 F 
ATOM     26  F   UNL A   1      34.881  23.063  27.157  1.00  0.00    -0.167 F 
ATOM     27  F   UNL A   1      33.406  22.942  28.759  1.00  0.00    -0.167 F 
ENDBRANCH  17  24
ENDBRANCH   5   7
ENDBRANCH   4   5
ENDBRANCH   3   4
ENDBRANCH   2   3
ENDBRANCH   1   2
BRANCH   1  28
ATOM     28  C   UNL A   1      37.223  23.742  25.244  1.00  0.00     0.202 C 
BRANCH  28  29
ATOM     29  C   UNL A   1      38.538  23.798  26.034  1.00  0.00     0.261 C 
BRANCH  29  30
ATOM     30  O   UNL A   1      38.593  24.882  26.976  1.00  0.00    -0.460 OA
BRANCH  30  31
ATOM     31  C   UNL A   1      39.835  25.384  27.195  1.00  0.00     0.338 C 
ATOM     32  O   UNL A   1      40.824  25.236  26.490  1.00  0.00    -0.246 OA
BRANCH  31  33
ATOM     33  C   UNL A   1      39.787  26.329  28.323  1.00  0.00     0.060 A 
ATOM     34  C   UNL A   1      38.950  26.102  29.416  1.00  0.00     0.016 A 
ATOM     35  C   UNL A   1      40.639  27.442  28.296  1.00  0.00     0.016 A 
ATOM     36  C   UNL A   1      38.986  26.986  30.497  1.00  0.00     0.010 A 
ATOM     37  C   UNL A   1      40.671  28.324  29.376  1.00  0.00     0.010 A 
ATOM     38  C   UNL A   1      39.858  28.091  30.494  1.00  0.00    -0.014 A 
BRANCH  38  39
ATOM     39  C   UNL A   1      40.016  28.919  31.716  1.00  0.00     0.031 A 
ATOM     40  C   UNL A   1      41.104  28.648  32.712  1.00  0.00     0.074 A 
ATOM     41  C   UNL A   1      39.142  29.924  31.924  1.00  0.00     0.049 A 
ATOM     42  N   UNL A   1      41.403  29.320  33.793  1.00  0.00    -0.248 NA
ATOM     43  C   UNL A   1      41.964  27.477  32.475  1.00  0.00     0.031 C 
ATOM     44  C   UNL A   1      38.021  30.252  31.039  1.00  0.00     0.029 A 
ATOM     45  N   UNL A   1      39.058  30.858  32.927  1.00  0.00    -0.354 N 
ATOM     46  C   UNL A   1      42.499  28.675  34.353  1.00  0.00     0.074 A 
ATOM     47  C   UNL A   1      42.782  27.525  33.520  1.00  0.00     0.031 C 
ATOM     48  C   UNL A   1      37.379  31.326  31.524  1.00  0.00     0.029 A 
ATOM     49  C   UNL A   1      38.015  31.742  32.771  1.00  0.00     0.049 A 
ATOM     50  H   UNL A   1      39.684  30.891  33.686  1.00  0.00     0.167 HD
ATOM     51  C   UNL A   1      43.213  29.032  35.445  1.00  0.00     0.031 A 
ATOM     52  C   UNL A   1      37.610  32.774  33.541  1.00  0.00     0.031 A 
ATOM     53  C   UNL A   1      42.915  30.178  36.269  1.00  0.00     0.049 A 
ATOM     54  C   UNL A   1      38.406  33.128  34.767  1.00  0.00     0.074 A 
ATOM     55  C   UNL A   1      43.611  30.636  37.374  1.00  0.00     0.029 A 
ATOM     56  N   UNL A   1      41.845  31.043  36.088  1.00  0.00    -0.354 N 
ATOM     57  N   UNL A   1      39.492  32.559  35.231  1.00  0.00    -0.248 NA
ATOM     58  C   UNL A   1      37.941  34.273  35.564  1.00  0.00     0.031 C 
ATOM     59  C   UNL A   1      42.921  31.724  37.908  1.00  0.00     0.029 A 
ATOM     60  C   UNL A   1      41.846  32.007  37.082  1.00  0.00     0.049 A 
ATOM     61  H   UNL A   1      41.183  30.979  35.362  1.00  0.00     0.167 HD
ATOM     62  C   UNL A   1      39.851  33.286  36.360  1.00  0.00     0.074 A 
ATOM     63  C   UNL A   1      38.883  34.354  36.495  1.00  0.00     0.031 C 
ATOM     64  C   UNL A   1      40.886  33.077  37.210  1.00  0.00     0.031 A 
BRANCH  51  65
ATOM     65  C   UNL A   1      44.427  28.221  35.823  1.00  0.00    -0.014 A 
ATOM     66  C   UNL A   1      45.663  28.474  35.200  1.00  0.00     0.010 A 
ATOM     67  C   UNL A   1      44.289  27.077  36.631  1.00  0.00     0.010 A 
ATOM     68  C   UNL A   1      46.717  27.563  35.319  1.00  0.00     0.020 A 
ATOM     69  C   UNL A   1      45.350  26.179  36.777  1.00  0.00     0.020 A 
ATOM     70  C   UNL A   1      46.545  26.410  36.090  1.00  0.00     0.054 A 
BRANCH  70  71
ATOM     71  S   UNL A   1      47.882  25.185  36.139  1.00  0.00     0.124 S 
ATOM     72  O   UNL A   1      48.673  25.544  34.965  1.00  0.00    -0.237 OA
ATOM     73  O   UNL A   1      48.511  25.455  37.430  1.00  0.00    -0.237 OA
ATOM     74  O   UNL A   1      47.180  23.906  36.052  1.00  0.00    -0.744 OA
ENDBRANCH  70  71
ENDBRANCH  51  65
BRANCH  52  75
ATOM     75  C   UNL A   1      36.400  33.548  33.141  1.00  0.00    -0.014 A 
ATOM     76  C   UNL A   1      35.155  33.273  33.740  1.00  0.00     0.010 A 
ATOM     77  C   UNL A   1      36.463  34.512  32.119  1.00  0.00     0.010 A 
ATOM     78  C   UNL A   1      33.992  33.902  33.291  1.00  0.00     0.020 A 
ATOM     79  C   UNL A   1      35.305  35.175  31.693  1.00  0.00     0.020 A 
ATOM     80  C   UNL A   1      34.074  34.843  32.262  1.00  0.00     0.054 A 
BRANCH  80  81
ATOM     81  S   UNL A   1      32.544  35.619  31.672  1.00  0.00     0.124 S 
ATOM     82  O   UNL A   1      31.550  35.041  32.574  1.00  0.00    -0.237 OA
ATOM     83  O   UNL A   1      32.815  37.041  31.862  1.00  0.00    -0.237 OA
ATOM     84  O   UNL A   1      32.454  35.183  30.281  1.00  0.00    -0.744 OA
ENDBRANCH  80  81
ENDBRANCH  52  75
BRANCH  64  85
ATOM     85  C   UNL A   1      41.056  34.013  38.382  1.00  0.00    -0.014 A 
ATOM     86  C   UNL A   1      41.588  35.301  38.176  1.00  0.00     0.010 A 
ATOM     87  C   UNL A   1      40.843  33.567  39.698  1.00  0.00     0.010 A 
ATOM     88  C   UNL A   1      41.952  36.103  39.262  1.00  0.00     0.020 A 
ATOM     89  C   UNL A   1      41.171  34.381  40.787  1.00  0.00     0.020 A 
ATOM     90  C   UNL A   1      41.753  35.631  40.561  1.00  0.00     0.054 A 
BRANCH  90  91
ATOM     91  S   UNL A   1      42.287  36.660  41.956  1.00  0.00     0.124 S 
ATOM     92  O   UNL A   1      43.280  37.532  41.334  1.00  0.00    -0.237 OA
ATOM     93  O   UNL A   1      41.045  37.312  42.366  1.00  0.00    -0.237 OA
ATOM     94  O   UNL A   1      42.820  35.693  42.914  1.00  0.00    -0.744 OA
ENDBRANCH  90  91
ENDBRANCH  64  85
ENDBRANCH  38  39
ENDBRANCH  31  33
ENDBRANCH  30  31
ENDBRANCH  29  30
ENDBRANCH  28  29
ENDBRANCH   1  28
TORSDOF 21
ENDMDL
