MODEL 1
REMARK VINA RESULT:     -10.3      0.000      0.000
REMARK SMILES CC(C)CCc1cc2c(cc1Cl)C=C(C(=O)OCCOCCOC(=O)c1ccc(-c3c4nc(c(-c5ccc(S(=O)(=O)[O-])cc5)c5ccc([nH]5)c(-c5ccc(S(=O)(=O)[O-])cc5)c5nc(c(-c6ccc(S(=O)(=O)[O-])cc6)c6ccc3[nH]6)C=C5)C=C4)cc1)[C@H](C(F)(F)F)O2
REMARK SMILES IDX 20 1 19 2 18 3 17 4 15 5 16 6 14 7 6 8 7 9 11 10 8 11 10 12
REMARK SMILES IDX 12 13 9 14 91 15 13 16 86 17 5 18 4 19 2 20 1 21 3 22 87 23
REMARK SMILES IDX 88 24 89 25 90 26 21 27 22 28 23 29 24 30 25 31 26 32 27 33
REMARK SMILES IDX 85 34 28 35 84 36 29 37 30 38 31 39 78 40 32 41 83 42 77 43
REMARK SMILES IDX 79 44 33 45 82 46 76 47 75 48 34 50 64 51 45 52 63 53 46 54
REMARK SMILES IDX 49 55 62 56 80 57 47 58 48 59 61 61 81 62 50 63 35 64 36 65
REMARK SMILES IDX 44 66 37 67 43 68 38 69 39 70 40 71 41 72 42 73 65 74 66 75
REMARK SMILES IDX 74 76 67 77 73 78 68 79 69 80 70 81 71 82 72 83 51 84 52 85
REMARK SMILES IDX 60 86 53 87 59 88 54 89 55 90 56 91 57 92 58 93
REMARK H PARENT 79 49 49 60
REMARK Flexibility Score: inf
ROOT
ATOM      1  O   UNL A   1      41.624  20.981  25.701  1.00  0.00    -0.374 OA
ENDROOT
BRANCH   1   2
ATOM      2  C   UNL A   1      40.368  21.056  26.378  1.00  0.00     0.202 C 
BRANCH   2   3
ATOM      3  C   UNL A   1      39.358  22.064  25.825  1.00  0.00     0.261 C 
BRANCH   3   4
ATOM      4  O   UNL A   1      38.025  21.692  26.215  1.00  0.00    -0.460 OA
BRANCH   4   5
ATOM      5  C   UNL A   1      37.255  21.251  25.204  1.00  0.00     0.338 C 
ATOM      6  O   UNL A   1      37.548  20.373  24.406  1.00  0.00    -0.246 OA
BRANCH   5   7
ATOM      7  C   UNL A   1      35.916  21.866  25.260  1.00  0.00     0.087 C 
ATOM      8  C   UNL A   1      32.681  25.687  25.741  1.00  0.00    -0.026 A 
ATOM      9  C   UNL A   1      32.687  24.329  26.154  1.00  0.00     0.052 A 
ATOM     10  C   UNL A   1      33.749  26.122  24.937  1.00  0.00     0.045 A 
ATOM     11  C   UNL A   1      33.713  23.452  25.792  1.00  0.00     0.128 A 
ATOM     12  C   UNL A   1      34.720  25.219  24.499  1.00  0.00     0.032 A 
ATOM     13  Cl  UNL A   1      34.076  27.764  24.520  1.00  0.00    -0.084 Cl
ATOM     14  C   UNL A   1      34.720  23.902  24.950  1.00  0.00     0.019 A 
ATOM     15  O   UNL A   1      33.721  22.218  26.381  1.00  0.00    -0.475 OA
ATOM     16  C   UNL A   1      35.882  23.083  24.706  1.00  0.00     0.027 C 
ATOM     17  C   UNL A   1      34.738  21.245  25.967  1.00  0.00     0.316 C 
BRANCH   8  18
ATOM     18  C   UNL A   1      31.570  26.539  26.327  1.00  0.00     0.037 C 
BRANCH  18  19
ATOM     19  C   UNL A   1      30.560  27.273  25.436  1.00  0.00     0.008 C 
BRANCH  19  20
ATOM     20  C   UNL A   1      30.100  26.504  24.183  1.00  0.00    -0.017 C 
ATOM     21  C   UNL A   1      28.578  26.415  24.098  1.00  0.00     0.007 C 
ATOM     22  C   UNL A   1      30.660  27.175  22.926  1.00  0.00     0.007 C 
ENDBRANCH  19  20
ENDBRANCH  18  19
ENDBRANCH   8  18
BRANCH  17  23
ATOM     23  C   UNL A   1      34.023  20.137  25.165  1.00  0.00     0.430 C 
ATOM     24  F   UNL A   1      34.890  19.154  24.817  1.00  0.00    -0.167 F 
ATOM     25  F   UNL A   1      33.030  19.556  25.883  1.00  0.00    -0.167 F 
ATOM     26  F   UNL A   1      33.478  20.586  24.015  1.00  0.00    -0.167 F 
ENDBRANCH  17  23
ENDBRANCH   5   7
ENDBRANCH   4   5
ENDBRANCH   3   4
ENDBRANCH   2   3
ENDBRANCH   1   2
BRANCH   1  27
ATOM     27  C   UNL A   1      42.678  21.819  26.180  1.00  0.00     0.202 C 
BRANCH  27  28
ATOM     28  C   UNL A   1      42.813  23.213  25.552  1.00  0.00     0.261 C 
BRANCH  28  29
ATOM     29  O   UNL A   1      42.034  24.191  26.264  1.00  0.00    -0.460 OA
BRANCH  29  30
ATOM     30  C   UNL A   1      42.323  25.483  25.975  1.00  0.00     0.338 C 
ATOM     31  O   UNL A   1      42.441  25.975  24.865  1.00  0.00    -0.246 OA
BRANCH  30  32
ATOM     32  C   UNL A   1      42.236  26.290  27.212  1.00  0.00     0.060 A 
ATOM     33  C   UNL A   1      43.029  27.419  27.421  1.00  0.00     0.016 A 
ATOM     34  C   UNL A   1      41.314  25.882  28.187  1.00  0.00     0.016 A 
ATOM     35  C   UNL A   1      42.857  28.169  28.589  1.00  0.00     0.010 A 
ATOM     36  C   UNL A   1      41.145  26.631  29.352  1.00  0.00     0.010 A 
ATOM     37  C   UNL A   1      41.893  27.799  29.548  1.00  0.00    -0.014 A 
BRANCH  37  38
ATOM     38  C   UNL A   1      41.536  28.728  30.650  1.00  0.00     0.031 A 
ATOM     39  C   UNL A   1      40.397  29.698  30.543  1.00  0.00     0.074 A 
ATOM     40  C   UNL A   1      42.303  28.711  31.758  1.00  0.00     0.049 A 
ATOM     41  N   UNL A   1      39.931  30.511  31.458  1.00  0.00    -0.248 NA
ATOM     42  C   UNL A   1      39.695  29.776  29.254  1.00  0.00     0.031 C 
ATOM     43  C   UNL A   1      43.470  27.847  31.949  1.00  0.00     0.029 A 
ATOM     44  N   UNL A   1      42.218  29.419  32.930  1.00  0.00    -0.354 N 
ATOM     45  C   UNL A   1      38.869  31.183  30.867  1.00  0.00     0.074 A 
ATOM     46  C   UNL A   1      38.791  30.721  29.498  1.00  0.00     0.031 C 
ATOM     47  C   UNL A   1      43.963  28.043  33.180  1.00  0.00     0.029 A 
ATOM     48  C   UNL A   1      43.176  29.072  33.853  1.00  0.00     0.049 A 
ATOM     49  H   UNL A   1      41.536  30.111  33.094  1.00  0.00     0.167 HD
ATOM     50  C   UNL A   1      38.027  32.084  31.430  1.00  0.00     0.031 A 
ATOM     51  C   UNL A   1      43.398  29.517  35.106  1.00  0.00     0.031 A 
ATOM     52  C   UNL A   1      38.129  32.547  32.794  1.00  0.00     0.049 A 
ATOM     53  C   UNL A   1      42.466  30.538  35.695  1.00  0.00     0.074 A 
ATOM     54  C   UNL A   1      37.284  33.413  33.467  1.00  0.00     0.029 A 
ATOM     55  N   UNL A   1      39.132  32.201  33.688  1.00  0.00    -0.354 N 
ATOM     56  N   UNL A   1      41.401  31.083  35.158  1.00  0.00    -0.248 NA
ATOM     57  C   UNL A   1      42.753  30.992  37.062  1.00  0.00     0.031 C 
ATOM     58  C   UNL A   1      37.820  33.657  34.732  1.00  0.00     0.029 A 
ATOM     59  C   UNL A   1      38.952  32.874  34.887  1.00  0.00     0.049 A 
ATOM     60  H   UNL A   1      39.864  31.571  33.499  1.00  0.00     0.167 HD
ATOM     61  C   UNL A   1      40.885  31.939  36.125  1.00  0.00     0.074 A 
ATOM     62  C   UNL A   1      41.734  31.811  37.292  1.00  0.00     0.031 C 
ATOM     63  C   UNL A   1      39.810  32.761  36.044  1.00  0.00     0.031 A 
BRANCH  50  64
ATOM     64  C   UNL A   1      36.887  32.624  30.601  1.00  0.00    -0.014 A 
ATOM     65  C   UNL A   1      37.088  33.739  29.765  1.00  0.00     0.010 A 
ATOM     66  C   UNL A   1      35.580  32.131  30.774  1.00  0.00     0.010 A 
ATOM     67  C   UNL A   1      36.002  34.380  29.158  1.00  0.00     0.020 A 
ATOM     68  C   UNL A   1      34.496  32.750  30.144  1.00  0.00     0.020 A 
ATOM     69  C   UNL A   1      34.711  33.887  29.363  1.00  0.00     0.054 A 
BRANCH  69  70
ATOM     70  S   UNL A   1      33.310  34.767  28.616  1.00  0.00     0.124 S 
ATOM     71  O   UNL A   1      32.696  33.729  27.794  1.00  0.00    -0.237 OA
ATOM     72  O   UNL A   1      32.541  35.187  29.785  1.00  0.00    -0.237 OA
ATOM     73  O   UNL A   1      33.945  35.856  27.876  1.00  0.00    -0.744 OA
ENDBRANCH  69  70
ENDBRANCH  50  64
BRANCH  51  74
ATOM     74  C   UNL A   1      44.524  28.937  35.890  1.00  0.00    -0.014 A 
ATOM     75  C   UNL A   1      44.326  27.793  36.686  1.00  0.00     0.010 A 
ATOM     76  C   UNL A   1      45.773  29.582  35.923  1.00  0.00     0.010 A 
ATOM     77  C   UNL A   1      45.328  27.347  37.551  1.00  0.00     0.020 A 
ATOM     78  C   UNL A   1      46.792  29.116  36.760  1.00  0.00     0.020 A 
ATOM     79  C   UNL A   1      46.551  28.022  37.593  1.00  0.00     0.054 A 
BRANCH  79  80
ATOM     80  S   UNL A   1      47.808  27.468  38.776  1.00  0.00     0.124 S 
ATOM     81  O   UNL A   1      46.999  26.751  39.758  1.00  0.00    -0.237 OA
ATOM     82  O   UNL A   1      48.678  26.636  37.949  1.00  0.00    -0.237 OA
ATOM     83  O   UNL A   1      48.406  28.713  39.250  1.00  0.00    -0.744 OA
ENDBRANCH  79  80
ENDBRANCH  51  74
BRANCH  63  84
ATOM     84  C   UNL A   1      39.487  33.628  37.239  1.00  0.00    -0.014 A 
ATOM     85  C   UNL A   1      40.091  34.891  37.380  1.00  0.00     0.010 A 
ATOM     86  C   UNL A   1      38.673  33.143  38.279  1.00  0.00     0.010 A 
ATOM     87  C   UNL A   1      39.921  35.635  38.552  1.00  0.00     0.020 A 
ATOM     88  C   UNL A   1      38.468  33.901  39.437  1.00  0.00     0.020 A 
ATOM     89  C   UNL A   1      39.115  35.130  39.577  1.00  0.00     0.054 A 
BRANCH  89  90
ATOM     90  S   UNL A   1      38.928  36.097  41.099  1.00  0.00     0.124 S 
ATOM     91  O   UNL A   1      40.207  35.872  41.766  1.00  0.00    -0.237 OA
ATOM     92  O   UNL A   1      38.711  37.452  40.595  1.00  0.00    -0.237 OA
ATOM     93  O   UNL A   1      37.769  35.491  41.752  1.00  0.00    -0.744 OA
ENDBRANCH  89  90
ENDBRANCH  63  84
ENDBRANCH  37  38
ENDBRANCH  30  32
ENDBRANCH  29  30
ENDBRANCH  28  29
ENDBRANCH  27  28
ENDBRANCH   1  27
TORSDOF 21
ENDMDL
MODEL 2
REMARK VINA RESULT:     -10.3      6.398     12.027
REMARK SMILES CC(C)CCc1cc2c(cc1Cl)C=C(C(=O)OCCOCCOC(=O)c1ccc(-c3c4nc(c(-c5ccc(S(=O)(=O)[O-])cc5)c5ccc([nH]5)c(-c5ccc(S(=O)(=O)[O-])cc5)c5nc(c(-c6ccc(S(=O)(=O)[O-])cc6)c6ccc3[nH]6)C=C5)C=C4)cc1)[C@H](C(F)(F)F)O2
REMARK SMILES IDX 20 1 19 2 18 3 17 4 15 5 16 6 14 7 6 8 7 9 11 10 8 11 10 12
REMARK SMILES IDX 12 13 9 14 91 15 13 16 86 17 5 18 4 19 2 20 1 21 3 22 87 23
REMARK SMILES IDX 88 24 89 25 90 26 21 27 22 28 23 29 24 30 25 31 26 32 27 33
REMARK SMILES IDX 85 34 28 35 84 36 29 37 30 38 31 39 78 40 32 41 83 42 77 43
REMARK SMILES IDX 79 44 33 45 82 46 76 47 75 48 34 50 64 51 45 52 63 53 46 54
REMARK SMILES IDX 49 55 62 56 80 57 47 58 48 59 61 61 81 62 50 63 35 64 36 65
REMARK SMILES IDX 44 66 37 67 43 68 38 69 39 70 40 71 41 72 42 73 65 74 66 75
REMARK SMILES IDX 74 76 67 77 73 78 68 79 69 80 70 81 71 82 72 83 51 84 52 85
REMARK SMILES IDX 60 86 53 87 59 88 54 89 55 90 56 91 57 92 58 93
REMARK H PARENT 79 49 49 60
REMARK Flexibility Score: inf
ROOT
ATOM      1  O   UNL A   1      33.332  29.522  27.328  1.00  0.00    -0.374 OA
ENDROOT
BRANCH   1   2
ATOM      2  C   UNL A   1      32.317  29.835  26.373  1.00  0.00     0.202 C 
BRANCH   2   3
ATOM      3  C   UNL A   1      32.630  29.498  24.913  1.00  0.00     0.261 C 
BRANCH   3   4
ATOM      4  O   UNL A   1      33.363  28.265  24.837  1.00  0.00    -0.460 OA
BRANCH   4   5
ATOM      5  C   UNL A   1      32.943  27.430  23.870  1.00  0.00     0.338 C 
ATOM      6  O   UNL A   1      32.778  27.716  22.694  1.00  0.00    -0.246 OA
BRANCH   5   7
ATOM      7  C   UNL A   1      32.843  26.049  24.378  1.00  0.00     0.087 C 
ATOM      8  C   UNL A   1      34.253  21.238  24.789  1.00  0.00    -0.026 A 
ATOM      9  C   UNL A   1      33.003  21.911  24.753  1.00  0.00     0.052 A 
ATOM     10  C   UNL A   1      35.412  22.033  24.800  1.00  0.00     0.045 A 
ATOM     11  C   UNL A   1      32.915  23.305  24.720  1.00  0.00     0.128 A 
ATOM     12  C   UNL A   1      35.318  23.425  24.864  1.00  0.00     0.032 A 
ATOM     13  Cl  UNL A   1      37.023  21.446  24.602  1.00  0.00    -0.084 Cl
ATOM     14  C   UNL A   1      34.080  24.057  24.790  1.00  0.00     0.019 A 
ATOM     15  O   UNL A   1      31.680  23.852  24.510  1.00  0.00    -0.475 OA
ATOM     16  C   UNL A   1      34.038  25.482  24.576  1.00  0.00     0.027 C 
ATOM     17  C   UNL A   1      31.539  25.311  24.546  1.00  0.00     0.316 C 
BRANCH   8  18
ATOM     18  C   UNL A   1      34.179  19.726  24.687  1.00  0.00     0.037 C 
BRANCH  18  19
ATOM     19  C   UNL A   1      33.139  18.914  25.470  1.00  0.00     0.008 C 
BRANCH  19  20
ATOM     20  C   UNL A   1      32.377  17.852  24.653  1.00  0.00    -0.017 C 
ATOM     21  C   UNL A   1      32.785  17.866  23.182  1.00  0.00     0.007 C 
ATOM     22  C   UNL A   1      32.618  16.464  25.254  1.00  0.00     0.007 C 
ENDBRANCH  19  20
ENDBRANCH  18  19
ENDBRANCH   8  18
BRANCH  17  23
ATOM     23  C   UNL A   1      30.760  25.672  25.830  1.00  0.00     0.430 C 
ATOM     24  F   UNL A   1      29.587  26.282  25.529  1.00  0.00    -0.167 F 
ATOM     25  F   UNL A   1      30.461  24.572  26.564  1.00  0.00    -0.167 F 
ATOM     26  F   UNL A   1      31.434  26.522  26.633  1.00  0.00    -0.167 F 
ENDBRANCH  17  23
ENDBRANCH   5   7
ENDBRANCH   4   5
ENDBRANCH   3   4
ENDBRANCH   2   3
ENDBRANCH   1   2
BRANCH   1  27
ATOM     27  C   UNL A   1      34.543  30.280  27.268  1.00  0.00     0.202 C 
BRANCH  27  28
ATOM     28  C   UNL A   1      34.763  31.350  28.346  1.00  0.00     0.261 C 
BRANCH  28  29
ATOM     29  O   UNL A   1      36.151  31.714  28.453  1.00  0.00    -0.460 OA
BRANCH  29  30
ATOM     30  C   UNL A   1      36.767  31.316  29.593  1.00  0.00     0.338 C 
ATOM     31  O   UNL A   1      36.314  31.368  30.724  1.00  0.00    -0.246 OA
BRANCH  30  32
ATOM     32  C   UNL A   1      37.995  30.567  29.247  1.00  0.00     0.060 A 
ATOM     33  C   UNL A   1      38.203  30.023  27.980  1.00  0.00     0.016 A 
ATOM     34  C   UNL A   1      38.966  30.419  30.249  1.00  0.00     0.016 A 
ATOM     35  C   UNL A   1      39.411  29.374  27.703  1.00  0.00     0.010 A 
ATOM     36  C   UNL A   1      40.169  29.771  29.972  1.00  0.00     0.010 A 
ATOM     37  C   UNL A   1      40.415  29.271  28.686  1.00  0.00    -0.014 A 
BRANCH  37  38
ATOM     38  C   UNL A   1      41.780  28.817  28.319  1.00  0.00     0.031 A 
ATOM     39  C   UNL A   1      42.084  27.391  27.971  1.00  0.00     0.074 A 
ATOM     40  C   UNL A   1      42.773  29.730  28.347  1.00  0.00     0.049 A 
ATOM     41  N   UNL A   1      43.216  26.876  27.559  1.00  0.00    -0.248 NA
ATOM     42  C   UNL A   1      40.994  26.415  28.107  1.00  0.00     0.031 C 
ATOM     43  C   UNL A   1      42.602  31.134  28.723  1.00  0.00     0.029 A 
ATOM     44  N   UNL A   1      44.107  29.625  28.045  1.00  0.00    -0.354 N 
ATOM     45  C   UNL A   1      42.973  25.523  27.365  1.00  0.00     0.074 A 
ATOM     46  C   UNL A   1      41.599  25.285  27.754  1.00  0.00     0.031 C 
ATOM     47  C   UNL A   1      43.774  31.769  28.586  1.00  0.00     0.029 A 
ATOM     48  C   UNL A   1      44.789  30.814  28.152  1.00  0.00     0.049 A 
ATOM     49  H   UNL A   1      44.536  28.779  27.779  1.00  0.00     0.167 HD
ATOM     50  C   UNL A   1      43.816  24.577  26.883  1.00  0.00     0.031 A 
ATOM     51  C   UNL A   1      46.082  31.115  27.918  1.00  0.00     0.031 A 
ATOM     52  C   UNL A   1      45.190  24.829  26.515  1.00  0.00     0.049 A 
ATOM     53  C   UNL A   1      47.003  30.041  27.413  1.00  0.00     0.074 A 
ATOM     54  C   UNL A   1      46.100  23.945  25.962  1.00  0.00     0.029 A 
ATOM     55  N   UNL A   1      45.856  26.036  26.669  1.00  0.00    -0.354 N 
ATOM     56  N   UNL A   1      46.728  28.790  27.131  1.00  0.00    -0.248 NA
ATOM     57  C   UNL A   1      48.403  30.419  27.176  1.00  0.00     0.031 C 
ATOM     58  C   UNL A   1      47.335  24.589  25.863  1.00  0.00     0.029 A 
ATOM     59  C   UNL A   1      47.177  25.904  26.268  1.00  0.00     0.049 A 
ATOM     60  H   UNL A   1      45.451  26.864  27.014  1.00  0.00     0.167 HD
ATOM     61  C   UNL A   1      47.918  28.233  26.676  1.00  0.00     0.074 A 
ATOM     62  C   UNL A   1      48.905  29.293  26.686  1.00  0.00     0.031 C 
ATOM     63  C   UNL A   1      48.167  26.956  26.296  1.00  0.00     0.031 A 
BRANCH  50  64
ATOM     64  C   UNL A   1      43.293  23.175  26.684  1.00  0.00    -0.014 A 
ATOM     65  C   UNL A   1      42.948  22.387  27.799  1.00  0.00     0.010 A 
ATOM     66  C   UNL A   1      43.301  22.583  25.408  1.00  0.00     0.010 A 
ATOM     67  C   UNL A   1      42.667  21.024  27.647  1.00  0.00     0.020 A 
ATOM     68  C   UNL A   1      42.990  21.229  25.249  1.00  0.00     0.020 A 
ATOM     69  C   UNL A   1      42.702  20.452  26.374  1.00  0.00     0.054 A 
BRANCH  69  70
ATOM     70  S   UNL A   1      42.394  18.672  26.205  1.00  0.00     0.124 S 
ATOM     71  O   UNL A   1      43.380  18.281  25.202  1.00  0.00    -0.237 OA
ATOM     72  O   UNL A   1      42.637  18.178  27.558  1.00  0.00    -0.237 OA
ATOM     73  O   UNL A   1      41.000  18.606  25.769  1.00  0.00    -0.744 OA
ENDBRANCH  69  70
ENDBRANCH  50  64
BRANCH  51  74
ATOM     74  C   UNL A   1      46.544  32.519  28.110  1.00  0.00    -0.014 A 
ATOM     75  C   UNL A   1      46.512  33.434  27.040  1.00  0.00     0.010 A 
ATOM     76  C   UNL A   1      47.109  32.920  29.333  1.00  0.00     0.010 A 
ATOM     77  C   UNL A   1      47.098  34.695  27.166  1.00  0.00     0.020 A 
ATOM     78  C   UNL A   1      47.663  34.196  29.475  1.00  0.00     0.020 A 
ATOM     79  C   UNL A   1      47.684  35.062  28.380  1.00  0.00     0.054 A 
BRANCH  79  80
ATOM     80  S   UNL A   1      48.502  36.677  28.496  1.00  0.00     0.124 S 
ATOM     81  O   UNL A   1      49.884  36.292  28.769  1.00  0.00    -0.237 OA
ATOM     82  O   UNL A   1      48.257  37.253  27.177  1.00  0.00    -0.237 OA
ATOM     83  O   UNL A   1      47.808  37.335  29.600  1.00  0.00    -0.744 OA
ENDBRANCH  79  80
ENDBRANCH  51  74
BRANCH  63  84
ATOM     84  C   UNL A   1      49.575  26.600  25.879  1.00  0.00    -0.014 A 
ATOM     85  C   UNL A   1      50.460  26.017  26.805  1.00  0.00     0.010 A 
ATOM     86  C   UNL A   1      50.056  26.948  24.604  1.00  0.00     0.010 A 
ATOM     87  C   UNL A   1      51.806  25.824  26.480  1.00  0.00     0.020 A 
ATOM     88  C   UNL A   1      51.393  26.721  24.260  1.00  0.00     0.020 A 
ATOM     89  C   UNL A   1      52.266  26.186  25.210  1.00  0.00     0.054 A 
BRANCH  89  90
ATOM     90  S   UNL A   1      54.020  25.953  24.816  1.00  0.00     0.124 S 
ATOM     91  O   UNL A   1      54.668  26.884  25.736  1.00  0.00    -0.237 OA
ATOM     92  O   UNL A   1      54.229  24.536  25.103  1.00  0.00    -0.237 OA
ATOM     93  O   UNL A   1      54.106  26.313  23.402  1.00  0.00    -0.744 OA
ENDBRANCH  89  90
ENDBRANCH  63  84
ENDBRANCH  37  38
ENDBRANCH  30  32
ENDBRANCH  29  30
ENDBRANCH  28  29
ENDBRANCH  27  28
ENDBRANCH   1  27
TORSDOF 21
ENDMDL
MODEL 3
REMARK VINA RESULT:     -10.3      1.330      2.135
REMARK SMILES CC(C)CCc1cc2c(cc1Cl)C=C(C(=O)OCCOCCOC(=O)c1ccc(-c3c4nc(c(-c5ccc(S(=O)(=O)[O-])cc5)c5ccc([nH]5)c(-c5ccc(S(=O)(=O)[O-])cc5)c5nc(c(-c6ccc(S(=O)(=O)[O-])cc6)c6ccc3[nH]6)C=C5)C=C4)cc1)[C@H](C(F)(F)F)O2
REMARK SMILES IDX 20 1 19 2 18 3 17 4 15 5 16 6 14 7 6 8 7 9 11 10 8 11 10 12
REMARK SMILES IDX 12 13 9 14 91 15 13 16 86 17 5 18 4 19 2 20 1 21 3 22 87 23
REMARK SMILES IDX 88 24 89 25 90 26 21 27 22 28 23 29 24 30 25 31 26 32 27 33
REMARK SMILES IDX 85 34 28 35 84 36 29 37 30 38 31 39 78 40 32 41 83 42 77 43
REMARK SMILES IDX 79 44 33 45 82 46 76 47 75 48 34 50 64 51 45 52 63 53 46 54
REMARK SMILES IDX 49 55 62 56 80 57 47 58 48 59 61 61 81 62 50 63 35 64 36 65
REMARK SMILES IDX 44 66 37 67 43 68 38 69 39 70 40 71 41 72 42 73 65 74 66 75
REMARK SMILES IDX 74 76 67 77 73 78 68 79 69 80 70 81 71 82 72 83 51 84 52 85
REMARK SMILES IDX 60 86 53 87 59 88 54 89 55 90 56 91 57 92 58 93
REMARK H PARENT 79 49 49 60
REMARK Flexibility Score: inf
ROOT
ATOM      1  O   UNL A   1      39.232  21.619  26.113  1.00  0.00    -0.374 OA
ENDROOT
BRANCH   1   2
ATOM      2  C   UNL A   1      38.257  22.664  26.111  1.00  0.00     0.202 C 
BRANCH   2   3
ATOM      3  C   UNL A   1      36.814  22.245  25.823  1.00  0.00     0.261 C 
BRANCH   3   4
ATOM      4  O   UNL A   1      35.901  23.206  26.376  1.00  0.00    -0.460 OA
BRANCH   4   5
ATOM      5  C   UNL A   1      34.650  22.744  26.553  1.00  0.00     0.338 C 
ATOM      6  O   UNL A   1      34.285  21.974  27.429  1.00  0.00    -0.246 OA
BRANCH   5   7
ATOM      7  C   UNL A   1      33.711  23.406  25.630  1.00  0.00     0.087 C 
ATOM      8  C   UNL A   1      30.938  27.249  23.942  1.00  0.00    -0.026 A 
ATOM      9  C   UNL A   1      30.759  25.842  24.005  1.00  0.00     0.052 A 
ATOM     10  C   UNL A   1      32.183  27.758  24.349  1.00  0.00     0.045 A 
ATOM     11  C   UNL A   1      31.766  24.988  24.460  1.00  0.00     0.128 A 
ATOM     12  C   UNL A   1      33.219  26.894  24.711  1.00  0.00     0.032 A 
ATOM     13  Cl  UNL A   1      32.547  29.429  24.585  1.00  0.00    -0.084 Cl
ATOM     14  C   UNL A   1      33.002  25.522  24.798  1.00  0.00     0.019 A 
ATOM     15  O   UNL A   1      31.438  23.674  24.649  1.00  0.00    -0.475 OA
ATOM     16  C   UNL A   1      33.997  24.699  25.440  1.00  0.00     0.027 C 
ATOM     17  C   UNL A   1      32.491  22.735  25.051  1.00  0.00     0.316 C 
BRANCH   8  18
ATOM     18  C   UNL A   1      29.706  28.045  23.553  1.00  0.00     0.037 C 
BRANCH  18  19
ATOM     19  C   UNL A   1      29.774  29.193  22.538  1.00  0.00     0.008 C 
BRANCH  19  20
ATOM     20  C   UNL A   1      28.673  30.263  22.672  1.00  0.00    -0.017 C 
ATOM     21  C   UNL A   1      27.328  29.648  23.053  1.00  0.00     0.007 C 
ATOM     22  C   UNL A   1      29.089  31.307  23.711  1.00  0.00     0.007 C 
ENDBRANCH  19  20
ENDBRANCH  18  19
ENDBRANCH   8  18
BRANCH  17  23
ATOM     23  C   UNL A   1      32.778  21.813  23.846  1.00  0.00     0.430 C 
ATOM     24  F   UNL A   1      32.396  20.539  24.110  1.00  0.00    -0.167 F 
ATOM     25  F   UNL A   1      32.107  22.209  22.737  1.00  0.00    -0.167 F 
ATOM     26  F   UNL A   1      34.088  21.758  23.526  1.00  0.00    -0.167 F 
ENDBRANCH  17  23
ENDBRANCH   5   7
ENDBRANCH   4   5
ENDBRANCH   3   4
ENDBRANCH   2   3
ENDBRANCH   1   2
BRANCH   1  27
ATOM     27  C   UNL A   1      40.355  21.773  26.983  1.00  0.00     0.202 C 
BRANCH  27  28
ATOM     28  C   UNL A   1      41.586  22.505  26.429  1.00  0.00     0.261 C 
BRANCH  28  29
ATOM     29  O   UNL A   1      41.278  23.868  26.085  1.00  0.00    -0.460 OA
BRANCH  29  30
ATOM     30  C   UNL A   1      42.276  24.759  26.304  1.00  0.00     0.338 C 
ATOM     31  O   UNL A   1      43.315  24.862  25.673  1.00  0.00    -0.246 OA
BRANCH  30  32
ATOM     32  C   UNL A   1      41.819  25.771  27.281  1.00  0.00     0.060 A 
ATOM     33  C   UNL A   1      40.785  25.522  28.183  1.00  0.00     0.016 A 
ATOM     34  C   UNL A   1      42.470  27.015  27.276  1.00  0.00     0.016 A 
ATOM     35  C   UNL A   1      40.439  26.504  29.117  1.00  0.00     0.010 A 
ATOM     36  C   UNL A   1      42.123  27.994  28.207  1.00  0.00     0.010 A 
ATOM     37  C   UNL A   1      41.126  27.735  29.157  1.00  0.00    -0.014 A 
BRANCH  37  38
ATOM     38  C   UNL A   1      40.936  28.663  30.300  1.00  0.00     0.031 A 
ATOM     39  C   UNL A   1      39.875  29.722  30.304  1.00  0.00     0.074 A 
ATOM     40  C   UNL A   1      41.787  28.557  31.341  1.00  0.00     0.049 A 
ATOM     41  N   UNL A   1      39.552  30.548  31.268  1.00  0.00    -0.248 NA
ATOM     42  C   UNL A   1      39.079  29.887  29.080  1.00  0.00     0.031 C 
ATOM     43  C   UNL A   1      42.891  27.600  31.420  1.00  0.00     0.029 A 
ATOM     44  N   UNL A   1      41.854  29.243  32.528  1.00  0.00    -0.354 N 
ATOM     45  C   UNL A   1      38.504  31.316  30.779  1.00  0.00     0.074 A 
ATOM     46  C   UNL A   1      38.278  30.895  29.413  1.00  0.00     0.031 C 
ATOM     47  C   UNL A   1      43.496  27.726  32.609  1.00  0.00     0.029 A 
ATOM     48  C   UNL A   1      42.852  28.798  33.363  1.00  0.00     0.049 A 
ATOM     49  H   UNL A   1      41.246  29.982  32.759  1.00  0.00     0.167 HD
ATOM     50  C   UNL A   1      37.786  32.267  31.425  1.00  0.00     0.031 A 
ATOM     51  C   UNL A   1      43.210  29.194  34.601  1.00  0.00     0.031 A 
ATOM     52  C   UNL A   1      38.035  32.688  32.784  1.00  0.00     0.049 A 
ATOM     53  C   UNL A   1      42.415  30.271  35.282  1.00  0.00     0.074 A 
ATOM     54  C   UNL A   1      37.320  33.602  33.539  1.00  0.00     0.029 A 
ATOM     55  N   UNL A   1      39.075  32.242  33.586  1.00  0.00    -0.354 N 
ATOM     56  N   UNL A   1      41.358  30.912  34.845  1.00  0.00    -0.248 NA
ATOM     57  C   UNL A   1      42.846  30.669  36.629  1.00  0.00     0.031 C 
ATOM     58  C   UNL A   1      37.974  33.772  34.760  1.00  0.00     0.029 A 
ATOM     59  C   UNL A   1      39.048  32.898  34.808  1.00  0.00     0.049 A 
ATOM     60  H   UNL A   1      39.736  31.560  33.326  1.00  0.00     0.167 HD
ATOM     61  C   UNL A   1      40.992  31.783  35.866  1.00  0.00     0.074 A 
ATOM     62  C   UNL A   1      41.919  31.560  36.956  1.00  0.00     0.031 C 
ATOM     63  C   UNL A   1      39.985  32.690  35.888  1.00  0.00     0.031 A 
BRANCH  50  64
ATOM     64  C   UNL A   1      36.630  32.916  30.702  1.00  0.00    -0.014 A 
ATOM     65  C   UNL A   1      36.872  33.904  29.728  1.00  0.00     0.010 A 
ATOM     66  C   UNL A   1      35.305  32.667  31.104  1.00  0.00     0.010 A 
ATOM     67  C   UNL A   1      35.818  34.661  29.206  1.00  0.00     0.020 A 
ATOM     68  C   UNL A   1      34.246  33.401  30.561  1.00  0.00     0.020 A 
ATOM     69  C   UNL A   1      34.512  34.412  29.635  1.00  0.00     0.054 A 
BRANCH  69  70
ATOM     70  S   UNL A   1      33.166  35.445  28.991  1.00  0.00     0.124 S 
ATOM     71  O   UNL A   1      33.894  36.501  28.293  1.00  0.00    -0.237 OA
ATOM     72  O   UNL A   1      32.432  34.513  28.140  1.00  0.00    -0.237 OA
ATOM     73  O   UNL A   1      32.454  35.868  30.196  1.00  0.00    -0.744 OA
ENDBRANCH  69  70
ENDBRANCH  50  64
BRANCH  51  74
ATOM     74  C   UNL A   1      44.345  28.508  35.279  1.00  0.00    -0.014 A 
ATOM     75  C   UNL A   1      45.666  28.954  35.087  1.00  0.00     0.010 A 
ATOM     76  C   UNL A   1      44.122  27.347  36.039  1.00  0.00     0.010 A 
ATOM     77  C   UNL A   1      46.745  28.217  35.580  1.00  0.00     0.020 A 
ATOM     78  C   UNL A   1      45.198  26.625  36.567  1.00  0.00     0.020 A 
ATOM     79  C   UNL A   1      46.503  27.047  36.305  1.00  0.00     0.054 A 
BRANCH  79  80
ATOM     80  S   UNL A   1      47.921  26.069  36.873  1.00  0.00     0.124 S 
ATOM     81  O   UNL A   1      48.329  26.801  38.069  1.00  0.00    -0.237 OA
ATOM     82  O   UNL A   1      47.327  24.756  37.110  1.00  0.00    -0.237 OA
ATOM     83  O   UNL A   1      48.854  26.135  35.752  1.00  0.00    -0.744 OA
ENDBRANCH  79  80
ENDBRANCH  51  74
BRANCH  63  84
ATOM     84  C   UNL A   1      39.831  33.550  37.120  1.00  0.00    -0.014 A 
ATOM     85  C   UNL A   1      39.042  33.106  38.198  1.00  0.00     0.010 A 
ATOM     86  C   UNL A   1      40.376  34.846  37.164  1.00  0.00     0.010 A 
ATOM     87  C   UNL A   1      38.767  33.953  39.276  1.00  0.00     0.020 A 
ATOM     88  C   UNL A   1      40.136  35.683  38.259  1.00  0.00     0.020 A 
ATOM     89  C   UNL A   1      39.311  35.241  39.295  1.00  0.00     0.054 A 
BRANCH  89  90
ATOM     90  S   UNL A   1      38.921  36.334  40.688  1.00  0.00     0.124 S 
ATOM     91  O   UNL A   1      40.190  36.379  41.410  1.00  0.00    -0.237 OA
ATOM     92  O   UNL A   1      38.531  37.575  40.023  1.00  0.00    -0.237 OA
ATOM     93  O   UNL A   1      37.836  35.639  41.379  1.00  0.00    -0.744 OA
ENDBRANCH  89  90
ENDBRANCH  63  84
ENDBRANCH  37  38
ENDBRANCH  30  32
ENDBRANCH  29  30
ENDBRANCH  28  29
ENDBRANCH  27  28
ENDBRANCH   1  27
TORSDOF 21
ENDMDL
