MODEL 1
REMARK VINA RESULT:     -11.9      0.000      0.000
REMARK SMILES O=C(OCCOCCOC(=O)c1nnn(-c2ccc(C(F)(F)F)cc2)c1-c1cccc(Cl)c1)c1ccc(-c2c3nc(c(-c4ccc(S(=O)(=O)[O-])cc4)c4ccc([nH]4)c(-c4ccc(S(=O)(=O)[O-])cc4)c4nc(c(-c5ccc(S(=O)(=O)[O-])cc5)c5ccc2[nH]5)C=C4)C=C3)cc1
REMARK SMILES IDX 5 1 4 2 3 3 2 4 1 5 34 6 35 7 93 8 36 9 92 10 37 11 38 12
REMARK SMILES IDX 39 13 86 14 40 15 91 16 85 17 87 18 41 19 90 20 84 21 83 22
REMARK SMILES IDX 42 24 72 25 53 26 71 27 54 28 57 29 70 30 88 31 55 32 56 33
REMARK SMILES IDX 69 35 89 36 58 37 43 38 44 39 52 40 45 41 51 42 46 43 47 44
REMARK SMILES IDX 48 45 49 46 50 47 73 48 74 49 82 50 75 51 81 52 76 53 77 54
REMARK SMILES IDX 78 55 79 56 80 57 59 58 60 59 68 60 61 61 67 62 62 63 63 64
REMARK SMILES IDX 64 65 65 66 66 67 6 68 7 69 8 70 9 71 10 72 11 73 12 74
REMARK SMILES IDX 13 75 26 76 14 77 15 78 27 79 28 80 33 81 29 82 31 83 30 84
REMARK SMILES IDX 32 85 16 86 17 87 25 88 18 89 24 90 19 91 20 92 21 93 22 94
REMARK SMILES IDX 23 95
REMARK H PARENT 87 23 57 34
REMARK Flexibility Score: inf
ROOT
ATOM      1  C   UNL A   1      31.634  30.814  25.992  1.00  0.00     0.202 C 
ENDROOT
BRANCH   1   2
ATOM      2  C   UNL A   1      32.374  30.911  27.323  1.00  0.00     0.261 C 
BRANCH   2   3
ATOM      3  O   UNL A   1      33.796  30.738  27.175  1.00  0.00    -0.460 OA
BRANCH   3   4
ATOM      4  C   UNL A   1      34.737  31.605  27.607  1.00  0.00     0.338 C 
ATOM      5  O   UNL A   1      34.500  32.811  27.635  1.00  0.00    -0.246 OA
BRANCH   4   6
ATOM      6  C   UNL A   1      35.942  31.079  28.291  1.00  0.00     0.060 A 
ATOM      7  C   UNL A   1      36.831  31.843  29.047  1.00  0.00     0.016 A 
ATOM      8  C   UNL A   1      36.242  29.736  28.028  1.00  0.00     0.016 A 
ATOM      9  C   UNL A   1      38.121  31.396  29.231  1.00  0.00     0.010 A 
ATOM     10  C   UNL A   1      37.505  29.247  28.287  1.00  0.00     0.010 A 
ATOM     11  C   UNL A   1      38.464  30.123  28.780  1.00  0.00    -0.014 A 
BRANCH  11  12
ATOM     12  C   UNL A   1      39.816  29.669  29.032  1.00  0.00     0.031 A 
ATOM     13  C   UNL A   1      40.121  29.636  30.484  1.00  0.00     0.074 A 
ATOM     14  C   UNL A   1      40.628  29.242  28.047  1.00  0.00     0.049 A 
ATOM     15  N   UNL A   1      40.909  30.419  31.141  1.00  0.00    -0.248 NA
ATOM     16  C   UNL A   1      39.259  28.798  31.341  1.00  0.00     0.031 C 
ATOM     17  C   UNL A   1      40.293  29.028  26.637  1.00  0.00     0.029 A 
ATOM     18  N   UNL A   1      41.906  28.787  28.119  1.00  0.00    -0.354 N 
ATOM     19  C   UNL A   1      40.853  29.969  32.454  1.00  0.00     0.074 A 
ATOM     20  C   UNL A   1      39.658  29.173  32.557  1.00  0.00     0.031 C 
ATOM     21  C   UNL A   1      41.237  28.241  26.070  1.00  0.00     0.029 A 
ATOM     22  C   UNL A   1      42.300  28.008  27.034  1.00  0.00     0.049 A 
ATOM     23  H   UNL A   1      42.504  28.991  28.876  1.00  0.00     0.167 HD
ATOM     24  C   UNL A   1      41.969  29.975  33.235  1.00  0.00     0.031 A 
ATOM     25  C   UNL A   1      43.374  27.176  26.975  1.00  0.00     0.031 A 
ATOM     26  C   UNL A   1      42.964  30.883  32.721  1.00  0.00     0.049 A 
ATOM     27  C   UNL A   1      44.295  27.576  28.069  1.00  0.00     0.074 A 
ATOM     28  C   UNL A   1      42.980  32.229  32.408  1.00  0.00     0.029 A 
ATOM     29  N   UNL A   1      44.030  30.325  32.055  1.00  0.00    -0.354 N 
ATOM     30  N   UNL A   1      44.923  28.719  28.088  1.00  0.00    -0.248 NA
ATOM     31  C   UNL A   1      44.127  26.937  29.365  1.00  0.00     0.031 C 
ATOM     32  C   UNL A   1      43.752  32.321  31.213  1.00  0.00     0.029 A 
ATOM     33  C   UNL A   1      44.246  31.049  30.913  1.00  0.00     0.049 A 
ATOM     34  H   UNL A   1      44.548  29.540  32.347  1.00  0.00     0.167 HD
ATOM     35  C   UNL A   1      44.820  29.155  29.401  1.00  0.00     0.074 A 
ATOM     36  C   UNL A   1      44.396  27.977  30.160  1.00  0.00     0.031 C 
ATOM     37  C   UNL A   1      44.800  30.489  29.700  1.00  0.00     0.031 A 
BRANCH  24  38
ATOM     38  C   UNL A   1      42.332  28.799  34.118  1.00  0.00    -0.014 A 
ATOM     39  C   UNL A   1      42.851  27.637  33.513  1.00  0.00     0.010 A 
ATOM     40  C   UNL A   1      41.907  28.679  35.460  1.00  0.00     0.010 A 
ATOM     41  C   UNL A   1      42.857  26.408  34.186  1.00  0.00     0.020 A 
ATOM     42  C   UNL A   1      41.949  27.472  36.154  1.00  0.00     0.020 A 
ATOM     43  C   UNL A   1      42.393  26.335  35.500  1.00  0.00     0.054 A 
BRANCH  43  44
ATOM     44  S   UNL A   1      42.333  24.734  36.336  1.00  0.00     0.124 S 
ATOM     45  O   UNL A   1      41.153  24.884  37.181  1.00  0.00    -0.237 OA
ATOM     46  O   UNL A   1      42.199  23.810  35.214  1.00  0.00    -0.237 OA
ATOM     47  O   UNL A   1      43.609  24.670  37.042  1.00  0.00    -0.744 OA
ENDBRANCH  43  44
ENDBRANCH  24  38
BRANCH  25  48
ATOM     48  C   UNL A   1      43.483  25.859  26.285  1.00  0.00    -0.014 A 
ATOM     49  C   UNL A   1      44.517  25.600  25.363  1.00  0.00     0.010 A 
ATOM     50  C   UNL A   1      42.737  24.754  26.746  1.00  0.00     0.010 A 
ATOM     51  C   UNL A   1      44.836  24.284  24.973  1.00  0.00     0.020 A 
ATOM     52  C   UNL A   1      43.043  23.444  26.358  1.00  0.00     0.020 A 
ATOM     53  C   UNL A   1      44.109  23.211  25.493  1.00  0.00     0.054 A 
BRANCH  53  54
ATOM     54  S   UNL A   1      44.638  21.506  25.141  1.00  0.00     0.124 S 
ATOM     55  O   UNL A   1      43.648  20.715  25.868  1.00  0.00    -0.237 OA
ATOM     56  O   UNL A   1      44.555  21.438  23.685  1.00  0.00    -0.237 OA
ATOM     57  O   UNL A   1      45.994  21.447  25.684  1.00  0.00    -0.744 OA
ENDBRANCH  53  54
ENDBRANCH  25  48
BRANCH  37  58
ATOM     58  C   UNL A   1      45.204  31.476  28.630  1.00  0.00    -0.014 A 
ATOM     59  C   UNL A   1      44.328  32.024  27.671  1.00  0.00     0.010 A 
ATOM     60  C   UNL A   1      46.520  31.966  28.690  1.00  0.00     0.010 A 
ATOM     61  C   UNL A   1      44.776  33.007  26.773  1.00  0.00     0.020 A 
ATOM     62  C   UNL A   1      46.966  32.955  27.815  1.00  0.00     0.020 A 
ATOM     63  C   UNL A   1      46.097  33.461  26.850  1.00  0.00     0.054 A 
BRANCH  63  64
ATOM     64  S   UNL A   1      46.680  34.733  25.693  1.00  0.00     0.124 S 
ATOM     65  O   UNL A   1      48.068  34.344  25.465  1.00  0.00    -0.237 OA
ATOM     66  O   UNL A   1      45.783  34.569  24.551  1.00  0.00    -0.237 OA
ATOM     67  O   UNL A   1      46.503  35.983  26.433  1.00  0.00    -0.744 OA
ENDBRANCH  63  64
ENDBRANCH  37  58
ENDBRANCH  11  12
ENDBRANCH   4   6
ENDBRANCH   3   4
ENDBRANCH   2   3
ENDBRANCH   1   2
BRANCH   1  68
ATOM     68  O   UNL A   1      31.996  29.784  25.075  1.00  0.00    -0.374 OA
BRANCH  68  69
ATOM     69  C   UNL A   1      31.272  28.548  25.109  1.00  0.00     0.202 C 
BRANCH  69  70
ATOM     70  C   UNL A   1      31.562  27.524  26.215  1.00  0.00     0.261 C 
BRANCH  70  71
ATOM     71  O   UNL A   1      30.399  26.795  26.614  1.00  0.00    -0.458 OA
BRANCH  71  72
ATOM     72  C   UNL A   1      30.001  25.785  25.770  1.00  0.00     0.361 C 
ATOM     73  O   UNL A   1      29.242  25.903  24.845  1.00  0.00    -0.244 OA
BRANCH  72  74
ATOM     74  C   UNL A   1      30.683  24.547  26.123  1.00  0.00     0.198 A 
ATOM     75  N   UNL A   1      30.430  23.809  27.255  1.00  0.00    -0.122 NA
ATOM     76  C   UNL A   1      31.636  23.911  25.361  1.00  0.00     0.109 A 
ATOM     77  N   UNL A   1      31.212  22.731  27.226  1.00  0.00    -0.061 NA
ATOM     78  N   UNL A   1      32.041  22.867  26.170  1.00  0.00    -0.212 N 
BRANCH  76  79
ATOM     79  C   UNL A   1      32.199  24.260  24.060  1.00  0.00     0.004 A 
ATOM     80  C   UNL A   1      32.162  23.357  22.990  1.00  0.00     0.010 A 
ATOM     81  C   UNL A   1      32.753  25.531  23.870  1.00  0.00     0.031 A 
ATOM     82  C   UNL A   1      32.674  23.726  21.744  1.00  0.00     0.002 A 
ATOM     83  C   UNL A   1      33.247  25.897  22.622  1.00  0.00     0.041 A 
ATOM     84  C   UNL A   1      33.213  24.999  21.560  1.00  0.00     0.020 A 
ATOM     85  Cl  UNL A   1      33.895  27.475  22.402  1.00  0.00    -0.084 Cl
ENDBRANCH  76  79
BRANCH  78  86
ATOM     86  C   UNL A   1      33.282  22.211  26.091  1.00  0.00     0.067 A 
ATOM     87  C   UNL A   1      33.414  21.018  25.385  1.00  0.00     0.029 A 
ATOM     88  C   UNL A   1      34.399  22.895  26.588  1.00  0.00     0.029 A 
ATOM     89  C   UNL A   1      34.705  20.585  25.065  1.00  0.00     0.015 A 
ATOM     90  C   UNL A   1      35.673  22.447  26.284  1.00  0.00     0.015 A 
ATOM     91  C   UNL A   1      35.841  21.315  25.479  1.00  0.00     0.056 A 
BRANCH  91  92
ATOM     92  C   UNL A   1      37.224  20.920  25.026  1.00  0.00     0.416 C 
ATOM     93  F   UNL A   1      38.208  21.534  25.733  1.00  0.00    -0.166 F 
ATOM     94  F   UNL A   1      37.444  19.582  25.148  1.00  0.00    -0.166 F 
ATOM     95  F   UNL A   1      37.467  21.213  23.716  1.00  0.00    -0.166 F 
ENDBRANCH  91  92
ENDBRANCH  78  86
ENDBRANCH  72  74
ENDBRANCH  71  72
ENDBRANCH  70  71
ENDBRANCH  69  70
ENDBRANCH  68  69
ENDBRANCH   1  68
TORSDOF 20
ENDMDL
MODEL 2
REMARK VINA RESULT:     -11.8      3.400      9.197
REMARK SMILES O=C(OCCOCCOC(=O)c1nnn(-c2ccc(C(F)(F)F)cc2)c1-c1cccc(Cl)c1)c1ccc(-c2c3nc(c(-c4ccc(S(=O)(=O)[O-])cc4)c4ccc([nH]4)c(-c4ccc(S(=O)(=O)[O-])cc4)c4nc(c(-c5ccc(S(=O)(=O)[O-])cc5)c5ccc2[nH]5)C=C4)C=C3)cc1
REMARK SMILES IDX 5 1 4 2 3 3 2 4 1 5 34 6 35 7 93 8 36 9 92 10 37 11 38 12
REMARK SMILES IDX 39 13 86 14 40 15 91 16 85 17 87 18 41 19 90 20 84 21 83 22
REMARK SMILES IDX 42 24 72 25 53 26 71 27 54 28 57 29 70 30 88 31 55 32 56 33
REMARK SMILES IDX 69 35 89 36 58 37 43 38 44 39 52 40 45 41 51 42 46 43 47 44
REMARK SMILES IDX 48 45 49 46 50 47 73 48 74 49 82 50 75 51 81 52 76 53 77 54
REMARK SMILES IDX 78 55 79 56 80 57 59 58 60 59 68 60 61 61 67 62 62 63 63 64
REMARK SMILES IDX 64 65 65 66 66 67 6 68 7 69 8 70 9 71 10 72 11 73 12 74
REMARK SMILES IDX 13 75 26 76 14 77 15 78 27 79 28 80 33 81 29 82 31 83 30 84
REMARK SMILES IDX 32 85 16 86 17 87 25 88 18 89 24 90 19 91 20 92 21 93 22 94
REMARK SMILES IDX 23 95
REMARK H PARENT 87 23 57 34
REMARK Flexibility Score: inf
ROOT
ATOM      1  C   UNL A   1      36.188  22.417  25.258  1.00  0.00     0.202 C 
ENDROOT
BRANCH   1   2
ATOM      2  C   UNL A   1      37.205  21.298  25.461  1.00  0.00     0.261 C 
BRANCH   2   3
ATOM      3  O   UNL A   1      38.564  21.770  25.387  1.00  0.00    -0.460 OA
BRANCH   3   4
ATOM      4  C   UNL A   1      39.414  21.870  26.432  1.00  0.00     0.338 C 
ATOM      5  O   UNL A   1      39.838  20.855  26.983  1.00  0.00    -0.246 OA
BRANCH   4   6
ATOM      6  C   UNL A   1      40.037  23.180  26.734  1.00  0.00     0.060 A 
ATOM      7  C   UNL A   1      41.283  23.356  27.333  1.00  0.00     0.016 A 
ATOM      8  C   UNL A   1      39.223  24.297  26.499  1.00  0.00     0.016 A 
ATOM      9  C   UNL A   1      41.559  24.535  27.990  1.00  0.00     0.010 A 
ATOM     10  C   UNL A   1      39.532  25.509  27.080  1.00  0.00     0.010 A 
ATOM     11  C   UNL A   1      40.639  25.579  27.915  1.00  0.00    -0.014 A 
BRANCH  11  12
ATOM     12  C   UNL A   1      40.984  26.819  28.580  1.00  0.00     0.031 A 
ATOM     13  C   UNL A   1      42.196  27.438  27.989  1.00  0.00     0.074 A 
ATOM     14  C   UNL A   1      40.213  27.359  29.542  1.00  0.00     0.049 A 
ATOM     15  N   UNL A   1      43.370  27.534  28.520  1.00  0.00    -0.248 NA
ATOM     16  C   UNL A   1      42.163  27.761  26.549  1.00  0.00     0.031 C 
ATOM     17  C   UNL A   1      38.890  26.914  29.988  1.00  0.00     0.029 A 
ATOM     18  N   UNL A   1      40.394  28.503  30.252  1.00  0.00    -0.354 N 
ATOM     19  C   UNL A   1      44.140  28.198  27.574  1.00  0.00     0.074 A 
ATOM     20  C   UNL A   1      43.439  28.072  26.323  1.00  0.00     0.031 C 
ATOM     21  C   UNL A   1      38.290  27.917  30.670  1.00  0.00     0.029 A 
ATOM     22  C   UNL A   1      39.231  29.015  30.821  1.00  0.00     0.049 A 
ATOM     23  H   UNL A   1      41.274  28.935  30.354  1.00  0.00     0.167 HD
ATOM     24  C   UNL A   1      45.082  29.101  27.961  1.00  0.00     0.031 A 
ATOM     25  C   UNL A   1      39.044  30.274  31.301  1.00  0.00     0.031 A 
ATOM     26  C   UNL A   1      45.463  28.906  29.338  1.00  0.00     0.049 A 
ATOM     27  C   UNL A   1      40.391  30.856  31.533  1.00  0.00     0.074 A 
ATOM     28  C   UNL A   1      45.955  27.839  30.066  1.00  0.00     0.029 A 
ATOM     29  N   UNL A   1      44.945  29.789  30.257  1.00  0.00    -0.354 N 
ATOM     30  N   UNL A   1      41.211  30.410  32.444  1.00  0.00    -0.248 NA
ATOM     31  C   UNL A   1      41.013  31.584  30.438  1.00  0.00     0.031 C 
ATOM     32  C   UNL A   1      45.290  27.915  31.325  1.00  0.00     0.029 A 
ATOM     33  C   UNL A   1      44.505  29.070  31.337  1.00  0.00     0.049 A 
ATOM     34  H   UNL A   1      44.899  30.767  30.157  1.00  0.00     0.167 HD
ATOM     35  C   UNL A   1      42.451  30.394  31.822  1.00  0.00     0.074 A 
ATOM     36  C   UNL A   1      42.283  31.209  30.618  1.00  0.00     0.031 C 
ATOM     37  C   UNL A   1      43.407  29.485  32.182  1.00  0.00     0.031 A 
BRANCH  24  38
ATOM     38  C   UNL A   1      45.242  30.437  27.264  1.00  0.00    -0.014 A 
ATOM     39  C   UNL A   1      46.544  30.911  27.008  1.00  0.00     0.010 A 
ATOM     40  C   UNL A   1      44.190  31.369  27.128  1.00  0.00     0.010 A 
ATOM     41  C   UNL A   1      46.782  32.262  26.721  1.00  0.00     0.020 A 
ATOM     42  C   UNL A   1      44.410  32.705  26.799  1.00  0.00     0.020 A 
ATOM     43  C   UNL A   1      45.710  33.151  26.632  1.00  0.00     0.054 A 
BRANCH  43  44
ATOM     44  S   UNL A   1      46.030  34.905  26.337  1.00  0.00     0.124 S 
ATOM     45  O   UNL A   1      46.996  34.852  25.244  1.00  0.00    -0.237 OA
ATOM     46  O   UNL A   1      44.702  35.401  25.989  1.00  0.00    -0.237 OA
ATOM     47  O   UNL A   1      46.551  35.376  27.616  1.00  0.00    -0.744 OA
ENDBRANCH  43  44
ENDBRANCH  24  38
BRANCH  25  48
ATOM     48  C   UNL A   1      37.816  31.115  31.228  1.00  0.00    -0.014 A 
ATOM     49  C   UNL A   1      36.698  30.850  32.044  1.00  0.00     0.010 A 
ATOM     50  C   UNL A   1      37.847  32.357  30.559  1.00  0.00     0.010 A 
ATOM     51  C   UNL A   1      35.689  31.814  32.237  1.00  0.00     0.020 A 
ATOM     52  C   UNL A   1      36.844  33.318  30.740  1.00  0.00     0.020 A 
ATOM     53  C   UNL A   1      35.781  33.053  31.600  1.00  0.00     0.054 A 
BRANCH  53  54
ATOM     54  S   UNL A   1      34.583  34.365  31.995  1.00  0.00     0.124 S 
ATOM     55  O   UNL A   1      33.635  33.671  32.862  1.00  0.00    -0.237 OA
ATOM     56  O   UNL A   1      35.414  35.373  32.645  1.00  0.00    -0.237 OA
ATOM     57  O   UNL A   1      34.055  34.753  30.687  1.00  0.00    -0.744 OA
ENDBRANCH  53  54
ENDBRANCH  25  48
BRANCH  37  58
ATOM     58  C   UNL A   1      43.221  28.710  33.466  1.00  0.00    -0.014 A 
ATOM     59  C   UNL A   1      43.684  29.129  34.730  1.00  0.00     0.010 A 
ATOM     60  C   UNL A   1      42.418  27.559  33.396  1.00  0.00     0.010 A 
ATOM     61  C   UNL A   1      43.381  28.386  35.884  1.00  0.00     0.020 A 
ATOM     62  C   UNL A   1      42.097  26.828  34.539  1.00  0.00     0.020 A 
ATOM     63  C   UNL A   1      42.592  27.235  35.776  1.00  0.00     0.054 A 
BRANCH  63  64
ATOM     64  S   UNL A   1      42.197  26.273  37.264  1.00  0.00     0.124 S 
ATOM     65  O   UNL A   1      42.310  24.897  36.792  1.00  0.00    -0.237 OA
ATOM     66  O   UNL A   1      43.224  26.702  38.211  1.00  0.00    -0.237 OA
ATOM     67  O   UNL A   1      40.839  26.700  37.603  1.00  0.00    -0.744 OA
ENDBRANCH  63  64
ENDBRANCH  37  58
ENDBRANCH  11  12
ENDBRANCH   4   6
ENDBRANCH   3   4
ENDBRANCH   2   3
ENDBRANCH   1   2
BRANCH   1  68
ATOM     68  O   UNL A   1      34.808  22.143  25.483  1.00  0.00    -0.374 OA
BRANCH  68  69
ATOM     69  C   UNL A   1      34.369  20.779  25.479  1.00  0.00     0.202 C 
BRANCH  69  70
ATOM     70  C   UNL A   1      33.213  20.352  24.564  1.00  0.00     0.261 C 
BRANCH  70  71
ATOM     71  O   UNL A   1      32.267  21.401  24.340  1.00  0.00    -0.458 OA
BRANCH  71  72
ATOM     72  C   UNL A   1      32.227  21.915  23.066  1.00  0.00     0.361 C 
ATOM     73  O   UNL A   1      31.668  21.417  22.125  1.00  0.00    -0.244 OA
BRANCH  72  74
ATOM     74  C   UNL A   1      32.918  23.198  23.028  1.00  0.00     0.198 A 
ATOM     75  N   UNL A   1      34.082  23.441  22.337  1.00  0.00    -0.122 NA
ATOM     76  C   UNL A   1      32.488  24.358  23.630  1.00  0.00     0.109 A 
ATOM     77  N   UNL A   1      34.397  24.724  22.502  1.00  0.00    -0.061 NA
ATOM     78  N   UNL A   1      33.528  25.238  23.397  1.00  0.00    -0.212 N 
BRANCH  76  79
ATOM     79  C   UNL A   1      31.292  24.630  24.421  1.00  0.00     0.004 A 
ATOM     80  C   UNL A   1      31.150  24.118  25.717  1.00  0.00     0.010 A 
ATOM     81  C   UNL A   1      30.286  25.446  23.889  1.00  0.00     0.031 A 
ATOM     82  C   UNL A   1      30.013  24.422  26.470  1.00  0.00     0.002 A 
ATOM     83  C   UNL A   1      29.165  25.757  24.650  1.00  0.00     0.041 A 
ATOM     84  C   UNL A   1      29.022  25.246  25.936  1.00  0.00     0.020 A 
ATOM     85  Cl  UNL A   1      27.957  26.786  23.988  1.00  0.00    -0.084 Cl
ENDBRANCH  76  79
BRANCH  78  86
ATOM     86  C   UNL A   1      33.819  26.375  24.171  1.00  0.00     0.067 A 
ATOM     87  C   UNL A   1      33.612  27.655  23.663  1.00  0.00     0.029 A 
ATOM     88  C   UNL A   1      34.144  26.166  25.517  1.00  0.00     0.029 A 
ATOM     89  C   UNL A   1      33.604  28.725  24.564  1.00  0.00     0.015 A 
ATOM     90  C   UNL A   1      34.156  27.234  26.398  1.00  0.00     0.015 A 
ATOM     91  C   UNL A   1      33.838  28.519  25.940  1.00  0.00     0.056 A 
BRANCH  91  92
ATOM     92  C   UNL A   1      33.703  29.650  26.928  1.00  0.00     0.416 C 
ATOM     93  F   UNL A   1      32.549  29.593  27.643  1.00  0.00    -0.166 F 
ATOM     94  F   UNL A   1      34.715  29.663  27.838  1.00  0.00    -0.166 F 
ATOM     95  F   UNL A   1      33.720  30.882  26.343  1.00  0.00    -0.166 F 
ENDBRANCH  91  92
ENDBRANCH  78  86
ENDBRANCH  72  74
ENDBRANCH  71  72
ENDBRANCH  70  71
ENDBRANCH  69  70
ENDBRANCH  68  69
ENDBRANCH   1  68
TORSDOF 20
ENDMDL
MODEL 3
REMARK VINA RESULT:     -11.7      3.639      9.297
REMARK SMILES O=C(OCCOCCOC(=O)c1nnn(-c2ccc(C(F)(F)F)cc2)c1-c1cccc(Cl)c1)c1ccc(-c2c3nc(c(-c4ccc(S(=O)(=O)[O-])cc4)c4ccc([nH]4)c(-c4ccc(S(=O)(=O)[O-])cc4)c4nc(c(-c5ccc(S(=O)(=O)[O-])cc5)c5ccc2[nH]5)C=C4)C=C3)cc1
REMARK SMILES IDX 5 1 4 2 3 3 2 4 1 5 34 6 35 7 93 8 36 9 92 10 37 11 38 12
REMARK SMILES IDX 39 13 86 14 40 15 91 16 85 17 87 18 41 19 90 20 84 21 83 22
REMARK SMILES IDX 42 24 72 25 53 26 71 27 54 28 57 29 70 30 88 31 55 32 56 33
REMARK SMILES IDX 69 35 89 36 58 37 43 38 44 39 52 40 45 41 51 42 46 43 47 44
REMARK SMILES IDX 48 45 49 46 50 47 73 48 74 49 82 50 75 51 81 52 76 53 77 54
REMARK SMILES IDX 78 55 79 56 80 57 59 58 60 59 68 60 61 61 67 62 62 63 63 64
REMARK SMILES IDX 64 65 65 66 66 67 6 68 7 69 8 70 9 71 10 72 11 73 12 74
REMARK SMILES IDX 13 75 26 76 14 77 15 78 27 79 28 80 33 81 29 82 31 83 30 84
REMARK SMILES IDX 32 85 16 86 17 87 25 88 18 89 24 90 19 91 20 92 21 93 22 94
REMARK SMILES IDX 23 95
REMARK H PARENT 87 23 57 34
REMARK Flexibility Score: inf
ROOT
ATOM      1  C   UNL A   1      35.722  21.015  25.230  1.00  0.00     0.202 C 
ENDROOT
BRANCH   1   2
ATOM      2  C   UNL A   1      37.238  20.966  25.069  1.00  0.00     0.261 C 
BRANCH   2   3
ATOM      3  O   UNL A   1      37.902  22.031  25.776  1.00  0.00    -0.460 OA
BRANCH   3   4
ATOM      4  C   UNL A   1      39.133  21.956  26.325  1.00  0.00     0.338 C 
ATOM      5  O   UNL A   1      39.736  20.884  26.345  1.00  0.00    -0.246 OA
BRANCH   4   6
ATOM      6  C   UNL A   1      39.854  23.208  26.656  1.00  0.00     0.060 A 
ATOM      7  C   UNL A   1      41.047  23.280  27.372  1.00  0.00     0.016 A 
ATOM      8  C   UNL A   1      39.184  24.391  26.314  1.00  0.00     0.016 A 
ATOM      9  C   UNL A   1      41.377  24.447  28.024  1.00  0.00     0.010 A 
ATOM     10  C   UNL A   1      39.558  25.586  26.893  1.00  0.00     0.010 A 
ATOM     11  C   UNL A   1      40.580  25.574  27.832  1.00  0.00    -0.014 A 
BRANCH  11  12
ATOM     12  C   UNL A   1      40.984  26.796  28.497  1.00  0.00     0.031 A 
ATOM     13  C   UNL A   1      42.226  27.354  27.911  1.00  0.00     0.074 A 
ATOM     14  C   UNL A   1      40.237  27.374  29.457  1.00  0.00     0.049 A 
ATOM     15  N   UNL A   1      43.402  27.392  28.445  1.00  0.00    -0.248 NA
ATOM     16  C   UNL A   1      42.214  27.677  26.470  1.00  0.00     0.031 C 
ATOM     17  C   UNL A   1      38.893  26.995  29.899  1.00  0.00     0.029 A 
ATOM     18  N   UNL A   1      40.472  28.508  30.167  1.00  0.00    -0.354 N 
ATOM     19  C   UNL A   1      44.208  28.017  27.501  1.00  0.00     0.074 A 
ATOM     20  C   UNL A   1      43.505  27.925  26.247  1.00  0.00     0.031 C 
ATOM     21  C   UNL A   1      38.341  28.027  30.579  1.00  0.00     0.029 A 
ATOM     22  C   UNL A   1      39.334  29.077  30.732  1.00  0.00     0.049 A 
ATOM     23  H   UNL A   1      41.373  28.896  30.271  1.00  0.00     0.167 HD
ATOM     24  C   UNL A   1      45.191  28.873  27.890  1.00  0.00     0.031 A 
ATOM     25  C   UNL A   1      39.208  30.344  31.211  1.00  0.00     0.031 A 
ATOM     26  C   UNL A   1      45.558  28.660  29.269  1.00  0.00     0.049 A 
ATOM     27  C   UNL A   1      40.582  30.859  31.447  1.00  0.00     0.074 A 
ATOM     28  C   UNL A   1      45.994  27.571  29.999  1.00  0.00     0.029 A 
ATOM     29  N   UNL A   1      45.081  29.568  30.186  1.00  0.00    -0.354 N 
ATOM     30  N   UNL A   1      41.376  30.374  32.360  1.00  0.00    -0.248 NA
ATOM     31  C   UNL A   1      41.242  31.555  30.353  1.00  0.00     0.031 C 
ATOM     32  C   UNL A   1      45.330  27.680  31.256  1.00  0.00     0.029 A 
ATOM     33  C   UNL A   1      44.603  28.873  31.264  1.00  0.00     0.049 A 
ATOM     34  H   UNL A   1      45.084  30.547  30.085  1.00  0.00     0.167 HD
ATOM     35  C   UNL A   1      42.615  30.296  31.742  1.00  0.00     0.074 A 
ATOM     36  C   UNL A   1      42.491  31.118  30.538  1.00  0.00     0.031 C 
ATOM     37  C   UNL A   1      43.524  29.341  32.106  1.00  0.00     0.031 A 
BRANCH  24  38
ATOM     38  C   UNL A   1      45.419  30.199  27.193  1.00  0.00    -0.014 A 
ATOM     39  C   UNL A   1      46.743  30.596  26.918  1.00  0.00     0.010 A 
ATOM     40  C   UNL A   1      44.422  31.192  27.075  1.00  0.00     0.010 A 
ATOM     41  C   UNL A   1      47.056  31.931  26.630  1.00  0.00     0.020 A 
ATOM     42  C   UNL A   1      44.716  32.513  26.746  1.00  0.00     0.020 A 
ATOM     43  C   UNL A   1      46.038  32.882  26.559  1.00  0.00     0.054 A 
BRANCH  43  44
ATOM     44  S   UNL A   1      46.455  34.615  26.262  1.00  0.00     0.124 S 
ATOM     45  O   UNL A   1      45.195  35.140  25.747  1.00  0.00    -0.237 OA
ATOM     46  O   UNL A   1      46.837  35.068  27.596  1.00  0.00    -0.237 OA
ATOM     47  O   UNL A   1      47.549  34.541  25.296  1.00  0.00    -0.744 OA
ENDBRANCH  43  44
ENDBRANCH  24  38
BRANCH  25  48
ATOM     48  C   UNL A   1      38.023  31.245  31.133  1.00  0.00    -0.014 A 
ATOM     49  C   UNL A   1      36.714  30.746  31.289  1.00  0.00     0.010 A 
ATOM     50  C   UNL A   1      38.192  32.644  31.192  1.00  0.00     0.010 A 
ATOM     51  C   UNL A   1      35.632  31.606  31.560  1.00  0.00     0.020 A 
ATOM     52  C   UNL A   1      37.120  33.506  31.455  1.00  0.00     0.020 A 
ATOM     53  C   UNL A   1      35.847  32.982  31.664  1.00  0.00     0.054 A 
BRANCH  53  54
ATOM     54  S   UNL A   1      34.492  34.072  32.200  1.00  0.00     0.124 S 
ATOM     55  O   UNL A   1      33.780  33.235  33.161  1.00  0.00    -0.237 OA
ATOM     56  O   UNL A   1      35.204  35.215  32.763  1.00  0.00    -0.237 OA
ATOM     57  O   UNL A   1      33.763  34.348  30.963  1.00  0.00    -0.744 OA
ENDBRANCH  53  54
ENDBRANCH  25  48
BRANCH  37  58
ATOM     58  C   UNL A   1      43.296  28.578  33.390  1.00  0.00    -0.014 A 
ATOM     59  C   UNL A   1      42.500  27.421  33.504  1.00  0.00     0.010 A 
ATOM     60  C   UNL A   1      44.039  28.992  34.509  1.00  0.00     0.010 A 
ATOM     61  C   UNL A   1      42.422  26.724  34.723  1.00  0.00     0.020 A 
ATOM     62  C   UNL A   1      43.982  28.294  35.715  1.00  0.00     0.020 A 
ATOM     63  C   UNL A   1      43.162  27.172  35.822  1.00  0.00     0.054 A 
BRANCH  63  64
ATOM     64  S   UNL A   1      43.067  26.275  37.397  1.00  0.00     0.124 S 
ATOM     65  O   UNL A   1      43.544  24.944  37.034  1.00  0.00    -0.237 OA
ATOM     66  O   UNL A   1      43.953  27.047  38.266  1.00  0.00    -0.237 OA
ATOM     67  O   UNL A   1      41.650  26.347  37.753  1.00  0.00    -0.744 OA
ENDBRANCH  63  64
ENDBRANCH  37  58
ENDBRANCH  11  12
ENDBRANCH   4   6
ENDBRANCH   3   4
ENDBRANCH   2   3
ENDBRANCH   1   2
BRANCH   1  68
ATOM     68  O   UNL A   1      35.163  21.844  26.246  1.00  0.00    -0.374 OA
BRANCH  68  69
ATOM     69  C   UNL A   1      33.752  21.783  26.483  1.00  0.00     0.202 C 
BRANCH  69  70
ATOM     70  C   UNL A   1      33.206  21.999  27.901  1.00  0.00     0.261 C 
BRANCH  70  71
ATOM     71  O   UNL A   1      31.825  22.369  27.913  1.00  0.00    -0.458 OA
BRANCH  71  72
ATOM     72  C   UNL A   1      31.199  22.404  26.690  1.00  0.00     0.361 C 
ATOM     73  O   UNL A   1      31.078  21.475  25.937  1.00  0.00    -0.244 OA
BRANCH  72  74
ATOM     74  C   UNL A   1      30.643  23.731  26.457  1.00  0.00     0.198 A 
ATOM     75  N   UNL A   1      29.533  24.237  27.092  1.00  0.00    -0.122 NA
ATOM     76  C   UNL A   1      31.167  24.684  25.614  1.00  0.00     0.109 A 
ATOM     77  N   UNL A   1      29.344  25.481  26.657  1.00  0.00    -0.061 NA
ATOM     78  N   UNL A   1      30.229  25.697  25.663  1.00  0.00    -0.212 N 
BRANCH  76  79
ATOM     79  C   UNL A   1      32.357  24.652  24.769  1.00  0.00     0.004 A 
ATOM     80  C   UNL A   1      33.585  25.142  25.231  1.00  0.00     0.010 A 
ATOM     81  C   UNL A   1      32.277  24.089  23.490  1.00  0.00     0.031 A 
ATOM     82  C   UNL A   1      34.719  25.068  24.419  1.00  0.00     0.002 A 
ATOM     83  C   UNL A   1      33.414  24.005  22.693  1.00  0.00     0.041 A 
ATOM     84  C   UNL A   1      34.633  24.495  23.151  1.00  0.00     0.020 A 
ATOM     85  Cl  UNL A   1      33.300  23.282  21.137  1.00  0.00    -0.084 Cl
ENDBRANCH  76  79
BRANCH  78  86
ATOM     86  C   UNL A   1      30.029  26.667  24.665  1.00  0.00     0.067 A 
ATOM     87  C   UNL A   1      28.912  26.616  23.835  1.00  0.00     0.029 A 
ATOM     88  C   UNL A   1      30.889  27.772  24.666  1.00  0.00     0.029 A 
ATOM     89  C   UNL A   1      28.591  27.758  23.094  1.00  0.00     0.015 A 
ATOM     90  C   UNL A   1      30.576  28.890  23.912  1.00  0.00     0.015 A 
ATOM     91  C   UNL A   1      29.398  28.914  23.156  1.00  0.00     0.056 A 
BRANCH  91  92
ATOM     92  C   UNL A   1      28.985  30.187  22.460  1.00  0.00     0.416 C 
ATOM     93  F   UNL A   1      29.567  30.337  21.241  1.00  0.00    -0.166 F 
ATOM     94  F   UNL A   1      27.641  30.247  22.250  1.00  0.00    -0.166 F 
ATOM     95  F   UNL A   1      29.296  31.313  23.164  1.00  0.00    -0.166 F 
ENDBRANCH  91  92
ENDBRANCH  78  86
ENDBRANCH  72  74
ENDBRANCH  71  72
ENDBRANCH  70  71
ENDBRANCH  69  70
ENDBRANCH  68  69
ENDBRANCH   1  68
TORSDOF 20
ENDMDL
