MODEL 1
REMARK VINA RESULT:     -10.0      0.000      0.000
REMARK SMILES COC[C@H]1CC[N@@H+]([C@H]2CCC[C@]([NH2+]C(C)C)(C(=O)OCCOCCOC(=O)c3ccc(-c4c5nc(c(-c6ccc(S(=O)(=O)[O-])cc6)c6ccc([nH]6)c(-c6ccc(S(=O)(=O)[O-])cc6)c6nc(c(-c7ccc(S(=O)(=O)[O-])cc7)c7ccc4[nH]7)C=C6)C=C5)cc3)C2)C1
REMARK SMILES IDX 22 1 21 2 20 3 19 4 17 5 18 6 12 7 8 8 9 9 88 10 10 11 11 12
REMARK SMILES IDX 7 13 4 14 5 15 89 16 6 17 3 19 2 20 1 21 13 22 14 25 15 26
REMARK SMILES IDX 16 27 23 28 24 29 25 30 26 31 27 32 28 33 29 34 87 35 30 36
REMARK SMILES IDX 86 37 31 38 32 39 33 40 80 41 34 42 85 43 79 44 81 45 35 46
REMARK SMILES IDX 84 47 78 48 77 49 36 51 66 52 47 53 65 54 48 55 51 56 64 57
REMARK SMILES IDX 82 58 49 59 50 60 63 62 83 63 52 64 37 65 38 66 46 67 39 68
REMARK SMILES IDX 45 69 40 70 41 71 42 72 43 73 44 74 67 75 68 76 76 77 69 78
REMARK SMILES IDX 75 79 70 80 71 81 72 82 73 83 74 84 53 85 54 86 62 87 55 88
REMARK SMILES IDX 61 89 56 90 57 91 58 92 59 93 60 94
REMARK H PARENT 7 18 13 23 13 24 81 50 51 61
REMARK Flexibility Score: inf
ROOT
ATOM      1  O   UNL A   1      33.669  30.255  27.716  1.00  0.00    -0.374 OA
ENDROOT
BRANCH   1   2
ATOM      2  C   UNL A   1      33.267  29.613  26.503  1.00  0.00     0.202 C 
BRANCH   2   3
ATOM      3  C   UNL A   1      32.903  28.126  26.594  1.00  0.00     0.261 C 
BRANCH   3   4
ATOM      4  O   UNL A   1      33.702  27.361  25.683  1.00  0.00    -0.459 OA
BRANCH   4   5
ATOM      5  C   UNL A   1      33.046  26.781  24.636  1.00  0.00     0.368 C 
ATOM      6  O   UNL A   1      32.453  27.418  23.774  1.00  0.00    -0.245 OA
BRANCH   5   7
ATOM      7  C   UNL A   1      33.268  25.223  24.615  1.00  0.00     0.200 C 
ATOM      8  C   UNL A   1      35.254  23.486  24.419  1.00  0.00     0.190 C 
ATOM      9  C   UNL A   1      34.844  23.164  22.979  1.00  0.00     0.065 C 
ATOM     10  C   UNL A   1      34.776  24.922  24.750  1.00  0.00     0.146 C 
ATOM     11  C   UNL A   1      33.367  23.359  22.693  1.00  0.00     0.013 C 
ATOM     12  C   UNL A   1      32.812  24.687  23.205  1.00  0.00     0.081 C 
BRANCH   8  13
ATOM     13  N   UNL A   1      35.016  22.467  25.463  1.00  0.00    -0.332 N 
ATOM     14  C   UNL A   1      34.256  20.165  25.258  1.00  0.00     0.076 C 
ATOM     15  C   UNL A   1      35.752  20.242  25.015  1.00  0.00     0.073 C 
ATOM     16  C   UNL A   1      33.816  21.628  25.401  1.00  0.00     0.268 C 
ATOM     17  C   UNL A   1      36.142  21.551  25.679  1.00  0.00     0.263 C 
ATOM     18  H   UNL A   1      34.878  23.119  26.236  1.00  0.00     0.348 HD
BRANCH  14  19
ATOM     19  C   UNL A   1      33.404  19.357  24.267  1.00  0.00     0.169 C 
BRANCH  19  20
ATOM     20  O   UNL A   1      32.242  18.766  24.845  1.00  0.00    -0.384 OA
ATOM     21  C   UNL A   1      32.544  17.713  25.754  1.00  0.00     0.194 C 
ENDBRANCH  19  20
ENDBRANCH  14  19
ENDBRANCH   8  13
BRANCH   7  22
ATOM     22  N   UNL A   1      32.440  24.593  25.691  1.00  0.00    -0.330 N 
ATOM     23  H   UNL A   1      32.542  25.177  26.522  1.00  0.00     0.347 HD
ATOM     24  H   UNL A   1      32.803  23.641  25.739  1.00  0.00     0.347 HD
BRANCH  22  25
ATOM     25  C   UNL A   1      30.987  24.393  25.486  1.00  0.00     0.176 C 
ATOM     26  C   UNL A   1      30.596  23.099  26.222  1.00  0.00     0.075 C 
ATOM     27  C   UNL A   1      30.029  25.487  25.967  1.00  0.00     0.075 C 
ENDBRANCH  22  25
ENDBRANCH   7  22
ENDBRANCH   5   7
ENDBRANCH   4   5
ENDBRANCH   3   4
ENDBRANCH   2   3
ENDBRANCH   1   2
BRANCH   1  28
ATOM     28  C   UNL A   1      33.845  31.671  27.690  1.00  0.00     0.202 C 
BRANCH  28  29
ATOM     29  C   UNL A   1      35.094  32.248  28.373  1.00  0.00     0.261 C 
BRANCH  29  30
ATOM     30  O   UNL A   1      36.267  31.436  28.188  1.00  0.00    -0.460 OA
BRANCH  30  31
ATOM     31  C   UNL A   1      36.803  30.966  29.340  1.00  0.00     0.338 C 
ATOM     32  O   UNL A   1      36.326  31.057  30.466  1.00  0.00    -0.246 OA
BRANCH  31  33
ATOM     33  C   UNL A   1      37.992  30.141  29.073  1.00  0.00     0.060 A 
ATOM     34  C   UNL A   1      38.853  29.898  30.150  1.00  0.00     0.016 A 
ATOM     35  C   UNL A   1      38.340  29.747  27.779  1.00  0.00     0.016 A 
ATOM     36  C   UNL A   1      40.098  29.319  29.928  1.00  0.00     0.010 A 
ATOM     37  C   UNL A   1      39.600  29.172  27.557  1.00  0.00     0.010 A 
ATOM     38  C   UNL A   1      40.501  29.006  28.624  1.00  0.00    -0.014 A 
BRANCH  38  39
ATOM     39  C   UNL A   1      41.938  28.711  28.391  1.00  0.00     0.031 A 
ATOM     40  C   UNL A   1      42.336  27.306  28.020  1.00  0.00     0.074 A 
ATOM     41  C   UNL A   1      42.855  29.695  28.393  1.00  0.00     0.049 A 
ATOM     42  N   UNL A   1      43.506  26.845  27.658  1.00  0.00    -0.248 NA
ATOM     43  C   UNL A   1      41.273  26.288  28.055  1.00  0.00     0.031 C 
ATOM     44  C   UNL A   1      42.588  31.100  28.695  1.00  0.00     0.029 A 
ATOM     45  N   UNL A   1      44.198  29.660  28.111  1.00  0.00    -0.354 N 
ATOM     46  C   UNL A   1      43.318  25.488  27.413  1.00  0.00     0.074 A 
ATOM     47  C   UNL A   1      41.933  25.194  27.709  1.00  0.00     0.031 C 
ATOM     48  C   UNL A   1      43.731  31.797  28.577  1.00  0.00     0.029 A 
ATOM     49  C   UNL A   1      44.813  30.885  28.203  1.00  0.00     0.049 A 
ATOM     50  H   UNL A   1      44.675  28.835  27.866  1.00  0.00     0.167 HD
ATOM     51  C   UNL A   1      44.210  24.572  26.966  1.00  0.00     0.031 A 
ATOM     52  C   UNL A   1      46.099  31.233  28.007  1.00  0.00     0.031 A 
ATOM     53  C   UNL A   1      45.592  24.859  26.691  1.00  0.00     0.049 A 
ATOM     54  C   UNL A   1      47.087  30.189  27.557  1.00  0.00     0.074 A 
ATOM     55  C   UNL A   1      46.582  23.997  26.250  1.00  0.00     0.029 A 
ATOM     56  N   UNL A   1      46.183  26.105  26.834  1.00  0.00    -0.354 N 
ATOM     57  N   UNL A   1      46.887  28.915  27.316  1.00  0.00    -0.248 NA
ATOM     58  C   UNL A   1      48.467  30.637  27.327  1.00  0.00     0.031 C 
ATOM     59  C   UNL A   1      47.780  24.714  26.167  1.00  0.00     0.029 A 
ATOM     60  C   UNL A   1      47.525  26.034  26.502  1.00  0.00     0.049 A 
ATOM     61  H   UNL A   1      45.717  26.921  27.128  1.00  0.00     0.167 HD
ATOM     62  C   UNL A   1      48.111  28.415  26.880  1.00  0.00     0.074 A 
ATOM     63  C   UNL A   1      49.038  29.528  26.877  1.00  0.00     0.031 C 
ATOM     64  C   UNL A   1      48.437  27.151  26.510  1.00  0.00     0.031 A 
BRANCH  51  65
ATOM     65  C   UNL A   1      43.713  23.163  26.780  1.00  0.00    -0.014 A 
ATOM     66  C   UNL A   1      43.062  22.478  27.823  1.00  0.00     0.010 A 
ATOM     67  C   UNL A   1      43.894  22.515  25.545  1.00  0.00     0.010 A 
ATOM     68  C   UNL A   1      42.641  21.157  27.649  1.00  0.00     0.020 A 
ATOM     69  C   UNL A   1      43.451  21.203  25.358  1.00  0.00     0.020 A 
ATOM     70  C   UNL A   1      42.845  20.525  26.418  1.00  0.00     0.054 A 
BRANCH  70  71
ATOM     71  S   UNL A   1      42.289  18.811  26.215  1.00  0.00     0.124 S 
ATOM     72  O   UNL A   1      42.447  18.281  27.567  1.00  0.00    -0.237 OA
ATOM     73  O   UNL A   1      40.910  18.970  25.761  1.00  0.00    -0.237 OA
ATOM     74  O   UNL A   1      43.208  18.264  25.221  1.00  0.00    -0.744 OA
ENDBRANCH  70  71
ENDBRANCH  51  65
BRANCH  52  75
ATOM     75  C   UNL A   1      46.526  32.641  28.235  1.00  0.00    -0.014 A 
ATOM     76  C   UNL A   1      46.945  33.077  29.504  1.00  0.00     0.010 A 
ATOM     77  C   UNL A   1      46.524  33.554  27.164  1.00  0.00     0.010 A 
ATOM     78  C   UNL A   1      47.341  34.404  29.700  1.00  0.00     0.020 A 
ATOM     79  C   UNL A   1      46.943  34.874  27.351  1.00  0.00     0.020 A 
ATOM     80  C   UNL A   1      47.342  35.293  28.621  1.00  0.00     0.054 A 
BRANCH  80  81
ATOM     81  S   UNL A   1      47.919  36.993  28.882  1.00  0.00     0.124 S 
ATOM     82  O   UNL A   1      47.151  37.731  27.885  1.00  0.00    -0.237 OA
ATOM     83  O   UNL A   1      47.553  37.241  30.276  1.00  0.00    -0.237 OA
ATOM     84  O   UNL A   1      49.356  36.907  28.632  1.00  0.00    -0.744 OA
ENDBRANCH  80  81
ENDBRANCH  52  75
BRANCH  64  85
ATOM     85  C   UNL A   1      49.846  26.912  26.034  1.00  0.00    -0.014 A 
ATOM     86  C   UNL A   1      50.185  27.005  24.673  1.00  0.00     0.010 A 
ATOM     87  C   UNL A   1      50.852  26.620  26.974  1.00  0.00     0.010 A 
ATOM     88  C   UNL A   1      51.498  26.760  24.255  1.00  0.00     0.020 A 
ATOM     89  C   UNL A   1      52.169  26.403  26.563  1.00  0.00     0.020 A 
ATOM     90  C   UNL A   1      52.479  26.454  25.202  1.00  0.00     0.054 A 
BRANCH  90  91
ATOM     91  S   UNL A   1      54.178  26.151  24.640  1.00  0.00     0.124 S 
ATOM     92  O   UNL A   1      54.947  27.028  25.518  1.00  0.00    -0.237 OA
ATOM     93  O   UNL A   1      54.347  24.720  24.877  1.00  0.00    -0.237 OA
ATOM     94  O   UNL A   1      54.151  26.543  23.233  1.00  0.00    -0.744 OA
ENDBRANCH  90  91
ENDBRANCH  64  85
ENDBRANCH  38  39
ENDBRANCH  31  33
ENDBRANCH  30  31
ENDBRANCH  29  30
ENDBRANCH  28  29
ENDBRANCH   1  28
TORSDOF 22
ENDMDL
MODEL 2
REMARK VINA RESULT:      -9.6      4.462     11.611
REMARK SMILES COC[C@H]1CC[N@@H+]([C@H]2CCC[C@]([NH2+]C(C)C)(C(=O)OCCOCCOC(=O)c3ccc(-c4c5nc(c(-c6ccc(S(=O)(=O)[O-])cc6)c6ccc([nH]6)c(-c6ccc(S(=O)(=O)[O-])cc6)c6nc(c(-c7ccc(S(=O)(=O)[O-])cc7)c7ccc4[nH]7)C=C6)C=C5)cc3)C2)C1
REMARK SMILES IDX 22 1 21 2 20 3 19 4 17 5 18 6 12 7 8 8 9 9 88 10 10 11 11 12
REMARK SMILES IDX 7 13 4 14 5 15 89 16 6 17 3 19 2 20 1 21 13 22 14 25 15 26
REMARK SMILES IDX 16 27 23 28 24 29 25 30 26 31 27 32 28 33 29 34 87 35 30 36
REMARK SMILES IDX 86 37 31 38 32 39 33 40 80 41 34 42 85 43 79 44 81 45 35 46
REMARK SMILES IDX 84 47 78 48 77 49 36 51 66 52 47 53 65 54 48 55 51 56 64 57
REMARK SMILES IDX 82 58 49 59 50 60 63 62 83 63 52 64 37 65 38 66 46 67 39 68
REMARK SMILES IDX 45 69 40 70 41 71 42 72 43 73 44 74 67 75 68 76 76 77 69 78
REMARK SMILES IDX 75 79 70 80 71 81 72 82 73 83 74 84 53 85 54 86 62 87 55 88
REMARK SMILES IDX 61 89 56 90 57 91 58 92 59 93 60 94
REMARK H PARENT 7 18 13 23 13 24 81 50 51 61
REMARK Flexibility Score: inf
ROOT
ATOM      1  O   UNL A   1      39.909  19.408  25.465  1.00  0.00    -0.374 OA
ENDROOT
BRANCH   1   2
ATOM      2  C   UNL A   1      40.654  19.509  26.682  1.00  0.00     0.202 C 
BRANCH   2   3
ATOM      3  C   UNL A   1      42.143  19.855  26.556  1.00  0.00     0.261 C 
BRANCH   3   4
ATOM      4  O   UNL A   1      42.308  21.246  26.254  1.00  0.00    -0.459 OA
BRANCH   4   5
ATOM      5  C   UNL A   1      42.850  22.023  27.237  1.00  0.00     0.368 C 
ATOM      6  O   UNL A   1      42.533  21.938  28.417  1.00  0.00    -0.245 OA
BRANCH   5   7
ATOM      7  C   UNL A   1      44.008  22.928  26.675  1.00  0.00     0.200 C 
ATOM      8  C   UNL A   1      45.380  25.082  27.367  1.00  0.00     0.190 C 
ATOM      9  C   UNL A   1      44.609  25.916  26.339  1.00  0.00     0.065 C 
ATOM     10  C   UNL A   1      44.489  23.885  27.786  1.00  0.00     0.146 C 
ATOM     11  C   UNL A   1      44.109  25.126  25.144  1.00  0.00     0.013 C 
ATOM     12  C   UNL A   1      43.410  23.820  25.521  1.00  0.00     0.081 C 
BRANCH   8  13
ATOM     13  N   UNL A   1      46.800  24.771  27.100  1.00  0.00    -0.332 N 
ATOM     14  C   UNL A   1      48.579  26.196  26.248  1.00  0.00     0.076 C 
ATOM     15  C   UNL A   1      48.421  26.400  27.743  1.00  0.00     0.073 C 
ATOM     16  C   UNL A   1      47.430  25.252  25.868  1.00  0.00     0.268 C 
ATOM     17  C   UNL A   1      47.712  25.134  28.192  1.00  0.00     0.263 C 
ATOM     18  H   UNL A   1      46.683  23.764  26.995  1.00  0.00     0.348 HD
BRANCH  14  19
ATOM     19  C   UNL A   1      48.678  27.442  25.355  1.00  0.00     0.169 C 
BRANCH  19  20
ATOM     20  O   UNL A   1      49.706  27.373  24.370  1.00  0.00    -0.384 OA
ATOM     21  C   UNL A   1      49.222  27.003  23.083  1.00  0.00     0.194 C 
ENDBRANCH  19  20
ENDBRANCH  14  19
ENDBRANCH   8  13
BRANCH   7  22
ATOM     22  N   UNL A   1      45.096  22.056  26.132  1.00  0.00    -0.330 N 
ATOM     23  H   UNL A   1      45.039  21.168  26.630  1.00  0.00     0.347 HD
ATOM     24  H   UNL A   1      45.937  22.618  26.268  1.00  0.00     0.347 HD
BRANCH  22  25
ATOM     25  C   UNL A   1      45.135  21.733  24.688  1.00  0.00     0.176 C 
ATOM     26  C   UNL A   1      46.432  22.336  24.119  1.00  0.00     0.075 C 
ATOM     27  C   UNL A   1      45.110  20.259  24.273  1.00  0.00     0.075 C 
ENDBRANCH  22  25
ENDBRANCH   7  22
ENDBRANCH   5   7
ENDBRANCH   4   5
ENDBRANCH   3   4
ENDBRANCH   2   3
ENDBRANCH   1   2
BRANCH   1  28
ATOM     28  C   UNL A   1      38.549  19.838  25.483  1.00  0.00     0.202 C 
BRANCH  28  29
ATOM     29  C   UNL A   1      38.260  21.306  25.134  1.00  0.00     0.261 C 
BRANCH  29  30
ATOM     30  O   UNL A   1      38.816  22.234  26.082  1.00  0.00    -0.460 OA
BRANCH  30  31
ATOM     31  C   UNL A   1      38.377  23.507  25.933  1.00  0.00     0.338 C 
ATOM     32  O   UNL A   1      37.361  23.874  25.352  1.00  0.00    -0.246 OA
BRANCH  31  33
ATOM     33  C   UNL A   1      39.188  24.442  26.729  1.00  0.00     0.060 A 
ATOM     34  C   UNL A   1      38.896  24.533  28.095  1.00  0.00     0.016 A 
ATOM     35  C   UNL A   1      40.098  25.318  26.134  1.00  0.00     0.016 A 
ATOM     36  C   UNL A   1      39.465  25.545  28.862  1.00  0.00     0.010 A 
ATOM     37  C   UNL A   1      40.663  26.343  26.907  1.00  0.00     0.010 A 
ATOM     38  C   UNL A   1      40.305  26.490  28.260  1.00  0.00    -0.014 A 
BRANCH  38  39
ATOM     39  C   UNL A   1      40.617  27.729  29.018  1.00  0.00     0.031 A 
ATOM     40  C   UNL A   1      41.983  27.874  29.635  1.00  0.00     0.074 A 
ATOM     41  C   UNL A   1      39.745  28.753  29.057  1.00  0.00     0.049 A 
ATOM     42  N   UNL A   1      42.516  28.908  30.236  1.00  0.00    -0.248 NA
ATOM     43  C   UNL A   1      42.870  26.701  29.558  1.00  0.00     0.031 C 
ATOM     44  C   UNL A   1      38.410  28.750  28.463  1.00  0.00     0.029 A 
ATOM     45  N   UNL A   1      39.867  30.004  29.608  1.00  0.00    -0.354 N 
ATOM     46  C   UNL A   1      43.800  28.514  30.598  1.00  0.00     0.074 A 
ATOM     47  C   UNL A   1      43.950  27.134  30.189  1.00  0.00     0.031 C 
ATOM     48  C   UNL A   1      37.835  29.947  28.677  1.00  0.00     0.029 A 
ATOM     49  C   UNL A   1      38.757  30.794  29.432  1.00  0.00     0.049 A 
ATOM     50  H   UNL A   1      40.674  30.306  30.084  1.00  0.00     0.167 HD
ATOM     51  C   UNL A   1      44.773  29.237  31.203  1.00  0.00     0.031 A 
ATOM     52  C   UNL A   1      38.512  32.057  29.832  1.00  0.00     0.031 A 
ATOM     53  C   UNL A   1      44.618  30.602  31.629  1.00  0.00     0.049 A 
ATOM     54  C   UNL A   1      39.592  32.829  30.546  1.00  0.00     0.074 A 
ATOM     55  C   UNL A   1      45.538  31.417  32.264  1.00  0.00     0.029 A 
ATOM     56  N   UNL A   1      43.464  31.353  31.466  1.00  0.00    -0.354 N 
ATOM     57  N   UNL A   1      40.805  32.445  30.867  1.00  0.00    -0.248 NA
ATOM     58  C   UNL A   1      39.276  34.212  30.927  1.00  0.00     0.031 C 
ATOM     59  C   UNL A   1      44.925  32.648  32.523  1.00  0.00     0.029 A 
ATOM     60  C   UNL A   1      43.643  32.618  31.998  1.00  0.00     0.049 A 
ATOM     61  H   UNL A   1      42.638  31.034  31.034  1.00  0.00     0.167 HD
ATOM     62  C   UNL A   1      41.407  33.548  31.464  1.00  0.00     0.074 A 
ATOM     63  C   UNL A   1      40.429  34.617  31.445  1.00  0.00     0.031 C 
ATOM     64  C   UNL A   1      42.657  33.669  31.976  1.00  0.00     0.031 A 
BRANCH  51  65
ATOM     65  C   UNL A   1      46.083  28.542  31.464  1.00  0.00    -0.014 A 
ATOM     66  C   UNL A   1      47.185  28.722  30.606  1.00  0.00     0.010 A 
ATOM     67  C   UNL A   1      46.218  27.703  32.585  1.00  0.00     0.010 A 
ATOM     68  C   UNL A   1      48.382  28.040  30.840  1.00  0.00     0.020 A 
ATOM     69  C   UNL A   1      47.423  27.040  32.836  1.00  0.00     0.020 A 
ATOM     70  C   UNL A   1      48.491  27.197  31.951  1.00  0.00     0.054 A 
BRANCH  70  71
ATOM     71  S   UNL A   1      50.056  26.325  32.234  1.00  0.00     0.124 S 
ATOM     72  O   UNL A   1      50.843  27.338  32.931  1.00  0.00    -0.237 OA
ATOM     73  O   UNL A   1      49.646  25.182  33.044  1.00  0.00    -0.237 OA
ATOM     74  O   UNL A   1      50.517  25.995  30.887  1.00  0.00    -0.744 OA
ENDBRANCH  70  71
ENDBRANCH  51  65
BRANCH  52  75
ATOM     75  C   UNL A   1      37.184  32.672  29.563  1.00  0.00    -0.014 A 
ATOM     76  C   UNL A   1      36.207  32.760  30.570  1.00  0.00     0.010 A 
ATOM     77  C   UNL A   1      36.899  33.188  28.285  1.00  0.00     0.010 A 
ATOM     78  C   UNL A   1      34.963  33.340  30.299  1.00  0.00     0.020 A 
ATOM     79  C   UNL A   1      35.667  33.792  28.018  1.00  0.00     0.020 A 
ATOM     80  C   UNL A   1      34.703  33.856  29.026  1.00  0.00     0.054 A 
BRANCH  80  81
ATOM     81  S   UNL A   1      33.107  34.661  28.712  1.00  0.00     0.124 S 
ATOM     82  O   UNL A   1      32.525  34.712  30.048  1.00  0.00    -0.237 OA
ATOM     83  O   UNL A   1      33.509  35.948  28.146  1.00  0.00    -0.237 OA
ATOM     84  O   UNL A   1      32.448  33.756  27.773  1.00  0.00    -0.744 OA
ENDBRANCH  80  81
ENDBRANCH  52  75
BRANCH  64  85
ATOM     85  C   UNL A   1      43.052  35.016  32.524  1.00  0.00    -0.014 A 
ATOM     86  C   UNL A   1      43.720  35.964  31.728  1.00  0.00     0.010 A 
ATOM     87  C   UNL A   1      42.719  35.347  33.850  1.00  0.00     0.010 A 
ATOM     88  C   UNL A   1      44.091  37.200  32.267  1.00  0.00     0.020 A 
ATOM     89  C   UNL A   1      43.064  36.591  34.383  1.00  0.00     0.020 A 
ATOM     90  C   UNL A   1      43.768  37.502  33.592  1.00  0.00     0.054 A 
BRANCH  90  91
ATOM     91  S   UNL A   1      44.250  39.116  34.267  1.00  0.00     0.124 S 
ATOM     92  O   UNL A   1      44.466  38.802  35.677  1.00  0.00    -0.237 OA
ATOM     93  O   UNL A   1      45.452  39.440  33.504  1.00  0.00    -0.237 OA
ATOM     94  O   UNL A   1      43.095  39.966  33.988  1.00  0.00    -0.744 OA
ENDBRANCH  90  91
ENDBRANCH  64  85
ENDBRANCH  38  39
ENDBRANCH  31  33
ENDBRANCH  30  31
ENDBRANCH  29  30
ENDBRANCH  28  29
ENDBRANCH   1  28
TORSDOF 22
ENDMDL
MODEL 3
REMARK VINA RESULT:      -9.5      4.690     11.675
REMARK SMILES COC[C@H]1CC[N@@H+]([C@H]2CCC[C@]([NH2+]C(C)C)(C(=O)OCCOCCOC(=O)c3ccc(-c4c5nc(c(-c6ccc(S(=O)(=O)[O-])cc6)c6ccc([nH]6)c(-c6ccc(S(=O)(=O)[O-])cc6)c6nc(c(-c7ccc(S(=O)(=O)[O-])cc7)c7ccc4[nH]7)C=C6)C=C5)cc3)C2)C1
REMARK SMILES IDX 22 1 21 2 20 3 19 4 17 5 18 6 12 7 8 8 9 9 88 10 10 11 11 12
REMARK SMILES IDX 7 13 4 14 5 15 89 16 6 17 3 19 2 20 1 21 13 22 14 25 15 26
REMARK SMILES IDX 16 27 23 28 24 29 25 30 26 31 27 32 28 33 29 34 87 35 30 36
REMARK SMILES IDX 86 37 31 38 32 39 33 40 80 41 34 42 85 43 79 44 81 45 35 46
REMARK SMILES IDX 84 47 78 48 77 49 36 51 66 52 47 53 65 54 48 55 51 56 64 57
REMARK SMILES IDX 82 58 49 59 50 60 63 62 83 63 52 64 37 65 38 66 46 67 39 68
REMARK SMILES IDX 45 69 40 70 41 71 42 72 43 73 44 74 67 75 68 76 76 77 69 78
REMARK SMILES IDX 75 79 70 80 71 81 72 82 73 83 74 84 53 85 54 86 62 87 55 88
REMARK SMILES IDX 61 89 56 90 57 91 58 92 59 93 60 94
REMARK H PARENT 7 18 13 23 13 24 81 50 51 61
REMARK Flexibility Score: inf
ROOT
ATOM      1  O   UNL A   1      38.992  19.270  25.267  1.00  0.00    -0.374 OA
ENDROOT
BRANCH   1   2
ATOM      2  C   UNL A   1      40.141  20.063  25.575  1.00  0.00     0.202 C 
BRANCH   2   3
ATOM      3  C   UNL A   1      40.989  19.618  26.773  1.00  0.00     0.261 C 
BRANCH   3   4
ATOM      4  O   UNL A   1      42.277  20.244  26.732  1.00  0.00    -0.459 OA
BRANCH   4   5
ATOM      5  C   UNL A   1      42.343  21.532  27.175  1.00  0.00     0.368 C 
ATOM      6  O   UNL A   1      41.620  21.983  28.055  1.00  0.00    -0.245 OA
BRANCH   5   7
ATOM      7  C   UNL A   1      43.542  22.305  26.508  1.00  0.00     0.200 C 
ATOM      8  C   UNL A   1      44.880  24.568  26.807  1.00  0.00     0.190 C 
ATOM      9  C   UNL A   1      44.183  25.155  25.576  1.00  0.00     0.065 C 
ATOM     10  C   UNL A   1      43.956  23.482  27.416  1.00  0.00     0.146 C 
ATOM     11  C   UNL A   1      43.757  24.122  24.550  1.00  0.00     0.013 C 
ATOM     12  C   UNL A   1      43.027  22.922  25.153  1.00  0.00     0.081 C 
BRANCH   8  13
ATOM     13  N   UNL A   1      46.312  24.217  26.707  1.00  0.00    -0.332 N 
ATOM     14  C   UNL A   1      48.165  25.470  25.747  1.00  0.00     0.076 C 
ATOM     15  C   UNL A   1      47.899  25.940  27.165  1.00  0.00     0.073 C 
ATOM     16  C   UNL A   1      47.036  24.471  25.458  1.00  0.00     0.268 C 
ATOM     17  C   UNL A   1      47.145  24.773  27.780  1.00  0.00     0.263 C 
ATOM     18  H   UNL A   1      46.193  23.207  26.776  1.00  0.00     0.348 HD
BRANCH  14  19
ATOM     19  C   UNL A   1      48.342  26.535  24.654  1.00  0.00     0.169 C 
BRANCH  19  20
ATOM     20  O   UNL A   1      47.135  26.883  23.978  1.00  0.00    -0.384 OA
ATOM     21  C   UNL A   1      46.599  28.132  24.402  1.00  0.00     0.194 C 
ENDBRANCH  19  20
ENDBRANCH  14  19
ENDBRANCH   8  13
BRANCH   7  22
ATOM     22  N   UNL A   1      44.658  21.345  26.238  1.00  0.00    -0.330 N 
ATOM     23  H   UNL A   1      44.567  20.588  26.916  1.00  0.00     0.347 HD
ATOM     24  H   UNL A   1      45.491  21.931  26.297  1.00  0.00     0.347 HD
BRANCH  22  25
ATOM     25  C   UNL A   1      44.783  20.710  24.906  1.00  0.00     0.176 C 
ATOM     26  C   UNL A   1      46.084  21.233  24.271  1.00  0.00     0.075 C 
ATOM     27  C   UNL A   1      44.834  19.181  24.833  1.00  0.00     0.075 C 
ENDBRANCH  22  25
ENDBRANCH   7  22
ENDBRANCH   5   7
ENDBRANCH   4   5
ENDBRANCH   3   4
ENDBRANCH   2   3
ENDBRANCH   1   2
BRANCH   1  28
ATOM     28  C   UNL A   1      37.753  19.949  25.065  1.00  0.00     0.202 C 
BRANCH  28  29
ATOM     29  C   UNL A   1      37.803  21.462  24.805  1.00  0.00     0.261 C 
BRANCH  29  30
ATOM     30  O   UNL A   1      37.963  22.239  26.006  1.00  0.00    -0.460 OA
BRANCH  30  31
ATOM     31  C   UNL A   1      37.848  23.576  25.820  1.00  0.00     0.338 C 
ATOM     32  O   UNL A   1      36.948  24.164  25.231  1.00  0.00    -0.246 OA
BRANCH  31  33
ATOM     33  C   UNL A   1      38.873  24.305  26.584  1.00  0.00     0.060 A 
ATOM     34  C   UNL A   1      38.691  24.392  27.969  1.00  0.00     0.016 A 
ATOM     35  C   UNL A   1      39.896  25.016  25.953  1.00  0.00     0.016 A 
ATOM     36  C   UNL A   1      39.492  25.245  28.724  1.00  0.00     0.010 A 
ATOM     37  C   UNL A   1      40.695  25.882  26.714  1.00  0.00     0.010 A 
ATOM     38  C   UNL A   1      40.458  26.037  28.092  1.00  0.00    -0.014 A 
BRANCH  38  39
ATOM     39  C   UNL A   1      41.050  27.161  28.862  1.00  0.00     0.031 A 
ATOM     40  C   UNL A   1      40.229  28.407  29.068  1.00  0.00     0.074 A 
ATOM     41  C   UNL A   1      42.245  27.032  29.465  1.00  0.00     0.049 A 
ATOM     42  N   UNL A   1      40.490  29.460  29.800  1.00  0.00    -0.248 NA
ATOM     43  C   UNL A   1      38.938  28.471  28.360  1.00  0.00     0.031 C 
ATOM     44  C   UNL A   1      43.115  25.861  29.376  1.00  0.00     0.029 A 
ATOM     45  N   UNL A   1      42.922  27.894  30.291  1.00  0.00    -0.354 N 
ATOM     46  C   UNL A   1      39.396  30.306  29.649  1.00  0.00     0.074 A 
ATOM     47  C   UNL A   1      38.488  29.663  28.724  1.00  0.00     0.031 C 
ATOM     48  C   UNL A   1      44.212  26.075  30.124  1.00  0.00     0.029 A 
ATOM     49  C   UNL A   1      44.126  27.402  30.734  1.00  0.00     0.049 A 
ATOM     50  H   UNL A   1      42.578  28.781  30.542  1.00  0.00     0.167 HD
ATOM     51  C   UNL A   1      39.157  31.502  30.239  1.00  0.00     0.031 A 
ATOM     52  C   UNL A   1      45.053  27.956  31.539  1.00  0.00     0.031 A 
ATOM     53  C   UNL A   1      40.067  32.152  31.142  1.00  0.00     0.049 A 
ATOM     54  C   UNL A   1      44.789  29.309  32.147  1.00  0.00     0.074 A 
ATOM     55  C   UNL A   1      39.925  33.372  31.781  1.00  0.00     0.029 A 
ATOM     56  N   UNL A   1      41.293  31.636  31.535  1.00  0.00    -0.354 N 
ATOM     57  N   UNL A   1      43.742  30.087  32.006  1.00  0.00    -0.248 NA
ATOM     58  C   UNL A   1      45.822  29.845  33.044  1.00  0.00     0.031 C 
ATOM     59  C   UNL A   1      41.085  33.613  32.526  1.00  0.00     0.029 A 
ATOM     60  C   UNL A   1      41.924  32.517  32.397  1.00  0.00     0.049 A 
ATOM     61  H   UNL A   1      41.661  30.770  31.244  1.00  0.00     0.167 HD
ATOM     62  C   UNL A   1      43.978  31.192  32.817  1.00  0.00     0.074 A 
ATOM     63  C   UNL A   1      45.260  30.973  33.456  1.00  0.00     0.031 C 
ATOM     64  C   UNL A   1      43.203  32.287  33.020  1.00  0.00     0.031 A 
BRANCH  51  65
ATOM     65  C   UNL A   1      37.865  32.194  29.891  1.00  0.00    -0.014 A 
ATOM     66  C   UNL A   1      37.813  33.169  28.878  1.00  0.00     0.010 A 
ATOM     67  C   UNL A   1      36.686  31.860  30.581  1.00  0.00     0.010 A 
ATOM     68  C   UNL A   1      36.615  33.831  28.593  1.00  0.00     0.020 A 
ATOM     69  C   UNL A   1      35.481  32.501  30.281  1.00  0.00     0.020 A 
ATOM     70  C   UNL A   1      35.457  33.497  29.302  1.00  0.00     0.054 A 
BRANCH  70  71
ATOM     71  S   UNL A   1      33.915  34.368  28.913  1.00  0.00     0.124 S 
ATOM     72  O   UNL A   1      33.254  34.405  30.216  1.00  0.00    -0.237 OA
ATOM     73  O   UNL A   1      34.388  35.655  28.413  1.00  0.00    -0.237 OA
ATOM     74  O   UNL A   1      33.276  33.513  27.916  1.00  0.00    -0.744 OA
ENDBRANCH  70  71
ENDBRANCH  51  65
BRANCH  52  75
ATOM     75  C   UNL A   1      46.319  27.226  31.819  1.00  0.00    -0.014 A 
ATOM     76  C   UNL A   1      46.430  26.360  32.921  1.00  0.00     0.010 A 
ATOM     77  C   UNL A   1      47.425  27.390  30.964  1.00  0.00     0.010 A 
ATOM     78  C   UNL A   1      47.628  25.682  33.171  1.00  0.00     0.020 A 
ATOM     79  C   UNL A   1      48.614  26.695  31.195  1.00  0.00     0.020 A 
ATOM     80  C   UNL A   1      48.711  25.851  32.303  1.00  0.00     0.054 A 
BRANCH  80  81
ATOM     81  S   UNL A   1      50.236  24.916  32.608  1.00  0.00     0.124 S 
ATOM     82  O   UNL A   1      49.791  23.914  33.570  1.00  0.00    -0.237 OA
ATOM     83  O   UNL A   1      50.568  24.412  31.276  1.00  0.00    -0.237 OA
ATOM     84  O   UNL A   1      51.156  25.924  33.129  1.00  0.00    -0.744 OA
ENDBRANCH  80  81
ENDBRANCH  52  75
BRANCH  64  85
ATOM     85  C   UNL A   1      43.702  33.314  34.002  1.00  0.00    -0.014 A 
ATOM     86  C   UNL A   1      44.501  34.395  33.588  1.00  0.00     0.010 A 
ATOM     87  C   UNL A   1      43.338  33.210  35.357  1.00  0.00     0.010 A 
ATOM     88  C   UNL A   1      44.967  35.325  34.523  1.00  0.00     0.020 A 
ATOM     89  C   UNL A   1      43.778  34.153  36.288  1.00  0.00     0.020 A 
ATOM     90  C   UNL A   1      44.609  35.194  35.868  1.00  0.00     0.054 A 
BRANCH  90  91
ATOM     91  S   UNL A   1      45.216  36.418  37.062  1.00  0.00     0.124 S 
ATOM     92  O   UNL A   1      44.098  37.356  37.127  1.00  0.00    -0.237 OA
ATOM     93  O   UNL A   1      45.434  35.617  38.264  1.00  0.00    -0.237 OA
ATOM     94  O   UNL A   1      46.430  36.937  36.438  1.00  0.00    -0.744 OA
ENDBRANCH  90  91
ENDBRANCH  64  85
ENDBRANCH  38  39
ENDBRANCH  31  33
ENDBRANCH  30  31
ENDBRANCH  29  30
ENDBRANCH  28  29
ENDBRANCH   1  28
TORSDOF 22
ENDMDL
