MODEL 1
REMARK VINA RESULT:      -7.5      0.000      0.000
REMARK SMILES CC[C@@H](C)N(C)c1ccc(/C=C/C(=O)OCCOCCOC(=O)c2ccc(-c3c4nc(c(-c5ccc(S(=O)(=O)[O-])cc5)c5ccc([nH]5)c(-c5ccc(S(=O)(=O)[O-])cc5)c5nc(c(-c6ccc(S(=O)(=O)[O-])cc6)c6ccc3[nH]6)C=C5)C=C4)cc2)cc1F
REMARK SMILES IDX 17 1 16 2 15 3 13 4 14 5 12 6 11 7 10 8 7 9 8 10 85 11 9 12
REMARK SMILES IDX 84 13 86 14 5 15 6 16 3 17 4 18 2 19 1 20 18 21 19 22 20 23
REMARK SMILES IDX 21 24 22 25 23 26 24 27 25 28 83 29 26 30 82 31 27 32 28 33
REMARK SMILES IDX 29 34 76 35 30 36 81 37 75 38 77 39 31 40 80 41 74 42 73 43
REMARK SMILES IDX 32 45 62 46 43 47 61 48 44 49 47 50 60 51 78 52 45 53 46 54
REMARK SMILES IDX 59 56 79 57 48 58 33 59 34 60 42 61 35 62 41 63 36 64 37 65
REMARK SMILES IDX 38 66 39 67 40 68 63 69 64 70 72 71 65 72 71 73 66 74 67 75
REMARK SMILES IDX 68 76 69 77 70 78 49 79 50 80 58 81 51 82 57 83 52 84 53 85
REMARK SMILES IDX 54 86 55 87 56 88
REMARK H PARENT 77 44 47 55
REMARK Flexibility Score: inf
ROOT
ATOM      1  C   UNL A   1      44.837  22.346  23.657  1.00  0.00     0.202 C 
ENDROOT
BRANCH   1   2
ATOM      2  C   UNL A   1      46.176  22.770  24.266  1.00  0.00     0.261 C 
BRANCH   2   3
ATOM      3  O   UNL A   1      45.984  23.660  25.375  1.00  0.00    -0.460 OA
BRANCH   3   4
ATOM      4  C   UNL A   1      45.896  24.969  25.053  1.00  0.00     0.330 C 
ATOM      5  O   UNL A   1      46.646  25.594  24.316  1.00  0.00    -0.247 OA
BRANCH   4   6
ATOM      6  C   UNL A   1      44.701  25.615  25.634  1.00  0.00     0.094 C 
ATOM      7  C   UNL A   1      43.591  25.988  24.976  1.00  0.00     0.016 C 
BRANCH   7   8
ATOM      8  C   UNL A   1      42.433  26.618  25.637  1.00  0.00    -0.022 A 
ATOM      9  C   UNL A   1      40.280  27.795  27.113  1.00  0.00     0.073 A 
ATOM     10  C   UNL A   1      41.141  28.572  26.325  1.00  0.00     0.029 A 
ATOM     11  C   UNL A   1      40.470  26.404  27.048  1.00  0.00     0.147 A 
ATOM     12  C   UNL A   1      42.189  27.996  25.593  1.00  0.00     0.010 A 
ATOM     13  C   UNL A   1      41.526  25.822  26.337  1.00  0.00     0.049 A 
ATOM     14  F   UNL A   1      39.610  25.572  27.654  1.00  0.00    -0.205 F 
BRANCH   9  15
ATOM     15  N   UNL A   1      39.317  28.391  27.932  1.00  0.00    -0.370 N 
ATOM     16  C   UNL A   1      38.579  29.530  27.396  1.00  0.00     0.144 C 
BRANCH  15  17
ATOM     17  C   UNL A   1      39.448  28.307  29.411  1.00  0.00     0.078 C 
ATOM     18  C   UNL A   1      38.213  28.874  30.119  1.00  0.00     0.031 C 
BRANCH  17  19
ATOM     19  C   UNL A   1      40.760  28.927  29.916  1.00  0.00     0.021 C 
ATOM     20  C   UNL A   1      41.224  28.369  31.254  1.00  0.00     0.006 C 
ENDBRANCH  17  19
ENDBRANCH  15  17
ENDBRANCH   9  15
ENDBRANCH   7   8
ENDBRANCH   4   6
ENDBRANCH   3   4
ENDBRANCH   2   3
ENDBRANCH   1   2
BRANCH   1  21
ATOM     21  O   UNL A   1      44.580  20.943  23.628  1.00  0.00    -0.374 OA
BRANCH  21  22
ATOM     22  C   UNL A   1      44.638  20.247  24.875  1.00  0.00     0.202 C 
BRANCH  22  23
ATOM     23  C   UNL A   1      43.292  19.891  25.521  1.00  0.00     0.261 C 
BRANCH  23  24
ATOM     24  O   UNL A   1      42.527  21.063  25.854  1.00  0.00    -0.460 OA
BRANCH  24  25
ATOM     25  C   UNL A   1      42.021  21.080  27.109  1.00  0.00     0.338 C 
ATOM     26  O   UNL A   1      41.368  20.199  27.655  1.00  0.00    -0.246 OA
BRANCH  25  27
ATOM     27  C   UNL A   1      42.533  22.257  27.833  1.00  0.00     0.060 A 
ATOM     28  C   UNL A   1      43.913  22.503  27.799  1.00  0.00     0.016 A 
ATOM     29  C   UNL A   1      41.684  23.074  28.583  1.00  0.00     0.016 A 
ATOM     30  C   UNL A   1      44.459  23.537  28.558  1.00  0.00     0.010 A 
ATOM     31  C   UNL A   1      42.234  24.103  29.350  1.00  0.00     0.010 A 
ATOM     32  C   UNL A   1      43.625  24.313  29.371  1.00  0.00    -0.014 A 
BRANCH  32  33
ATOM     33  C   UNL A   1      44.203  25.227  30.384  1.00  0.00     0.031 A 
ATOM     34  C   UNL A   1      44.434  26.663  30.002  1.00  0.00     0.074 A 
ATOM     35  C   UNL A   1      44.547  24.786  31.606  1.00  0.00     0.049 A 
ATOM     36  N   UNL A   1      45.057  27.606  30.658  1.00  0.00    -0.248 NA
ATOM     37  C   UNL A   1      43.897  27.084  28.698  1.00  0.00     0.031 C 
ATOM     38  C   UNL A   1      44.325  23.432  32.110  1.00  0.00     0.029 A 
ATOM     39  N   UNL A   1      45.184  25.431  32.635  1.00  0.00    -0.354 N 
ATOM     40  C   UNL A   1      45.012  28.726  29.836  1.00  0.00     0.074 A 
ATOM     41  C   UNL A   1      44.319  28.338  28.627  1.00  0.00     0.031 C 
ATOM     42  C   UNL A   1      44.844  23.340  33.347  1.00  0.00     0.029 A 
ATOM     43  C   UNL A   1      45.473  24.612  33.699  1.00  0.00     0.049 A 
ATOM     44  H   UNL A   1      45.412  26.389  32.614  1.00  0.00     0.167 HD
ATOM     45  C   UNL A   1      45.508  29.966  30.065  1.00  0.00     0.031 A 
ATOM     46  C   UNL A   1      46.195  24.848  34.812  1.00  0.00     0.031 A 
ATOM     47  C   UNL A   1      46.214  30.335  31.263  1.00  0.00     0.049 A 
ATOM     48  C   UNL A   1      46.801  26.211  35.024  1.00  0.00     0.074 A 
ATOM     49  C   UNL A   1      46.752  31.564  31.600  1.00  0.00     0.029 A 
ATOM     50  N   UNL A   1      46.489  29.474  32.314  1.00  0.00    -0.354 N 
ATOM     51  N   UNL A   1      46.748  27.265  34.243  1.00  0.00    -0.248 NA
ATOM     52  C   UNL A   1      47.557  26.420  36.267  1.00  0.00     0.031 C 
ATOM     53  C   UNL A   1      47.401  31.431  32.832  1.00  0.00     0.029 A 
ATOM     54  C   UNL A   1      47.207  30.138  33.294  1.00  0.00     0.049 A 
ATOM     55  H   UNL A   1      46.213  28.530  32.359  1.00  0.00     0.167 HD
ATOM     56  C   UNL A   1      47.432  28.273  34.917  1.00  0.00     0.074 A 
ATOM     57  C   UNL A   1      47.891  27.702  36.167  1.00  0.00     0.031 C 
ATOM     58  C   UNL A   1      47.648  29.557  34.538  1.00  0.00     0.031 A 
BRANCH  45  59
ATOM     59  C   UNL A   1      45.345  30.986  28.970  1.00  0.00    -0.014 A 
ATOM     60  C   UNL A   1      44.207  31.810  28.897  1.00  0.00     0.010 A 
ATOM     61  C   UNL A   1      46.347  31.116  27.991  1.00  0.00     0.010 A 
ATOM     62  C   UNL A   1      44.044  32.699  27.831  1.00  0.00     0.020 A 
ATOM     63  C   UNL A   1      46.203  32.027  26.940  1.00  0.00     0.020 A 
ATOM     64  C   UNL A   1      45.040  32.793  26.852  1.00  0.00     0.054 A 
BRANCH  64  65
ATOM     65  S   UNL A   1      44.795  33.939  25.468  1.00  0.00     0.124 S 
ATOM     66  O   UNL A   1      44.229  33.059  24.448  1.00  0.00    -0.237 OA
ATOM     67  O   UNL A   1      43.876  34.926  26.026  1.00  0.00    -0.237 OA
ATOM     68  O   UNL A   1      46.140  34.434  25.186  1.00  0.00    -0.744 OA
ENDBRANCH  64  65
ENDBRANCH  45  59
BRANCH  46  69
ATOM     69  C   UNL A   1      46.396  23.753  35.799  1.00  0.00    -0.014 A 
ATOM     70  C   UNL A   1      47.493  22.881  35.688  1.00  0.00     0.010 A 
ATOM     71  C   UNL A   1      45.516  23.610  36.888  1.00  0.00     0.010 A 
ATOM     72  C   UNL A   1      47.708  21.890  36.650  1.00  0.00     0.020 A 
ATOM     73  C   UNL A   1      45.742  22.637  37.866  1.00  0.00     0.020 A 
ATOM     74  C   UNL A   1      46.837  21.781  37.739  1.00  0.00     0.054 A 
BRANCH  74  75
ATOM     75  S   UNL A   1      47.192  20.547  39.022  1.00  0.00     0.124 S 
ATOM     76  O   UNL A   1      47.322  21.376  40.214  1.00  0.00    -0.237 OA
ATOM     77  O   UNL A   1      46.008  19.692  38.970  1.00  0.00    -0.237 OA
ATOM     78  O   UNL A   1      48.426  19.916  38.558  1.00  0.00    -0.744 OA
ENDBRANCH  74  75
ENDBRANCH  46  69
BRANCH  58  79
ATOM     79  C   UNL A   1      48.364  30.466  35.504  1.00  0.00    -0.014 A 
ATOM     80  C   UNL A   1      49.764  30.595  35.493  1.00  0.00     0.010 A 
ATOM     81  C   UNL A   1      47.606  31.283  36.364  1.00  0.00     0.010 A 
ATOM     82  C   UNL A   1      50.392  31.519  36.334  1.00  0.00     0.020 A 
ATOM     83  C   UNL A   1      48.228  32.224  37.186  1.00  0.00     0.020 A 
ATOM     84  C   UNL A   1      49.619  32.333  37.171  1.00  0.00     0.054 A 
BRANCH  84  85
ATOM     85  S   UNL A   1      50.452  33.579  38.192  1.00  0.00     0.124 S 
ATOM     86  O   UNL A   1      49.420  34.602  38.328  1.00  0.00    -0.237 OA
ATOM     87  O   UNL A   1      50.767  32.837  39.410  1.00  0.00    -0.237 OA
ATOM     88  O   UNL A   1      51.612  33.967  37.390  1.00  0.00    -0.744 OA
ENDBRANCH  84  85
ENDBRANCH  58  79
ENDBRANCH  32  33
ENDBRANCH  25  27
ENDBRANCH  24  25
ENDBRANCH  23  24
ENDBRANCH  22  23
ENDBRANCH  21  22
ENDBRANCH   1  21
TORSDOF 21
ENDMDL
MODEL 2
REMARK VINA RESULT:      -7.5      6.152      8.864
REMARK SMILES CC[C@@H](C)N(C)c1ccc(/C=C/C(=O)OCCOCCOC(=O)c2ccc(-c3c4nc(c(-c5ccc(S(=O)(=O)[O-])cc5)c5ccc([nH]5)c(-c5ccc(S(=O)(=O)[O-])cc5)c5nc(c(-c6ccc(S(=O)(=O)[O-])cc6)c6ccc3[nH]6)C=C5)C=C4)cc2)cc1F
REMARK SMILES IDX 17 1 16 2 15 3 13 4 14 5 12 6 11 7 10 8 7 9 8 10 85 11 9 12
REMARK SMILES IDX 84 13 86 14 5 15 6 16 3 17 4 18 2 19 1 20 18 21 19 22 20 23
REMARK SMILES IDX 21 24 22 25 23 26 24 27 25 28 83 29 26 30 82 31 27 32 28 33
REMARK SMILES IDX 29 34 76 35 30 36 81 37 75 38 77 39 31 40 80 41 74 42 73 43
REMARK SMILES IDX 32 45 62 46 43 47 61 48 44 49 47 50 60 51 78 52 45 53 46 54
REMARK SMILES IDX 59 56 79 57 48 58 33 59 34 60 42 61 35 62 41 63 36 64 37 65
REMARK SMILES IDX 38 66 39 67 40 68 63 69 64 70 72 71 65 72 71 73 66 74 67 75
REMARK SMILES IDX 68 76 69 77 70 78 49 79 50 80 58 81 51 82 57 83 52 84 53 85
REMARK SMILES IDX 54 86 55 87 56 88
REMARK H PARENT 77 44 47 55
REMARK Flexibility Score: inf
ROOT
ATOM      1  C   UNL A   1      41.507  20.148  27.273  1.00  0.00     0.202 C 
ENDROOT
BRANCH   1   2
ATOM      2  C   UNL A   1      41.925  21.614  27.144  1.00  0.00     0.261 C 
BRANCH   2   3
ATOM      3  O   UNL A   1      41.011  22.344  26.312  1.00  0.00    -0.460 OA
BRANCH   3   4
ATOM      4  C   UNL A   1      40.014  22.974  26.971  1.00  0.00     0.330 C 
ATOM      5  O   UNL A   1      40.125  23.695  27.953  1.00  0.00    -0.247 OA
BRANCH   4   6
ATOM      6  C   UNL A   1      38.699  22.777  26.326  1.00  0.00     0.094 C 
ATOM      7  C   UNL A   1      37.827  23.736  25.973  1.00  0.00     0.016 C 
BRANCH   7   8
ATOM      8  C   UNL A   1      36.535  23.453  25.320  1.00  0.00    -0.022 A 
ATOM      9  C   UNL A   1      33.976  23.114  24.082  1.00  0.00     0.073 A 
ATOM     10  C   UNL A   1      35.165  23.012  23.347  1.00  0.00     0.029 A 
ATOM     11  C   UNL A   1      34.119  23.284  25.470  1.00  0.00     0.147 A 
ATOM     12  C   UNL A   1      36.420  23.167  23.954  1.00  0.00     0.010 A 
ATOM     13  C   UNL A   1      35.366  23.460  26.081  1.00  0.00     0.049 A 
ATOM     14  F   UNL A   1      33.045  23.251  26.273  1.00  0.00    -0.205 F 
BRANCH   9  15
ATOM     15  N   UNL A   1      32.731  23.080  23.448  1.00  0.00    -0.370 N 
ATOM     16  C   UNL A   1      32.311  21.820  22.842  1.00  0.00     0.144 C 
BRANCH  15  17
ATOM     17  C   UNL A   1      32.153  24.327  22.881  1.00  0.00     0.078 C 
ATOM     18  C   UNL A   1      32.972  25.560  23.278  1.00  0.00     0.031 C 
BRANCH  17  19
ATOM     19  C   UNL A   1      30.658  24.477  23.205  1.00  0.00     0.021 C 
ATOM     20  C   UNL A   1      30.331  25.723  24.017  1.00  0.00     0.006 C 
ENDBRANCH  17  19
ENDBRANCH  15  17
ENDBRANCH   9  15
ENDBRANCH   7   8
ENDBRANCH   4   6
ENDBRANCH   3   4
ENDBRANCH   2   3
ENDBRANCH   1   2
BRANCH   1  21
ATOM     21  O   UNL A   1      41.949  19.277  26.233  1.00  0.00    -0.374 OA
BRANCH  21  22
ATOM     22  C   UNL A   1      43.022  18.385  26.545  1.00  0.00     0.202 C 
BRANCH  22  23
ATOM     23  C   UNL A   1      43.919  17.961  25.376  1.00  0.00     0.261 C 
BRANCH  23  24
ATOM     24  O   UNL A   1      45.052  18.834  25.221  1.00  0.00    -0.460 OA
BRANCH  24  25
ATOM     25  C   UNL A   1      44.967  19.707  24.189  1.00  0.00     0.338 C 
ATOM     26  O   UNL A   1      44.846  19.436  23.001  1.00  0.00    -0.246 OA
BRANCH  25  27
ATOM     27  C   UNL A   1      44.844  21.080  24.710  1.00  0.00     0.060 A 
ATOM     28  C   UNL A   1      44.291  22.056  23.868  1.00  0.00     0.016 A 
ATOM     29  C   UNL A   1      45.315  21.420  25.979  1.00  0.00     0.016 A 
ATOM     30  C   UNL A   1      44.256  23.389  24.272  1.00  0.00     0.010 A 
ATOM     31  C   UNL A   1      45.288  22.758  26.377  1.00  0.00     0.010 A 
ATOM     32  C   UNL A   1      44.795  23.752  25.511  1.00  0.00    -0.014 A 
BRANCH  32  33
ATOM     33  C   UNL A   1      45.018  25.178  25.846  1.00  0.00     0.031 A 
ATOM     34  C   UNL A   1      46.413  25.728  25.736  1.00  0.00     0.074 A 
ATOM     35  C   UNL A   1      44.011  25.959  26.272  1.00  0.00     0.049 A 
ATOM     36  N   UNL A   1      46.879  26.889  26.112  1.00  0.00    -0.248 NA
ATOM     37  C   UNL A   1      47.417  24.839  25.129  1.00  0.00     0.031 C 
ATOM     38  C   UNL A   1      42.610  25.557  26.371  1.00  0.00     0.029 A 
ATOM     39  N   UNL A   1      44.025  27.253  26.729  1.00  0.00    -0.354 N 
ATOM     40  C   UNL A   1      48.236  26.863  25.813  1.00  0.00     0.074 A 
ATOM     41  C   UNL A   1      48.520  25.564  25.243  1.00  0.00     0.031 C 
ATOM     42  C   UNL A   1      41.900  26.576  26.884  1.00  0.00     0.029 A 
ATOM     43  C   UNL A   1      42.806  27.683  27.191  1.00  0.00     0.049 A 
ATOM     44  H   UNL A   1      44.831  27.819  26.724  1.00  0.00     0.167 HD
ATOM     45  C   UNL A   1      49.163  27.832  25.999  1.00  0.00     0.031 A 
ATOM     46  C   UNL A   1      42.465  28.822  27.826  1.00  0.00     0.031 A 
ATOM     47  C   UNL A   1      48.874  29.113  26.586  1.00  0.00     0.049 A 
ATOM     48  C   UNL A   1      43.520  29.865  28.091  1.00  0.00     0.074 A 
ATOM     49  C   UNL A   1      49.737  30.170  26.815  1.00  0.00     0.029 A 
ATOM     50  N   UNL A   1      47.626  29.507  27.045  1.00  0.00    -0.354 N 
ATOM     51  N   UNL A   1      44.799  29.832  27.799  1.00  0.00    -0.248 NA
ATOM     52  C   UNL A   1      43.087  31.097  28.763  1.00  0.00     0.031 C 
ATOM     53  C   UNL A   1      49.022  31.182  27.465  1.00  0.00     0.029 A 
ATOM     54  C   UNL A   1      47.699  30.783  27.576  1.00  0.00     0.049 A 
ATOM     55  H   UNL A   1      46.809  28.961  27.000  1.00  0.00     0.167 HD
ATOM     56  C   UNL A   1      45.316  31.054  28.218  1.00  0.00     0.074 A 
ATOM     57  C   UNL A   1      44.212  31.801  28.787  1.00  0.00     0.031 C 
ATOM     58  C   UNL A   1      46.588  31.518  28.129  1.00  0.00     0.031 A 
BRANCH  45  59
ATOM     59  C   UNL A   1      50.582  27.511  25.612  1.00  0.00    -0.014 A 
ATOM     60  C   UNL A   1      51.492  26.972  26.540  1.00  0.00     0.010 A 
ATOM     61  C   UNL A   1      51.016  27.761  24.297  1.00  0.00     0.010 A 
ATOM     62  C   UNL A   1      52.824  26.750  26.178  1.00  0.00     0.020 A 
ATOM     63  C   UNL A   1      52.339  27.510  23.922  1.00  0.00     0.020 A 
ATOM     64  C   UNL A   1      53.241  27.032  24.873  1.00  0.00     0.054 A 
BRANCH  64  65
ATOM     65  S   UNL A   1      54.978  26.754  24.434  1.00  0.00     0.124 S 
ATOM     66  O   UNL A   1      55.255  25.482  25.099  1.00  0.00    -0.237 OA
ATOM     67  O   UNL A   1      54.938  26.704  22.976  1.00  0.00    -0.237 OA
ATOM     68  O   UNL A   1      55.668  27.912  24.997  1.00  0.00    -0.744 OA
ENDBRANCH  64  65
ENDBRANCH  45  59
BRANCH  46  69
ATOM     69  C   UNL A   1      41.058  29.018  28.270  1.00  0.00    -0.014 A 
ATOM     70  C   UNL A   1      40.742  29.092  29.637  1.00  0.00     0.010 A 
ATOM     71  C   UNL A   1      40.032  29.184  27.320  1.00  0.00     0.010 A 
ATOM     72  C   UNL A   1      39.427  29.334  30.046  1.00  0.00     0.020 A 
ATOM     73  C   UNL A   1      38.721  29.452  27.725  1.00  0.00     0.020 A 
ATOM     74  C   UNL A   1      38.426  29.522  29.088  1.00  0.00     0.054 A 
BRANCH  74  75
ATOM     75  S   UNL A   1      36.747  29.926  29.644  1.00  0.00     0.124 S 
ATOM     76  O   UNL A   1      36.783  31.383  29.690  1.00  0.00    -0.237 OA
ATOM     77  O   UNL A   1      35.919  29.344  28.590  1.00  0.00    -0.237 OA
ATOM     78  O   UNL A   1      36.647  29.260  30.941  1.00  0.00    -0.744 OA
ENDBRANCH  74  75
ENDBRANCH  46  69
BRANCH  58  79
ATOM     79  C   UNL A   1      46.861  32.923  28.601  1.00  0.00    -0.014 A 
ATOM     80  C   UNL A   1      46.708  34.029  27.748  1.00  0.00     0.010 A 
ATOM     81  C   UNL A   1      47.175  33.139  29.956  1.00  0.00     0.010 A 
ATOM     82  C   UNL A   1      46.873  35.327  28.241  1.00  0.00     0.020 A 
ATOM     83  C   UNL A   1      47.316  34.435  30.457  1.00  0.00     0.020 A 
ATOM     84  C   UNL A   1      47.170  35.522  29.595  1.00  0.00     0.054 A 
BRANCH  84  85
ATOM     85  S   UNL A   1      47.300  37.217  30.227  1.00  0.00     0.124 S 
ATOM     86  O   UNL A   1      47.543  36.995  31.649  1.00  0.00    -0.237 OA
ATOM     87  O   UNL A   1      48.430  37.755  29.472  1.00  0.00    -0.237 OA
ATOM     88  O   UNL A   1      46.004  37.810  29.902  1.00  0.00    -0.744 OA
ENDBRANCH  84  85
ENDBRANCH  58  79
ENDBRANCH  32  33
ENDBRANCH  25  27
ENDBRANCH  24  25
ENDBRANCH  23  24
ENDBRANCH  22  23
ENDBRANCH  21  22
ENDBRANCH   1  21
TORSDOF 21
ENDMDL
MODEL 3
REMARK VINA RESULT:      -7.4      6.378     10.465
REMARK SMILES CC[C@@H](C)N(C)c1ccc(/C=C/C(=O)OCCOCCOC(=O)c2ccc(-c3c4nc(c(-c5ccc(S(=O)(=O)[O-])cc5)c5ccc([nH]5)c(-c5ccc(S(=O)(=O)[O-])cc5)c5nc(c(-c6ccc(S(=O)(=O)[O-])cc6)c6ccc3[nH]6)C=C5)C=C4)cc2)cc1F
REMARK SMILES IDX 17 1 16 2 15 3 13 4 14 5 12 6 11 7 10 8 7 9 8 10 85 11 9 12
REMARK SMILES IDX 84 13 86 14 5 15 6 16 3 17 4 18 2 19 1 20 18 21 19 22 20 23
REMARK SMILES IDX 21 24 22 25 23 26 24 27 25 28 83 29 26 30 82 31 27 32 28 33
REMARK SMILES IDX 29 34 76 35 30 36 81 37 75 38 77 39 31 40 80 41 74 42 73 43
REMARK SMILES IDX 32 45 62 46 43 47 61 48 44 49 47 50 60 51 78 52 45 53 46 54
REMARK SMILES IDX 59 56 79 57 48 58 33 59 34 60 42 61 35 62 41 63 36 64 37 65
REMARK SMILES IDX 38 66 39 67 40 68 63 69 64 70 72 71 65 72 71 73 66 74 67 75
REMARK SMILES IDX 68 76 69 77 70 78 49 79 50 80 58 81 51 82 57 83 52 84 53 85
REMARK SMILES IDX 54 86 55 87 56 88
REMARK H PARENT 77 44 47 55
REMARK Flexibility Score: inf
ROOT
ATOM      1  C   UNL A   1      42.280  21.570  27.349  1.00  0.00     0.202 C 
ENDROOT
BRANCH   1   2
ATOM      2  C   UNL A   1      40.804  21.208  27.170  1.00  0.00     0.261 C 
BRANCH   2   3
ATOM      3  O   UNL A   1      40.485  20.993  25.787  1.00  0.00    -0.460 OA
BRANCH   3   4
ATOM      4  C   UNL A   1      39.425  20.186  25.561  1.00  0.00     0.330 C 
ATOM      5  O   UNL A   1      39.375  18.976  25.735  1.00  0.00    -0.247 OA
BRANCH   4   6
ATOM      6  C   UNL A   1      38.227  20.935  25.131  1.00  0.00     0.094 C 
ATOM      7  C   UNL A   1      37.799  22.112  25.618  1.00  0.00     0.016 C 
BRANCH   7   8
ATOM      8  C   UNL A   1      36.593  22.802  25.123  1.00  0.00    -0.022 A 
ATOM      9  C   UNL A   1      34.342  24.329  24.229  1.00  0.00     0.073 A 
ATOM     10  C   UNL A   1      35.198  23.685  23.324  1.00  0.00     0.029 A 
ATOM     11  C   UNL A   1      34.592  24.091  25.592  1.00  0.00     0.147 A 
ATOM     12  C   UNL A   1      36.295  22.928  23.761  1.00  0.00     0.010 A 
ATOM     13  C   UNL A   1      35.696  23.355  26.037  1.00  0.00     0.049 A 
ATOM     14  F   UNL A   1      33.745  24.548  26.527  1.00  0.00    -0.205 F 
BRANCH   9  15
ATOM     15  N   UNL A   1      33.327  25.179  23.782  1.00  0.00    -0.370 N 
ATOM     16  C   UNL A   1      32.497  24.721  22.672  1.00  0.00     0.144 C 
BRANCH  15  17
ATOM     17  C   UNL A   1      33.456  26.649  23.967  1.00  0.00     0.078 C 
ATOM     18  C   UNL A   1      32.560  27.155  25.102  1.00  0.00     0.031 C 
BRANCH  17  19
ATOM     19  C   UNL A   1      33.245  27.421  22.655  1.00  0.00     0.021 C 
ATOM     20  C   UNL A   1      33.264  28.934  22.827  1.00  0.00     0.006 C 
ENDBRANCH  17  19
ENDBRANCH  15  17
ENDBRANCH   9  15
ENDBRANCH   7   8
ENDBRANCH   4   6
ENDBRANCH   3   4
ENDBRANCH   2   3
ENDBRANCH   1   2
BRANCH   1  21
ATOM     21  O   UNL A   1      42.587  22.964  27.338  1.00  0.00    -0.374 OA
BRANCH  21  22
ATOM     22  C   UNL A   1      42.767  23.578  26.060  1.00  0.00     0.202 C 
BRANCH  22  23
ATOM     23  C   UNL A   1      41.888  24.800  25.761  1.00  0.00     0.261 C 
BRANCH  23  24
ATOM     24  O   UNL A   1      41.572  25.542  26.952  1.00  0.00    -0.460 OA
BRANCH  24  25
ATOM     25  C   UNL A   1      40.251  25.726  27.180  1.00  0.00     0.338 C 
ATOM     26  O   UNL A   1      39.324  25.059  26.736  1.00  0.00    -0.246 OA
BRANCH  25  27
ATOM     27  C   UNL A   1      40.065  26.754  28.219  1.00  0.00     0.060 A 
ATOM     28  C   UNL A   1      40.715  27.985  28.051  1.00  0.00     0.016 A 
ATOM     29  C   UNL A   1      39.315  26.498  29.368  1.00  0.00     0.016 A 
ATOM     30  C   UNL A   1      40.662  28.948  29.057  1.00  0.00     0.010 A 
ATOM     31  C   UNL A   1      39.271  27.460  30.379  1.00  0.00     0.010 A 
ATOM     32  C   UNL A   1      39.976  28.671  30.245  1.00  0.00    -0.014 A 
BRANCH  32  33
ATOM     33  C   UNL A   1      40.130  29.552  31.426  1.00  0.00     0.031 A 
ATOM     34  C   UNL A   1      41.275  29.294  32.365  1.00  0.00     0.074 A 
ATOM     35  C   UNL A   1      39.253  30.538  31.679  1.00  0.00     0.049 A 
ATOM     36  N   UNL A   1      41.529  29.829  33.530  1.00  0.00    -0.248 NA
ATOM     37  C   UNL A   1      42.259  28.289  31.932  1.00  0.00     0.031 C 
ATOM     38  C   UNL A   1      38.135  30.919  30.818  1.00  0.00     0.029 A 
ATOM     39  N   UNL A   1      39.155  31.383  32.755  1.00  0.00    -0.354 N 
ATOM     40  C   UNL A   1      42.687  29.206  33.984  1.00  0.00     0.074 A 
ATOM     41  C   UNL A   1      43.072  28.241  32.976  1.00  0.00     0.031 C 
ATOM     42  C   UNL A   1      37.444  31.906  31.414  1.00  0.00     0.029 A 
ATOM     43  C   UNL A   1      38.046  32.193  32.715  1.00  0.00     0.049 A 
ATOM     44  H   UNL A   1      39.815  31.408  33.484  1.00  0.00     0.167 HD
ATOM     45  C   UNL A   1      43.365  29.416  35.136  1.00  0.00     0.031 A 
ATOM     46  C   UNL A   1      37.550  33.040  33.639  1.00  0.00     0.031 A 
ATOM     47  C   UNL A   1      42.961  30.364  36.140  1.00  0.00     0.049 A 
ATOM     48  C   UNL A   1      38.276  33.213  34.948  1.00  0.00     0.074 A 
ATOM     49  C   UNL A   1      43.579  30.660  37.342  1.00  0.00     0.029 A 
ATOM     50  N   UNL A   1      41.829  31.161  36.063  1.00  0.00    -0.354 N 
ATOM     51  N   UNL A   1      39.372  32.624  35.364  1.00  0.00    -0.248 NA
ATOM     52  C   UNL A   1      37.704  34.168  35.907  1.00  0.00     0.031 C 
ATOM     53  C   UNL A   1      42.789  31.597  38.017  1.00  0.00     0.029 A 
ATOM     54  C   UNL A   1      41.718  31.936  37.205  1.00  0.00     0.049 A 
ATOM     55  H   UNL A   1      41.198  31.175  35.308  1.00  0.00     0.167 HD
ATOM     56  C   UNL A   1      39.642  33.164  36.618  1.00  0.00     0.074 A 
ATOM     57  C   UNL A   1      38.592  34.124  36.893  1.00  0.00     0.031 C 
ATOM     58  C   UNL A   1      40.672  32.896  37.459  1.00  0.00     0.031 A 
BRANCH  45  59
ATOM     59  C   UNL A   1      44.579  28.562  35.386  1.00  0.00    -0.014 A 
ATOM     60  C   UNL A   1      45.855  28.949  34.936  1.00  0.00     0.010 A 
ATOM     61  C   UNL A   1      44.440  27.345  36.078  1.00  0.00     0.010 A 
ATOM     62  C   UNL A   1      46.955  28.105  35.116  1.00  0.00     0.020 A 
ATOM     63  C   UNL A   1      45.543  26.512  36.288  1.00  0.00     0.020 A 
ATOM     64  C   UNL A   1      46.789  26.886  35.781  1.00  0.00     0.054 A 
BRANCH  64  65
ATOM     65  S   UNL A   1      48.227  25.801  35.984  1.00  0.00     0.124 S 
ATOM     66  O   UNL A   1      47.708  24.784  36.896  1.00  0.00    -0.237 OA
ATOM     67  O   UNL A   1      48.483  25.348  34.620  1.00  0.00    -0.237 OA
ATOM     68  O   UNL A   1      49.248  26.679  36.549  1.00  0.00    -0.744 OA
ENDBRANCH  64  65
ENDBRANCH  45  59
BRANCH  46  69
ATOM     69  C   UNL A   1      36.285  33.771  33.356  1.00  0.00    -0.014 A 
ATOM     70  C   UNL A   1      36.310  35.040  32.753  1.00  0.00     0.010 A 
ATOM     71  C   UNL A   1      35.043  33.174  33.643  1.00  0.00     0.010 A 
ATOM     72  C   UNL A   1      35.117  35.696  32.437  1.00  0.00     0.020 A 
ATOM     73  C   UNL A   1      33.848  33.816  33.305  1.00  0.00     0.020 A 
ATOM     74  C   UNL A   1      33.893  35.075  32.706  1.00  0.00     0.054 A 
BRANCH  74  75
ATOM     75  S   UNL A   1      32.361  35.908  32.202  1.00  0.00     0.124 S 
ATOM     76  O   UNL A   1      32.430  37.155  32.954  1.00  0.00    -0.237 OA
ATOM     77  O   UNL A   1      32.531  36.028  30.756  1.00  0.00    -0.237 OA
ATOM     78  O   UNL A   1      31.313  34.979  32.621  1.00  0.00    -0.744 OA
ENDBRANCH  74  75
ENDBRANCH  46  69
BRANCH  58  79
ATOM     79  C   UNL A   1      40.763  33.688  38.738  1.00  0.00    -0.014 A 
ATOM     80  C   UNL A   1      41.447  34.914  38.798  1.00  0.00     0.010 A 
ATOM     81  C   UNL A   1      40.058  33.239  39.871  1.00  0.00     0.010 A 
ATOM     82  C   UNL A   1      41.431  35.672  39.973  1.00  0.00     0.020 A 
ATOM     83  C   UNL A   1      40.020  34.005  41.037  1.00  0.00     0.020 A 
ATOM     84  C   UNL A   1      40.712  35.216  41.084  1.00  0.00     0.054 A 
BRANCH  84  85
ATOM     85  S   UNL A   1      40.640  36.257  42.567  1.00  0.00     0.124 S 
ATOM     86  O   UNL A   1      41.397  37.434  42.152  1.00  0.00    -0.237 OA
ATOM     87  O   UNL A   1      39.204  36.462  42.745  1.00  0.00    -0.237 OA
ATOM     88  O   UNL A   1      41.277  35.438  43.597  1.00  0.00    -0.744 OA
ENDBRANCH  84  85
ENDBRANCH  58  79
ENDBRANCH  32  33
ENDBRANCH  25  27
ENDBRANCH  24  25
ENDBRANCH  23  24
ENDBRANCH  22  23
ENDBRANCH  21  22
ENDBRANCH   1  21
TORSDOF 21
ENDMDL
