MODEL 1
REMARK VINA RESULT:     -10.4      0.000      0.000
REMARK SMILES C[C@@H](C(=O)OCCOCCOC(=O)c1ccc(-c2c3nc(c(-c4ccc(S(=O)(=O)[O-])cc4)c4ccc([nH]4)c(-c4ccc(S(=O)(=O)[O-])cc4)c4nc(c(-c5ccc(S(=O)(=O)[O-])cc5)c5ccc2[nH]5)C=C4)C=C3)cc1)c1cc(/C=C/S(C)(=O)=O)cc(C(=O)c2ccccc2)c1
REMARK SMILES IDX 8 1 7 2 6 3 5 4 3 5 4 6 2 7 1 8 74 9 75 10 93 11 76 12 84 13
REMARK SMILES IDX 83 14 77 15 78 16 79 17 80 18 81 19 82 20 85 21 86 22 87 23
REMARK SMILES IDX 88 24 92 25 89 26 91 27 90 28 9 29 10 30 11 31 12 32 13 33
REMARK SMILES IDX 14 34 15 35 73 36 16 37 72 38 17 39 18 40 19 41 66 42 20 43
REMARK SMILES IDX 71 44 65 45 67 46 21 47 70 48 64 49 63 50 22 52 52 53 33 54
REMARK SMILES IDX 51 55 34 56 37 57 50 58 68 59 35 60 36 61 49 63 69 64 38 65
REMARK SMILES IDX 23 66 24 67 32 68 25 69 31 70 26 71 27 72 28 73 29 74 30 75
REMARK SMILES IDX 53 76 54 77 62 78 55 79 61 80 56 81 57 82 58 83 59 84 60 85
REMARK SMILES IDX 39 86 40 87 48 88 41 89 47 90 42 91 43 92 44 93 45 94 46 95
REMARK H PARENT 67 51 37 62
REMARK Flexibility Score: inf
ROOT
ATOM      1  O   UNL A   1      43.265  21.810  26.375  1.00  0.00    -0.374 OA
ENDROOT
BRANCH   1   2
ATOM      2  C   UNL A   1      41.962  21.588  26.923  1.00  0.00     0.202 C 
BRANCH   2   3
ATOM      3  C   UNL A   1      40.858  21.164  25.948  1.00  0.00     0.261 C 
BRANCH   3   4
ATOM      4  O   UNL A   1      39.570  21.594  26.431  1.00  0.00    -0.463 OA
BRANCH   4   5
ATOM      5  C   UNL A   1      38.532  21.427  25.572  1.00  0.00     0.313 C 
ATOM      6  O   UNL A   1      38.206  20.347  25.089  1.00  0.00    -0.252 OA
BRANCH   5   7
ATOM      7  C   UNL A   1      37.782  22.735  25.282  1.00  0.00     0.126 C 
ATOM      8  C   UNL A   1      37.959  23.873  26.288  1.00  0.00     0.025 C 
BRANCH   7   9
ATOM      9  C   UNL A   1      36.304  22.437  25.029  1.00  0.00    -0.033 A 
ATOM     10  C   UNL A   1      35.762  21.149  25.167  1.00  0.00     0.012 A 
ATOM     11  C   UNL A   1      35.494  23.437  24.500  1.00  0.00     0.016 A 
ATOM     12  C   UNL A   1      34.490  20.810  24.678  1.00  0.00    -0.024 A 
ATOM     13  C   UNL A   1      34.222  23.134  23.998  1.00  0.00     0.023 A 
ATOM     14  C   UNL A   1      33.722  21.825  24.096  1.00  0.00     0.020 A 
BRANCH  12  15
ATOM     15  C   UNL A   1      33.966  19.427  24.718  1.00  0.00     0.020 C 
ATOM     16  C   UNL A   1      34.703  18.335  24.458  1.00  0.00     0.106 C 
BRANCH  16  17
ATOM     17  S   UNL A   1      33.991  16.752  24.466  1.00  0.00     0.168 S 
ATOM     18  C   UNL A   1      32.304  17.133  24.889  1.00  0.00     0.163 C 
ATOM     19  O   UNL A   1      33.989  16.243  23.108  1.00  0.00    -0.225 OA
ATOM     20  O   UNL A   1      34.541  15.964  25.551  1.00  0.00    -0.225 OA
ENDBRANCH  16  17
ENDBRANCH  12  15
BRANCH  13  21
ATOM     21  C   UNL A   1      33.400  24.184  23.332  1.00  0.00     0.193 C 
ATOM     22  O   UNL A   1      33.372  24.279  22.110  1.00  0.00    -0.289 OA
BRANCH  21  23
ATOM     23  C   UNL A   1      32.558  25.091  24.147  1.00  0.00     0.022 A 
ATOM     24  C   UNL A   1      32.087  26.264  23.553  1.00  0.00     0.012 A 
ATOM     25  C   UNL A   1      32.163  24.743  25.446  1.00  0.00     0.012 A 
ATOM     26  C   UNL A   1      31.175  27.064  24.240  1.00  0.00     0.001 A 
ATOM     27  C   UNL A   1      31.241  25.541  26.123  1.00  0.00     0.001 A 
ATOM     28  C   UNL A   1      30.743  26.695  25.516  1.00  0.00     0.000 A 
ENDBRANCH  21  23
ENDBRANCH  13  21
ENDBRANCH   7   9
ENDBRANCH   5   7
ENDBRANCH   4   5
ENDBRANCH   3   4
ENDBRANCH   2   3
ENDBRANCH   1   2
BRANCH   1  29
ATOM     29  C   UNL A   1      44.122  22.701  27.078  1.00  0.00     0.202 C 
BRANCH  29  30
ATOM     30  C   UNL A   1      44.985  23.693  26.295  1.00  0.00     0.261 C 
BRANCH  30  31
ATOM     31  O   UNL A   1      44.669  25.049  26.608  1.00  0.00    -0.460 OA
BRANCH  31  32
ATOM     32  C   UNL A   1      43.463  25.434  26.130  1.00  0.00     0.338 C 
ATOM     33  O   UNL A   1      42.907  25.035  25.116  1.00  0.00    -0.246 OA
BRANCH  32  34
ATOM     34  C   UNL A   1      42.790  26.270  27.132  1.00  0.00     0.060 A 
ATOM     35  C   UNL A   1      43.109  27.633  27.132  1.00  0.00     0.016 A 
ATOM     36  C   UNL A   1      41.897  25.738  28.063  1.00  0.00     0.016 A 
ATOM     37  C   UNL A   1      42.586  28.464  28.111  1.00  0.00     0.010 A 
ATOM     38  C   UNL A   1      41.378  26.572  29.053  1.00  0.00     0.010 A 
ATOM     39  C   UNL A   1      41.759  27.925  29.104  1.00  0.00    -0.014 A 
BRANCH  39  40
ATOM     40  C   UNL A   1      41.448  28.746  30.291  1.00  0.00     0.031 A 
ATOM     41  C   UNL A   1      42.326  28.613  31.504  1.00  0.00     0.074 A 
ATOM     42  C   UNL A   1      40.436  29.631  30.260  1.00  0.00     0.049 A 
ATOM     43  N   UNL A   1      42.244  29.229  32.653  1.00  0.00    -0.248 NA
ATOM     44  C   UNL A   1      43.445  27.660  31.408  1.00  0.00     0.031 C 
ATOM     45  C   UNL A   1      39.563  29.877  29.113  1.00  0.00     0.029 A 
ATOM     46  N   UNL A   1      39.981  30.491  31.224  1.00  0.00    -0.354 N 
ATOM     47  C   UNL A   1      43.289  28.728  33.421  1.00  0.00     0.074 A 
ATOM     48  C   UNL A   1      43.974  27.740  32.620  1.00  0.00     0.031 C 
ATOM     49  C   UNL A   1      38.673  30.829  29.442  1.00  0.00     0.029 A 
ATOM     50  C   UNL A   1      38.892  31.229  30.829  1.00  0.00     0.049 A 
ATOM     51  H   UNL A   1      40.393  30.571  32.114  1.00  0.00     0.167 HD
ATOM     52  C   UNL A   1      43.645  29.068  34.682  1.00  0.00     0.031 A 
ATOM     53  C   UNL A   1      38.148  32.114  31.521  1.00  0.00     0.031 A 
ATOM     54  C   UNL A   1      42.949  30.049  35.470  1.00  0.00     0.049 A 
ATOM     55  C   UNL A   1      38.519  32.418  32.948  1.00  0.00     0.074 A 
ATOM     56  C   UNL A   1      43.235  30.483  36.752  1.00  0.00     0.029 A 
ATOM     57  N   UNL A   1      41.821  30.741  35.055  1.00  0.00    -0.354 N 
ATOM     58  N   UNL A   1      39.523  31.955  33.656  1.00  0.00    -0.248 NA
ATOM     59  C   UNL A   1      37.663  33.370  33.667  1.00  0.00     0.031 C 
ATOM     60  C   UNL A   1      42.243  31.390  37.135  1.00  0.00     0.029 A 
ATOM     61  C   UNL A   1      41.378  31.576  36.067  1.00  0.00     0.049 A 
ATOM     62  H   UNL A   1      41.397  30.652  34.170  1.00  0.00     0.167 HD
ATOM     63  C   UNL A   1      39.436  32.584  34.894  1.00  0.00     0.074 A 
ATOM     64  C   UNL A   1      38.290  33.469  34.831  1.00  0.00     0.031 C 
ATOM     65  C   UNL A   1      40.233  32.447  35.982  1.00  0.00     0.031 A 
BRANCH  52  66
ATOM     66  C   UNL A   1      44.810  28.342  35.300  1.00  0.00    -0.014 A 
ATOM     67  C   UNL A   1      46.132  28.790  35.126  1.00  0.00     0.010 A 
ATOM     68  C   UNL A   1      44.572  27.211  36.102  1.00  0.00     0.010 A 
ATOM     69  C   UNL A   1      47.196  28.100  35.715  1.00  0.00     0.020 A 
ATOM     70  C   UNL A   1      45.630  26.535  36.717  1.00  0.00     0.020 A 
ATOM     71  C   UNL A   1      46.937  26.977  36.507  1.00  0.00     0.054 A 
BRANCH  71  72
ATOM     72  S   UNL A   1      48.334  26.119  37.284  1.00  0.00     0.124 S 
ATOM     73  O   UNL A   1      47.673  24.980  37.916  1.00  0.00    -0.237 OA
ATOM     74  O   UNL A   1      49.185  25.798  36.143  1.00  0.00    -0.237 OA
ATOM     75  O   UNL A   1      48.880  27.111  38.208  1.00  0.00    -0.744 OA
ENDBRANCH  71  72
ENDBRANCH  52  66
BRANCH  53  76
ATOM     76  C   UNL A   1      36.970  32.757  30.878  1.00  0.00    -0.014 A 
ATOM     77  C   UNL A   1      35.687  32.198  31.005  1.00  0.00     0.010 A 
ATOM     78  C   UNL A   1      37.129  33.940  30.134  1.00  0.00     0.010 A 
ATOM     79  C   UNL A   1      34.588  32.800  30.385  1.00  0.00     0.020 A 
ATOM     80  C   UNL A   1      36.029  34.562  29.538  1.00  0.00     0.020 A 
ATOM     81  C   UNL A   1      34.767  33.980  29.658  1.00  0.00     0.054 A 
BRANCH  81  82
ATOM     82  S   UNL A   1      33.318  34.771  28.901  1.00  0.00     0.124 S 
ATOM     83  O   UNL A   1      32.507  35.098  30.070  1.00  0.00    -0.237 OA
ATOM     84  O   UNL A   1      33.912  35.907  28.202  1.00  0.00    -0.237 OA
ATOM     85  O   UNL A   1      32.776  33.729  28.033  1.00  0.00    -0.744 OA
ENDBRANCH  81  82
ENDBRANCH  53  76
BRANCH  65  86
ATOM     86  C   UNL A   1      39.919  33.300  37.184  1.00  0.00    -0.014 A 
ATOM     87  C   UNL A   1      40.539  34.546  37.379  1.00  0.00     0.010 A 
ATOM     88  C   UNL A   1      38.944  32.866  38.102  1.00  0.00     0.010 A 
ATOM     89  C   UNL A   1      40.212  35.329  38.489  1.00  0.00     0.020 A 
ATOM     90  C   UNL A   1      38.591  33.661  39.194  1.00  0.00     0.020 A 
ATOM     91  C   UNL A   1      39.240  34.882  39.389  1.00  0.00     0.054 A 
BRANCH  91  92
ATOM     92  S   UNL A   1      38.804  35.936  40.799  1.00  0.00     0.124 S 
ATOM     93  O   UNL A   1      38.562  37.222  40.151  1.00  0.00    -0.237 OA
ATOM     94  O   UNL A   1      37.621  35.272  41.340  1.00  0.00    -0.237 OA
ATOM     95  O   UNL A   1      39.989  35.882  41.653  1.00  0.00    -0.744 OA
ENDBRANCH  91  92
ENDBRANCH  65  86
ENDBRANCH  39  40
ENDBRANCH  32  34
ENDBRANCH  31  32
ENDBRANCH  30  31
ENDBRANCH  29  30
ENDBRANCH   1  29
TORSDOF 22
ENDMDL
MODEL 2
REMARK VINA RESULT:     -10.2      5.266     10.544
REMARK SMILES C[C@@H](C(=O)OCCOCCOC(=O)c1ccc(-c2c3nc(c(-c4ccc(S(=O)(=O)[O-])cc4)c4ccc([nH]4)c(-c4ccc(S(=O)(=O)[O-])cc4)c4nc(c(-c5ccc(S(=O)(=O)[O-])cc5)c5ccc2[nH]5)C=C4)C=C3)cc1)c1cc(/C=C/S(C)(=O)=O)cc(C(=O)c2ccccc2)c1
REMARK SMILES IDX 8 1 7 2 6 3 5 4 3 5 4 6 2 7 1 8 74 9 75 10 93 11 76 12 84 13
REMARK SMILES IDX 83 14 77 15 78 16 79 17 80 18 81 19 82 20 85 21 86 22 87 23
REMARK SMILES IDX 88 24 92 25 89 26 91 27 90 28 9 29 10 30 11 31 12 32 13 33
REMARK SMILES IDX 14 34 15 35 73 36 16 37 72 38 17 39 18 40 19 41 66 42 20 43
REMARK SMILES IDX 71 44 65 45 67 46 21 47 70 48 64 49 63 50 22 52 52 53 33 54
REMARK SMILES IDX 51 55 34 56 37 57 50 58 68 59 35 60 36 61 49 63 69 64 38 65
REMARK SMILES IDX 23 66 24 67 32 68 25 69 31 70 26 71 27 72 28 73 29 74 30 75
REMARK SMILES IDX 53 76 54 77 62 78 55 79 61 80 56 81 57 82 58 83 59 84 60 85
REMARK SMILES IDX 39 86 40 87 48 88 41 89 47 90 42 91 43 92 44 93 45 94 46 95
REMARK H PARENT 67 51 37 62
REMARK Flexibility Score: inf
ROOT
ATOM      1  O   UNL A   1      35.771  21.556  24.279  1.00  0.00    -0.374 OA
ENDROOT
BRANCH   1   2
ATOM      2  C   UNL A   1      35.702  22.758  23.504  1.00  0.00     0.202 C 
BRANCH   2   3
ATOM      3  C   UNL A   1      34.308  23.240  23.087  1.00  0.00     0.261 C 
BRANCH   3   4
ATOM      4  O   UNL A   1      34.346  24.637  22.734  1.00  0.00    -0.463 OA
BRANCH   4   5
ATOM      5  C   UNL A   1      33.492  25.019  21.750  1.00  0.00     0.313 C 
ATOM      6  O   UNL A   1      33.031  24.259  20.904  1.00  0.00    -0.252 OA
BRANCH   5   7
ATOM      7  C   UNL A   1      33.135  26.512  21.819  1.00  0.00     0.126 C 
ATOM      8  C   UNL A   1      34.230  27.466  22.295  1.00  0.00     0.025 C 
BRANCH   7   9
ATOM      9  C   UNL A   1      31.845  26.697  22.618  1.00  0.00    -0.033 A 
ATOM     10  C   UNL A   1      31.004  27.809  22.441  1.00  0.00     0.012 A 
ATOM     11  C   UNL A   1      31.562  25.819  23.659  1.00  0.00     0.016 A 
ATOM     12  C   UNL A   1      29.979  28.128  23.345  1.00  0.00    -0.024 A 
ATOM     13  C   UNL A   1      30.551  26.110  24.583  1.00  0.00     0.023 A 
ATOM     14  C   UNL A   1      29.758  27.257  24.419  1.00  0.00     0.020 A 
BRANCH  12  15
ATOM     15  C   UNL A   1      29.170  29.361  23.225  1.00  0.00     0.020 C 
ATOM     16  C   UNL A   1      29.237  30.208  22.185  1.00  0.00     0.106 C 
BRANCH  16  17
ATOM     17  S   UNL A   1      28.296  31.666  22.156  1.00  0.00     0.168 S 
ATOM     18  C   UNL A   1      27.306  31.470  23.621  1.00  0.00     0.163 C 
ATOM     19  O   UNL A   1      29.184  32.790  22.384  1.00  0.00    -0.225 OA
ATOM     20  O   UNL A   1      27.394  31.654  21.020  1.00  0.00    -0.225 OA
ENDBRANCH  16  17
ENDBRANCH  12  15
BRANCH  13  21
ATOM     21  C   UNL A   1      30.323  25.225  25.761  1.00  0.00     0.193 C 
ATOM     22  O   UNL A   1      29.380  25.420  26.520  1.00  0.00    -0.289 OA
BRANCH  21  23
ATOM     23  C   UNL A   1      31.208  24.058  25.991  1.00  0.00     0.022 A 
ATOM     24  C   UNL A   1      30.866  22.844  25.390  1.00  0.00     0.012 A 
ATOM     25  C   UNL A   1      32.404  24.185  26.710  1.00  0.00     0.012 A 
ATOM     26  C   UNL A   1      31.750  21.769  25.464  1.00  0.00     0.001 A 
ATOM     27  C   UNL A   1      33.289  23.109  26.770  1.00  0.00     0.001 A 
ATOM     28  C   UNL A   1      32.964  21.906  26.140  1.00  0.00     0.000 A 
ENDBRANCH  21  23
ENDBRANCH  13  21
ENDBRANCH   7   9
ENDBRANCH   5   7
ENDBRANCH   4   5
ENDBRANCH   3   4
ENDBRANCH   2   3
ENDBRANCH   1   2
BRANCH   1  29
ATOM     29  C   UNL A   1      37.046  21.184  24.787  1.00  0.00     0.202 C 
BRANCH  29  30
ATOM     30  C   UNL A   1      37.716  22.052  25.853  1.00  0.00     0.261 C 
BRANCH  30  31
ATOM     31  O   UNL A   1      39.121  22.184  25.638  1.00  0.00    -0.460 OA
BRANCH  31  32
ATOM     32  C   UNL A   1      39.849  21.981  26.760  1.00  0.00     0.338 C 
ATOM     33  O   UNL A   1      40.248  20.911  27.200  1.00  0.00    -0.246 OA
BRANCH  32  34
ATOM     34  C   UNL A   1      40.291  23.276  27.291  1.00  0.00     0.060 A 
ATOM     35  C   UNL A   1      39.920  24.414  26.563  1.00  0.00     0.016 A 
ATOM     36  C   UNL A   1      41.067  23.380  28.446  1.00  0.00     0.016 A 
ATOM     37  C   UNL A   1      40.384  25.662  26.952  1.00  0.00     0.010 A 
ATOM     38  C   UNL A   1      41.540  24.634  28.832  1.00  0.00     0.010 A 
ATOM     39  C   UNL A   1      41.236  25.768  28.057  1.00  0.00    -0.014 A 
BRANCH  39  40
ATOM     40  C   UNL A   1      41.947  27.042  28.285  1.00  0.00     0.031 A 
ATOM     41  C   UNL A   1      41.163  28.220  28.793  1.00  0.00     0.074 A 
ATOM     42  C   UNL A   1      43.275  27.123  28.095  1.00  0.00     0.049 A 
ATOM     43  N   UNL A   1      41.573  29.430  29.063  1.00  0.00    -0.248 NA
ATOM     44  C   UNL A   1      39.724  28.004  29.028  1.00  0.00     0.031 C 
ATOM     45  C   UNL A   1      44.136  26.023  27.661  1.00  0.00     0.029 A 
ATOM     46  N   UNL A   1      44.131  28.182  28.252  1.00  0.00    -0.354 N 
ATOM     47  C   UNL A   1      40.445  30.123  29.485  1.00  0.00     0.074 A 
ATOM     48  C   UNL A   1      39.328  29.209  29.410  1.00  0.00     0.031 C 
ATOM     49  C   UNL A   1      45.402  26.467  27.586  1.00  0.00     0.029 A 
ATOM     50  C   UNL A   1      45.433  27.885  27.930  1.00  0.00     0.049 A 
ATOM     51  H   UNL A   1      43.840  29.068  28.565  1.00  0.00     0.167 HD
ATOM     52  C   UNL A   1      40.352  31.407  29.902  1.00  0.00     0.031 A 
ATOM     53  C   UNL A   1      46.520  28.681  27.900  1.00  0.00     0.031 A 
ATOM     54  C   UNL A   1      41.471  32.308  29.965  1.00  0.00     0.049 A 
ATOM     55  C   UNL A   1      46.375  30.126  28.295  1.00  0.00     0.074 A 
ATOM     56  C   UNL A   1      41.493  33.624  30.389  1.00  0.00     0.029 A 
ATOM     57  N   UNL A   1      42.766  31.988  29.584  1.00  0.00    -0.354 N 
ATOM     58  N   UNL A   1      45.306  30.764  28.714  1.00  0.00    -0.248 NA
ATOM     59  C   UNL A   1      47.584  30.957  28.222  1.00  0.00     0.031 C 
ATOM     60  C   UNL A   1      42.787  34.119  30.203  1.00  0.00     0.029 A 
ATOM     61  C   UNL A   1      43.589  33.090  29.732  1.00  0.00     0.049 A 
ATOM     62  H   UNL A   1      43.057  31.105  29.257  1.00  0.00     0.167 HD
ATOM     63  C   UNL A   1      45.722  32.064  28.983  1.00  0.00     0.074 A 
ATOM     64  C   UNL A   1      47.142  32.116  28.694  1.00  0.00     0.031 C 
ATOM     65  C   UNL A   1      44.999  33.118  29.435  1.00  0.00     0.031 A 
BRANCH  52  66
ATOM     66  C   UNL A   1      38.989  31.925  30.276  1.00  0.00    -0.014 A 
ATOM     67  C   UNL A   1      38.161  32.565  29.335  1.00  0.00     0.010 A 
ATOM     68  C   UNL A   1      38.513  31.734  31.586  1.00  0.00     0.010 A 
ATOM     69  C   UNL A   1      36.897  33.032  29.708  1.00  0.00     0.020 A 
ATOM     70  C   UNL A   1      37.238  32.173  31.955  1.00  0.00     0.020 A 
ATOM     71  C   UNL A   1      36.444  32.833  31.016  1.00  0.00     0.054 A 
BRANCH  71  72
ATOM     72  S   UNL A   1      34.788  33.422  31.463  1.00  0.00     0.124 S 
ATOM     73  O   UNL A   1      34.111  33.427  30.169  1.00  0.00    -0.237 OA
ATOM     74  O   UNL A   1      34.332  32.405  32.406  1.00  0.00    -0.237 OA
ATOM     75  O   UNL A   1      35.033  34.742  32.042  1.00  0.00    -0.744 OA
ENDBRANCH  71  72
ENDBRANCH  52  66
BRANCH  53  76
ATOM     76  C   UNL A   1      47.831  28.130  27.463  1.00  0.00    -0.014 A 
ATOM     77  C   UNL A   1      48.692  27.509  28.383  1.00  0.00     0.010 A 
ATOM     78  C   UNL A   1      48.225  28.225  26.116  1.00  0.00     0.010 A 
ATOM     79  C   UNL A   1      49.930  27.008  27.968  1.00  0.00     0.020 A 
ATOM     80  C   UNL A   1      49.447  27.699  25.690  1.00  0.00     0.020 A 
ATOM     81  C   UNL A   1      50.298  27.105  26.623  1.00  0.00     0.054 A 
BRANCH  81  82
ATOM     82  S   UNL A   1      51.888  26.405  26.097  1.00  0.00     0.124 S 
ATOM     83  O   UNL A   1      51.869  25.095  26.740  1.00  0.00    -0.237 OA
ATOM     84  O   UNL A   1      51.762  26.401  24.642  1.00  0.00    -0.237 OA
ATOM     85  O   UNL A   1      52.868  27.350  26.627  1.00  0.00    -0.744 OA
ENDBRANCH  81  82
ENDBRANCH  53  76
BRANCH  65  86
ATOM     86  C   UNL A   1      45.735  34.410  29.680  1.00  0.00    -0.014 A 
ATOM     87  C   UNL A   1      46.396  34.656  30.895  1.00  0.00     0.010 A 
ATOM     88  C   UNL A   1      45.810  35.368  28.651  1.00  0.00     0.010 A 
ATOM     89  C   UNL A   1      47.092  35.852  31.089  1.00  0.00     0.020 A 
ATOM     90  C   UNL A   1      46.531  36.550  28.830  1.00  0.00     0.020 A 
ATOM     91  C   UNL A   1      47.156  36.791  30.055  1.00  0.00     0.054 A 
BRANCH  91  92
ATOM     92  S   UNL A   1      48.101  38.316  30.318  1.00  0.00     0.124 S 
ATOM     93  O   UNL A   1      48.927  38.371  29.116  1.00  0.00    -0.237 OA
ATOM     94  O   UNL A   1      47.053  39.330  30.407  1.00  0.00    -0.237 OA
ATOM     95  O   UNL A   1      48.826  38.066  31.562  1.00  0.00    -0.744 OA
ENDBRANCH  91  92
ENDBRANCH  65  86
ENDBRANCH  39  40
ENDBRANCH  32  34
ENDBRANCH  31  32
ENDBRANCH  30  31
ENDBRANCH  29  30
ENDBRANCH   1  29
TORSDOF 22
ENDMDL
MODEL 3
REMARK VINA RESULT:     -10.1      2.449      9.526
REMARK SMILES C[C@@H](C(=O)OCCOCCOC(=O)c1ccc(-c2c3nc(c(-c4ccc(S(=O)(=O)[O-])cc4)c4ccc([nH]4)c(-c4ccc(S(=O)(=O)[O-])cc4)c4nc(c(-c5ccc(S(=O)(=O)[O-])cc5)c5ccc2[nH]5)C=C4)C=C3)cc1)c1cc(/C=C/S(C)(=O)=O)cc(C(=O)c2ccccc2)c1
REMARK SMILES IDX 8 1 7 2 6 3 5 4 3 5 4 6 2 7 1 8 74 9 75 10 93 11 76 12 84 13
REMARK SMILES IDX 83 14 77 15 78 16 79 17 80 18 81 19 82 20 85 21 86 22 87 23
REMARK SMILES IDX 88 24 92 25 89 26 91 27 90 28 9 29 10 30 11 31 12 32 13 33
REMARK SMILES IDX 14 34 15 35 73 36 16 37 72 38 17 39 18 40 19 41 66 42 20 43
REMARK SMILES IDX 71 44 65 45 67 46 21 47 70 48 64 49 63 50 22 52 52 53 33 54
REMARK SMILES IDX 51 55 34 56 37 57 50 58 68 59 35 60 36 61 49 63 69 64 38 65
REMARK SMILES IDX 23 66 24 67 32 68 25 69 31 70 26 71 27 72 28 73 29 74 30 75
REMARK SMILES IDX 53 76 54 77 62 78 55 79 61 80 56 81 57 82 58 83 59 84 60 85
REMARK SMILES IDX 39 86 40 87 48 88 41 89 47 90 42 91 43 92 44 93 45 94 46 95
REMARK H PARENT 67 51 37 62
REMARK Flexibility Score: inf
ROOT
ATOM      1  O   UNL A   1      32.786  29.783  25.428  1.00  0.00    -0.374 OA
ENDROOT
BRANCH   1   2
ATOM      2  C   UNL A   1      33.128  28.465  24.987  1.00  0.00     0.202 C 
BRANCH   2   3
ATOM      3  C   UNL A   1      33.185  28.229  23.474  1.00  0.00     0.261 C 
BRANCH   3   4
ATOM      4  O   UNL A   1      32.153  27.308  23.070  1.00  0.00    -0.463 OA
BRANCH   4   5
ATOM      5  C   UNL A   1      32.248  26.055  23.582  1.00  0.00     0.313 C 
ATOM      6  O   UNL A   1      31.506  25.608  24.452  1.00  0.00    -0.252 OA
BRANCH   5   7
ATOM      7  C   UNL A   1      33.374  25.232  22.937  1.00  0.00     0.126 C 
ATOM      8  C   UNL A   1      33.097  24.643  21.554  1.00  0.00     0.025 C 
BRANCH   7   9
ATOM      9  C   UNL A   1      33.855  24.161  23.916  1.00  0.00    -0.033 A 
ATOM     10  C   UNL A   1      35.132  24.195  24.500  1.00  0.00     0.012 A 
ATOM     11  C   UNL A   1      33.067  23.033  24.126  1.00  0.00     0.016 A 
ATOM     12  C   UNL A   1      35.682  23.092  25.173  1.00  0.00    -0.024 A 
ATOM     13  C   UNL A   1      33.586  21.913  24.787  1.00  0.00     0.023 A 
ATOM     14  C   UNL A   1      34.886  21.949  25.315  1.00  0.00     0.020 A 
BRANCH  12  15
ATOM     15  C   UNL A   1      37.070  23.086  25.686  1.00  0.00     0.020 C 
ATOM     16  C   UNL A   1      37.713  24.177  26.132  1.00  0.00     0.106 C 
BRANCH  16  17
ATOM     17  S   UNL A   1      39.364  24.090  26.658  1.00  0.00     0.168 S 
ATOM     18  C   UNL A   1      39.218  24.620  28.351  1.00  0.00     0.163 C 
ATOM     19  O   UNL A   1      39.768  22.697  26.677  1.00  0.00    -0.225 OA
ATOM     20  O   UNL A   1      40.162  25.082  25.963  1.00  0.00    -0.225 OA
ENDBRANCH  16  17
ENDBRANCH  12  15
BRANCH  13  21
ATOM     21  C   UNL A   1      32.778  20.666  24.914  1.00  0.00     0.193 C 
ATOM     22  O   UNL A   1      31.743  20.652  25.573  1.00  0.00    -0.289 OA
BRANCH  21  23
ATOM     23  C   UNL A   1      33.192  19.440  24.192  1.00  0.00     0.022 A 
ATOM     24  C   UNL A   1      34.280  18.718  24.690  1.00  0.00     0.012 A 
ATOM     25  C   UNL A   1      32.462  18.962  23.096  1.00  0.00     0.012 A 
ATOM     26  C   UNL A   1      34.603  17.486  24.124  1.00  0.00     0.001 A 
ATOM     27  C   UNL A   1      32.784  17.722  22.542  1.00  0.00     0.001 A 
ATOM     28  C   UNL A   1      33.848  16.984  23.062  1.00  0.00     0.000 A 
ENDBRANCH  21  23
ENDBRANCH  13  21
ENDBRANCH   7   9
ENDBRANCH   5   7
ENDBRANCH   4   5
ENDBRANCH   3   4
ENDBRANCH   2   3
ENDBRANCH   1   2
BRANCH   1  29
ATOM     29  C   UNL A   1      32.829  30.030  26.828  1.00  0.00     0.202 C 
BRANCH  29  30
ATOM     30  C   UNL A   1      32.856  31.471  27.340  1.00  0.00     0.261 C 
BRANCH  30  31
ATOM     31  O   UNL A   1      34.169  32.030  27.314  1.00  0.00    -0.460 OA
BRANCH  31  32
ATOM     32  C   UNL A   1      34.568  32.498  28.519  1.00  0.00     0.338 C 
ATOM     33  O   UNL A   1      33.903  33.136  29.322  1.00  0.00    -0.246 OA
BRANCH  32  34
ATOM     34  C   UNL A   1      35.889  31.942  28.840  1.00  0.00     0.060 A 
ATOM     35  C   UNL A   1      35.928  30.597  29.228  1.00  0.00     0.016 A 
ATOM     36  C   UNL A   1      37.051  32.713  28.792  1.00  0.00     0.016 A 
ATOM     37  C   UNL A   1      37.126  30.032  29.638  1.00  0.00     0.010 A 
ATOM     38  C   UNL A   1      38.254  32.147  29.213  1.00  0.00     0.010 A 
ATOM     39  C   UNL A   1      38.282  30.820  29.679  1.00  0.00    -0.014 A 
BRANCH  39  40
ATOM     40  C   UNL A   1      39.472  30.300  30.383  1.00  0.00     0.031 A 
ATOM     41  C   UNL A   1      39.821  30.881  31.724  1.00  0.00     0.074 A 
ATOM     42  C   UNL A   1      40.187  29.291  29.856  1.00  0.00     0.049 A 
ATOM     43  N   UNL A   1      40.813  30.582  32.519  1.00  0.00    -0.248 NA
ATOM     44  C   UNL A   1      38.933  31.939  32.238  1.00  0.00     0.031 C 
ATOM     45  C   UNL A   1      39.896  28.620  28.589  1.00  0.00     0.029 A 
ATOM     46  N   UNL A   1      41.303  28.653  30.330  1.00  0.00    -0.354 N 
ATOM     47  C   UNL A   1      40.679  31.423  33.618  1.00  0.00     0.074 A 
ATOM     48  C   UNL A   1      39.527  32.262  33.377  1.00  0.00     0.031 C 
ATOM     49  C   UNL A   1      40.814  27.660  28.386  1.00  0.00     0.029 A 
ATOM     50  C   UNL A   1      41.774  27.676  29.486  1.00  0.00     0.049 A 
ATOM     51  H   UNL A   1      41.725  28.873  31.190  1.00  0.00     0.167 HD
ATOM     52  C   UNL A   1      41.448  31.484  34.730  1.00  0.00     0.031 A 
ATOM     53  C   UNL A   1      42.869  26.899  29.589  1.00  0.00     0.031 A 
ATOM     54  C   UNL A   1      42.596  30.648  34.953  1.00  0.00     0.049 A 
ATOM     55  C   UNL A   1      43.751  27.040  30.801  1.00  0.00     0.074 A 
ATOM     56  C   UNL A   1      43.435  30.613  36.053  1.00  0.00     0.029 A 
ATOM     57  N   UNL A   1      43.072  29.703  34.056  1.00  0.00    -0.354 N 
ATOM     58  N   UNL A   1      43.601  27.823  31.844  1.00  0.00    -0.248 NA
ATOM     59  C   UNL A   1      44.945  26.187  30.854  1.00  0.00     0.031 C 
ATOM     60  C   UNL A   1      44.456  29.695  35.791  1.00  0.00     0.029 A 
ATOM     61  C   UNL A   1      44.213  29.104  34.561  1.00  0.00     0.049 A 
ATOM     62  H   UNL A   1      42.659  29.490  33.187  1.00  0.00     0.167 HD
ATOM     63  C   UNL A   1      44.665  27.533  32.691  1.00  0.00     0.074 A 
ATOM     64  C   UNL A   1      45.442  26.495  32.044  1.00  0.00     0.031 C 
ATOM     65  C   UNL A   1      44.971  28.073  33.897  1.00  0.00     0.031 A 
BRANCH  52  66
ATOM     66  C   UNL A   1      41.099  32.519  35.766  1.00  0.00    -0.014 A 
ATOM     67  C   UNL A   1      41.719  33.782  35.782  1.00  0.00     0.010 A 
ATOM     68  C   UNL A   1      40.105  32.235  36.720  1.00  0.00     0.010 A 
ATOM     69  C   UNL A   1      41.374  34.728  36.752  1.00  0.00     0.020 A 
ATOM     70  C   UNL A   1      39.735  33.188  37.673  1.00  0.00     0.020 A 
ATOM     71  C   UNL A   1      40.384  34.424  37.691  1.00  0.00     0.054 A 
BRANCH  71  72
ATOM     72  S   UNL A   1      39.933  35.681  38.919  1.00  0.00     0.124 S 
ATOM     73  O   UNL A   1      38.838  35.028  39.631  1.00  0.00    -0.237 OA
ATOM     74  O   UNL A   1      41.169  35.841  39.679  1.00  0.00    -0.237 OA
ATOM     75  O   UNL A   1      39.548  36.836  38.110  1.00  0.00    -0.744 OA
ENDBRANCH  71  72
ENDBRANCH  52  66
BRANCH  53  76
ATOM     76  C   UNL A   1      43.199  25.934  28.505  1.00  0.00    -0.014 A 
ATOM     77  C   UNL A   1      43.733  26.379  27.284  1.00  0.00     0.010 A 
ATOM     78  C   UNL A   1      42.980  24.557  28.693  1.00  0.00     0.010 A 
ATOM     79  C   UNL A   1      44.026  25.467  26.265  1.00  0.00     0.020 A 
ATOM     80  C   UNL A   1      43.299  23.640  27.689  1.00  0.00     0.020 A 
ATOM     81  C   UNL A   1      43.809  24.103  26.476  1.00  0.00     0.054 A 
BRANCH  81  82
ATOM     82  S   UNL A   1      44.241  22.933  25.157  1.00  0.00     0.124 S 
ATOM     83  O   UNL A   1      45.010  23.775  24.246  1.00  0.00    -0.237 OA
ATOM     84  O   UNL A   1      45.001  21.916  25.878  1.00  0.00    -0.237 OA
ATOM     85  O   UNL A   1      42.942  22.490  24.656  1.00  0.00    -0.744 OA
ENDBRANCH  81  82
ENDBRANCH  53  76
BRANCH  65  86
ATOM     86  C   UNL A   1      46.176  27.525  34.616  1.00  0.00    -0.014 A 
ATOM     87  C   UNL A   1      46.076  26.419  35.477  1.00  0.00     0.010 A 
ATOM     88  C   UNL A   1      47.441  28.098  34.379  1.00  0.00     0.010 A 
ATOM     89  C   UNL A   1      47.213  25.915  36.113  1.00  0.00     0.020 A 
ATOM     90  C   UNL A   1      48.584  27.577  34.988  1.00  0.00     0.020 A 
ATOM     91  C   UNL A   1      48.460  26.497  35.864  1.00  0.00     0.054 A 
BRANCH  91  92
ATOM     92  S   UNL A   1      49.926  25.797  36.670  1.00  0.00     0.124 S 
ATOM     93  O   UNL A   1      50.983  26.132  35.719  1.00  0.00    -0.237 OA
ATOM     94  O   UNL A   1      49.969  26.520  37.938  1.00  0.00    -0.237 OA
ATOM     95  O   UNL A   1      49.616  24.374  36.781  1.00  0.00    -0.744 OA
ENDBRANCH  91  92
ENDBRANCH  65  86
ENDBRANCH  39  40
ENDBRANCH  32  34
ENDBRANCH  31  32
ENDBRANCH  30  31
ENDBRANCH  29  30
ENDBRANCH   1  29
TORSDOF 22
ENDMDL
