MODEL 1
REMARK VINA RESULT:      -9.5      0.000      0.000
REMARK SMILES O=C(OCCOCCOC(=O)[C@]1(CCc2ccccc2)C[C@H]2CC[C@@H]1O2)c1ccc(-c2c3nc(c(-c4ccc(S(=O)(=O)[O-])cc4)c4ccc([nH]4)c(-c4ccc(S(=O)(=O)[O-])cc4)c4nc(c(-c5ccc(S(=O)(=O)[O-])cc5)c5ccc2[nH]5)C=C4)C=C3)cc1
REMARK SMILES IDX 6 1 5 2 4 3 3 4 2 5 1 6 27 7 28 8 86 9 29 10 85 11 30 12
REMARK SMILES IDX 31 13 32 14 79 15 33 16 84 17 78 18 80 19 34 20 83 21 77 22
REMARK SMILES IDX 76 23 35 25 65 26 46 27 64 28 47 29 50 30 63 31 81 32 48 33
REMARK SMILES IDX 49 34 62 36 82 37 51 38 36 39 37 40 45 41 38 42 44 43 39 44
REMARK SMILES IDX 40 45 41 46 42 47 43 48 66 49 67 50 75 51 68 52 74 53 69 54
REMARK SMILES IDX 70 55 71 56 72 57 73 58 52 59 53 60 61 61 54 62 60 63 55 64
REMARK SMILES IDX 56 65 57 66 58 67 59 68 7 69 8 70 9 71 10 72 11 73 12 74
REMARK SMILES IDX 21 75 25 76 22 77 24 78 26 79 23 80 13 81 14 82 15 83 16 84
REMARK SMILES IDX 20 85 17 86 19 87 18 88
REMARK H PARENT 80 24 50 35
REMARK Flexibility Score: inf
ROOT
ATOM      1  O   UNL A   1      31.022  29.237  24.618  1.00  0.00    -0.374 OA
ENDROOT
BRANCH   1   2
ATOM      2  C   UNL A   1      32.347  29.604  25.005  1.00  0.00     0.202 C 
BRANCH   2   3
ATOM      3  C   UNL A   1      32.643  30.007  26.459  1.00  0.00     0.261 C 
BRANCH   3   4
ATOM      4  O   UNL A   1      33.993  30.454  26.657  1.00  0.00    -0.460 OA
BRANCH   4   5
ATOM      5  C   UNL A   1      34.598  30.699  27.848  1.00  0.00     0.338 C 
ATOM      6  O   UNL A   1      34.042  31.422  28.669  1.00  0.00    -0.246 OA
BRANCH   5   7
ATOM      7  C   UNL A   1      35.932  30.122  28.185  1.00  0.00     0.060 A 
ATOM      8  C   UNL A   1      36.248  29.586  29.432  1.00  0.00     0.016 A 
ATOM      9  C   UNL A   1      36.904  30.067  27.177  1.00  0.00     0.016 A 
ATOM     10  C   UNL A   1      37.522  29.165  29.740  1.00  0.00     0.010 A 
ATOM     11  C   UNL A   1      38.182  29.570  27.455  1.00  0.00     0.010 A 
ATOM     12  C   UNL A   1      38.501  29.165  28.757  1.00  0.00    -0.014 A 
BRANCH  12  13
ATOM     13  C   UNL A   1      39.875  28.897  29.208  1.00  0.00     0.031 A 
ATOM     14  C   UNL A   1      40.504  27.600  28.797  1.00  0.00     0.074 A 
ATOM     15  C   UNL A   1      40.591  29.890  29.767  1.00  0.00     0.049 A 
ATOM     16  N   UNL A   1      41.699  27.148  29.049  1.00  0.00    -0.248 NA
ATOM     17  C   UNL A   1      39.680  26.701  27.965  1.00  0.00     0.031 C 
ATOM     18  C   UNL A   1      40.097  31.247  30.029  1.00  0.00     0.029 A 
ATOM     19  N   UNL A   1      41.900  29.934  30.158  1.00  0.00    -0.354 N 
ATOM     20  C   UNL A   1      41.755  25.894  28.452  1.00  0.00     0.074 A 
ATOM     21  C   UNL A   1      40.482  25.660  27.813  1.00  0.00     0.031 C 
ATOM     22  C   UNL A   1      41.106  32.000  30.494  1.00  0.00     0.029 A 
ATOM     23  C   UNL A   1      42.289  31.161  30.642  1.00  0.00     0.049 A 
ATOM     24  H   UNL A   1      42.507  29.161  30.098  1.00  0.00     0.167 HD
ATOM     25  C   UNL A   1      42.779  25.011  28.464  1.00  0.00     0.031 A 
ATOM     26  C   UNL A   1      43.464  31.542  31.176  1.00  0.00     0.031 A 
ATOM     27  C   UNL A   1      44.028  25.278  29.118  1.00  0.00     0.049 A 
ATOM     28  C   UNL A   1      44.551  30.506  31.271  1.00  0.00     0.074 A 
ATOM     29  C   UNL A   1      45.113  24.440  29.291  1.00  0.00     0.029 A 
ATOM     30  N   UNL A   1      44.356  26.493  29.705  1.00  0.00    -0.354 N 
ATOM     31  N   UNL A   1      44.557  29.275  30.811  1.00  0.00    -0.248 NA
ATOM     32  C   UNL A   1      45.780  30.899  31.970  1.00  0.00     0.031 C 
ATOM     33  C   UNL A   1      46.080  25.138  30.025  1.00  0.00     0.029 A 
ATOM     34  C   UNL A   1      45.621  26.427  30.255  1.00  0.00     0.049 A 
ATOM     35  H   UNL A   1      43.772  27.286  29.727  1.00  0.00     0.167 HD
ATOM     36  C   UNL A   1      45.798  28.751  31.149  1.00  0.00     0.074 A 
ATOM     37  C   UNL A   1      46.520  29.807  31.835  1.00  0.00     0.031 C 
ATOM     38  C   UNL A   1      46.299  27.511  30.921  1.00  0.00     0.031 A 
BRANCH  25  39
ATOM     39  C   UNL A   1      42.522  23.662  27.853  1.00  0.00    -0.014 A 
ATOM     40  C   UNL A   1      41.880  22.632  28.564  1.00  0.00     0.010 A 
ATOM     41  C   UNL A   1      42.990  23.408  26.550  1.00  0.00     0.010 A 
ATOM     42  C   UNL A   1      41.755  21.358  27.999  1.00  0.00     0.020 A 
ATOM     43  C   UNL A   1      42.846  22.144  25.975  1.00  0.00     0.020 A 
ATOM     44  C   UNL A   1      42.250  21.120  26.712  1.00  0.00     0.054 A 
BRANCH  44  45
ATOM     45  S   UNL A   1      42.097  19.454  26.010  1.00  0.00     0.124 S 
ATOM     46  O   UNL A   1      42.587  18.622  27.106  1.00  0.00    -0.237 OA
ATOM     47  O   UNL A   1      40.667  19.351  25.734  1.00  0.00    -0.237 OA
ATOM     48  O   UNL A   1      42.956  19.497  24.828  1.00  0.00    -0.744 OA
ENDBRANCH  44  45
ENDBRANCH  25  39
BRANCH  26  49
ATOM     49  C   UNL A   1      43.643  32.919  31.713  1.00  0.00    -0.014 A 
ATOM     50  C   UNL A   1      44.163  33.951  30.913  1.00  0.00     0.010 A 
ATOM     51  C   UNL A   1      43.294  33.207  33.047  1.00  0.00     0.010 A 
ATOM     52  C   UNL A   1      44.352  35.233  31.442  1.00  0.00     0.020 A 
ATOM     53  C   UNL A   1      43.452  34.493  33.571  1.00  0.00     0.020 A 
ATOM     54  C   UNL A   1      43.998  35.495  32.769  1.00  0.00     0.054 A 
BRANCH  54  55
ATOM     55  S   UNL A   1      44.228  37.169  33.430  1.00  0.00     0.124 S 
ATOM     56  O   UNL A   1      45.674  37.225  33.616  1.00  0.00    -0.237 OA
ATOM     57  O   UNL A   1      43.693  38.008  32.360  1.00  0.00    -0.237 OA
ATOM     58  O   UNL A   1      43.438  37.162  34.659  1.00  0.00    -0.744 OA
ENDBRANCH  54  55
ENDBRANCH  26  49
BRANCH  38  59
ATOM     59  C   UNL A   1      47.709  27.258  31.372  1.00  0.00    -0.014 A 
ATOM     60  C   UNL A   1      47.984  26.736  32.647  1.00  0.00     0.010 A 
ATOM     61  C   UNL A   1      48.766  27.499  30.477  1.00  0.00     0.010 A 
ATOM     62  C   UNL A   1      49.303  26.490  33.033  1.00  0.00     0.020 A 
ATOM     63  C   UNL A   1      50.082  27.228  30.849  1.00  0.00     0.020 A 
ATOM     64  C   UNL A   1      50.343  26.740  32.131  1.00  0.00     0.054 A 
BRANCH  64  65
ATOM     65  S   UNL A   1      52.044  26.375  32.636  1.00  0.00     0.124 S 
ATOM     66  O   UNL A   1      51.838  25.416  33.718  1.00  0.00    -0.237 OA
ATOM     67  O   UNL A   1      52.633  25.829  31.415  1.00  0.00    -0.237 OA
ATOM     68  O   UNL A   1      52.570  27.675  33.045  1.00  0.00    -0.744 OA
ENDBRANCH  64  65
ENDBRANCH  38  59
ENDBRANCH  12  13
ENDBRANCH   5   7
ENDBRANCH   4   5
ENDBRANCH   3   4
ENDBRANCH   2   3
ENDBRANCH   1   2
BRANCH   1  69
ATOM     69  C   UNL A   1      30.840  27.975  23.962  1.00  0.00     0.202 C 
BRANCH  69  70
ATOM     70  C   UNL A   1      30.273  26.954  24.944  1.00  0.00     0.261 C 
BRANCH  70  71
ATOM     71  O   UNL A   1      31.175  25.848  24.879  1.00  0.00    -0.463 OA
BRANCH  71  72
ATOM     72  C   UNL A   1      32.006  25.698  25.936  1.00  0.00     0.314 C 
ATOM     73  O   UNL A   1      32.095  26.509  26.845  1.00  0.00    -0.252 OA
BRANCH  72  74
ATOM     74  C   UNL A   1      32.871  24.439  25.806  1.00  0.00     0.097 C 
ATOM     75  C   UNL A   1      32.350  23.625  24.598  1.00  0.00     0.053 C 
ATOM     76  C   UNL A   1      32.557  23.435  26.955  1.00  0.00     0.136 C 
ATOM     77  C   UNL A   1      31.788  22.355  25.253  1.00  0.00     0.120 C 
ATOM     78  C   UNL A   1      33.442  22.187  26.953  1.00  0.00     0.036 C 
ATOM     79  O   UNL A   1      31.303  22.855  26.508  1.00  0.00    -0.374 OA
ATOM     80  C   UNL A   1      32.905  21.432  25.738  1.00  0.00     0.035 C 
BRANCH  74  81
ATOM     81  C   UNL A   1      34.387  24.786  25.731  1.00  0.00     0.026 C 
BRANCH  81  82
ATOM     82  C   UNL A   1      35.250  24.152  24.619  1.00  0.00     0.037 C 
BRANCH  82  83
ATOM     83  C   UNL A   1      36.459  23.352  25.060  1.00  0.00    -0.048 A 
ATOM     84  C   UNL A   1      37.420  23.943  25.894  1.00  0.00     0.004 A 
ATOM     85  C   UNL A   1      36.694  22.046  24.608  1.00  0.00     0.004 A 
ATOM     86  C   UNL A   1      38.542  23.229  26.322  1.00  0.00     0.000 A 
ATOM     87  C   UNL A   1      37.814  21.328  25.039  1.00  0.00     0.000 A 
ATOM     88  C   UNL A   1      38.733  21.915  25.905  1.00  0.00     0.000 A 
ENDBRANCH  82  83
ENDBRANCH  81  82
ENDBRANCH  74  81
ENDBRANCH  72  74
ENDBRANCH  71  72
ENDBRANCH  70  71
ENDBRANCH  69  70
ENDBRANCH   1  69
TORSDOF 20
ENDMDL
MODEL 2
REMARK VINA RESULT:      -9.3      3.377      9.643
REMARK SMILES O=C(OCCOCCOC(=O)[C@]1(CCc2ccccc2)C[C@H]2CC[C@@H]1O2)c1ccc(-c2c3nc(c(-c4ccc(S(=O)(=O)[O-])cc4)c4ccc([nH]4)c(-c4ccc(S(=O)(=O)[O-])cc4)c4nc(c(-c5ccc(S(=O)(=O)[O-])cc5)c5ccc2[nH]5)C=C4)C=C3)cc1
REMARK SMILES IDX 6 1 5 2 4 3 3 4 2 5 1 6 27 7 28 8 86 9 29 10 85 11 30 12
REMARK SMILES IDX 31 13 32 14 79 15 33 16 84 17 78 18 80 19 34 20 83 21 77 22
REMARK SMILES IDX 76 23 35 25 65 26 46 27 64 28 47 29 50 30 63 31 81 32 48 33
REMARK SMILES IDX 49 34 62 36 82 37 51 38 36 39 37 40 45 41 38 42 44 43 39 44
REMARK SMILES IDX 40 45 41 46 42 47 43 48 66 49 67 50 75 51 68 52 74 53 69 54
REMARK SMILES IDX 70 55 71 56 72 57 73 58 52 59 53 60 61 61 54 62 60 63 55 64
REMARK SMILES IDX 56 65 57 66 58 67 59 68 7 69 8 70 9 71 10 72 11 73 12 74
REMARK SMILES IDX 21 75 25 76 22 77 24 78 26 79 23 80 13 81 14 82 15 83 16 84
REMARK SMILES IDX 20 85 17 86 19 87 18 88
REMARK H PARENT 80 24 50 35
REMARK Flexibility Score: inf
ROOT
ATOM      1  O   UNL A   1      33.632  30.628  27.416  1.00  0.00    -0.374 OA
ENDROOT
BRANCH   1   2
ATOM      2  C   UNL A   1      34.751  31.421  27.817  1.00  0.00     0.202 C 
BRANCH   2   3
ATOM      3  C   UNL A   1      34.852  31.942  29.259  1.00  0.00     0.261 C 
BRANCH   3   4
ATOM      4  O   UNL A   1      36.131  31.692  29.861  1.00  0.00    -0.460 OA
BRANCH   4   5
ATOM      5  C   UNL A   1      36.584  30.502  30.336  1.00  0.00     0.338 C 
ATOM      6  O   UNL A   1      35.962  29.934  31.228  1.00  0.00    -0.246 OA
BRANCH   5   7
ATOM      7  C   UNL A   1      37.828  29.869  29.809  1.00  0.00     0.060 A 
ATOM      8  C   UNL A   1      38.757  29.209  30.612  1.00  0.00     0.016 A 
ATOM      9  C   UNL A   1      38.050  29.893  28.426  1.00  0.00     0.016 A 
ATOM     10  C   UNL A   1      39.946  28.735  30.107  1.00  0.00     0.010 A 
ATOM     11  C   UNL A   1      39.220  29.346  27.889  1.00  0.00     0.010 A 
ATOM     12  C   UNL A   1      40.192  28.811  28.744  1.00  0.00    -0.014 A 
BRANCH  12  13
ATOM     13  C   UNL A   1      41.556  28.474  28.309  1.00  0.00     0.031 A 
ATOM     14  C   UNL A   1      42.619  29.518  28.476  1.00  0.00     0.074 A 
ATOM     15  C   UNL A   1      41.853  27.200  27.995  1.00  0.00     0.049 A 
ATOM     16  N   UNL A   1      43.888  29.454  28.190  1.00  0.00    -0.248 NA
ATOM     17  C   UNL A   1      42.197  30.801  29.070  1.00  0.00     0.031 C 
ATOM     18  C   UNL A   1      40.898  26.084  27.993  1.00  0.00     0.029 A 
ATOM     19  N   UNL A   1      43.046  26.614  27.680  1.00  0.00    -0.354 N 
ATOM     20  C   UNL A   1      44.406  30.700  28.522  1.00  0.00     0.074 A 
ATOM     21  C   UNL A   1      43.322  31.496  29.044  1.00  0.00     0.031 C 
ATOM     22  C   UNL A   1      41.557  24.943  27.736  1.00  0.00     0.029 A 
ATOM     23  C   UNL A   1      42.956  25.258  27.472  1.00  0.00     0.049 A 
ATOM     24  H   UNL A   1      43.890  27.115  27.608  1.00  0.00     0.167 HD
ATOM     25  C   UNL A   1      45.677  31.138  28.376  1.00  0.00     0.031 A 
ATOM     26  C   UNL A   1      43.900  24.383  27.080  1.00  0.00     0.031 A 
ATOM     27  C   UNL A   1      46.728  30.317  27.845  1.00  0.00     0.049 A 
ATOM     28  C   UNL A   1      45.282  24.921  26.824  1.00  0.00     0.074 A 
ATOM     29  C   UNL A   1      48.034  30.660  27.554  1.00  0.00     0.029 A 
ATOM     30  N   UNL A   1      46.581  28.971  27.532  1.00  0.00    -0.354 N 
ATOM     31  N   UNL A   1      45.741  26.136  27.024  1.00  0.00    -0.248 NA
ATOM     32  C   UNL A   1      46.266  23.983  26.274  1.00  0.00     0.031 C 
ATOM     33  C   UNL A   1      48.664  29.529  27.020  1.00  0.00     0.029 A 
ATOM     34  C   UNL A   1      47.768  28.469  27.037  1.00  0.00     0.049 A 
ATOM     35  H   UNL A   1      45.752  28.452  27.646  1.00  0.00     0.167 HD
ATOM     36  C   UNL A   1      47.075  26.104  26.642  1.00  0.00     0.074 A 
ATOM     37  C   UNL A   1      47.352  24.744  26.217  1.00  0.00     0.031 C 
ATOM     38  C   UNL A   1      47.993  27.103  26.635  1.00  0.00     0.031 A 
BRANCH  25  39
ATOM     39  C   UNL A   1      45.938  32.585  28.688  1.00  0.00    -0.014 A 
ATOM     40  C   UNL A   1      46.031  33.057  30.010  1.00  0.00     0.010 A 
ATOM     41  C   UNL A   1      46.035  33.502  27.625  1.00  0.00     0.010 A 
ATOM     42  C   UNL A   1      46.168  34.426  30.262  1.00  0.00     0.020 A 
ATOM     43  C   UNL A   1      46.195  34.867  27.872  1.00  0.00     0.020 A 
ATOM     44  C   UNL A   1      46.238  35.324  29.190  1.00  0.00     0.054 A 
BRANCH  44  45
ATOM     45  S   UNL A   1      46.392  37.097  29.541  1.00  0.00     0.124 S 
ATOM     46  O   UNL A   1      47.590  37.448  28.782  1.00  0.00    -0.237 OA
ATOM     47  O   UNL A   1      45.139  37.637  29.021  1.00  0.00    -0.237 OA
ATOM     48  O   UNL A   1      46.536  37.151  30.994  1.00  0.00    -0.744 OA
ENDBRANCH  44  45
ENDBRANCH  25  39
BRANCH  26  49
ATOM     49  C   UNL A   1      43.558  22.953  26.841  1.00  0.00    -0.014 A 
ATOM     50  C   UNL A   1      42.852  22.204  27.799  1.00  0.00     0.010 A 
ATOM     51  C   UNL A   1      43.949  22.325  25.643  1.00  0.00     0.010 A 
ATOM     52  C   UNL A   1      42.565  20.853  27.572  1.00  0.00     0.020 A 
ATOM     53  C   UNL A   1      43.637  20.985  25.399  1.00  0.00     0.020 A 
ATOM     54  C   UNL A   1      42.961  20.252  26.374  1.00  0.00     0.054 A 
BRANCH  54  55
ATOM     55  S   UNL A   1      42.558  18.505  26.088  1.00  0.00     0.124 S 
ATOM     56  O   UNL A   1      42.906  17.901  27.370  1.00  0.00    -0.237 OA
ATOM     57  O   UNL A   1      41.131  18.557  25.778  1.00  0.00    -0.237 OA
ATOM     58  O   UNL A   1      43.419  18.136  24.967  1.00  0.00    -0.744 OA
ENDBRANCH  54  55
ENDBRANCH  26  49
BRANCH  38  59
ATOM     59  C   UNL A   1      49.386  26.740  26.205  1.00  0.00    -0.014 A 
ATOM     60  C   UNL A   1      49.863  27.073  24.926  1.00  0.00     0.010 A 
ATOM     61  C   UNL A   1      50.240  26.104  27.122  1.00  0.00     0.010 A 
ATOM     62  C   UNL A   1      51.169  26.743  24.559  1.00  0.00     0.020 A 
ATOM     63  C   UNL A   1      51.553  25.798  26.769  1.00  0.00     0.020 A 
ATOM     64  C   UNL A   1      52.005  26.105  25.484  1.00  0.00     0.054 A 
BRANCH  64  65
ATOM     65  S   UNL A   1      53.709  25.722  25.002  1.00  0.00     0.124 S 
ATOM     66  O   UNL A   1      53.610  25.686  23.546  1.00  0.00    -0.237 OA
ATOM     67  O   UNL A   1      54.460  26.849  25.554  1.00  0.00    -0.237 OA
ATOM     68  O   UNL A   1      53.969  24.436  25.644  1.00  0.00    -0.744 OA
ENDBRANCH  64  65
ENDBRANCH  38  59
ENDBRANCH  12  13
ENDBRANCH   5   7
ENDBRANCH   4   5
ENDBRANCH   3   4
ENDBRANCH   2   3
ENDBRANCH   1   2
BRANCH   1  69
ATOM     69  C   UNL A   1      33.880  29.277  27.006  1.00  0.00     0.202 C 
BRANCH  69  70
ATOM     70  C   UNL A   1      32.652  28.414  27.283  1.00  0.00     0.261 C 
BRANCH  70  71
ATOM     71  O   UNL A   1      32.718  27.367  26.313  1.00  0.00    -0.463 OA
BRANCH  71  72
ATOM     72  C   UNL A   1      31.572  27.103  25.646  1.00  0.00     0.314 C 
ATOM     73  O   UNL A   1      30.551  26.708  26.188  1.00  0.00    -0.252 OA
BRANCH  72  74
ATOM     74  C   UNL A   1      31.740  27.281  24.133  1.00  0.00     0.097 C 
ATOM     75  C   UNL A   1      30.608  26.494  23.432  1.00  0.00     0.053 C 
ATOM     76  C   UNL A   1      32.974  26.482  23.618  1.00  0.00     0.136 C 
ATOM     77  C   UNL A   1      31.365  25.373  22.704  1.00  0.00     0.120 C 
ATOM     78  C   UNL A   1      33.269  26.677  22.130  1.00  0.00     0.036 C 
ATOM     79  O   UNL A   1      32.461  25.123  23.597  1.00  0.00    -0.374 OA
ATOM     80  C   UNL A   1      32.119  25.903  21.486  1.00  0.00     0.035 C 
BRANCH  74  81
ATOM     81  C   UNL A   1      31.810  28.784  23.733  1.00  0.00     0.026 C 
BRANCH  81  82
ATOM     82  C   UNL A   1      30.805  29.777  24.357  1.00  0.00     0.037 C 
BRANCH  82  83
ATOM     83  C   UNL A   1      29.711  30.306  23.452  1.00  0.00    -0.048 A 
ATOM     84  C   UNL A   1      29.658  29.898  22.111  1.00  0.00     0.004 A 
ATOM     85  C   UNL A   1      28.773  31.252  23.890  1.00  0.00     0.004 A 
ATOM     86  C   UNL A   1      28.659  30.365  21.253  1.00  0.00     0.000 A 
ATOM     87  C   UNL A   1      27.770  31.717  23.034  1.00  0.00     0.000 A 
ATOM     88  C   UNL A   1      27.704  31.265  21.719  1.00  0.00     0.000 A 
ENDBRANCH  82  83
ENDBRANCH  81  82
ENDBRANCH  74  81
ENDBRANCH  72  74
ENDBRANCH  71  72
ENDBRANCH  70  71
ENDBRANCH  69  70
ENDBRANCH   1  69
TORSDOF 20
ENDMDL
MODEL 3
REMARK VINA RESULT:      -9.2      1.150      8.381
REMARK SMILES O=C(OCCOCCOC(=O)[C@]1(CCc2ccccc2)C[C@H]2CC[C@@H]1O2)c1ccc(-c2c3nc(c(-c4ccc(S(=O)(=O)[O-])cc4)c4ccc([nH]4)c(-c4ccc(S(=O)(=O)[O-])cc4)c4nc(c(-c5ccc(S(=O)(=O)[O-])cc5)c5ccc2[nH]5)C=C4)C=C3)cc1
REMARK SMILES IDX 6 1 5 2 4 3 3 4 2 5 1 6 27 7 28 8 86 9 29 10 85 11 30 12
REMARK SMILES IDX 31 13 32 14 79 15 33 16 84 17 78 18 80 19 34 20 83 21 77 22
REMARK SMILES IDX 76 23 35 25 65 26 46 27 64 28 47 29 50 30 63 31 81 32 48 33
REMARK SMILES IDX 49 34 62 36 82 37 51 38 36 39 37 40 45 41 38 42 44 43 39 44
REMARK SMILES IDX 40 45 41 46 42 47 43 48 66 49 67 50 75 51 68 52 74 53 69 54
REMARK SMILES IDX 70 55 71 56 72 57 73 58 52 59 53 60 61 61 54 62 60 63 55 64
REMARK SMILES IDX 56 65 57 66 58 67 59 68 7 69 8 70 9 71 10 72 11 73 12 74
REMARK SMILES IDX 21 75 25 76 22 77 24 78 26 79 23 80 13 81 14 82 15 83 16 84
REMARK SMILES IDX 20 85 17 86 19 87 18 88
REMARK H PARENT 80 24 50 35
REMARK Flexibility Score: inf
ROOT
ATOM      1  O   UNL A   1      32.472  25.846  25.434  1.00  0.00    -0.374 OA
ENDROOT
BRANCH   1   2
ATOM      2  C   UNL A   1      32.672  27.254  25.582  1.00  0.00     0.202 C 
BRANCH   2   3
ATOM      3  C   UNL A   1      33.988  27.790  26.167  1.00  0.00     0.261 C 
BRANCH   3   4
ATOM      4  O   UNL A   1      34.003  29.220  26.304  1.00  0.00    -0.460 OA
BRANCH   4   5
ATOM      5  C   UNL A   1      34.432  29.925  27.382  1.00  0.00     0.338 C 
ATOM      6  O   UNL A   1      33.645  30.658  27.975  1.00  0.00    -0.246 OA
BRANCH   5   7
ATOM      7  C   UNL A   1      35.842  29.845  27.863  1.00  0.00     0.060 A 
ATOM      8  C   UNL A   1      36.946  30.147  27.068  1.00  0.00     0.016 A 
ATOM      9  C   UNL A   1      36.067  29.498  29.202  1.00  0.00     0.016 A 
ATOM     10  C   UNL A   1      38.235  29.955  27.512  1.00  0.00     0.010 A 
ATOM     11  C   UNL A   1      37.372  29.373  29.689  1.00  0.00     0.010 A 
ATOM     12  C   UNL A   1      38.457  29.554  28.822  1.00  0.00    -0.014 A 
BRANCH  12  13
ATOM     13  C   UNL A   1      39.837  29.175  29.161  1.00  0.00     0.031 A 
ATOM     14  C   UNL A   1      40.604  30.081  30.075  1.00  0.00     0.074 A 
ATOM     15  C   UNL A   1      40.283  27.948  28.836  1.00  0.00     0.049 A 
ATOM     16  N   UNL A   1      41.817  29.954  30.533  1.00  0.00    -0.248 NA
ATOM     17  C   UNL A   1      39.898  31.282  30.561  1.00  0.00     0.031 C 
ATOM     18  C   UNL A   1      39.514  26.935  28.102  1.00  0.00     0.029 A 
ATOM     19  N   UNL A   1      41.459  27.319  29.132  1.00  0.00    -0.354 N 
ATOM     20  C   UNL A   1      42.037  31.080  31.318  1.00  0.00     0.074 A 
ATOM     21  C   UNL A   1      40.831  31.872  31.289  1.00  0.00     0.031 C 
ATOM     22  C   UNL A   1      40.226  25.798  28.047  1.00  0.00     0.029 A 
ATOM     23  C   UNL A   1      41.527  26.028  28.664  1.00  0.00     0.049 A 
ATOM     24  H   UNL A   1      42.189  27.750  29.633  1.00  0.00     0.167 HD
ATOM     25  C   UNL A   1      43.163  31.424  31.983  1.00  0.00     0.031 A 
ATOM     26  C   UNL A   1      42.546  25.150  28.707  1.00  0.00     0.031 A 
ATOM     27  C   UNL A   1      44.347  30.611  31.981  1.00  0.00     0.049 A 
ATOM     28  C   UNL A   1      43.823  25.600  29.362  1.00  0.00     0.074 A 
ATOM     29  C   UNL A   1      45.586  30.882  32.530  1.00  0.00     0.029 A 
ATOM     30  N   UNL A   1      44.426  29.352  31.399  1.00  0.00    -0.354 N 
ATOM     31  N   UNL A   1      44.069  26.722  30.001  1.00  0.00    -0.248 NA
ATOM     32  C   UNL A   1      44.964  24.682  29.287  1.00  0.00     0.031 C 
ATOM     33  C   UNL A   1      46.428  29.803  32.237  1.00  0.00     0.029 A 
ATOM     34  C   UNL A   1      45.697  28.836  31.561  1.00  0.00     0.049 A 
ATOM     35  H   UNL A   1      43.685  28.895  30.938  1.00  0.00     0.167 HD
ATOM     36  C   UNL A   1      45.389  26.636  30.423  1.00  0.00     0.074 A 
ATOM     37  C   UNL A   1      45.881  25.344  29.981  1.00  0.00     0.031 C 
ATOM     38  C   UNL A   1      46.134  27.539  31.108  1.00  0.00     0.031 A 
BRANCH  25  39
ATOM     39  C   UNL A   1      43.177  32.772  32.646  1.00  0.00    -0.014 A 
ATOM     40  C   UNL A   1      42.856  32.937  34.006  1.00  0.00     0.010 A 
ATOM     41  C   UNL A   1      43.465  33.909  31.868  1.00  0.00     0.010 A 
ATOM     42  C   UNL A   1      42.776  34.218  34.561  1.00  0.00     0.020 A 
ATOM     43  C   UNL A   1      43.409  35.188  32.424  1.00  0.00     0.020 A 
ATOM     44  C   UNL A   1      43.042  35.337  33.763  1.00  0.00     0.054 A 
BRANCH  44  45
ATOM     45  S   UNL A   1      42.909  36.989  34.498  1.00  0.00     0.124 S 
ATOM     46  O   UNL A   1      43.916  36.928  35.555  1.00  0.00    -0.237 OA
ATOM     47  O   UNL A   1      43.230  37.867  33.376  1.00  0.00    -0.237 OA
ATOM     48  O   UNL A   1      41.524  37.053  34.959  1.00  0.00    -0.744 OA
ENDBRANCH  44  45
ENDBRANCH  25  39
BRANCH  26  49
ATOM     49  C   UNL A   1      42.423  23.813  28.062  1.00  0.00    -0.014 A 
ATOM     50  C   UNL A   1      42.882  23.592  26.752  1.00  0.00     0.010 A 
ATOM     51  C   UNL A   1      41.832  22.744  28.763  1.00  0.00     0.010 A 
ATOM     52  C   UNL A   1      42.732  22.337  26.149  1.00  0.00     0.020 A 
ATOM     53  C   UNL A   1      41.709  21.481  28.177  1.00  0.00     0.020 A 
ATOM     54  C   UNL A   1      42.144  21.291  26.865  1.00  0.00     0.054 A 
BRANCH  54  55
ATOM     55  S   UNL A   1      41.980  19.665  26.076  1.00  0.00     0.124 S 
ATOM     56  O   UNL A   1      40.548  19.604  25.802  1.00  0.00    -0.237 OA
ATOM     57  O   UNL A   1      42.845  19.792  24.906  1.00  0.00    -0.237 OA
ATOM     58  O   UNL A   1      42.462  18.739  27.099  1.00  0.00    -0.744 OA
ENDBRANCH  54  55
ENDBRANCH  26  49
BRANCH  38  59
ATOM     59  C   UNL A   1      47.535  27.131  31.462  1.00  0.00    -0.014 A 
ATOM     60  C   UNL A   1      47.830  26.528  32.696  1.00  0.00     0.010 A 
ATOM     61  C   UNL A   1      48.558  27.309  30.513  1.00  0.00     0.010 A 
ATOM     62  C   UNL A   1      49.138  26.140  32.991  1.00  0.00     0.020 A 
ATOM     63  C   UNL A   1      49.860  26.897  30.794  1.00  0.00     0.020 A 
ATOM     64  C   UNL A   1      50.145  26.329  32.037  1.00  0.00     0.054 A 
BRANCH  64  65
ATOM     65  S   UNL A   1      51.827  25.780  32.423  1.00  0.00     0.124 S 
ATOM     66  O   UNL A   1      51.788  24.379  32.013  1.00  0.00    -0.237 OA
ATOM     67  O   UNL A   1      52.651  26.656  31.592  1.00  0.00    -0.237 OA
ATOM     68  O   UNL A   1      51.944  26.007  33.861  1.00  0.00    -0.744 OA
ENDBRANCH  64  65
ENDBRANCH  38  59
ENDBRANCH  12  13
ENDBRANCH   5   7
ENDBRANCH   4   5
ENDBRANCH   3   4
ENDBRANCH   2   3
ENDBRANCH   1   2
BRANCH   1  69
ATOM     69  C   UNL A   1      31.870  25.136  26.525  1.00  0.00     0.202 C 
BRANCH  69  70
ATOM     70  C   UNL A   1      30.923  24.066  25.990  1.00  0.00     0.261 C 
BRANCH  70  71
ATOM     71  O   UNL A   1      31.778  22.997  25.582  1.00  0.00    -0.463 OA
BRANCH  71  72
ATOM     72  C   UNL A   1      31.844  22.765  24.251  1.00  0.00     0.314 C 
ATOM     73  O   UNL A   1      31.101  23.292  23.436  1.00  0.00    -0.252 OA
BRANCH  72  74
ATOM     74  C   UNL A   1      32.901  21.709  23.908  1.00  0.00     0.097 C 
ATOM     75  C   UNL A   1      32.212  20.593  23.088  1.00  0.00     0.053 C 
ATOM     76  C   UNL A   1      33.298  20.896  25.177  1.00  0.00     0.136 C 
ATOM     77  C   UNL A   1      32.279  19.381  24.028  1.00  0.00     0.120 C 
ATOM     78  C   UNL A   1      34.416  19.880  24.942  1.00  0.00     0.036 C 
ATOM     79  O   UNL A   1      32.166  19.997  25.319  1.00  0.00    -0.374 OA
ATOM     80  C   UNL A   1      33.695  18.816  24.116  1.00  0.00     0.035 C 
BRANCH  74  81
ATOM     81  C   UNL A   1      34.140  22.340  23.208  1.00  0.00     0.026 C 
BRANCH  81  82
ATOM     82  C   UNL A   1      34.846  23.544  23.869  1.00  0.00     0.037 C 
BRANCH  82  83
ATOM     83  C   UNL A   1      36.109  23.253  24.654  1.00  0.00    -0.048 A 
ATOM     84  C   UNL A   1      36.897  22.142  24.319  1.00  0.00     0.004 A 
ATOM     85  C   UNL A   1      36.493  24.024  25.761  1.00  0.00     0.004 A 
ATOM     86  C   UNL A   1      38.070  21.851  25.021  1.00  0.00     0.000 A 
ATOM     87  C   UNL A   1      37.668  23.737  26.461  1.00  0.00     0.000 A 
ATOM     88  C   UNL A   1      38.464  22.657  26.085  1.00  0.00     0.000 A 
ENDBRANCH  82  83
ENDBRANCH  81  82
ENDBRANCH  74  81
ENDBRANCH  72  74
ENDBRANCH  71  72
ENDBRANCH  70  71
ENDBRANCH  69  70
ENDBRANCH   1  69
TORSDOF 20
ENDMDL
