MODEL 1
REMARK VINA RESULT:     -10.2      0.000      0.000
REMARK SMILES CC(C)(C)c1csc(NC(=O)Cn2cccc2C(=O)OCCOCCOC(=O)c2ccc(-c3c4nc(c(-c5ccc(S(=O)(=O)[O-])cc5)c5ccc([nH]5)c(-c5ccc(S(=O)(=O)[O-])cc5)c5nc(c(-c6ccc(S(=O)(=O)[O-])cc6)c6ccc3[nH]6)C=C5)C=C4)cc2)n1
REMARK SMILES IDX 22 1 21 2 20 3 18 4 19 5 17 6 13 7 14 8 15 9 16 10 12 11
REMARK SMILES IDX 10 12 9 13 11 15 8 16 5 17 6 18 89 19 7 20 2 21 1 22 3 23
REMARK SMILES IDX 4 24 23 25 24 26 25 27 26 28 27 29 28 30 29 31 30 32 88 33
REMARK SMILES IDX 31 34 87 35 32 36 33 37 34 38 81 39 35 40 86 41 80 42 82 43
REMARK SMILES IDX 36 44 85 45 79 46 78 47 37 49 67 50 48 51 66 52 49 53 52 54
REMARK SMILES IDX 65 55 83 56 50 57 51 58 64 60 84 61 53 62 38 63 39 64 47 65
REMARK SMILES IDX 40 66 46 67 41 68 42 69 43 70 44 71 45 72 68 73 69 74 77 75
REMARK SMILES IDX 70 76 76 77 71 78 72 79 73 80 74 81 75 82 54 83 55 84 63 85
REMARK SMILES IDX 56 86 62 87 57 88 58 89 59 90 60 91 61 92
REMARK H PARENT 9 14 82 48 52 59
REMARK Flexibility Score: inf
ROOT
ATOM      1  C   UNL A   1      33.096  30.596  26.761  1.00  0.00     0.202 C 
ENDROOT
BRANCH   1   2
ATOM      2  C   UNL A   1      31.960  29.998  25.950  1.00  0.00     0.261 C 
BRANCH   2   3
ATOM      3  O   UNL A   1      31.916  28.561  25.954  1.00  0.00    -0.459 OA
BRANCH   3   4
ATOM      4  C   UNL A   1      32.227  27.961  24.777  1.00  0.00     0.355 C 
ATOM      5  O   UNL A   1      33.255  28.167  24.137  1.00  0.00    -0.244 OA
BRANCH   4   6
ATOM      6  C   UNL A   1      31.159  27.108  24.303  1.00  0.00     0.128 A 
ATOM      7  N   UNL A   1      31.114  25.725  24.226  1.00  0.00    -0.333 N 
ATOM      8  C   UNL A   1      29.849  25.331  23.847  1.00  0.00     0.087 A 
ATOM      9  C   UNL A   1      29.066  26.449  23.701  1.00  0.00     0.020 A 
ATOM     10  C   UNL A   1      29.881  27.559  23.991  1.00  0.00     0.035 A 
BRANCH   7  11
ATOM     11  C   UNL A   1      32.190  24.771  24.447  1.00  0.00     0.222 C 
BRANCH  11  12
ATOM     12  C   UNL A   1      32.928  24.279  23.207  1.00  0.00     0.246 C 
ATOM     13  N   UNL A   1      34.113  23.611  23.392  1.00  0.00    -0.300 N 
ATOM     14  H   UNL A   1      34.916  24.017  22.990  1.00  0.00     0.172 HD
ATOM     15  O   UNL A   1      32.636  24.697  22.084  1.00  0.00    -0.273 OA
BRANCH  13  16
ATOM     16  C   UNL A   1      34.295  22.441  24.077  1.00  0.00     0.189 A 
ATOM     17  C   UNL A   1      34.034  20.320  24.693  1.00  0.00     0.059 A 
ATOM     18  C   UNL A   1      34.939  20.746  25.655  1.00  0.00     0.093 A 
ATOM     19  N   UNL A   1      33.622  21.342  23.833  1.00  0.00    -0.224 NA
ATOM     20  S   UNL A   1      35.243  22.423  25.492  1.00  0.00    -0.105 S 
BRANCH  17  21
ATOM     21  C   UNL A   1      33.500  18.898  24.509  1.00  0.00     0.005 C 
ATOM     22  C   UNL A   1      32.729  18.451  25.766  1.00  0.00     0.017 C 
ATOM     23  C   UNL A   1      34.644  17.889  24.275  1.00  0.00     0.017 C 
ATOM     24  C   UNL A   1      32.547  18.814  23.300  1.00  0.00     0.017 C 
ENDBRANCH  17  21
ENDBRANCH  13  16
ENDBRANCH  11  12
ENDBRANCH   7  11
ENDBRANCH   4   6
ENDBRANCH   3   4
ENDBRANCH   2   3
ENDBRANCH   1   2
BRANCH   1  25
ATOM     25  O   UNL A   1      32.761  31.623  27.687  1.00  0.00    -0.374 OA
BRANCH  25  26
ATOM     26  C   UNL A   1      32.569  32.959  27.245  1.00  0.00     0.202 C 
BRANCH  26  27
ATOM     27  C   UNL A   1      32.957  34.133  28.159  1.00  0.00     0.261 C 
BRANCH  27  28
ATOM     28  O   UNL A   1      34.302  34.129  28.619  1.00  0.00    -0.460 OA
BRANCH  28  29
ATOM     29  C   UNL A   1      34.435  33.543  29.830  1.00  0.00     0.338 C 
ATOM     30  O   UNL A   1      33.842  33.829  30.858  1.00  0.00    -0.246 OA
BRANCH  29  31
ATOM     31  C   UNL A   1      35.439  32.477  29.757  1.00  0.00     0.060 A 
ATOM     32  C   UNL A   1      35.893  31.945  30.967  1.00  0.00     0.016 A 
ATOM     33  C   UNL A   1      36.082  32.206  28.543  1.00  0.00     0.016 A 
ATOM     34  C   UNL A   1      37.104  31.278  30.989  1.00  0.00     0.010 A 
ATOM     35  C   UNL A   1      37.311  31.567  28.569  1.00  0.00     0.010 A 
ATOM     36  C   UNL A   1      37.849  31.187  29.805  1.00  0.00    -0.014 A 
BRANCH  36  37
ATOM     37  C   UNL A   1      39.289  30.895  29.932  1.00  0.00     0.031 A 
ATOM     38  C   UNL A   1      40.148  32.090  30.244  1.00  0.00     0.074 A 
ATOM     39  C   UNL A   1      39.662  29.615  29.639  1.00  0.00     0.049 A 
ATOM     40  N   UNL A   1      41.348  32.342  29.824  1.00  0.00    -0.248 NA
ATOM     41  C   UNL A   1      39.578  33.209  31.030  1.00  0.00     0.031 C 
ATOM     42  C   UNL A   1      38.712  28.536  29.286  1.00  0.00     0.029 A 
ATOM     43  N   UNL A   1      40.872  28.960  29.562  1.00  0.00    -0.354 N 
ATOM     44  C   UNL A   1      41.726  33.573  30.375  1.00  0.00     0.074 A 
ATOM     45  C   UNL A   1      40.564  34.110  31.025  1.00  0.00     0.031 C 
ATOM     46  C   UNL A   1      39.370  27.400  28.986  1.00  0.00     0.029 A 
ATOM     47  C   UNL A   1      40.795  27.624  29.118  1.00  0.00     0.049 A 
ATOM     48  H   UNL A   1      41.725  29.391  29.800  1.00  0.00     0.167 HD
ATOM     49  C   UNL A   1      43.007  34.034  30.369  1.00  0.00     0.031 A 
ATOM     50  C   UNL A   1      41.794  26.742  28.832  1.00  0.00     0.031 A 
ATOM     51  C   UNL A   1      43.912  33.084  29.805  1.00  0.00     0.049 A 
ATOM     52  C   UNL A   1      43.085  27.374  29.173  1.00  0.00     0.074 A 
ATOM     53  C   UNL A   1      44.202  32.670  28.531  1.00  0.00     0.029 A 
ATOM     54  N   UNL A   1      44.501  32.206  30.688  1.00  0.00    -0.354 N 
ATOM     55  N   UNL A   1      43.471  27.703  30.368  1.00  0.00    -0.248 NA
ATOM     56  C   UNL A   1      44.018  27.711  28.093  1.00  0.00     0.031 C 
ATOM     57  C   UNL A   1      44.638  31.330  28.677  1.00  0.00     0.029 A 
ATOM     58  C   UNL A   1      44.623  31.001  30.036  1.00  0.00     0.049 A 
ATOM     59  H   UNL A   1      44.782  32.404  31.611  1.00  0.00     0.167 HD
ATOM     60  C   UNL A   1      44.474  28.616  30.134  1.00  0.00     0.074 A 
ATOM     61  C   UNL A   1      44.937  28.381  28.786  1.00  0.00     0.031 C 
ATOM     62  C   UNL A   1      44.474  29.789  30.819  1.00  0.00     0.031 A 
BRANCH  49  63
ATOM     63  C   UNL A   1      43.594  35.219  31.067  1.00  0.00    -0.014 A 
ATOM     64  C   UNL A   1      43.596  35.200  32.481  1.00  0.00     0.010 A 
ATOM     65  C   UNL A   1      43.851  36.438  30.421  1.00  0.00     0.010 A 
ATOM     66  C   UNL A   1      43.749  36.369  33.224  1.00  0.00     0.020 A 
ATOM     67  C   UNL A   1      44.036  37.613  31.163  1.00  0.00     0.020 A 
ATOM     68  C   UNL A   1      43.934  37.577  32.556  1.00  0.00     0.054 A 
BRANCH  68  69
ATOM     69  S   UNL A   1      43.961  39.107  33.530  1.00  0.00     0.124 S 
ATOM     70  O   UNL A   1      43.606  38.625  34.862  1.00  0.00    -0.237 OA
ATOM     71  O   UNL A   1      45.341  39.561  33.375  1.00  0.00    -0.237 OA
ATOM     72  O   UNL A   1      42.960  39.945  32.875  1.00  0.00    -0.744 OA
ENDBRANCH  68  69
ENDBRANCH  49  63
BRANCH  50  73
ATOM     73  C   UNL A   1      41.858  25.404  28.148  1.00  0.00    -0.014 A 
ATOM     74  C   UNL A   1      42.495  24.271  28.674  1.00  0.00     0.010 A 
ATOM     75  C   UNL A   1      41.044  25.199  27.003  1.00  0.00     0.010 A 
ATOM     76  C   UNL A   1      42.245  22.986  28.156  1.00  0.00     0.020 A 
ATOM     77  C   UNL A   1      40.742  23.922  26.520  1.00  0.00     0.020 A 
ATOM     78  C   UNL A   1      41.329  22.816  27.118  1.00  0.00     0.054 A 
BRANCH  78  79
ATOM     79  S   UNL A   1      40.762  21.159  26.640  1.00  0.00     0.124 S 
ATOM     80  O   UNL A   1      41.771  20.751  25.669  1.00  0.00    -0.237 OA
ATOM     81  O   UNL A   1      40.770  20.421  27.902  1.00  0.00    -0.237 OA
ATOM     82  O   UNL A   1      39.431  21.421  26.095  1.00  0.00    -0.744 OA
ENDBRANCH  78  79
ENDBRANCH  50  73
BRANCH  62  83
ATOM     83  C   UNL A   1      43.800  29.720  32.183  1.00  0.00    -0.014 A 
ATOM     84  C   UNL A   1      44.445  29.114  33.275  1.00  0.00     0.010 A 
ATOM     85  C   UNL A   1      42.476  30.155  32.377  1.00  0.00     0.010 A 
ATOM     86  C   UNL A   1      43.787  28.939  34.505  1.00  0.00     0.020 A 
ATOM     87  C   UNL A   1      41.810  29.998  33.601  1.00  0.00     0.020 A 
ATOM     88  C   UNL A   1      42.470  29.382  34.660  1.00  0.00     0.054 A 
BRANCH  88  89
ATOM     89  S   UNL A   1      41.622  29.108  36.242  1.00  0.00     0.124 S 
ATOM     90  O   UNL A   1      41.731  27.663  36.423  1.00  0.00    -0.237 OA
ATOM     91  O   UNL A   1      42.412  29.916  37.167  1.00  0.00    -0.237 OA
ATOM     92  O   UNL A   1      40.264  29.594  36.001  1.00  0.00    -0.744 OA
ENDBRANCH  88  89
ENDBRANCH  62  83
ENDBRANCH  36  37
ENDBRANCH  29  31
ENDBRANCH  28  29
ENDBRANCH  27  28
ENDBRANCH  26  27
ENDBRANCH  25  26
ENDBRANCH   1  25
TORSDOF 21
ENDMDL
MODEL 2
REMARK VINA RESULT:      -9.9      4.199      8.604
REMARK SMILES CC(C)(C)c1csc(NC(=O)Cn2cccc2C(=O)OCCOCCOC(=O)c2ccc(-c3c4nc(c(-c5ccc(S(=O)(=O)[O-])cc5)c5ccc([nH]5)c(-c5ccc(S(=O)(=O)[O-])cc5)c5nc(c(-c6ccc(S(=O)(=O)[O-])cc6)c6ccc3[nH]6)C=C5)C=C4)cc2)n1
REMARK SMILES IDX 22 1 21 2 20 3 18 4 19 5 17 6 13 7 14 8 15 9 16 10 12 11
REMARK SMILES IDX 10 12 9 13 11 15 8 16 5 17 6 18 89 19 7 20 2 21 1 22 3 23
REMARK SMILES IDX 4 24 23 25 24 26 25 27 26 28 27 29 28 30 29 31 30 32 88 33
REMARK SMILES IDX 31 34 87 35 32 36 33 37 34 38 81 39 35 40 86 41 80 42 82 43
REMARK SMILES IDX 36 44 85 45 79 46 78 47 37 49 67 50 48 51 66 52 49 53 52 54
REMARK SMILES IDX 65 55 83 56 50 57 51 58 64 60 84 61 53 62 38 63 39 64 47 65
REMARK SMILES IDX 40 66 46 67 41 68 42 69 43 70 44 71 45 72 68 73 69 74 77 75
REMARK SMILES IDX 70 76 76 77 71 78 72 79 73 80 74 81 75 82 54 83 55 84 63 85
REMARK SMILES IDX 56 86 62 87 57 88 58 89 59 90 60 91 61 92
REMARK H PARENT 9 14 82 48 52 59
REMARK Flexibility Score: inf
ROOT
ATOM      1  C   UNL A   1      36.488  21.832  23.880  1.00  0.00     0.202 C 
ENDROOT
BRANCH   1   2
ATOM      2  C   UNL A   1      35.379  22.169  24.861  1.00  0.00     0.261 C 
BRANCH   2   3
ATOM      3  O   UNL A   1      34.674  23.387  24.569  1.00  0.00    -0.459 OA
BRANCH   3   4
ATOM      4  C   UNL A   1      34.962  24.441  25.374  1.00  0.00     0.355 C 
ATOM      5  O   UNL A   1      36.063  24.660  25.871  1.00  0.00    -0.244 OA
BRANCH   4   6
ATOM      6  C   UNL A   1      33.791  25.239  25.665  1.00  0.00     0.128 A 
ATOM      7  N   UNL A   1      32.698  24.929  26.461  1.00  0.00    -0.333 N 
ATOM      8  C   UNL A   1      31.886  26.037  26.570  1.00  0.00     0.087 A 
ATOM      9  C   UNL A   1      32.457  27.071  25.869  1.00  0.00     0.020 A 
ATOM     10  C   UNL A   1      33.649  26.576  25.308  1.00  0.00     0.035 A 
BRANCH   7  11
ATOM     11  C   UNL A   1      32.362  23.658  27.081  1.00  0.00     0.222 C 
BRANCH  11  12
ATOM     12  C   UNL A   1      30.993  23.077  26.747  1.00  0.00     0.246 C 
ATOM     13  N   UNL A   1      30.725  22.782  25.434  1.00  0.00    -0.300 N 
ATOM     14  H   UNL A   1      29.973  23.263  25.018  1.00  0.00     0.172 HD
ATOM     15  O   UNL A   1      30.064  23.131  27.558  1.00  0.00    -0.273 OA
BRANCH  13  16
ATOM     16  C   UNL A   1      31.397  21.890  24.642  1.00  0.00     0.189 A 
ATOM     17  C   UNL A   1      32.516  20.067  24.038  1.00  0.00     0.059 A 
ATOM     18  C   UNL A   1      32.567  20.790  22.855  1.00  0.00     0.093 A 
ATOM     19  N   UNL A   1      31.894  20.759  25.080  1.00  0.00    -0.224 NA
ATOM     20  S   UNL A   1      31.861  22.336  23.066  1.00  0.00    -0.105 S 
BRANCH  17  21
ATOM     21  C   UNL A   1      33.048  18.650  24.264  1.00  0.00     0.005 C 
ATOM     22  C   UNL A   1      32.391  18.025  25.510  1.00  0.00     0.017 C 
ATOM     23  C   UNL A   1      34.575  18.648  24.487  1.00  0.00     0.017 C 
ATOM     24  C   UNL A   1      32.751  17.744  23.053  1.00  0.00     0.017 C 
ENDBRANCH  17  21
ENDBRANCH  13  16
ENDBRANCH  11  12
ENDBRANCH   7  11
ENDBRANCH   4   6
ENDBRANCH   3   4
ENDBRANCH   2   3
ENDBRANCH   1   2
BRANCH   1  25
ATOM     25  O   UNL A   1      37.816  21.790  24.391  1.00  0.00    -0.374 OA
BRANCH  25  26
ATOM     26  C   UNL A   1      38.049  21.588  25.778  1.00  0.00     0.202 C 
BRANCH  26  27
ATOM     27  C   UNL A   1      39.355  22.089  26.416  1.00  0.00     0.261 C 
BRANCH  27  28
ATOM     28  O   UNL A   1      40.168  21.087  27.011  1.00  0.00    -0.460 OA
BRANCH  28  29
ATOM     29  C   UNL A   1      41.407  21.035  26.474  1.00  0.00     0.338 C 
ATOM     30  O   UNL A   1      41.793  20.303  25.577  1.00  0.00    -0.246 OA
BRANCH  29  31
ATOM     31  C   UNL A   1      42.278  22.006  27.142  1.00  0.00     0.060 A 
ATOM     32  C   UNL A   1      42.285  22.000  28.540  1.00  0.00     0.016 A 
ATOM     33  C   UNL A   1      42.859  23.046  26.405  1.00  0.00     0.016 A 
ATOM     34  C   UNL A   1      42.724  23.127  29.209  1.00  0.00     0.010 A 
ATOM     35  C   UNL A   1      43.268  24.188  27.074  1.00  0.00     0.010 A 
ATOM     36  C   UNL A   1      43.114  24.249  28.465  1.00  0.00    -0.014 A 
BRANCH  36  37
ATOM     37  C   UNL A   1      43.135  25.549  29.160  1.00  0.00     0.031 A 
ATOM     38  C   UNL A   1      44.301  25.747  30.089  1.00  0.00     0.074 A 
ATOM     39  C   UNL A   1      42.045  26.346  28.959  1.00  0.00     0.049 A 
ATOM     40  N   UNL A   1      44.320  26.371  31.225  1.00  0.00    -0.248 NA
ATOM     41  C   UNL A   1      45.590  25.081  29.789  1.00  0.00     0.031 C 
ATOM     42  C   UNL A   1      40.924  26.005  28.053  1.00  0.00     0.029 A 
ATOM     43  N   UNL A   1      41.641  27.566  29.457  1.00  0.00    -0.354 N 
ATOM     44  C   UNL A   1      45.627  26.280  31.722  1.00  0.00     0.074 A 
ATOM     45  C   UNL A   1      46.341  25.391  30.849  1.00  0.00     0.031 C 
ATOM     46  C   UNL A   1      39.964  26.946  28.106  1.00  0.00     0.029 A 
ATOM     47  C   UNL A   1      40.362  27.983  29.037  1.00  0.00     0.049 A 
ATOM     48  H   UNL A   1      42.203  28.105  30.061  1.00  0.00     0.167 HD
ATOM     49  C   UNL A   1      46.088  27.033  32.758  1.00  0.00     0.031 A 
ATOM     50  C   UNL A   1      39.629  29.067  29.420  1.00  0.00     0.031 A 
ATOM     51  C   UNL A   1      45.108  27.963  33.217  1.00  0.00     0.049 A 
ATOM     52  C   UNL A   1      40.451  29.885  30.334  1.00  0.00     0.074 A 
ATOM     53  C   UNL A   1      43.969  27.867  33.975  1.00  0.00     0.029 A 
ATOM     54  N   UNL A   1      45.132  29.211  32.633  1.00  0.00    -0.354 N 
ATOM     55  N   UNL A   1      41.543  30.510  30.011  1.00  0.00    -0.248 NA
ATOM     56  C   UNL A   1      40.055  29.992  31.742  1.00  0.00     0.031 C 
ATOM     57  C   UNL A   1      43.141  28.922  33.519  1.00  0.00     0.029 A 
ATOM     58  C   UNL A   1      43.826  29.631  32.527  1.00  0.00     0.049 A 
ATOM     59  H   UNL A   1      45.932  29.707  32.346  1.00  0.00     0.167 HD
ATOM     60  C   UNL A   1      42.148  30.733  31.227  1.00  0.00     0.074 A 
ATOM     61  C   UNL A   1      41.107  30.651  32.226  1.00  0.00     0.031 C 
ATOM     62  C   UNL A   1      43.465  30.436  31.375  1.00  0.00     0.031 A 
BRANCH  49  63
ATOM     63  C   UNL A   1      47.482  27.185  33.276  1.00  0.00    -0.014 A 
ATOM     64  C   UNL A   1      48.300  28.155  32.652  1.00  0.00     0.010 A 
ATOM     65  C   UNL A   1      48.097  26.238  34.109  1.00  0.00     0.010 A 
ATOM     66  C   UNL A   1      49.688  28.124  32.774  1.00  0.00     0.020 A 
ATOM     67  C   UNL A   1      49.491  26.220  34.260  1.00  0.00     0.020 A 
ATOM     68  C   UNL A   1      50.278  27.131  33.552  1.00  0.00     0.054 A 
BRANCH  68  69
ATOM     69  S   UNL A   1      52.087  27.003  33.562  1.00  0.00     0.124 S 
ATOM     70  O   UNL A   1      52.486  28.356  33.934  1.00  0.00    -0.237 OA
ATOM     71  O   UNL A   1      52.330  25.977  34.575  1.00  0.00    -0.237 OA
ATOM     72  O   UNL A   1      52.408  26.604  32.194  1.00  0.00    -0.744 OA
ENDBRANCH  68  69
ENDBRANCH  49  63
BRANCH  50  73
ATOM     73  C   UNL A   1      38.199  29.495  29.232  1.00  0.00    -0.014 A 
ATOM     74  C   UNL A   1      37.325  29.831  30.277  1.00  0.00     0.010 A 
ATOM     75  C   UNL A   1      37.757  29.793  27.917  1.00  0.00     0.010 A 
ATOM     76  C   UNL A   1      36.127  30.527  30.031  1.00  0.00     0.020 A 
ATOM     77  C   UNL A   1      36.600  30.536  27.667  1.00  0.00     0.020 A 
ATOM     78  C   UNL A   1      35.800  30.922  28.735  1.00  0.00     0.054 A 
BRANCH  78  79
ATOM     79  S   UNL A   1      34.431  32.075  28.430  1.00  0.00     0.124 S 
ATOM     80  O   UNL A   1      33.439  31.219  27.787  1.00  0.00    -0.237 OA
ATOM     81  O   UNL A   1      34.081  32.547  29.767  1.00  0.00    -0.237 OA
ATOM     82  O   UNL A   1      35.047  33.083  27.568  1.00  0.00    -0.744 OA
ENDBRANCH  78  79
ENDBRANCH  50  73
BRANCH  62  83
ATOM     83  C   UNL A   1      44.275  30.513  30.088  1.00  0.00    -0.014 A 
ATOM     84  C   UNL A   1      44.621  29.346  29.384  1.00  0.00     0.010 A 
ATOM     85  C   UNL A   1      44.796  31.731  29.613  1.00  0.00     0.010 A 
ATOM     86  C   UNL A   1      45.466  29.397  28.262  1.00  0.00     0.020 A 
ATOM     87  C   UNL A   1      45.632  31.798  28.489  1.00  0.00     0.020 A 
ATOM     88  C   UNL A   1      45.968  30.624  27.821  1.00  0.00     0.054 A 
BRANCH  88  89
ATOM     89  S   UNL A   1      47.093  30.664  26.396  1.00  0.00     0.124 S 
ATOM     90  O   UNL A   1      46.216  30.313  25.281  1.00  0.00    -0.237 OA
ATOM     91  O   UNL A   1      47.567  32.045  26.408  1.00  0.00    -0.237 OA
ATOM     92  O   UNL A   1      48.105  29.659  26.719  1.00  0.00    -0.744 OA
ENDBRANCH  88  89
ENDBRANCH  62  83
ENDBRANCH  36  37
ENDBRANCH  29  31
ENDBRANCH  28  29
ENDBRANCH  27  28
ENDBRANCH  26  27
ENDBRANCH  25  26
ENDBRANCH   1  25
TORSDOF 21
ENDMDL
MODEL 3
REMARK VINA RESULT:      -9.8      7.254     15.119
REMARK SMILES CC(C)(C)c1csc(NC(=O)Cn2cccc2C(=O)OCCOCCOC(=O)c2ccc(-c3c4nc(c(-c5ccc(S(=O)(=O)[O-])cc5)c5ccc([nH]5)c(-c5ccc(S(=O)(=O)[O-])cc5)c5nc(c(-c6ccc(S(=O)(=O)[O-])cc6)c6ccc3[nH]6)C=C5)C=C4)cc2)n1
REMARK SMILES IDX 22 1 21 2 20 3 18 4 19 5 17 6 13 7 14 8 15 9 16 10 12 11
REMARK SMILES IDX 10 12 9 13 11 15 8 16 5 17 6 18 89 19 7 20 2 21 1 22 3 23
REMARK SMILES IDX 4 24 23 25 24 26 25 27 26 28 27 29 28 30 29 31 30 32 88 33
REMARK SMILES IDX 31 34 87 35 32 36 33 37 34 38 81 39 35 40 86 41 80 42 82 43
REMARK SMILES IDX 36 44 85 45 79 46 78 47 37 49 67 50 48 51 66 52 49 53 52 54
REMARK SMILES IDX 65 55 83 56 50 57 51 58 64 60 84 61 53 62 38 63 39 64 47 65
REMARK SMILES IDX 40 66 46 67 41 68 42 69 43 70 44 71 45 72 68 73 69 74 77 75
REMARK SMILES IDX 70 76 76 77 71 78 72 79 73 80 74 81 75 82 54 83 55 84 63 85
REMARK SMILES IDX 56 86 62 87 57 88 58 89 59 90 60 91 61 92
REMARK H PARENT 9 14 82 48 52 59
REMARK Flexibility Score: inf
ROOT
ATOM      1  C   UNL A   1      41.600  40.909  25.746  1.00  0.00     0.202 C 
ENDROOT
BRANCH   1   2
ATOM      2  C   UNL A   1      42.583  41.747  24.948  1.00  0.00     0.261 C 
BRANCH   2   3
ATOM      3  O   UNL A   1      42.449  41.629  23.522  1.00  0.00    -0.459 OA
BRANCH   3   4
ATOM      4  C   UNL A   1      41.759  42.626  22.912  1.00  0.00     0.355 C 
ATOM      5  O   UNL A   1      40.709  43.107  23.331  1.00  0.00    -0.244 OA
BRANCH   4   6
ATOM      6  C   UNL A   1      42.351  43.003  21.648  1.00  0.00     0.128 A 
ATOM      7  N   UNL A   1      43.674  43.299  21.356  1.00  0.00    -0.333 N 
ATOM      8  C   UNL A   1      43.814  43.466  19.996  1.00  0.00     0.087 A 
ATOM      9  C   UNL A   1      42.595  43.257  19.400  1.00  0.00     0.020 A 
ATOM     10  C   UNL A   1      41.682  42.962  20.429  1.00  0.00     0.035 A 
BRANCH   7  11
ATOM     11  C   UNL A   1      44.786  43.469  22.278  1.00  0.00     0.222 C 
BRANCH  11  12
ATOM     12  C   UNL A   1      44.971  44.861  22.873  1.00  0.00     0.246 C 
ATOM     13  N   UNL A   1      45.954  45.658  22.343  1.00  0.00    -0.300 N 
ATOM     14  H   UNL A   1      46.671  45.941  22.956  1.00  0.00     0.172 HD
ATOM     15  O   UNL A   1      44.465  45.160  23.958  1.00  0.00    -0.273 OA
BRANCH  13  16
ATOM     16  C   UNL A   1      46.041  46.100  21.051  1.00  0.00     0.189 A 
ATOM     17  C   UNL A   1      45.450  47.022  19.116  1.00  0.00     0.059 A 
ATOM     18  C   UNL A   1      46.714  46.552  18.788  1.00  0.00     0.093 A 
ATOM     19  N   UNL A   1      45.055  46.684  20.413  1.00  0.00    -0.224 NA
ATOM     20  S   UNL A   1      47.383  45.670  20.095  1.00  0.00    -0.105 S 
BRANCH  17  21
ATOM     21  C   UNL A   1      44.522  47.843  18.219  1.00  0.00     0.005 C 
ATOM     22  C   UNL A   1      43.252  47.038  17.883  1.00  0.00     0.017 C 
ATOM     23  C   UNL A   1      45.207  48.218  16.887  1.00  0.00     0.017 C 
ATOM     24  C   UNL A   1      44.097  49.154  18.911  1.00  0.00     0.017 C 
ENDBRANCH  17  21
ENDBRANCH  13  16
ENDBRANCH  11  12
ENDBRANCH   7  11
ENDBRANCH   4   6
ENDBRANCH   3   4
ENDBRANCH   2   3
ENDBRANCH   1   2
BRANCH   1  25
ATOM     25  O   UNL A   1      41.869  39.515  25.846  1.00  0.00    -0.374 OA
BRANCH  25  26
ATOM     26  C   UNL A   1      41.840  38.863  27.108  1.00  0.00     0.202 C 
BRANCH  26  27
ATOM     27  C   UNL A   1      42.362  39.590  28.358  1.00  0.00     0.261 C 
BRANCH  27  28
ATOM     28  O   UNL A   1      42.572  38.768  29.499  1.00  0.00    -0.460 OA
BRANCH  28  29
ATOM     29  C   UNL A   1      43.853  38.351  29.610  1.00  0.00     0.338 C 
ATOM     30  O   UNL A   1      44.859  39.043  29.605  1.00  0.00    -0.246 OA
BRANCH  29  31
ATOM     31  C   UNL A   1      43.890  36.891  29.732  1.00  0.00     0.060 A 
ATOM     32  C   UNL A   1      43.821  36.150  28.548  1.00  0.00     0.016 A 
ATOM     33  C   UNL A   1      43.737  36.291  30.988  1.00  0.00     0.016 A 
ATOM     34  C   UNL A   1      43.424  34.828  28.611  1.00  0.00     0.010 A 
ATOM     35  C   UNL A   1      43.307  34.975  31.050  1.00  0.00     0.010 A 
ATOM     36  C   UNL A   1      43.071  34.285  29.855  1.00  0.00    -0.014 A 
BRANCH  36  37
ATOM     37  C   UNL A   1      42.238  33.068  29.850  1.00  0.00     0.031 A 
ATOM     38  C   UNL A   1      42.877  31.871  29.200  1.00  0.00     0.074 A 
ATOM     39  C   UNL A   1      40.968  33.217  30.328  1.00  0.00     0.049 A 
ATOM     40  N   UNL A   1      42.307  30.948  28.492  1.00  0.00    -0.248 NA
ATOM     41  C   UNL A   1      44.351  31.724  29.239  1.00  0.00     0.031 C 
ATOM     42  C   UNL A   1      40.439  34.479  30.894  1.00  0.00     0.029 A 
ATOM     43  N   UNL A   1      39.876  32.384  30.432  1.00  0.00    -0.354 N 
ATOM     44  C   UNL A   1      43.310  30.053  28.097  1.00  0.00     0.074 A 
ATOM     45  C   UNL A   1      44.561  30.632  28.498  1.00  0.00     0.031 C 
ATOM     46  C   UNL A   1      39.141  34.346  31.223  1.00  0.00     0.029 A 
ATOM     47  C   UNL A   1      38.703  33.001  30.913  1.00  0.00     0.049 A 
ATOM     48  H   UNL A   1      39.911  31.430  30.188  1.00  0.00     0.167 HD
ATOM     49  C   UNL A   1      43.052  28.828  27.565  1.00  0.00     0.031 A 
ATOM     50  C   UNL A   1      37.442  32.500  31.034  1.00  0.00     0.031 A 
ATOM     51  C   UNL A   1      41.654  28.545  27.531  1.00  0.00     0.049 A 
ATOM     52  C   UNL A   1      37.471  31.070  30.664  1.00  0.00     0.074 A 
ATOM     53  C   UNL A   1      40.608  28.952  26.742  1.00  0.00     0.029 A 
ATOM     54  N   UNL A   1      41.136  27.895  28.630  1.00  0.00    -0.354 N 
ATOM     55  N   UNL A   1      38.099  30.136  31.312  1.00  0.00    -0.248 NA
ATOM     56  C   UNL A   1      36.778  30.637  29.445  1.00  0.00     0.031 C 
ATOM     57  C   UNL A   1      39.470  28.876  27.582  1.00  0.00     0.029 A 
ATOM     58  C   UNL A   1      39.870  28.395  28.833  1.00  0.00     0.049 A 
ATOM     59  H   UNL A   1      41.587  27.205  29.167  1.00  0.00     0.167 HD
ATOM     60  C   UNL A   1      38.202  29.125  30.384  1.00  0.00     0.074 A 
ATOM     61  C   UNL A   1      37.175  29.367  29.396  1.00  0.00     0.031 C 
ATOM     62  C   UNL A   1      39.402  28.515  30.201  1.00  0.00     0.031 A 
BRANCH  49  63
ATOM     63  C   UNL A   1      43.993  27.702  27.272  1.00  0.00    -0.014 A 
ATOM     64  C   UNL A   1      44.160  27.339  25.916  1.00  0.00     0.010 A 
ATOM     65  C   UNL A   1      44.461  26.819  28.257  1.00  0.00     0.010 A 
ATOM     66  C   UNL A   1      44.685  26.099  25.555  1.00  0.00     0.020 A 
ATOM     67  C   UNL A   1      45.017  25.582  27.900  1.00  0.00     0.020 A 
ATOM     68  C   UNL A   1      45.078  25.212  26.553  1.00  0.00     0.054 A 
BRANCH  68  69
ATOM     69  S   UNL A   1      45.597  23.543  26.071  1.00  0.00     0.124 S 
ATOM     70  O   UNL A   1      46.580  23.820  25.028  1.00  0.00    -0.237 OA
ATOM     71  O   UNL A   1      46.141  23.004  27.316  1.00  0.00    -0.237 OA
ATOM     72  O   UNL A   1      44.357  22.917  25.620  1.00  0.00    -0.744 OA
ENDBRANCH  68  69
ENDBRANCH  49  63
BRANCH  50  73
ATOM     73  C   UNL A   1      36.089  33.099  31.305  1.00  0.00    -0.014 A 
ATOM     74  C   UNL A   1      35.508  33.211  32.577  1.00  0.00     0.010 A 
ATOM     75  C   UNL A   1      35.442  33.795  30.250  1.00  0.00     0.010 A 
ATOM     76  C   UNL A   1      34.409  34.061  32.805  1.00  0.00     0.020 A 
ATOM     77  C   UNL A   1      34.389  34.686  30.477  1.00  0.00     0.020 A 
ATOM     78  C   UNL A   1      33.893  34.832  31.765  1.00  0.00     0.054 A 
BRANCH  78  79
ATOM     79  S   UNL A   1      32.689  36.151  32.094  1.00  0.00     0.124 S 
ATOM     80  O   UNL A   1      33.391  36.981  33.067  1.00  0.00    -0.237 OA
ATOM     81  O   UNL A   1      32.486  36.759  30.781  1.00  0.00    -0.237 OA
ATOM     82  O   UNL A   1      31.537  35.412  32.609  1.00  0.00    -0.744 OA
ENDBRANCH  78  79
ENDBRANCH  50  73
BRANCH  62  83
ATOM     83  C   UNL A   1      40.307  28.530  31.426  1.00  0.00    -0.014 A 
ATOM     84  C   UNL A   1      39.953  27.829  32.592  1.00  0.00     0.010 A 
ATOM     85  C   UNL A   1      41.466  29.326  31.479  1.00  0.00     0.010 A 
ATOM     86  C   UNL A   1      40.721  27.932  33.765  1.00  0.00     0.020 A 
ATOM     87  C   UNL A   1      42.247  29.431  32.639  1.00  0.00     0.020 A 
ATOM     88  C   UNL A   1      41.864  28.735  33.782  1.00  0.00     0.054 A 
BRANCH  88  89
ATOM     89  S   UNL A   1      42.818  28.891  35.319  1.00  0.00     0.124 S 
ATOM     90  O   UNL A   1      42.327  30.148  35.879  1.00  0.00    -0.237 OA
ATOM     91  O   UNL A   1      42.433  27.687  36.051  1.00  0.00    -0.237 OA
ATOM     92  O   UNL A   1      44.209  28.923  34.868  1.00  0.00    -0.744 OA
ENDBRANCH  88  89
ENDBRANCH  62  83
ENDBRANCH  36  37
ENDBRANCH  29  31
ENDBRANCH  28  29
ENDBRANCH  27  28
ENDBRANCH  26  27
ENDBRANCH  25  26
ENDBRANCH   1  25
TORSDOF 21
ENDMDL
