MODEL 1
REMARK VINA RESULT:      -9.7      0.000      0.000
REMARK SMILES CC[C@H](C)NS(=O)(=O)c1ccc(C(=O)OCCOCCOC(=O)c2ccc(-c3c4nc(c(-c5ccc(S(=O)(=O)[O-])cc5)c5ccc([nH]5)c(-c5ccc(S(=O)(=O)[O-])cc5)c5nc(c(-c6ccc(S(=O)(=O)[O-])cc6)c6ccc3[nH]6)C=C5)C=C4)cc2)cc1F
REMARK SMILES IDX 17 1 16 2 15 3 13 4 14 5 12 6 9 7 10 8 85 9 11 10 84 11
REMARK SMILES IDX 86 12 6 13 7 14 8 15 5 16 3 18 4 19 2 20 1 21 18 22 19 23
REMARK SMILES IDX 20 24 21 25 22 26 23 27 24 28 25 29 83 30 26 31 82 32 27 33
REMARK SMILES IDX 28 34 29 35 76 36 30 37 81 38 75 39 77 40 31 41 80 42 74 43
REMARK SMILES IDX 73 44 32 46 62 47 43 48 61 49 44 50 47 51 60 52 78 53 45 54
REMARK SMILES IDX 46 55 59 57 79 58 48 59 33 60 34 61 42 62 35 63 41 64 36 65
REMARK SMILES IDX 37 66 38 67 39 68 40 69 63 70 64 71 72 72 65 73 71 74 66 75
REMARK SMILES IDX 67 76 68 77 69 78 70 79 49 80 50 81 58 82 51 83 57 84 52 85
REMARK SMILES IDX 53 86 54 87 55 88 56 89
REMARK H PARENT 5 17 77 45 47 56
REMARK Flexibility Score: inf
ROOT
ATOM      1  C   UNL A   1      37.262  22.450  24.869  1.00  0.00     0.202 C 
ENDROOT
BRANCH   1   2
ATOM      2  C   UNL A   1      35.964  21.708  24.535  1.00  0.00     0.261 C 
BRANCH   2   3
ATOM      3  O   UNL A   1      35.238  21.334  25.718  1.00  0.00    -0.460 OA
BRANCH   3   4
ATOM      4  C   UNL A   1      33.941  21.018  25.496  1.00  0.00     0.338 C 
ATOM      5  O   UNL A   1      33.443  19.904  25.511  1.00  0.00    -0.246 OA
BRANCH   4   6
ATOM      6  C   UNL A   1      33.114  22.243  25.403  1.00  0.00     0.063 A 
ATOM      7  C   UNL A   1      31.513  24.525  25.496  1.00  0.00     0.118 A 
ATOM      8  C   UNL A   1      32.576  24.387  26.395  1.00  0.00     0.026 A 
ATOM      9  C   UNL A   1      31.299  23.561  24.516  1.00  0.00     0.144 A 
ATOM     10  C   UNL A   1      33.374  23.247  26.346  1.00  0.00     0.017 A 
ATOM     11  C   UNL A   1      32.102  22.419  24.454  1.00  0.00     0.056 A 
ATOM     12  F   UNL A   1      30.318  23.695  23.613  1.00  0.00    -0.205 F 
BRANCH   7  13
ATOM     13  S   UNL A   1      30.321  25.788  25.803  1.00  0.00     0.243 S 
ATOM     14  O   UNL A   1      29.279  25.208  26.619  1.00  0.00    -0.207 OA
ATOM     15  O   UNL A   1      29.985  26.432  24.550  1.00  0.00    -0.207 OA
BRANCH  13  16
ATOM     16  N   UNL A   1      31.131  26.933  26.706  1.00  0.00    -0.208 NA
ATOM     17  H   UNL A   1      30.457  27.263  27.397  1.00  0.00     0.141 HD
BRANCH  16  18
ATOM     18  C   UNL A   1      31.751  28.138  26.154  1.00  0.00     0.066 C 
ATOM     19  C   UNL A   1      32.043  29.098  27.309  1.00  0.00     0.025 C 
BRANCH  18  20
ATOM     20  C   UNL A   1      33.019  27.855  25.335  1.00  0.00     0.016 C 
ATOM     21  C   UNL A   1      33.166  28.662  24.050  1.00  0.00     0.005 C 
ENDBRANCH  18  20
ENDBRANCH  16  18
ENDBRANCH  13  16
ENDBRANCH   7  13
ENDBRANCH   4   6
ENDBRANCH   3   4
ENDBRANCH   2   3
ENDBRANCH   1   2
BRANCH   1  22
ATOM     22  O   UNL A   1      38.294  21.723  25.532  1.00  0.00    -0.374 OA
BRANCH  22  23
ATOM     23  C   UNL A   1      39.136  22.431  26.440  1.00  0.00     0.202 C 
BRANCH  23  24
ATOM     24  C   UNL A   1      38.937  23.944  26.594  1.00  0.00     0.261 C 
BRANCH  24  25
ATOM     25  O   UNL A   1      39.892  24.553  27.477  1.00  0.00    -0.460 OA
BRANCH  25  26
ATOM     26  C   UNL A   1      40.312  25.783  27.083  1.00  0.00     0.338 C 
ATOM     27  O   UNL A   1      40.670  26.115  25.967  1.00  0.00    -0.246 OA
BRANCH  26  28
ATOM     28  C   UNL A   1      40.097  26.755  28.172  1.00  0.00     0.060 A 
ATOM     29  C   UNL A   1      40.807  27.961  28.117  1.00  0.00     0.016 A 
ATOM     30  C   UNL A   1      39.279  26.459  29.262  1.00  0.00     0.016 A 
ATOM     31  C   UNL A   1      40.735  28.861  29.178  1.00  0.00     0.010 A 
ATOM     32  C   UNL A   1      39.214  27.360  30.329  1.00  0.00     0.010 A 
ATOM     33  C   UNL A   1      39.970  28.547  30.308  1.00  0.00    -0.014 A 
BRANCH  33  34
ATOM     34  C   UNL A   1      40.060  29.397  31.520  1.00  0.00     0.031 A 
ATOM     35  C   UNL A   1      41.185  29.166  32.493  1.00  0.00     0.074 A 
ATOM     36  C   UNL A   1      39.161  30.372  31.743  1.00  0.00     0.049 A 
ATOM     37  N   UNL A   1      41.424  29.754  33.636  1.00  0.00    -0.248 NA
ATOM     38  C   UNL A   1      42.167  28.130  32.132  1.00  0.00     0.031 C 
ATOM     39  C   UNL A   1      38.053  30.721  30.852  1.00  0.00     0.029 A 
ATOM     40  N   UNL A   1      39.034  31.244  32.795  1.00  0.00    -0.354 N 
ATOM     41  C   UNL A   1      42.572  29.152  34.139  1.00  0.00     0.074 A 
ATOM     42  C   UNL A   1      42.965  28.133  33.190  1.00  0.00     0.031 C 
ATOM     43  C   UNL A   1      37.356  31.731  31.400  1.00  0.00     0.029 A 
ATOM     44  C   UNL A   1      37.941  32.072  32.696  1.00  0.00     0.049 A 
ATOM     45  H   UNL A   1      39.666  31.274  33.550  1.00  0.00     0.167 HD
ATOM     46  C   UNL A   1      43.242  29.428  35.282  1.00  0.00     0.031 A 
ATOM     47  C   UNL A   1      37.452  32.981  33.562  1.00  0.00     0.031 A 
ATOM     48  C   UNL A   1      42.839  30.438  36.227  1.00  0.00     0.049 A 
ATOM     49  C   UNL A   1      38.171  33.218  34.864  1.00  0.00     0.074 A 
ATOM     50  C   UNL A   1      43.461  30.807  37.408  1.00  0.00     0.029 A 
ATOM     51  N   UNL A   1      41.709  31.232  36.105  1.00  0.00    -0.354 N 
ATOM     52  N   UNL A   1      39.271  32.659  35.314  1.00  0.00    -0.248 NA
ATOM     53  C   UNL A   1      37.589  34.216  35.773  1.00  0.00     0.031 C 
ATOM     54  C   UNL A   1      42.671  31.778  38.032  1.00  0.00     0.029 A 
ATOM     55  C   UNL A   1      41.598  32.068  37.204  1.00  0.00     0.049 A 
ATOM     56  H   UNL A   1      41.079  31.205  35.350  1.00  0.00     0.167 HD
ATOM     57  C   UNL A   1      39.530  33.264  36.539  1.00  0.00     0.074 A 
ATOM     58  C   UNL A   1      38.480  34.238  36.755  1.00  0.00     0.031 C 
ATOM     59  C   UNL A   1      40.550  33.037  37.406  1.00  0.00     0.031 A 
BRANCH  46  60
ATOM     60  C   UNL A   1      44.462  28.600  35.599  1.00  0.00    -0.014 A 
ATOM     61  C   UNL A   1      44.371  27.428  36.372  1.00  0.00     0.010 A 
ATOM     62  C   UNL A   1      45.711  28.977  35.075  1.00  0.00     0.010 A 
ATOM     63  C   UNL A   1      45.513  26.670  36.645  1.00  0.00     0.020 A 
ATOM     64  C   UNL A   1      46.851  28.205  35.319  1.00  0.00     0.020 A 
ATOM     65  C   UNL A   1      46.747  27.065  36.116  1.00  0.00     0.054 A 
BRANCH  65  66
ATOM     66  S   UNL A   1      48.207  26.046  36.464  1.00  0.00     0.124 S 
ATOM     67  O   UNL A   1      47.683  24.695  36.280  1.00  0.00    -0.237 OA
ATOM     68  O   UNL A   1      49.158  26.495  35.451  1.00  0.00    -0.237 OA
ATOM     69  O   UNL A   1      48.554  26.396  37.840  1.00  0.00    -0.744 OA
ENDBRANCH  65  66
ENDBRANCH  46  60
BRANCH  47  70
ATOM     70  C   UNL A   1      36.204  33.725  33.233  1.00  0.00    -0.014 A 
ATOM     71  C   UNL A   1      36.254  34.929  32.509  1.00  0.00     0.010 A 
ATOM     72  C   UNL A   1      34.953  33.229  33.646  1.00  0.00     0.010 A 
ATOM     73  C   UNL A   1      35.081  35.632  32.220  1.00  0.00     0.020 A 
ATOM     74  C   UNL A   1      33.775  33.912  33.331  1.00  0.00     0.020 A 
ATOM     75  C   UNL A   1      33.849  35.116  32.630  1.00  0.00     0.054 A 
BRANCH  75  76
ATOM     76  S   UNL A   1      32.336  36.021  32.200  1.00  0.00     0.124 S 
ATOM     77  O   UNL A   1      32.461  37.226  33.012  1.00  0.00    -0.237 OA
ATOM     78  O   UNL A   1      32.483  36.209  30.758  1.00  0.00    -0.237 OA
ATOM     79  O   UNL A   1      31.266  35.107  32.596  1.00  0.00    -0.744 OA
ENDBRANCH  75  76
ENDBRANCH  47  70
BRANCH  59  80
ATOM     80  C   UNL A   1      40.616  33.890  38.648  1.00  0.00    -0.014 A 
ATOM     81  C   UNL A   1      41.311  35.112  38.666  1.00  0.00     0.010 A 
ATOM     82  C   UNL A   1      39.913  33.487  39.798  1.00  0.00     0.010 A 
ATOM     83  C   UNL A   1      41.328  35.897  39.822  1.00  0.00     0.020 A 
ATOM     84  C   UNL A   1      39.899  34.285  40.944  1.00  0.00     0.020 A 
ATOM     85  C   UNL A   1      40.619  35.481  40.954  1.00  0.00     0.054 A 
BRANCH  85  86
ATOM     86  S   UNL A   1      40.617  36.543  42.423  1.00  0.00     0.124 S 
ATOM     87  O   UNL A   1      41.188  37.782  41.905  1.00  0.00    -0.237 OA
ATOM     88  O   UNL A   1      39.198  36.603  42.772  1.00  0.00    -0.237 OA
ATOM     89  O   UNL A   1      41.456  35.820  43.376  1.00  0.00    -0.744 OA
ENDBRANCH  85  86
ENDBRANCH  59  80
ENDBRANCH  33  34
ENDBRANCH  26  28
ENDBRANCH  25  26
ENDBRANCH  24  25
ENDBRANCH  23  24
ENDBRANCH  22  23
ENDBRANCH   1  22
TORSDOF 21
ENDMDL
MODEL 2
REMARK VINA RESULT:      -9.5      6.542     12.783
REMARK SMILES CC[C@H](C)NS(=O)(=O)c1ccc(C(=O)OCCOCCOC(=O)c2ccc(-c3c4nc(c(-c5ccc(S(=O)(=O)[O-])cc5)c5ccc([nH]5)c(-c5ccc(S(=O)(=O)[O-])cc5)c5nc(c(-c6ccc(S(=O)(=O)[O-])cc6)c6ccc3[nH]6)C=C5)C=C4)cc2)cc1F
REMARK SMILES IDX 17 1 16 2 15 3 13 4 14 5 12 6 9 7 10 8 85 9 11 10 84 11
REMARK SMILES IDX 86 12 6 13 7 14 8 15 5 16 3 18 4 19 2 20 1 21 18 22 19 23
REMARK SMILES IDX 20 24 21 25 22 26 23 27 24 28 25 29 83 30 26 31 82 32 27 33
REMARK SMILES IDX 28 34 29 35 76 36 30 37 81 38 75 39 77 40 31 41 80 42 74 43
REMARK SMILES IDX 73 44 32 46 62 47 43 48 61 49 44 50 47 51 60 52 78 53 45 54
REMARK SMILES IDX 46 55 59 57 79 58 48 59 33 60 34 61 42 62 35 63 41 64 36 65
REMARK SMILES IDX 37 66 38 67 39 68 40 69 63 70 64 71 72 72 65 73 71 74 66 75
REMARK SMILES IDX 67 76 68 77 69 78 70 79 49 80 50 81 58 82 51 83 57 84 52 85
REMARK SMILES IDX 53 86 54 87 55 88 56 89
REMARK H PARENT 5 17 77 45 47 56
REMARK Flexibility Score: inf
ROOT
ATOM      1  C   UNL A   1      34.019  34.575  29.472  1.00  0.00     0.202 C 
ENDROOT
BRANCH   1   2
ATOM      2  C   UNL A   1      34.190  34.131  28.016  1.00  0.00     0.261 C 
BRANCH   2   3
ATOM      3  O   UNL A   1      33.962  32.722  27.852  1.00  0.00    -0.460 OA
BRANCH   3   4
ATOM      4  C   UNL A   1      32.732  32.410  27.378  1.00  0.00     0.338 C 
ATOM      5  O   UNL A   1      31.816  33.182  27.147  1.00  0.00    -0.246 OA
BRANCH   4   6
ATOM      6  C   UNL A   1      32.671  30.984  26.985  1.00  0.00     0.063 A 
ATOM      7  C   UNL A   1      32.819  28.319  26.174  1.00  0.00     0.118 A 
ATOM      8  C   UNL A   1      33.768  28.825  27.069  1.00  0.00     0.026 A 
ATOM      9  C   UNL A   1      31.767  29.122  25.745  1.00  0.00     0.144 A 
ATOM     10  C   UNL A   1      33.691  30.155  27.473  1.00  0.00     0.017 A 
ATOM     11  C   UNL A   1      31.678  30.456  26.154  1.00  0.00     0.056 A 
ATOM     12  F   UNL A   1      30.819  28.646  24.927  1.00  0.00    -0.205 F 
BRANCH   7  13
ATOM     13  S   UNL A   1      33.138  26.759  25.416  1.00  0.00     0.243 S 
ATOM     14  O   UNL A   1      34.446  26.328  25.851  1.00  0.00    -0.207 OA
ATOM     15  O   UNL A   1      32.839  26.853  24.002  1.00  0.00    -0.207 OA
BRANCH  13  16
ATOM     16  N   UNL A   1      31.996  25.727  26.059  1.00  0.00    -0.208 NA
ATOM     17  H   UNL A   1      32.157  25.735  27.067  1.00  0.00     0.141 HD
BRANCH  16  18
ATOM     18  C   UNL A   1      31.852  24.317  25.694  1.00  0.00     0.066 C 
ATOM     19  C   UNL A   1      32.825  23.500  26.547  1.00  0.00     0.025 C 
BRANCH  18  20
ATOM     20  C   UNL A   1      30.416  23.791  25.832  1.00  0.00     0.016 C 
ATOM     21  C   UNL A   1      30.215  22.694  26.871  1.00  0.00     0.005 C 
ENDBRANCH  18  20
ENDBRANCH  16  18
ENDBRANCH  13  16
ENDBRANCH   7  13
ENDBRANCH   4   6
ENDBRANCH   3   4
ENDBRANCH   2   3
ENDBRANCH   1   2
BRANCH   1  22
ATOM     22  O   UNL A   1      34.032  33.568  30.482  1.00  0.00    -0.374 OA
BRANCH  22  23
ATOM     23  C   UNL A   1      35.225  33.400  31.245  1.00  0.00     0.202 C 
BRANCH  23  24
ATOM     24  C   UNL A   1      36.478  32.868  30.536  1.00  0.00     0.261 C 
BRANCH  24  25
ATOM     25  O   UNL A   1      36.279  31.586  29.920  1.00  0.00    -0.460 OA
BRANCH  25  26
ATOM     26  C   UNL A   1      36.615  30.531  30.705  1.00  0.00     0.338 C 
ATOM     27  O   UNL A   1      35.965  30.060  31.622  1.00  0.00    -0.246 OA
BRANCH  26  28
ATOM     28  C   UNL A   1      37.828  29.881  30.174  1.00  0.00     0.060 A 
ATOM     29  C   UNL A   1      38.713  29.303  31.093  1.00  0.00     0.016 A 
ATOM     30  C   UNL A   1      38.130  29.904  28.812  1.00  0.00     0.016 A 
ATOM     31  C   UNL A   1      39.930  28.785  30.656  1.00  0.00     0.010 A 
ATOM     32  C   UNL A   1      39.354  29.390  28.378  1.00  0.00     0.010 A 
ATOM     33  C   UNL A   1      40.275  28.861  29.301  1.00  0.00    -0.014 A 
BRANCH  33  34
ATOM     34  C   UNL A   1      41.649  28.507  28.868  1.00  0.00     0.031 A 
ATOM     35  C   UNL A   1      42.705  29.579  28.837  1.00  0.00     0.074 A 
ATOM     36  C   UNL A   1      41.955  27.244  28.522  1.00  0.00     0.049 A 
ATOM     37  N   UNL A   1      43.950  29.502  28.445  1.00  0.00    -0.248 NA
ATOM     38  C   UNL A   1      42.302  30.915  29.305  1.00  0.00     0.031 C 
ATOM     39  C   UNL A   1      41.030  26.110  28.554  1.00  0.00     0.029 A 
ATOM     40  N   UNL A   1      43.132  26.705  28.067  1.00  0.00    -0.354 N 
ATOM     41  C   UNL A   1      44.476  30.779  28.603  1.00  0.00     0.074 A 
ATOM     42  C   UNL A   1      43.407  31.618  29.100  1.00  0.00     0.031 C 
ATOM     43  C   UNL A   1      41.675  25.010  28.130  1.00  0.00     0.029 A 
ATOM     44  C   UNL A   1      43.043  25.368  27.759  1.00  0.00     0.049 A 
ATOM     45  H   UNL A   1      43.962  27.225  27.971  1.00  0.00     0.167 HD
ATOM     46  C   UNL A   1      45.736  31.212  28.363  1.00  0.00     0.031 A 
ATOM     47  C   UNL A   1      43.951  24.534  27.215  1.00  0.00     0.031 A 
ATOM     48  C   UNL A   1      46.793  30.373  27.859  1.00  0.00     0.049 A 
ATOM     49  C   UNL A   1      45.325  25.057  26.885  1.00  0.00     0.074 A 
ATOM     50  C   UNL A   1      48.110  30.713  27.600  1.00  0.00     0.029 A 
ATOM     51  N   UNL A   1      46.653  29.033  27.529  1.00  0.00    -0.354 N 
ATOM     52  N   UNL A   1      45.815  26.261  27.064  1.00  0.00    -0.248 NA
ATOM     53  C   UNL A   1      46.272  24.104  26.287  1.00  0.00     0.031 C 
ATOM     54  C   UNL A   1      48.748  29.596  27.051  1.00  0.00     0.029 A 
ATOM     55  C   UNL A   1      47.851  28.540  27.040  1.00  0.00     0.049 A 
ATOM     56  H   UNL A   1      45.825  28.512  27.628  1.00  0.00     0.167 HD
ATOM     57  C   UNL A   1      47.137  26.200  26.636  1.00  0.00     0.074 A 
ATOM     58  C   UNL A   1      47.372  24.840  26.199  1.00  0.00     0.031 C 
ATOM     59  C   UNL A   1      48.074  27.182  26.611  1.00  0.00     0.031 A 
BRANCH  46  60
ATOM     60  C   UNL A   1      46.036  32.670  28.606  1.00  0.00    -0.014 A 
ATOM     61  C   UNL A   1      46.524  33.122  29.846  1.00  0.00     0.010 A 
ATOM     62  C   UNL A   1      45.871  33.596  27.560  1.00  0.00     0.010 A 
ATOM     63  C   UNL A   1      46.804  34.476  30.045  1.00  0.00     0.020 A 
ATOM     64  C   UNL A   1      46.180  34.946  27.745  1.00  0.00     0.020 A 
ATOM     65  C   UNL A   1      46.630  35.380  28.992  1.00  0.00     0.054 A 
BRANCH  65  66
ATOM     66  S   UNL A   1      47.028  37.128  29.272  1.00  0.00     0.124 S 
ATOM     67  O   UNL A   1      47.965  37.401  28.184  1.00  0.00    -0.237 OA
ATOM     68  O   UNL A   1      45.724  37.774  29.156  1.00  0.00    -0.237 OA
ATOM     69  O   UNL A   1      47.610  37.141  30.612  1.00  0.00    -0.744 OA
ENDBRANCH  65  66
ENDBRANCH  46  60
BRANCH  47  70
ATOM     70  C   UNL A   1      43.584  23.119  26.931  1.00  0.00    -0.014 A 
ATOM     71  C   UNL A   1      43.888  22.531  25.691  1.00  0.00     0.010 A 
ATOM     72  C   UNL A   1      42.922  22.349  27.906  1.00  0.00     0.010 A 
ATOM     73  C   UNL A   1      43.523  21.208  25.424  1.00  0.00     0.020 A 
ATOM     74  C   UNL A   1      42.584  21.016  27.655  1.00  0.00     0.020 A 
ATOM     75  C   UNL A   1      42.877  20.459  26.410  1.00  0.00     0.054 A 
BRANCH  75  76
ATOM     76  S   UNL A   1      42.457  18.729  26.058  1.00  0.00     0.124 S 
ATOM     77  O   UNL A   1      43.367  18.412  24.962  1.00  0.00    -0.237 OA
ATOM     78  O   UNL A   1      42.745  18.072  27.331  1.00  0.00    -0.237 OA
ATOM     79  O   UNL A   1      41.041  18.786  25.700  1.00  0.00    -0.744 OA
ENDBRANCH  75  76
ENDBRANCH  47  70
BRANCH  59  80
ATOM     80  C   UNL A   1      49.460  26.815  26.144  1.00  0.00    -0.014 A 
ATOM     81  C   UNL A   1      50.410  26.260  27.019  1.00  0.00     0.010 A 
ATOM     82  C   UNL A   1      49.793  26.973  24.786  1.00  0.00     0.010 A 
ATOM     83  C   UNL A   1      51.677  25.899  26.551  1.00  0.00     0.020 A 
ATOM     84  C   UNL A   1      51.046  26.582  24.307  1.00  0.00     0.020 A 
ATOM     85  C   UNL A   1      51.986  26.060  25.196  1.00  0.00     0.054 A 
BRANCH  85  86
ATOM     86  S   UNL A   1      53.619  25.538  24.605  1.00  0.00     0.124 S 
ATOM     87  O   UNL A   1      54.512  26.210  25.544  1.00  0.00    -0.237 OA
ATOM     88  O   UNL A   1      53.554  24.083  24.731  1.00  0.00    -0.237 OA
ATOM     89  O   UNL A   1      53.667  26.036  23.232  1.00  0.00    -0.744 OA
ENDBRANCH  85  86
ENDBRANCH  59  80
ENDBRANCH  33  34
ENDBRANCH  26  28
ENDBRANCH  25  26
ENDBRANCH  24  25
ENDBRANCH  23  24
ENDBRANCH  22  23
ENDBRANCH   1  22
TORSDOF 21
ENDMDL
MODEL 3
REMARK VINA RESULT:      -9.5      7.240     14.106
REMARK SMILES CC[C@H](C)NS(=O)(=O)c1ccc(C(=O)OCCOCCOC(=O)c2ccc(-c3c4nc(c(-c5ccc(S(=O)(=O)[O-])cc5)c5ccc([nH]5)c(-c5ccc(S(=O)(=O)[O-])cc5)c5nc(c(-c6ccc(S(=O)(=O)[O-])cc6)c6ccc3[nH]6)C=C5)C=C4)cc2)cc1F
REMARK SMILES IDX 17 1 16 2 15 3 13 4 14 5 12 6 9 7 10 8 85 9 11 10 84 11
REMARK SMILES IDX 86 12 6 13 7 14 8 15 5 16 3 18 4 19 2 20 1 21 18 22 19 23
REMARK SMILES IDX 20 24 21 25 22 26 23 27 24 28 25 29 83 30 26 31 82 32 27 33
REMARK SMILES IDX 28 34 29 35 76 36 30 37 81 38 75 39 77 40 31 41 80 42 74 43
REMARK SMILES IDX 73 44 32 46 62 47 43 48 61 49 44 50 47 51 60 52 78 53 45 54
REMARK SMILES IDX 46 55 59 57 79 58 48 59 33 60 34 61 42 62 35 63 41 64 36 65
REMARK SMILES IDX 37 66 38 67 39 68 40 69 63 70 64 71 72 72 65 73 71 74 66 75
REMARK SMILES IDX 67 76 68 77 69 78 70 79 49 80 50 81 58 82 51 83 57 84 52 85
REMARK SMILES IDX 53 86 54 87 55 88 56 89
REMARK H PARENT 5 17 77 45 47 56
REMARK Flexibility Score: inf
ROOT
ATOM      1  C   UNL A   1      33.929  33.723  28.196  1.00  0.00     0.202 C 
ENDROOT
BRANCH   1   2
ATOM      2  C   UNL A   1      33.359  35.033  28.747  1.00  0.00     0.261 C 
BRANCH   2   3
ATOM      3  O   UNL A   1      32.628  34.832  29.968  1.00  0.00    -0.460 OA
BRANCH   3   4
ATOM      4  C   UNL A   1      32.979  35.672  30.970  1.00  0.00     0.338 C 
ATOM      5  O   UNL A   1      32.418  36.707  31.291  1.00  0.00    -0.246 OA
BRANCH   4   6
ATOM      6  C   UNL A   1      34.065  35.085  31.788  1.00  0.00     0.063 A 
ATOM      7  C   UNL A   1      36.033  34.149  33.528  1.00  0.00     0.118 A 
ATOM      8  C   UNL A   1      34.704  34.217  33.958  1.00  0.00     0.026 A 
ATOM      9  C   UNL A   1      36.360  34.480  32.217  1.00  0.00     0.144 A 
ATOM     10  C   UNL A   1      33.723  34.684  33.087  1.00  0.00     0.017 A 
ATOM     11  C   UNL A   1      35.379  34.941  31.334  1.00  0.00     0.056 A 
ATOM     12  F   UNL A   1      37.618  34.377  31.767  1.00  0.00    -0.205 F 
BRANCH   7  13
ATOM     13  S   UNL A   1      37.289  33.893  34.740  1.00  0.00     0.243 S 
ATOM     14  O   UNL A   1      36.636  33.448  35.949  1.00  0.00    -0.207 OA
ATOM     15  O   UNL A   1      38.155  35.054  34.770  1.00  0.00    -0.207 OA
BRANCH  13  16
ATOM     16  N   UNL A   1      38.216  32.642  34.142  1.00  0.00    -0.208 NA
ATOM     17  H   UNL A   1      38.337  32.841  33.149  1.00  0.00     0.141 HD
BRANCH  16  18
ATOM     18  C   UNL A   1      37.848  31.228  34.219  1.00  0.00     0.066 C 
ATOM     19  C   UNL A   1      37.071  30.866  32.950  1.00  0.00     0.025 C 
BRANCH  18  20
ATOM     20  C   UNL A   1      39.049  30.292  34.419  1.00  0.00     0.016 C 
ATOM     21  C   UNL A   1      39.933  30.084  33.194  1.00  0.00     0.005 C 
ENDBRANCH  18  20
ENDBRANCH  16  18
ENDBRANCH  13  16
ENDBRANCH   7  13
ENDBRANCH   4   6
ENDBRANCH   3   4
ENDBRANCH   2   3
ENDBRANCH   1   2
BRANCH   1  22
ATOM     22  O   UNL A   1      35.197  33.770  27.545  1.00  0.00    -0.374 OA
BRANCH  22  23
ATOM     23  C   UNL A   1      36.231  32.915  28.027  1.00  0.00     0.202 C 
BRANCH  23  24
ATOM     24  C   UNL A   1      35.952  32.058  29.269  1.00  0.00     0.261 C 
BRANCH  24  25
ATOM     25  O   UNL A   1      37.026  31.159  29.588  1.00  0.00    -0.460 OA
BRANCH  25  26
ATOM     26  C   UNL A   1      36.929  29.940  28.998  1.00  0.00     0.338 C 
ATOM     27  O   UNL A   1      35.909  29.369  28.654  1.00  0.00    -0.246 OA
BRANCH  26  28
ATOM     28  C   UNL A   1      38.273  29.452  28.638  1.00  0.00     0.060 A 
ATOM     29  C   UNL A   1      39.127  29.071  29.681  1.00  0.00     0.016 A 
ATOM     30  C   UNL A   1      38.715  29.440  27.315  1.00  0.00     0.016 A 
ATOM     31  C   UNL A   1      40.447  28.718  29.407  1.00  0.00     0.010 A 
ATOM     32  C   UNL A   1      40.041  29.093  27.044  1.00  0.00     0.010 A 
ATOM     33  C   UNL A   1      40.923  28.766  28.091  1.00  0.00    -0.014 A 
BRANCH  33  34
ATOM     34  C   UNL A   1      42.372  28.599  27.823  1.00  0.00     0.031 A 
ATOM     35  C   UNL A   1      43.299  29.761  28.064  1.00  0.00     0.074 A 
ATOM     36  C   UNL A   1      42.859  27.424  27.386  1.00  0.00     0.049 A 
ATOM     37  N   UNL A   1      44.585  29.852  27.849  1.00  0.00    -0.248 NA
ATOM     38  C   UNL A   1      42.693  30.984  28.616  1.00  0.00     0.031 C 
ATOM     39  C   UNL A   1      42.068  26.214  27.158  1.00  0.00     0.029 A 
ATOM     40  N   UNL A   1      44.138  27.059  27.048  1.00  0.00    -0.354 N 
ATOM     41  C   UNL A   1      44.942  31.143  28.223  1.00  0.00     0.074 A 
ATOM     42  C   UNL A   1      43.731  31.808  28.651  1.00  0.00     0.031 C 
ATOM     43  C   UNL A   1      42.881  25.241  26.712  1.00  0.00     0.029 A 
ATOM     44  C   UNL A   1      44.238  25.769  26.583  1.00  0.00     0.049 A 
ATOM     45  H   UNL A   1      44.911  27.664  27.132  1.00  0.00     0.167 HD
ATOM     46  C   UNL A   1      46.167  31.719  28.217  1.00  0.00     0.031 A 
ATOM     47  C   UNL A   1      45.297  25.100  26.086  1.00  0.00     0.031 A 
ATOM     48  C   UNL A   1      47.367  31.053  27.780  1.00  0.00     0.049 A 
ATOM     49  C   UNL A   1      46.636  25.786  26.018  1.00  0.00     0.074 A 
ATOM     50  C   UNL A   1      48.661  31.544  27.752  1.00  0.00     0.029 A 
ATOM     51  N   UNL A   1      47.420  29.757  27.286  1.00  0.00    -0.354 N 
ATOM     52  N   UNL A   1      46.962  26.999  26.399  1.00  0.00    -0.248 NA
ATOM     53  C   UNL A   1      47.753  25.010  25.460  1.00  0.00     0.031 C 
ATOM     54  C   UNL A   1      49.485  30.570  27.180  1.00  0.00     0.029 A 
ATOM     55  C   UNL A   1      48.720  29.444  26.923  1.00  0.00     0.049 A 
ATOM     56  H   UNL A   1      46.649  29.152  27.206  1.00  0.00     0.167 HD
ATOM     57  C   UNL A   1      48.328  27.117  26.161  1.00  0.00     0.074 A 
ATOM     58  C   UNL A   1      48.767  25.851  25.614  1.00  0.00     0.031 C 
ATOM     59  C   UNL A   1      49.146  28.177  26.381  1.00  0.00     0.031 A 
BRANCH  46  60
ATOM     60  C   UNL A   1      46.269  33.156  28.661  1.00  0.00    -0.014 A 
ATOM     61  C   UNL A   1      46.487  33.492  30.010  1.00  0.00     0.010 A 
ATOM     62  C   UNL A   1      46.194  34.184  27.705  1.00  0.00     0.010 A 
ATOM     63  C   UNL A   1      46.588  34.831  30.397  1.00  0.00     0.020 A 
ATOM     64  C   UNL A   1      46.326  35.523  28.083  1.00  0.00     0.020 A 
ATOM     65  C   UNL A   1      46.507  35.839  29.430  1.00  0.00     0.054 A 
BRANCH  65  66
ATOM     66  S   UNL A   1      46.670  37.566  29.960  1.00  0.00     0.124 S 
ATOM     67  O   UNL A   1      46.481  38.286  28.702  1.00  0.00    -0.237 OA
ATOM     68  O   UNL A   1      45.587  37.705  30.931  1.00  0.00    -0.237 OA
ATOM     69  O   UNL A   1      48.018  37.633  30.519  1.00  0.00    -0.744 OA
ENDBRANCH  65  66
ENDBRANCH  46  60
BRANCH  47  70
ATOM     70  C   UNL A   1      45.129  23.703  25.596  1.00  0.00    -0.014 A 
ATOM     71  C   UNL A   1      45.389  22.609  26.439  1.00  0.00     0.010 A 
ATOM     72  C   UNL A   1      44.706  23.461  24.276  1.00  0.00     0.010 A 
ATOM     73  C   UNL A   1      45.248  21.301  25.967  1.00  0.00     0.020 A 
ATOM     74  C   UNL A   1      44.533  22.155  23.810  1.00  0.00     0.020 A 
ATOM     75  C   UNL A   1      44.817  21.083  24.656  1.00  0.00     0.054 A 
BRANCH  75  76
ATOM     76  S   UNL A   1      44.594  19.376  24.082  1.00  0.00     0.124 S 
ATOM     77  O   UNL A   1      43.360  18.987  24.757  1.00  0.00    -0.237 OA
ATOM     78  O   UNL A   1      44.499  19.543  22.633  1.00  0.00    -0.237 OA
ATOM     79  O   UNL A   1      45.803  18.698  24.545  1.00  0.00    -0.744 OA
ENDBRANCH  75  76
ENDBRANCH  47  70
BRANCH  59  80
ATOM     80  C   UNL A   1      50.613  28.004  26.081  1.00  0.00    -0.014 A 
ATOM     81  C   UNL A   1      51.509  27.505  27.043  1.00  0.00     0.010 A 
ATOM     82  C   UNL A   1      51.089  28.288  24.787  1.00  0.00     0.010 A 
ATOM     83  C   UNL A   1      52.858  27.324  26.726  1.00  0.00     0.020 A 
ATOM     84  C   UNL A   1      52.430  28.077  24.456  1.00  0.00     0.020 A 
ATOM     85  C   UNL A   1      53.310  27.608  25.432  1.00  0.00     0.054 A 
BRANCH  85  86
ATOM     86  S   UNL A   1      55.054  27.318  25.033  1.00  0.00     0.124 S 
ATOM     87  O   UNL A   1      54.960  26.380  23.918  1.00  0.00    -0.237 OA
ATOM     88  O   UNL A   1      55.531  28.656  24.690  1.00  0.00    -0.237 OA
ATOM     89  O   UNL A   1      55.606  26.764  26.268  1.00  0.00    -0.744 OA
ENDBRANCH  85  86
ENDBRANCH  59  80
ENDBRANCH  33  34
ENDBRANCH  26  28
ENDBRANCH  25  26
ENDBRANCH  24  25
ENDBRANCH  23  24
ENDBRANCH  22  23
ENDBRANCH   1  22
TORSDOF 21
ENDMDL
