MODEL 1
REMARK VINA RESULT:     -10.2      0.000      0.000
REMARK SMILES COc1ccc([C@H](C)[N@H+]2CC[C@H](C(=O)OCCOCCOC(=O)c3ccc(-c4c5nc(c(-c6ccc(S(=O)(=O)[O-])cc6)c6ccc([nH]6)c(-c6ccc(S(=O)(=O)[O-])cc6)c6nc(c(-c7ccc(S(=O)(=O)[O-])cc7)c7ccc4[nH]7)C=C6)C=C5)cc3)[C@@H]2C)cc1
REMARK SMILES IDX 18 1 17 2 16 3 15 4 13 5 14 6 12 7 9 8 10 9 84 10 11 12
REMARK SMILES IDX 85 13 7 14 8 15 6 16 3 17 4 18 87 19 5 20 86 21 2 22 1 23
REMARK SMILES IDX 19 24 20 25 21 26 22 27 23 28 24 29 25 30 83 31 26 32 82 33
REMARK SMILES IDX 27 34 28 35 29 36 76 37 30 38 81 39 75 40 77 41 31 42 80 43
REMARK SMILES IDX 74 44 73 45 32 47 62 48 43 49 61 50 44 51 47 52 60 53 78 54
REMARK SMILES IDX 45 55 46 56 59 58 79 59 48 60 33 61 34 62 42 63 35 64 41 65
REMARK SMILES IDX 36 66 37 67 38 68 39 69 40 70 63 71 64 72 72 73 65 74 71 75
REMARK SMILES IDX 66 76 67 77 68 78 69 79 70 80 49 81 50 82 58 83 51 84 57 85
REMARK SMILES IDX 52 86 53 87 54 88 55 89 56 90
REMARK H PARENT 9 11 77 46 47 57
REMARK Flexibility Score: inf
ROOT
ATOM      1  O   UNL A   1      36.894  21.556  25.968  1.00  0.00    -0.374 OA
ENDROOT
BRANCH   1   2
ATOM      2  C   UNL A   1      36.576  20.561  24.994  1.00  0.00     0.202 C 
BRANCH   2   3
ATOM      3  C   UNL A   1      35.146  20.011  25.000  1.00  0.00     0.261 C 
BRANCH   3   4
ATOM      4  O   UNL A   1      34.200  21.023  24.625  1.00  0.00    -0.463 OA
BRANCH   4   5
ATOM      5  C   UNL A   1      33.436  21.512  25.634  1.00  0.00     0.315 C 
ATOM      6  O   UNL A   1      33.631  21.294  26.825  1.00  0.00    -0.252 OA
BRANCH   5   7
ATOM      7  C   UNL A   1      32.394  22.506  25.151  1.00  0.00     0.162 C 
ATOM      8  N   UNL A   1      32.213  24.744  26.010  1.00  0.00    -0.326 N 
ATOM      9  C   UNL A   1      31.410  23.858  26.855  1.00  0.00     0.264 C 
ATOM     10  C   UNL A   1      32.909  23.941  24.992  1.00  0.00     0.196 C 
ATOM     11  H   UNL A   1      32.919  25.180  26.602  1.00  0.00     0.348 HD
ATOM     12  C   UNL A   1      31.133  22.643  26.003  1.00  0.00     0.083 C 
ATOM     13  C   UNL A   1      34.413  24.157  25.116  1.00  0.00     0.076 C 
BRANCH   8  14
ATOM     14  C   UNL A   1      31.525  25.952  25.508  1.00  0.00     0.212 C 
ATOM     15  C   UNL A   1      30.009  25.956  25.796  1.00  0.00     0.081 C 
BRANCH  14  16
ATOM     16  C   UNL A   1      32.251  27.215  25.989  1.00  0.00     0.009 A 
ATOM     17  C   UNL A   1      33.414  29.678  26.708  1.00  0.00     0.118 A 
ATOM     18  C   UNL A   1      32.128  29.367  27.138  1.00  0.00     0.047 A 
ATOM     19  C   UNL A   1      34.152  28.740  25.992  1.00  0.00     0.047 A 
ATOM     20  C   UNL A   1      31.552  28.146  26.783  1.00  0.00     0.013 A 
ATOM     21  C   UNL A   1      33.574  27.519  25.635  1.00  0.00     0.013 A 
BRANCH  17  22
ATOM     22  O   UNL A   1      33.910  30.902  27.064  1.00  0.00    -0.497 OA
ATOM     23  C   UNL A   1      34.482  30.904  28.373  1.00  0.00     0.278 C 
ENDBRANCH  17  22
ENDBRANCH  14  16
ENDBRANCH   8  14
ENDBRANCH   5   7
ENDBRANCH   4   5
ENDBRANCH   3   4
ENDBRANCH   2   3
ENDBRANCH   1   2
BRANCH   1  24
ATOM     24  C   UNL A   1      37.756  22.621  25.569  1.00  0.00     0.202 C 
BRANCH  24  25
ATOM     25  C   UNL A   1      39.174  22.640  26.151  1.00  0.00     0.261 C 
BRANCH  25  26
ATOM     26  O   UNL A   1      39.340  23.670  27.140  1.00  0.00    -0.460 OA
BRANCH  26  27
ATOM     27  C   UNL A   1      40.145  24.692  26.763  1.00  0.00     0.338 C 
ATOM     28  O   UNL A   1      40.572  24.920  25.638  1.00  0.00    -0.246 OA
BRANCH  27  29
ATOM     29  C   UNL A   1      40.290  25.643  27.878  1.00  0.00     0.060 A 
ATOM     30  C   UNL A   1      39.234  25.734  28.796  1.00  0.00     0.016 A 
ATOM     31  C   UNL A   1      41.414  26.461  28.002  1.00  0.00     0.016 A 
ATOM     32  C   UNL A   1      39.288  26.664  29.830  1.00  0.00     0.010 A 
ATOM     33  C   UNL A   1      41.457  27.405  29.031  1.00  0.00     0.010 A 
ATOM     34  C   UNL A   1      40.386  27.526  29.936  1.00  0.00    -0.014 A 
BRANCH  34  35
ATOM     35  C   UNL A   1      40.369  28.625  30.928  1.00  0.00     0.031 A 
ATOM     36  C   UNL A   1      41.313  28.570  32.096  1.00  0.00     0.074 A 
ATOM     37  C   UNL A   1      39.525  29.661  30.780  1.00  0.00     0.049 A 
ATOM     38  N   UNL A   1      41.418  29.388  33.111  1.00  0.00    -0.248 NA
ATOM     39  C   UNL A   1      42.263  27.446  32.125  1.00  0.00     0.031 C 
ATOM     40  C   UNL A   1      38.603  29.845  29.660  1.00  0.00     0.029 A 
ATOM     41  N   UNL A   1      39.299  30.747  31.586  1.00  0.00    -0.354 N 
ATOM     42  C   UNL A   1      42.438  28.875  33.905  1.00  0.00     0.074 A 
ATOM     43  C   UNL A   1      42.904  27.664  33.264  1.00  0.00     0.031 C 
ATOM     44  C   UNL A   1      37.900  30.974  29.858  1.00  0.00     0.029 A 
ATOM     45  C   UNL A   1      38.292  31.566  31.135  1.00  0.00     0.049 A 
ATOM     46  H   UNL A   1      39.811  30.925  32.408  1.00  0.00     0.167 HD
ATOM     47  C   UNL A   1      42.937  29.371  35.061  1.00  0.00     0.031 A 
ATOM     48  C   UNL A   1      37.726  32.648  31.705  1.00  0.00     0.031 A 
ATOM     49  C   UNL A   1      42.454  30.566  35.700  1.00  0.00     0.049 A 
ATOM     50  C   UNL A   1      38.230  33.120  33.043  1.00  0.00     0.074 A 
ATOM     51  C   UNL A   1      42.907  31.164  36.862  1.00  0.00     0.029 A 
ATOM     52  N   UNL A   1      41.396  31.335  35.242  1.00  0.00    -0.354 N 
ATOM     53  N   UNL A   1      39.216  32.646  33.766  1.00  0.00    -0.248 NA
ATOM     54  C   UNL A   1      37.541  34.271  33.644  1.00  0.00     0.031 C 
ATOM     55  C   UNL A   1      42.081  32.257  37.142  1.00  0.00     0.029 A 
ATOM     56  C   UNL A   1      41.151  32.377  36.120  1.00  0.00     0.049 A 
ATOM     57  H   UNL A   1      40.891  31.166  34.413  1.00  0.00     0.167 HD
ATOM     58  C   UNL A   1      39.274  33.447  34.902  1.00  0.00     0.074 A 
ATOM     59  C   UNL A   1      38.239  34.451  34.759  1.00  0.00     0.031 C 
ATOM     60  C   UNL A   1      40.107  33.358  35.969  1.00  0.00     0.031 A 
BRANCH  47  61
ATOM     61  C   UNL A   1      44.040  28.596  35.734  1.00  0.00    -0.014 A 
ATOM     62  C   UNL A   1      43.758  27.521  36.595  1.00  0.00     0.010 A 
ATOM     63  C   UNL A   1      45.382  28.925  35.467  1.00  0.00     0.010 A 
ATOM     64  C   UNL A   1      44.797  26.811  37.204  1.00  0.00     0.020 A 
ATOM     65  C   UNL A   1      46.424  28.201  36.054  1.00  0.00     0.020 A 
ATOM     66  C   UNL A   1      46.123  27.158  36.932  1.00  0.00     0.054 A 
BRANCH  66  67
ATOM     67  S   UNL A   1      47.452  26.207  37.720  1.00  0.00     0.124 S 
ATOM     68  O   UNL A   1      48.384  26.017  36.611  1.00  0.00    -0.237 OA
ATOM     69  O   UNL A   1      47.907  27.107  38.776  1.00  0.00    -0.237 OA
ATOM     70  O   UNL A   1      46.783  24.994  38.183  1.00  0.00    -0.744 OA
ENDBRANCH  66  67
ENDBRANCH  47  61
BRANCH  48  71
ATOM     71  C   UNL A   1      36.589  33.332  31.032  1.00  0.00    -0.014 A 
ATOM     72  C   UNL A   1      35.333  33.420  31.656  1.00  0.00     0.010 A 
ATOM     73  C   UNL A   1      36.762  33.907  29.759  1.00  0.00     0.010 A 
ATOM     74  C   UNL A   1      34.269  34.062  31.015  1.00  0.00     0.020 A 
ATOM     75  C   UNL A   1      35.709  34.574  29.127  1.00  0.00     0.020 A 
ATOM     76  C   UNL A   1      34.465  34.639  29.757  1.00  0.00     0.054 A 
BRANCH  76  77
ATOM     77  S   UNL A   1      33.085  35.516  28.971  1.00  0.00     0.124 S 
ATOM     78  O   UNL A   1      33.767  36.624  28.310  1.00  0.00    -0.237 OA
ATOM     79  O   UNL A   1      32.528  34.495  28.085  1.00  0.00    -0.237 OA
ATOM     80  O   UNL A   1      32.229  35.887  30.096  1.00  0.00    -0.744 OA
ENDBRANCH  76  77
ENDBRANCH  48  71
BRANCH  60  81
ATOM     81  C   UNL A   1      39.937  34.373  37.069  1.00  0.00    -0.014 A 
ATOM     82  C   UNL A   1      40.496  35.658  36.959  1.00  0.00     0.010 A 
ATOM     83  C   UNL A   1      39.147  34.062  38.191  1.00  0.00     0.010 A 
ATOM     84  C   UNL A   1      40.284  36.609  37.961  1.00  0.00     0.020 A 
ATOM     85  C   UNL A   1      38.909  35.020  39.181  1.00  0.00     0.020 A 
ATOM     86  C   UNL A   1      39.488  36.285  39.064  1.00  0.00     0.054 A 
BRANCH  86  87
ATOM     87  S   UNL A   1      39.177  37.559  40.316  1.00  0.00     0.124 S 
ATOM     88  O   UNL A   1      38.541  36.790  41.382  1.00  0.00    -0.237 OA
ATOM     89  O   UNL A   1      40.520  38.051  40.613  1.00  0.00    -0.237 OA
ATOM     90  O   UNL A   1      38.308  38.514  39.633  1.00  0.00    -0.744 OA
ENDBRANCH  86  87
ENDBRANCH  60  81
ENDBRANCH  34  35
ENDBRANCH  27  29
ENDBRANCH  26  27
ENDBRANCH  25  26
ENDBRANCH  24  25
ENDBRANCH   1  24
TORSDOF 20
ENDMDL
MODEL 2
REMARK VINA RESULT:     -10.1      4.225      9.916
REMARK SMILES COc1ccc([C@H](C)[N@H+]2CC[C@H](C(=O)OCCOCCOC(=O)c3ccc(-c4c5nc(c(-c6ccc(S(=O)(=O)[O-])cc6)c6ccc([nH]6)c(-c6ccc(S(=O)(=O)[O-])cc6)c6nc(c(-c7ccc(S(=O)(=O)[O-])cc7)c7ccc4[nH]7)C=C6)C=C5)cc3)[C@@H]2C)cc1
REMARK SMILES IDX 18 1 17 2 16 3 15 4 13 5 14 6 12 7 9 8 10 9 84 10 11 12
REMARK SMILES IDX 85 13 7 14 8 15 6 16 3 17 4 18 87 19 5 20 86 21 2 22 1 23
REMARK SMILES IDX 19 24 20 25 21 26 22 27 23 28 24 29 25 30 83 31 26 32 82 33
REMARK SMILES IDX 27 34 28 35 29 36 76 37 30 38 81 39 75 40 77 41 31 42 80 43
REMARK SMILES IDX 74 44 73 45 32 47 62 48 43 49 61 50 44 51 47 52 60 53 78 54
REMARK SMILES IDX 45 55 46 56 59 58 79 59 48 60 33 61 34 62 42 63 35 64 41 65
REMARK SMILES IDX 36 66 37 67 38 68 39 69 40 70 63 71 64 72 72 73 65 74 71 75
REMARK SMILES IDX 66 76 67 77 68 78 69 79 70 80 49 81 50 82 58 83 51 84 57 85
REMARK SMILES IDX 52 86 53 87 54 88 55 89 56 90
REMARK H PARENT 9 11 77 46 47 57
REMARK Flexibility Score: inf
ROOT
ATOM      1  O   UNL A   1      31.025  29.305  25.111  1.00  0.00    -0.374 OA
ENDROOT
BRANCH   1   2
ATOM      2  C   UNL A   1      30.858  28.602  23.879  1.00  0.00     0.202 C 
BRANCH   2   3
ATOM      3  C   UNL A   1      32.130  28.116  23.176  1.00  0.00     0.261 C 
BRANCH   3   4
ATOM      4  O   UNL A   1      32.143  26.686  23.060  1.00  0.00    -0.463 OA
BRANCH   4   5
ATOM      5  C   UNL A   1      33.270  26.153  22.525  1.00  0.00     0.315 C 
ATOM      6  O   UNL A   1      33.619  26.289  21.357  1.00  0.00    -0.252 OA
BRANCH   5   7
ATOM      7  C   UNL A   1      34.159  25.495  23.566  1.00  0.00     0.162 C 
ATOM      8  N   UNL A   1      33.520  23.526  24.786  1.00  0.00    -0.326 N 
ATOM      9  C   UNL A   1      33.030  24.699  25.512  1.00  0.00     0.264 C 
ATOM     10  C   UNL A   1      34.152  23.963  23.531  1.00  0.00     0.196 C 
ATOM     11  H   UNL A   1      32.712  22.951  24.548  1.00  0.00     0.348 HD
ATOM     12  C   UNL A   1      33.879  25.848  25.025  1.00  0.00     0.083 C 
ATOM     13  C   UNL A   1      33.452  23.297  22.352  1.00  0.00     0.076 C 
BRANCH   8  14
ATOM     14  C   UNL A   1      34.295  22.552  25.585  1.00  0.00     0.212 C 
ATOM     15  C   UNL A   1      34.261  22.840  27.101  1.00  0.00     0.081 C 
BRANCH  14  16
ATOM     16  C   UNL A   1      33.887  21.119  25.216  1.00  0.00     0.009 A 
ATOM     17  C   UNL A   1      33.251  18.536  24.291  1.00  0.00     0.118 A 
ATOM     18  C   UNL A   1      34.578  18.878  24.534  1.00  0.00     0.047 A 
ATOM     19  C   UNL A   1      32.237  19.444  24.581  1.00  0.00     0.047 A 
ATOM     20  C   UNL A   1      34.893  20.158  24.994  1.00  0.00     0.013 A 
ATOM     21  C   UNL A   1      32.553  20.725  25.039  1.00  0.00     0.013 A 
BRANCH  17  22
ATOM     22  O   UNL A   1      33.011  17.277  23.814  1.00  0.00    -0.497 OA
ATOM     23  C   UNL A   1      34.201  16.612  23.390  1.00  0.00     0.278 C 
ENDBRANCH  17  22
ENDBRANCH  14  16
ENDBRANCH   8  14
ENDBRANCH   5   7
ENDBRANCH   4   5
ENDBRANCH   3   4
ENDBRANCH   2   3
ENDBRANCH   1   2
BRANCH   1  24
ATOM     24  C   UNL A   1      32.352  29.447  25.616  1.00  0.00     0.202 C 
BRANCH  24  25
ATOM     25  C   UNL A   1      32.514  29.695  27.120  1.00  0.00     0.261 C 
BRANCH  25  26
ATOM     26  O   UNL A   1      33.826  29.339  27.589  1.00  0.00    -0.460 OA
BRANCH  26  27
ATOM     27  C   UNL A   1      34.571  30.379  28.030  1.00  0.00     0.338 C 
ATOM     28  O   UNL A   1      34.168  31.483  28.375  1.00  0.00    -0.246 OA
BRANCH  27  29
ATOM     29  C   UNL A   1      35.961  29.937  28.238  1.00  0.00     0.060 A 
ATOM     30  C   UNL A   1      36.317  29.496  29.520  1.00  0.00     0.016 A 
ATOM     31  C   UNL A   1      36.908  29.994  27.216  1.00  0.00     0.016 A 
ATOM     32  C   UNL A   1      37.633  29.131  29.790  1.00  0.00     0.010 A 
ATOM     33  C   UNL A   1      38.232  29.644  27.495  1.00  0.00     0.010 A 
ATOM     34  C   UNL A   1      38.604  29.232  28.788  1.00  0.00    -0.014 A 
BRANCH  34  35
ATOM     35  C   UNL A   1      40.030  29.008  29.117  1.00  0.00     0.031 A 
ATOM     36  C   UNL A   1      40.662  27.688  28.776  1.00  0.00     0.074 A 
ATOM     37  C   UNL A   1      40.752  29.977  29.707  1.00  0.00     0.049 A 
ATOM     38  N   UNL A   1      41.870  27.259  29.033  1.00  0.00    -0.248 NA
ATOM     39  C   UNL A   1      39.820  26.723  28.048  1.00  0.00     0.031 C 
ATOM     40  C   UNL A   1      40.260  31.315  30.036  1.00  0.00     0.029 A 
ATOM     41  N   UNL A   1      42.052  29.978  30.144  1.00  0.00    -0.354 N 
ATOM     42  C   UNL A   1      41.933  25.973  28.510  1.00  0.00     0.074 A 
ATOM     43  C   UNL A   1      40.635  25.684  27.939  1.00  0.00     0.031 C 
ATOM     44  C   UNL A   1      41.245  32.004  30.638  1.00  0.00     0.029 A 
ATOM     45  C   UNL A   1      42.419  31.144  30.773  1.00  0.00     0.049 A 
ATOM     46  H   UNL A   1      42.664  29.218  30.018  1.00  0.00     0.167 HD
ATOM     47  C   UNL A   1      42.980  25.114  28.506  1.00  0.00     0.031 A 
ATOM     48  C   UNL A   1      43.559  31.467  31.416  1.00  0.00     0.031 A 
ATOM     49  C   UNL A   1      44.261  25.405  29.092  1.00  0.00     0.049 A 
ATOM     50  C   UNL A   1      44.672  30.456  31.488  1.00  0.00     0.074 A 
ATOM     51  C   UNL A   1      45.394  24.610  29.123  1.00  0.00     0.029 A 
ATOM     52  N   UNL A   1      44.575  26.573  29.768  1.00  0.00    -0.354 N 
ATOM     53  N   UNL A   1      44.731  29.256  30.961  1.00  0.00    -0.248 NA
ATOM     54  C   UNL A   1      45.870  30.840  32.248  1.00  0.00     0.031 C 
ATOM     55  C   UNL A   1      46.371  25.271  29.874  1.00  0.00     0.029 A 
ATOM     56  C   UNL A   1      45.868  26.505  30.259  1.00  0.00     0.049 A 
ATOM     57  H   UNL A   1      43.968  27.340  29.883  1.00  0.00     0.167 HD
ATOM     58  C   UNL A   1      45.977  28.747  31.314  1.00  0.00     0.074 A 
ATOM     59  C   UNL A   1      46.647  29.777  32.080  1.00  0.00     0.031 C 
ATOM     60  C   UNL A   1      46.515  27.534  31.032  1.00  0.00     0.031 A 
BRANCH  47  61
ATOM     61  C   UNL A   1      42.769  23.760  27.883  1.00  0.00    -0.014 A 
ATOM     62  C   UNL A   1      43.072  23.521  26.531  1.00  0.00     0.010 A 
ATOM     63  C   UNL A   1      42.296  22.697  28.675  1.00  0.00     0.010 A 
ATOM     64  C   UNL A   1      42.874  22.254  25.973  1.00  0.00     0.020 A 
ATOM     65  C   UNL A   1      42.121  21.423  28.129  1.00  0.00     0.020 A 
ATOM     66  C   UNL A   1      42.397  21.214  26.776  1.00  0.00     0.054 A 
BRANCH  66  67
ATOM     67  S   UNL A   1      42.169  19.574  26.033  1.00  0.00     0.124 S 
ATOM     68  O   UNL A   1      42.601  18.692  27.113  1.00  0.00    -0.237 OA
ATOM     69  O   UNL A   1      40.739  19.553  25.738  1.00  0.00    -0.237 OA
ATOM     70  O   UNL A   1      43.043  19.599  24.863  1.00  0.00    -0.744 OA
ENDBRANCH  66  67
ENDBRANCH  47  61
BRANCH  48  71
ATOM     71  C   UNL A   1      43.686  32.793  32.079  1.00  0.00    -0.014 A 
ATOM     72  C   UNL A   1      43.306  32.964  33.421  1.00  0.00     0.010 A 
ATOM     73  C   UNL A   1      44.198  33.895  31.368  1.00  0.00     0.010 A 
ATOM     74  C   UNL A   1      43.426  34.214  34.036  1.00  0.00     0.020 A 
ATOM     75  C   UNL A   1      44.346  35.138  31.987  1.00  0.00     0.020 A 
ATOM     76  C   UNL A   1      43.950  35.292  33.317  1.00  0.00     0.054 A 
BRANCH  76  77
ATOM     77  S   UNL A   1      44.149  36.889  34.154  1.00  0.00     0.124 S 
ATOM     78  O   UNL A   1      45.602  37.031  34.195  1.00  0.00    -0.237 OA
ATOM     79  O   UNL A   1      43.448  37.804  33.255  1.00  0.00    -0.237 OA
ATOM     80  O   UNL A   1      43.502  36.681  35.447  1.00  0.00    -0.744 OA
ENDBRANCH  76  77
ENDBRANCH  48  71
BRANCH  60  81
ATOM     81  C   UNL A   1      47.900  27.251  31.554  1.00  0.00    -0.014 A 
ATOM     82  C   UNL A   1      48.089  26.640  32.805  1.00  0.00     0.010 A 
ATOM     83  C   UNL A   1      49.020  27.533  30.751  1.00  0.00     0.010 A 
ATOM     84  C   UNL A   1      49.376  26.331  33.253  1.00  0.00     0.020 A 
ATOM     85  C   UNL A   1      50.307  27.200  31.184  1.00  0.00     0.020 A 
ATOM     86  C   UNL A   1      50.477  26.609  32.437  1.00  0.00     0.054 A 
BRANCH  86  87
ATOM     87  S   UNL A   1      52.130  26.138  33.016  1.00  0.00     0.124 S 
ATOM     88  O   UNL A   1      51.874  25.777  34.408  1.00  0.00    -0.237 OA
ATOM     89  O   UNL A   1      52.474  25.027  32.133  1.00  0.00    -0.237 OA
ATOM     90  O   UNL A   1      52.924  27.349  32.822  1.00  0.00    -0.744 OA
ENDBRANCH  86  87
ENDBRANCH  60  81
ENDBRANCH  34  35
ENDBRANCH  27  29
ENDBRANCH  26  27
ENDBRANCH  25  26
ENDBRANCH  24  25
ENDBRANCH   1  24
TORSDOF 20
ENDMDL
MODEL 3
REMARK VINA RESULT:     -10.1      4.316     10.523
REMARK SMILES COc1ccc([C@H](C)[N@H+]2CC[C@H](C(=O)OCCOCCOC(=O)c3ccc(-c4c5nc(c(-c6ccc(S(=O)(=O)[O-])cc6)c6ccc([nH]6)c(-c6ccc(S(=O)(=O)[O-])cc6)c6nc(c(-c7ccc(S(=O)(=O)[O-])cc7)c7ccc4[nH]7)C=C6)C=C5)cc3)[C@@H]2C)cc1
REMARK SMILES IDX 18 1 17 2 16 3 15 4 13 5 14 6 12 7 9 8 10 9 84 10 11 12
REMARK SMILES IDX 85 13 7 14 8 15 6 16 3 17 4 18 87 19 5 20 86 21 2 22 1 23
REMARK SMILES IDX 19 24 20 25 21 26 22 27 23 28 24 29 25 30 83 31 26 32 82 33
REMARK SMILES IDX 27 34 28 35 29 36 76 37 30 38 81 39 75 40 77 41 31 42 80 43
REMARK SMILES IDX 74 44 73 45 32 47 62 48 43 49 61 50 44 51 47 52 60 53 78 54
REMARK SMILES IDX 45 55 46 56 59 58 79 59 48 60 33 61 34 62 42 63 35 64 41 65
REMARK SMILES IDX 36 66 37 67 38 68 39 69 40 70 63 71 64 72 72 73 65 74 71 75
REMARK SMILES IDX 66 76 67 77 68 78 69 79 70 80 49 81 50 82 58 83 51 84 57 85
REMARK SMILES IDX 52 86 53 87 54 88 55 89 56 90
REMARK H PARENT 9 11 77 46 47 57
REMARK Flexibility Score: inf
ROOT
ATOM      1  O   UNL A   1      32.683  29.679  24.356  1.00  0.00    -0.374 OA
ENDROOT
BRANCH   1   2
ATOM      2  C   UNL A   1      33.433  28.536  23.944  1.00  0.00     0.202 C 
BRANCH   2   3
ATOM      3  C   UNL A   1      33.077  27.921  22.586  1.00  0.00     0.261 C 
BRANCH   3   4
ATOM      4  O   UNL A   1      32.397  26.668  22.748  1.00  0.00    -0.463 OA
BRANCH   4   5
ATOM      5  C   UNL A   1      32.991  25.600  22.158  1.00  0.00     0.315 C 
ATOM      6  O   UNL A   1      33.321  25.549  20.978  1.00  0.00    -0.252 OA
BRANCH   5   7
ATOM      7  C   UNL A   1      33.365  24.514  23.153  1.00  0.00     0.162 C 
ATOM      8  N   UNL A   1      32.181  24.153  25.213  1.00  0.00    -0.326 N 
ATOM      9  C   UNL A   1      33.230  25.147  25.450  1.00  0.00     0.264 C 
ATOM     10  C   UNL A   1      32.169  23.794  23.786  1.00  0.00     0.196 C 
ATOM     11  H   UNL A   1      31.286  24.591  25.434  1.00  0.00     0.348 HD
ATOM     12  C   UNL A   1      34.229  24.940  24.338  1.00  0.00     0.083 C 
ATOM     13  C   UNL A   1      30.792  24.085  23.201  1.00  0.00     0.076 C 
BRANCH   8  14
ATOM     14  C   UNL A   1      32.146  23.017  26.157  1.00  0.00     0.212 C 
ATOM     15  C   UNL A   1      30.735  22.726  26.712  1.00  0.00     0.081 C 
BRANCH  14  16
ATOM     16  C   UNL A   1      32.835  21.792  25.541  1.00  0.00     0.009 A 
ATOM     17  C   UNL A   1      33.987  19.395  24.613  1.00  0.00     0.118 A 
ATOM     18  C   UNL A   1      32.614  19.591  24.505  1.00  0.00     0.047 A 
ATOM     19  C   UNL A   1      34.797  20.415  25.104  1.00  0.00     0.047 A 
ATOM     20  C   UNL A   1      32.043  20.780  24.964  1.00  0.00     0.013 A 
ATOM     21  C   UNL A   1      34.225  21.603  25.565  1.00  0.00     0.013 A 
BRANCH  17  22
ATOM     22  O   UNL A   1      34.481  18.198  24.173  1.00  0.00    -0.497 OA
ATOM     23  C   UNL A   1      33.455  17.238  23.922  1.00  0.00     0.278 C 
ENDBRANCH  17  22
ENDBRANCH  14  16
ENDBRANCH   8  14
ENDBRANCH   5   7
ENDBRANCH   4   5
ENDBRANCH   3   4
ENDBRANCH   2   3
ENDBRANCH   1   2
BRANCH   1  24
ATOM     24  C   UNL A   1      31.989  29.601  25.600  1.00  0.00     0.202 C 
BRANCH  24  25
ATOM     25  C   UNL A   1      32.583  30.360  26.792  1.00  0.00     0.261 C 
BRANCH  25  26
ATOM     26  O   UNL A   1      34.013  30.227  26.860  1.00  0.00    -0.460 OA
BRANCH  26  27
ATOM     27  C   UNL A   1      34.592  30.867  27.903  1.00  0.00     0.338 C 
ATOM     28  O   UNL A   1      34.073  31.694  28.643  1.00  0.00    -0.246 OA
BRANCH  27  29
ATOM     29  C   UNL A   1      35.916  30.281  28.169  1.00  0.00     0.060 A 
ATOM     30  C   UNL A   1      36.173  29.822  29.469  1.00  0.00     0.016 A 
ATOM     31  C   UNL A   1      36.902  30.219  27.185  1.00  0.00     0.016 A 
ATOM     32  C   UNL A   1      37.430  29.320  29.795  1.00  0.00     0.010 A 
ATOM     33  C   UNL A   1      38.168  29.730  27.520  1.00  0.00     0.010 A 
ATOM     34  C   UNL A   1      38.444  29.300  28.830  1.00  0.00    -0.014 A 
BRANCH  34  35
ATOM     35  C   UNL A   1      39.823  28.927  29.217  1.00  0.00     0.031 A 
ATOM     36  C   UNL A   1      40.681  29.934  29.930  1.00  0.00     0.074 A 
ATOM     37  C   UNL A   1      40.299  27.700  28.939  1.00  0.00     0.049 A 
ATOM     38  N   UNL A   1      41.932  29.840  30.298  1.00  0.00    -0.248 NA
ATOM     39  C   UNL A   1      40.045  31.217  30.274  1.00  0.00     0.031 C 
ATOM     40  C   UNL A   1      39.541  26.626  28.299  1.00  0.00     0.029 A 
ATOM     41  N   UNL A   1      41.541  27.158  29.151  1.00  0.00    -0.354 N 
ATOM     42  C   UNL A   1      42.239  31.051  30.908  1.00  0.00     0.074 A 
ATOM     43  C   UNL A   1      41.048  31.871  30.841  1.00  0.00     0.031 C 
ATOM     44  C   UNL A   1      40.341  25.554  28.158  1.00  0.00     0.029 A 
ATOM     45  C   UNL A   1      41.674  25.882  28.658  1.00  0.00     0.049 A 
ATOM     46  H   UNL A   1      42.266  27.635  29.614  1.00  0.00     0.167 HD
ATOM     47  C   UNL A   1      43.406  31.440  31.472  1.00  0.00     0.031 A 
ATOM     48  C   UNL A   1      42.758  25.083  28.586  1.00  0.00     0.031 A 
ATOM     49  C   UNL A   1      44.589  30.624  31.517  1.00  0.00     0.049 A 
ATOM     50  C   UNL A   1      44.072  25.580  29.127  1.00  0.00     0.074 A 
ATOM     51  C   UNL A   1      45.817  30.918  32.085  1.00  0.00     0.029 A 
ATOM     52  N   UNL A   1      44.701  29.360  30.958  1.00  0.00    -0.354 N 
ATOM     53  N   UNL A   1      44.339  26.713  29.730  1.00  0.00    -0.248 NA
ATOM     54  C   UNL A   1      45.233  24.690  28.973  1.00  0.00     0.031 C 
ATOM     55  C   UNL A   1      46.690  29.860  31.811  1.00  0.00     0.029 A 
ATOM     56  C   UNL A   1      45.988  28.879  31.127  1.00  0.00     0.049 A 
ATOM     57  H   UNL A   1      43.972  28.876  30.506  1.00  0.00     0.167 HD
ATOM     58  C   UNL A   1      45.696  26.669  30.039  1.00  0.00     0.074 A 
ATOM     59  C   UNL A   1      46.188  25.387  29.576  1.00  0.00     0.031 C 
ATOM     60  C   UNL A   1      46.464  27.606  30.647  1.00  0.00     0.031 A 
BRANCH  47  61
ATOM     61  C   UNL A   1      43.473  32.830  32.050  1.00  0.00    -0.014 A 
ATOM     62  C   UNL A   1      43.593  33.960  31.223  1.00  0.00     0.010 A 
ATOM     63  C   UNL A   1      43.372  33.008  33.442  1.00  0.00     0.010 A 
ATOM     64  C   UNL A   1      43.647  35.242  31.779  1.00  0.00     0.020 A 
ATOM     65  C   UNL A   1      43.400  34.289  34.000  1.00  0.00     0.020 A 
ATOM     66  C   UNL A   1      43.553  35.397  33.166  1.00  0.00     0.054 A 
BRANCH  66  67
ATOM     67  S   UNL A   1      43.605  37.073  33.859  1.00  0.00     0.124 S 
ATOM     68  O   UNL A   1      44.653  36.948  34.868  1.00  0.00    -0.237 OA
ATOM     69  O   UNL A   1      43.946  37.889  32.697  1.00  0.00    -0.237 OA
ATOM     70  O   UNL A   1      42.257  37.273  34.385  1.00  0.00    -0.744 OA
ENDBRANCH  66  67
ENDBRANCH  47  61
BRANCH  48  71
ATOM     71  C   UNL A   1      42.653  23.748  27.937  1.00  0.00    -0.014 A 
ATOM     72  C   UNL A   1      42.733  23.621  26.540  1.00  0.00     0.010 A 
ATOM     73  C   UNL A   1      42.479  22.592  28.720  1.00  0.00     0.010 A 
ATOM     74  C   UNL A   1      42.631  22.363  25.938  1.00  0.00     0.020 A 
ATOM     75  C   UNL A   1      42.406  21.330  28.125  1.00  0.00     0.020 A 
ATOM     76  C   UNL A   1      42.473  21.225  26.734  1.00  0.00     0.054 A 
BRANCH  76  77
ATOM     77  S   UNL A   1      42.401  19.598  25.933  1.00  0.00     0.124 S 
ATOM     78  O   UNL A   1      42.701  18.700  27.044  1.00  0.00    -0.237 OA
ATOM     79  O   UNL A   1      41.027  19.555  25.436  1.00  0.00    -0.237 OA
ATOM     80  O   UNL A   1      43.427  19.681  24.897  1.00  0.00    -0.744 OA
ENDBRANCH  76  77
ENDBRANCH  48  71
BRANCH  60  81
ATOM     81  C   UNL A   1      47.922  27.283  30.850  1.00  0.00    -0.014 A 
ATOM     82  C   UNL A   1      48.366  26.663  32.031  1.00  0.00     0.010 A 
ATOM     83  C   UNL A   1      48.844  27.536  29.818  1.00  0.00     0.010 A 
ATOM     84  C   UNL A   1      49.711  26.318  32.184  1.00  0.00     0.020 A 
ATOM     85  C   UNL A   1      50.185  27.167  29.957  1.00  0.00     0.020 A 
ATOM     86  C   UNL A   1      50.612  26.568  31.144  1.00  0.00     0.054 A 
BRANCH  86  87
ATOM     87  S   UNL A   1      52.339  26.050  31.345  1.00  0.00     0.124 S 
ATOM     88  O   UNL A   1      52.840  27.030  32.305  1.00  0.00    -0.237 OA
ATOM     89  O   UNL A   1      52.207  24.686  31.852  1.00  0.00    -0.237 OA
ATOM     90  O   UNL A   1      52.893  26.158  29.998  1.00  0.00    -0.744 OA
ENDBRANCH  86  87
ENDBRANCH  60  81
ENDBRANCH  34  35
ENDBRANCH  27  29
ENDBRANCH  26  27
ENDBRANCH  25  26
ENDBRANCH  24  25
ENDBRANCH   1  24
TORSDOF 20
ENDMDL
