MODEL 1
REMARK VINA RESULT:     -10.8      0.000      0.000
REMARK SMILES O=C(OCCOCCOC(=O)[C@@H]1CCCC[C@H]1C(=O)Nc1ccc(NC(=O)c2ccco2)cc1)c1ccc(-c2c3nc(c(-c4ccc(S(=O)(=O)[O-])cc4)c4ccc([nH]4)c(-c4ccc(S(=O)(=O)[O-])cc4)c4nc(c(-c5ccc(S(=O)(=O)[O-])cc5)c5ccc2[nH]5)C=C4)C=C3)cc1
REMARK SMILES IDX 7 1 6 2 5 3 4 4 3 5 2 6 1 7 35 8 36 9 94 10 37 11 93 12
REMARK SMILES IDX 38 13 39 14 40 15 87 16 41 17 92 18 86 19 88 20 42 21 91 22
REMARK SMILES IDX 85 23 84 24 43 26 73 27 54 28 72 29 55 30 58 31 71 32 89 33
REMARK SMILES IDX 56 34 57 35 70 37 90 38 59 39 44 40 45 41 53 42 46 43 52 44
REMARK SMILES IDX 47 45 48 46 49 47 50 48 51 49 74 50 75 51 83 52 76 53 82 54
REMARK SMILES IDX 77 55 78 56 79 57 80 58 81 59 60 60 61 61 69 62 62 63 68 64
REMARK SMILES IDX 63 65 64 66 65 67 66 68 67 69 8 70 9 71 10 72 11 73 12 74
REMARK SMILES IDX 13 75 17 76 14 77 16 78 15 79 18 80 19 81 20 82 21 84 22 85
REMARK SMILES IDX 34 86 23 87 33 88 24 89 25 90 26 91 27 93 28 94 29 95 32 96
REMARK SMILES IDX 30 97 31 98
REMARK H PARENT 88 25 58 36 20 83 25 92
REMARK Flexibility Score: inf
ROOT
ATOM      1  C   UNL A   1      38.172  22.302  25.766  1.00  0.00     0.202 C 
ENDROOT
BRANCH   1   2
ATOM      2  O   UNL A   1      39.317  21.579  26.227  1.00  0.00    -0.374 OA
BRANCH   2   3
ATOM      3  C   UNL A   1      40.326  22.369  26.856  1.00  0.00     0.202 C 
BRANCH   3   4
ATOM      4  C   UNL A   1      41.506  22.822  25.976  1.00  0.00     0.261 C 
BRANCH   4   5
ATOM      5  O   UNL A   1      42.222  23.926  26.553  1.00  0.00    -0.460 OA
BRANCH   5   6
ATOM      6  C   UNL A   1      41.997  25.248  26.367  1.00  0.00     0.338 C 
ATOM      7  O   UNL A   1      42.014  25.702  25.225  1.00  0.00    -0.246 OA
BRANCH   6   8
ATOM      8  C   UNL A   1      41.708  26.184  27.493  1.00  0.00     0.060 A 
ATOM      9  C   UNL A   1      42.399  27.372  27.726  1.00  0.00     0.016 A 
ATOM     10  C   UNL A   1      40.633  25.875  28.341  1.00  0.00     0.016 A 
ATOM     11  C   UNL A   1      42.104  28.200  28.782  1.00  0.00     0.010 A 
ATOM     12  C   UNL A   1      40.299  26.720  29.402  1.00  0.00     0.010 A 
ATOM     13  C   UNL A   1      41.053  27.875  29.622  1.00  0.00    -0.014 A 
BRANCH  13  14
ATOM     14  C   UNL A   1      40.894  28.733  30.795  1.00  0.00     0.031 A 
ATOM     15  C   UNL A   1      39.759  29.698  30.797  1.00  0.00     0.074 A 
ATOM     16  C   UNL A   1      41.629  28.471  31.888  1.00  0.00     0.049 A 
ATOM     17  N   UNL A   1      39.444  30.591  31.689  1.00  0.00    -0.248 NA
ATOM     18  C   UNL A   1      38.836  29.632  29.647  1.00  0.00     0.031 C 
ATOM     19  C   UNL A   1      42.613  27.388  32.002  1.00  0.00     0.029 A 
ATOM     20  N   UNL A   1      41.633  29.058  33.119  1.00  0.00    -0.354 N 
ATOM     21  C   UNL A   1      38.326  31.237  31.183  1.00  0.00     0.074 A 
ATOM     22  C   UNL A   1      37.988  30.609  29.928  1.00  0.00     0.031 C 
ATOM     23  C   UNL A   1      43.118  27.386  33.245  1.00  0.00     0.029 A 
ATOM     24  C   UNL A   1      42.559  28.517  33.975  1.00  0.00     0.049 A 
ATOM     25  H   UNL A   1      41.031  29.797  33.369  1.00  0.00     0.167 HD
ATOM     26  C   UNL A   1      37.677  32.296  31.717  1.00  0.00     0.031 A 
ATOM     27  C   UNL A   1      42.949  28.938  35.191  1.00  0.00     0.031 A 
ATOM     28  C   UNL A   1      38.085  32.898  32.954  1.00  0.00     0.049 A 
ATOM     29  C   UNL A   1      42.287  30.174  35.728  1.00  0.00     0.074 A 
ATOM     30  C   UNL A   1      37.618  34.045  33.562  1.00  0.00     0.029 A 
ATOM     31  N   UNL A   1      39.083  32.378  33.773  1.00  0.00    -0.354 N 
ATOM     32  N   UNL A   1      41.313  30.876  35.192  1.00  0.00    -0.248 NA
ATOM     33  C   UNL A   1      42.782  30.697  37.004  1.00  0.00     0.031 C 
ATOM     34  C   UNL A   1      38.361  34.238  34.733  1.00  0.00     0.029 A 
ATOM     35  C   UNL A   1      39.258  33.186  34.878  1.00  0.00     0.049 A 
ATOM     36  H   UNL A   1      39.589  31.554  33.593  1.00  0.00     0.167 HD
ATOM     37  C   UNL A   1      41.080  31.932  36.059  1.00  0.00     0.074 A 
ATOM     38  C   UNL A   1      42.003  31.761  37.169  1.00  0.00     0.031 C 
ATOM     39  C   UNL A   1      40.196  32.955  35.951  1.00  0.00     0.031 A 
BRANCH  26  40
ATOM     40  C   UNL A   1      36.596  32.910  30.874  1.00  0.00    -0.014 A 
ATOM     41  C   UNL A   1      36.889  33.788  29.814  1.00  0.00     0.010 A 
ATOM     42  C   UNL A   1      35.253  32.691  31.231  1.00  0.00     0.010 A 
ATOM     43  C   UNL A   1      35.861  34.487  29.172  1.00  0.00     0.020 A 
ATOM     44  C   UNL A   1      34.222  33.373  30.580  1.00  0.00     0.020 A 
ATOM     45  C   UNL A   1      34.535  34.290  29.576  1.00  0.00     0.054 A 
BRANCH  45  46
ATOM     46  S   UNL A   1      33.220  35.259  28.785  1.00  0.00     0.124 S 
ATOM     47  O   UNL A   1      32.548  34.245  27.975  1.00  0.00    -0.237 OA
ATOM     48  O   UNL A   1      32.455  35.759  29.924  1.00  0.00    -0.237 OA
ATOM     49  O   UNL A   1      33.947  36.277  28.031  1.00  0.00    -0.744 OA
ENDBRANCH  45  46
ENDBRANCH  26  40
BRANCH  27  50
ATOM     50  C   UNL A   1      44.070  28.244  35.880  1.00  0.00    -0.014 A 
ATOM     51  C   UNL A   1      43.839  27.167  36.749  1.00  0.00     0.010 A 
ATOM     52  C   UNL A   1      45.400  28.602  35.576  1.00  0.00     0.010 A 
ATOM     53  C   UNL A   1      44.915  26.447  37.284  1.00  0.00     0.020 A 
ATOM     54  C   UNL A   1      46.475  27.870  36.088  1.00  0.00     0.020 A 
ATOM     55  C   UNL A   1      46.226  26.797  36.941  1.00  0.00     0.054 A 
BRANCH  55  56
ATOM     56  S   UNL A   1      47.604  25.784  37.554  1.00  0.00     0.124 S 
ATOM     57  O   UNL A   1      48.316  25.463  36.322  1.00  0.00    -0.237 OA
ATOM     58  O   UNL A   1      48.291  26.697  38.464  1.00  0.00    -0.237 OA
ATOM     59  O   UNL A   1      46.936  24.659  38.204  1.00  0.00    -0.744 OA
ENDBRANCH  55  56
ENDBRANCH  27  50
BRANCH  39  60
ATOM     60  C   UNL A   1      40.178  33.951  37.069  1.00  0.00    -0.014 A 
ATOM     61  C   UNL A   1      40.889  35.158  36.963  1.00  0.00     0.010 A 
ATOM     62  C   UNL A   1      39.341  33.727  38.176  1.00  0.00     0.010 A 
ATOM     63  C   UNL A   1      40.758  36.133  37.951  1.00  0.00     0.020 A 
ATOM     64  C   UNL A   1      39.196  34.707  39.156  1.00  0.00     0.020 A 
ATOM     65  C   UNL A   1      39.907  35.903  39.037  1.00  0.00     0.054 A 
BRANCH  65  66
ATOM     66  S   UNL A   1      39.668  37.225  40.254  1.00  0.00     0.124 S 
ATOM     67  O   UNL A   1      41.027  37.429  40.748  1.00  0.00    -0.237 OA
ATOM     68  O   UNL A   1      39.123  38.314  39.446  1.00  0.00    -0.237 OA
ATOM     69  O   UNL A   1      38.734  36.643  41.215  1.00  0.00    -0.744 OA
ENDBRANCH  65  66
ENDBRANCH  39  60
ENDBRANCH  13  14
ENDBRANCH   6   8
ENDBRANCH   5   6
ENDBRANCH   4   5
ENDBRANCH   3   4
ENDBRANCH   2   3
ENDBRANCH   1   2
BRANCH   1  70
ATOM     70  C   UNL A   1      37.099  21.352  25.244  1.00  0.00     0.261 C 
BRANCH  70  71
ATOM     71  O   UNL A   1      35.860  21.588  25.940  1.00  0.00    -0.463 OA
BRANCH  71  72
ATOM     72  C   UNL A   1      34.740  21.088  25.364  1.00  0.00     0.309 C 
ATOM     73  O   UNL A   1      34.652  20.023  24.768  1.00  0.00    -0.252 OA
BRANCH  72  74
ATOM     74  C   UNL A   1      33.568  22.037  25.503  1.00  0.00     0.111 C 
ATOM     75  C   UNL A   1      33.198  22.117  26.989  1.00  0.00     0.016 C 
ATOM     76  C   UNL A   1      32.360  21.711  24.611  1.00  0.00     0.093 C 
ATOM     77  C   UNL A   1      32.063  23.109  27.202  1.00  0.00     0.001 C 
ATOM     78  C   UNL A   1      31.181  22.654  24.890  1.00  0.00     0.014 C 
ATOM     79  C   UNL A   1      30.844  22.719  26.376  1.00  0.00     0.001 C 
BRANCH  76  80
ATOM     80  C   UNL A   1      32.485  21.573  23.087  1.00  0.00     0.228 C 
ATOM     81  O   UNL A   1      32.195  20.480  22.580  1.00  0.00    -0.274 OA
ATOM     82  N   UNL A   1      32.722  22.577  22.195  1.00  0.00    -0.326 N 
ATOM     83  H   UNL A   1      32.566  22.311  21.260  1.00  0.00     0.169 HD
BRANCH  82  84
ATOM     84  C   UNL A   1      33.138  23.900  22.329  1.00  0.00     0.041 A 
ATOM     85  C   UNL A   1      32.599  24.839  21.458  1.00  0.00     0.028 A 
ATOM     86  C   UNL A   1      34.098  24.324  23.233  1.00  0.00     0.028 A 
ATOM     87  C   UNL A   1      32.795  26.202  21.693  1.00  0.00     0.028 A 
ATOM     88  C   UNL A   1      34.258  25.684  23.504  1.00  0.00     0.028 A 
ATOM     89  C   UNL A   1      33.507  26.631  22.809  1.00  0.00     0.041 A 
BRANCH  89  90
ATOM     90  N   UNL A   1      33.504  27.939  23.324  1.00  0.00    -0.319 N 
ATOM     91  C   UNL A   1      32.858  28.522  24.396  1.00  0.00     0.291 C 
ATOM     92  H   UNL A   1      34.075  28.562  22.821  1.00  0.00     0.170 HD
ATOM     93  O   UNL A   1      33.106  29.712  24.620  1.00  0.00    -0.265 OA
BRANCH  91  94
ATOM     94  C   UNL A   1      31.972  27.753  25.233  1.00  0.00     0.191 A 
ATOM     95  C   UNL A   1      31.937  27.509  26.597  1.00  0.00     0.056 A 
ATOM     96  O   UNL A   1      30.943  27.086  24.626  1.00  0.00    -0.459 OA
ATOM     97  C   UNL A   1      30.867  26.603  26.817  1.00  0.00     0.043 A 
ATOM     98  C   UNL A   1      30.291  26.386  25.588  1.00  0.00     0.196 A 
ENDBRANCH  91  94
ENDBRANCH  89  90
ENDBRANCH  82  84
ENDBRANCH  76  80
ENDBRANCH  72  74
ENDBRANCH  71  72
ENDBRANCH  70  71
ENDBRANCH   1  70
TORSDOF 21
ENDMDL
MODEL 2
REMARK VINA RESULT:     -10.7      2.013      9.085
REMARK SMILES O=C(OCCOCCOC(=O)[C@@H]1CCCC[C@H]1C(=O)Nc1ccc(NC(=O)c2ccco2)cc1)c1ccc(-c2c3nc(c(-c4ccc(S(=O)(=O)[O-])cc4)c4ccc([nH]4)c(-c4ccc(S(=O)(=O)[O-])cc4)c4nc(c(-c5ccc(S(=O)(=O)[O-])cc5)c5ccc2[nH]5)C=C4)C=C3)cc1
REMARK SMILES IDX 7 1 6 2 5 3 4 4 3 5 2 6 1 7 35 8 36 9 94 10 37 11 93 12
REMARK SMILES IDX 38 13 39 14 40 15 87 16 41 17 92 18 86 19 88 20 42 21 91 22
REMARK SMILES IDX 85 23 84 24 43 26 73 27 54 28 72 29 55 30 58 31 71 32 89 33
REMARK SMILES IDX 56 34 57 35 70 37 90 38 59 39 44 40 45 41 53 42 46 43 52 44
REMARK SMILES IDX 47 45 48 46 49 47 50 48 51 49 74 50 75 51 83 52 76 53 82 54
REMARK SMILES IDX 77 55 78 56 79 57 80 58 81 59 60 60 61 61 69 62 62 63 68 64
REMARK SMILES IDX 63 65 64 66 65 67 66 68 67 69 8 70 9 71 10 72 11 73 12 74
REMARK SMILES IDX 13 75 17 76 14 77 16 78 15 79 18 80 19 81 20 82 21 84 22 85
REMARK SMILES IDX 34 86 23 87 33 88 24 89 25 90 26 91 27 93 28 94 29 95 32 96
REMARK SMILES IDX 30 97 31 98
REMARK H PARENT 88 25 58 36 20 83 25 92
REMARK Flexibility Score: inf
ROOT
ATOM      1  C   UNL A   1      32.336  30.674  26.663  1.00  0.00     0.202 C 
ENDROOT
BRANCH   1   2
ATOM      2  O   UNL A   1      31.333  31.673  26.862  1.00  0.00    -0.374 OA
BRANCH   2   3
ATOM      3  C   UNL A   1      31.796  33.022  26.818  1.00  0.00     0.202 C 
BRANCH   3   4
ATOM      4  C   UNL A   1      32.964  33.389  27.752  1.00  0.00     0.261 C 
BRANCH   4   5
ATOM      5  O   UNL A   1      32.713  34.597  28.489  1.00  0.00    -0.460 OA
BRANCH   5   6
ATOM      6  C   UNL A   1      33.264  34.982  29.664  1.00  0.00     0.338 C 
ATOM      7  O   UNL A   1      32.757  35.914  30.285  1.00  0.00    -0.246 OA
BRANCH   6   8
ATOM      8  C   UNL A   1      34.457  34.308  30.256  1.00  0.00     0.060 A 
ATOM      9  C   UNL A   1      34.402  33.373  31.288  1.00  0.00     0.016 A 
ATOM     10  C   UNL A   1      35.713  34.594  29.698  1.00  0.00     0.016 A 
ATOM     11  C   UNL A   1      35.528  32.783  31.809  1.00  0.00     0.010 A 
ATOM     12  C   UNL A   1      36.867  33.982  30.194  1.00  0.00     0.010 A 
ATOM     13  C   UNL A   1      36.763  33.087  31.263  1.00  0.00    -0.014 A 
BRANCH  13  14
ATOM     14  C   UNL A   1      37.918  32.525  31.961  1.00  0.00     0.031 A 
ATOM     15  C   UNL A   1      38.681  31.446  31.274  1.00  0.00     0.074 A 
ATOM     16  C   UNL A   1      38.361  33.140  33.070  1.00  0.00     0.049 A 
ATOM     17  N   UNL A   1      39.700  30.760  31.707  1.00  0.00    -0.248 NA
ATOM     18  C   UNL A   1      38.257  31.107  29.902  1.00  0.00     0.031 C 
ATOM     19  C   UNL A   1      37.762  34.340  33.664  1.00  0.00     0.029 A 
ATOM     20  N   UNL A   1      39.437  32.873  33.864  1.00  0.00    -0.354 N 
ATOM     21  C   UNL A   1      40.000  29.867  30.689  1.00  0.00     0.074 A 
ATOM     22  C   UNL A   1      39.087  30.122  29.599  1.00  0.00     0.031 C 
ATOM     23  C   UNL A   1      38.490  34.709  34.728  1.00  0.00     0.029 A 
ATOM     24  C   UNL A   1      39.544  33.724  34.935  1.00  0.00     0.049 A 
ATOM     25  H   UNL A   1      40.073  32.143  33.687  1.00  0.00     0.167 HD
ATOM     26  C   UNL A   1      40.935  28.891  30.702  1.00  0.00     0.031 A 
ATOM     27  C   UNL A   1      40.369  33.665  35.996  1.00  0.00     0.031 A 
ATOM     28  C   UNL A   1      41.790  28.666  31.833  1.00  0.00     0.049 A 
ATOM     29  C   UNL A   1      41.336  32.518  36.043  1.00  0.00     0.074 A 
ATOM     30  C   UNL A   1      42.694  27.648  32.054  1.00  0.00     0.029 A 
ATOM     31  N   UNL A   1      41.829  29.498  32.948  1.00  0.00    -0.354 N 
ATOM     32  N   UNL A   1      41.537  31.583  35.141  1.00  0.00    -0.248 NA
ATOM     33  C   UNL A   1      42.163  32.390  37.245  1.00  0.00     0.031 C 
ATOM     34  C   UNL A   1      43.253  27.845  33.322  1.00  0.00     0.029 A 
ATOM     35  C   UNL A   1      42.733  29.011  33.870  1.00  0.00     0.049 A 
ATOM     36  H   UNL A   1      41.292  30.314  33.062  1.00  0.00     0.167 HD
ATOM     37  C   UNL A   1      42.510  30.747  35.666  1.00  0.00     0.074 A 
ATOM     38  C   UNL A   1      42.871  31.303  36.959  1.00  0.00     0.031 C 
ATOM     39  C   UNL A   1      43.049  29.619  35.142  1.00  0.00     0.031 A 
BRANCH  26  40
ATOM     40  C   UNL A   1      40.935  27.952  29.529  1.00  0.00    -0.014 A 
ATOM     41  C   UNL A   1      40.031  26.878  29.438  1.00  0.00     0.010 A 
ATOM     42  C   UNL A   1      41.944  28.083  28.558  1.00  0.00     0.010 A 
ATOM     43  C   UNL A   1      40.179  25.916  28.433  1.00  0.00     0.020 A 
ATOM     44  C   UNL A   1      42.083  27.135  27.542  1.00  0.00     0.020 A 
ATOM     45  C   UNL A   1      41.219  26.040  27.504  1.00  0.00     0.054 A 
BRANCH  45  46
ATOM     46  S   UNL A   1      41.443  24.745  26.254  1.00  0.00     0.124 S 
ATOM     47  O   UNL A   1      41.638  25.533  25.039  1.00  0.00    -0.237 OA
ATOM     48  O   UNL A   1      42.623  24.030  26.733  1.00  0.00    -0.237 OA
ATOM     49  O   UNL A   1      40.195  23.989  26.312  1.00  0.00    -0.744 OA
ENDBRANCH  45  46
ENDBRANCH  26  40
BRANCH  27  50
ATOM     50  C   UNL A   1      40.209  34.649  37.100  1.00  0.00    -0.014 A 
ATOM     51  C   UNL A   1      40.954  35.839  37.131  1.00  0.00     0.010 A 
ATOM     52  C   UNL A   1      39.218  34.439  38.081  1.00  0.00     0.010 A 
ATOM     53  C   UNL A   1      40.695  36.808  38.109  1.00  0.00     0.020 A 
ATOM     54  C   UNL A   1      38.940  35.415  39.041  1.00  0.00     0.020 A 
ATOM     55  C   UNL A   1      39.682  36.595  39.051  1.00  0.00     0.054 A 
BRANCH  55  56
ATOM     56  S   UNL A   1      39.284  37.909  40.240  1.00  0.00     0.124 S 
ATOM     57  O   UNL A   1      40.525  38.676  40.271  1.00  0.00    -0.237 OA
ATOM     58  O   UNL A   1      38.145  38.573  39.612  1.00  0.00    -0.237 OA
ATOM     59  O   UNL A   1      38.968  37.176  41.464  1.00  0.00    -0.744 OA
ENDBRANCH  55  56
ENDBRANCH  27  50
BRANCH  39  60
ATOM     60  C   UNL A   1      44.096  28.929  35.960  1.00  0.00    -0.014 A 
ATOM     61  C   UNL A   1      43.766  27.819  36.755  1.00  0.00     0.010 A 
ATOM     62  C   UNL A   1      45.440  29.322  35.828  1.00  0.00     0.010 A 
ATOM     63  C   UNL A   1      44.772  27.105  37.406  1.00  0.00     0.020 A 
ATOM     64  C   UNL A   1      46.447  28.599  36.465  1.00  0.00     0.020 A 
ATOM     65  C   UNL A   1      46.106  27.497  37.251  1.00  0.00     0.054 A 
BRANCH  65  66
ATOM     66  S   UNL A   1      47.405  26.493  38.019  1.00  0.00     0.124 S 
ATOM     67  O   UNL A   1      46.973  26.456  39.413  1.00  0.00    -0.237 OA
ATOM     68  O   UNL A   1      47.305  25.227  37.296  1.00  0.00    -0.237 OA
ATOM     69  O   UNL A   1      48.625  27.255  37.763  1.00  0.00    -0.744 OA
ENDBRANCH  65  66
ENDBRANCH  39  60
ENDBRANCH  13  14
ENDBRANCH   6   8
ENDBRANCH   5   6
ENDBRANCH   4   5
ENDBRANCH   3   4
ENDBRANCH   2   3
ENDBRANCH   1   2
BRANCH   1  70
ATOM     70  C   UNL A   1      31.759  29.453  25.953  1.00  0.00     0.261 C 
BRANCH  70  71
ATOM     71  O   UNL A   1      32.758  28.876  25.089  1.00  0.00    -0.463 OA
BRANCH  71  72
ATOM     72  C   UNL A   1      33.336  27.728  25.520  1.00  0.00     0.309 C 
ATOM     73  O   UNL A   1      34.055  27.610  26.502  1.00  0.00    -0.252 OA
BRANCH  72  74
ATOM     74  C   UNL A   1      33.022  26.566  24.602  1.00  0.00     0.111 C 
ATOM     75  C   UNL A   1      33.326  27.002  23.164  1.00  0.00     0.016 C 
ATOM     76  C   UNL A   1      31.607  25.983  24.754  1.00  0.00     0.093 C 
ATOM     77  C   UNL A   1      33.090  25.851  22.196  1.00  0.00     0.001 C 
ATOM     78  C   UNL A   1      31.335  24.883  23.718  1.00  0.00     0.014 C 
ATOM     79  C   UNL A   1      31.657  25.345  22.301  1.00  0.00     0.001 C 
BRANCH  76  80
ATOM     80  C   UNL A   1      31.073  25.483  26.104  1.00  0.00     0.228 C 
ATOM     81  O   UNL A   1      29.986  25.933  26.497  1.00  0.00    -0.274 OA
ATOM     82  N   UNL A   1      31.579  24.464  26.854  1.00  0.00    -0.326 N 
ATOM     83  H   UNL A   1      30.976  24.176  27.577  1.00  0.00     0.169 HD
BRANCH  82  84
ATOM     84  C   UNL A   1      32.771  23.743  26.812  1.00  0.00     0.041 A 
ATOM     85  C   UNL A   1      32.858  22.591  27.583  1.00  0.00     0.028 A 
ATOM     86  C   UNL A   1      33.892  24.137  26.099  1.00  0.00     0.028 A 
ATOM     87  C   UNL A   1      33.927  21.709  27.403  1.00  0.00     0.028 A 
ATOM     88  C   UNL A   1      34.937  23.239  25.877  1.00  0.00     0.028 A 
ATOM     89  C   UNL A   1      34.896  21.963  26.437  1.00  0.00     0.041 A 
BRANCH  89  90
ATOM     90  N   UNL A   1      35.821  21.026  25.945  1.00  0.00    -0.319 N 
ATOM     91  C   UNL A   1      35.692  19.926  25.119  1.00  0.00     0.291 C 
ATOM     92  H   UNL A   1      36.743  21.185  26.248  1.00  0.00     0.170 HD
ATOM     93  O   UNL A   1      36.727  19.319  24.828  1.00  0.00    -0.265 OA
BRANCH  91  94
ATOM     94  C   UNL A   1      34.405  19.544  24.594  1.00  0.00     0.191 A 
ATOM     95  C   UNL A   1      33.827  18.317  24.313  1.00  0.00     0.056 A 
ATOM     96  O   UNL A   1      33.529  20.543  24.267  1.00  0.00    -0.459 OA
ATOM     97  C   UNL A   1      32.561  18.590  23.734  1.00  0.00     0.043 A 
ATOM     98  C   UNL A   1      32.426  19.957  23.738  1.00  0.00     0.196 A 
ENDBRANCH  91  94
ENDBRANCH  89  90
ENDBRANCH  82  84
ENDBRANCH  76  80
ENDBRANCH  72  74
ENDBRANCH  71  72
ENDBRANCH  70  71
ENDBRANCH   1  70
TORSDOF 21
ENDMDL
MODEL 3
REMARK VINA RESULT:     -10.5      4.952      7.163
REMARK SMILES O=C(OCCOCCOC(=O)[C@@H]1CCCC[C@H]1C(=O)Nc1ccc(NC(=O)c2ccco2)cc1)c1ccc(-c2c3nc(c(-c4ccc(S(=O)(=O)[O-])cc4)c4ccc([nH]4)c(-c4ccc(S(=O)(=O)[O-])cc4)c4nc(c(-c5ccc(S(=O)(=O)[O-])cc5)c5ccc2[nH]5)C=C4)C=C3)cc1
REMARK SMILES IDX 7 1 6 2 5 3 4 4 3 5 2 6 1 7 35 8 36 9 94 10 37 11 93 12
REMARK SMILES IDX 38 13 39 14 40 15 87 16 41 17 92 18 86 19 88 20 42 21 91 22
REMARK SMILES IDX 85 23 84 24 43 26 73 27 54 28 72 29 55 30 58 31 71 32 89 33
REMARK SMILES IDX 56 34 57 35 70 37 90 38 59 39 44 40 45 41 53 42 46 43 52 44
REMARK SMILES IDX 47 45 48 46 49 47 50 48 51 49 74 50 75 51 83 52 76 53 82 54
REMARK SMILES IDX 77 55 78 56 79 57 80 58 81 59 60 60 61 61 69 62 62 63 68 64
REMARK SMILES IDX 63 65 64 66 65 67 66 68 67 69 8 70 9 71 10 72 11 73 12 74
REMARK SMILES IDX 13 75 17 76 14 77 16 78 15 79 18 80 19 81 20 82 21 84 22 85
REMARK SMILES IDX 34 86 23 87 33 88 24 89 25 90 26 91 27 93 28 94 29 95 32 96
REMARK SMILES IDX 30 97 31 98
REMARK H PARENT 88 25 58 36 20 83 25 92
REMARK Flexibility Score: inf
ROOT
ATOM      1  C   UNL A   1      35.243  22.633  26.154  1.00  0.00     0.202 C 
ENDROOT
BRANCH   1   2
ATOM      2  O   UNL A   1      35.221  22.307  24.762  1.00  0.00    -0.374 OA
BRANCH   2   3
ATOM      3  C   UNL A   1      36.444  21.796  24.234  1.00  0.00     0.202 C 
BRANCH   3   4
ATOM      4  C   UNL A   1      37.516  21.365  25.251  1.00  0.00     0.261 C 
BRANCH   4   5
ATOM      5  O   UNL A   1      38.503  22.386  25.468  1.00  0.00    -0.460 OA
BRANCH   5   6
ATOM      6  C   UNL A   1      39.410  22.464  26.471  1.00  0.00     0.338 C 
ATOM      7  O   UNL A   1      39.789  21.429  27.014  1.00  0.00    -0.246 OA
BRANCH   6   8
ATOM      8  C   UNL A   1      39.990  23.757  26.937  1.00  0.00     0.060 A 
ATOM      9  C   UNL A   1      39.698  24.999  26.374  1.00  0.00     0.016 A 
ATOM     10  C   UNL A   1      40.843  23.728  28.051  1.00  0.00     0.016 A 
ATOM     11  C   UNL A   1      40.263  26.165  26.830  1.00  0.00     0.010 A 
ATOM     12  C   UNL A   1      41.403  24.908  28.549  1.00  0.00     0.010 A 
ATOM     13  C   UNL A   1      41.117  26.122  27.918  1.00  0.00    -0.014 A 
BRANCH  13  14
ATOM     14  C   UNL A   1      41.779  27.382  28.253  1.00  0.00     0.031 A 
ATOM     15  C   UNL A   1      40.951  28.452  28.876  1.00  0.00     0.074 A 
ATOM     16  C   UNL A   1      43.119  27.441  28.186  1.00  0.00     0.049 A 
ATOM     17  N   UNL A   1      41.294  29.663  29.211  1.00  0.00    -0.248 NA
ATOM     18  C   UNL A   1      39.551  28.107  29.189  1.00  0.00     0.031 C 
ATOM     19  C   UNL A   1      43.992  26.334  27.780  1.00  0.00     0.029 A 
ATOM     20  N   UNL A   1      43.980  28.450  28.501  1.00  0.00    -0.354 N 
ATOM     21  C   UNL A   1      40.141  30.244  29.715  1.00  0.00     0.074 A 
ATOM     22  C   UNL A   1      39.098  29.247  29.684  1.00  0.00     0.031 C 
ATOM     23  C   UNL A   1      45.271  26.729  27.880  1.00  0.00     0.029 A 
ATOM     24  C   UNL A   1      45.295  28.132  28.270  1.00  0.00     0.049 A 
ATOM     25  H   UNL A   1      43.688  29.320  28.858  1.00  0.00     0.167 HD
ATOM     26  C   UNL A   1      39.976  31.523  30.121  1.00  0.00     0.031 A 
ATOM     27  C   UNL A   1      46.386  28.919  28.311  1.00  0.00     0.031 A 
ATOM     28  C   UNL A   1      41.048  32.478  30.094  1.00  0.00     0.049 A 
ATOM     29  C   UNL A   1      46.172  30.361  28.669  1.00  0.00     0.074 A 
ATOM     30  C   UNL A   1      41.015  33.833  30.350  1.00  0.00     0.029 A 
ATOM     31  N   UNL A   1      42.364  32.152  29.780  1.00  0.00    -0.354 N 
ATOM     32  N   UNL A   1      45.054  30.957  29.020  1.00  0.00    -0.248 NA
ATOM     33  C   UNL A   1      47.339  31.244  28.612  1.00  0.00     0.031 C 
ATOM     34  C   UNL A   1      42.307  34.333  30.153  1.00  0.00     0.029 A 
ATOM     35  C   UNL A   1      43.154  33.283  29.822  1.00  0.00     0.049 A 
ATOM     36  H   UNL A   1      42.685  31.248  29.561  1.00  0.00     0.167 HD
ATOM     37  C   UNL A   1      45.377  32.290  29.220  1.00  0.00     0.074 A 
ATOM     38  C   UNL A   1      46.804  32.406  28.971  1.00  0.00     0.031 C 
ATOM     39  C   UNL A   1      44.575  33.327  29.565  1.00  0.00     0.031 A 
BRANCH  26  40
ATOM     40  C   UNL A   1      38.574  31.939  30.463  1.00  0.00    -0.014 A 
ATOM     41  C   UNL A   1      37.719  32.522  29.510  1.00  0.00     0.010 A 
ATOM     42  C   UNL A   1      38.149  31.849  31.801  1.00  0.00     0.010 A 
ATOM     43  C   UNL A   1      36.492  33.069  29.904  1.00  0.00     0.020 A 
ATOM     44  C   UNL A   1      36.916  32.376  32.194  1.00  0.00     0.020 A 
ATOM     45  C   UNL A   1      36.110  33.010  31.249  1.00  0.00     0.054 A 
BRANCH  45  46
ATOM     46  S   UNL A   1      34.551  33.789  31.756  1.00  0.00     0.124 S 
ATOM     47  O   UNL A   1      34.011  32.800  32.686  1.00  0.00    -0.237 OA
ATOM     48  O   UNL A   1      34.995  35.041  32.362  1.00  0.00    -0.237 OA
ATOM     49  O   UNL A   1      33.814  33.934  30.504  1.00  0.00    -0.744 OA
ENDBRANCH  45  46
ENDBRANCH  26  40
BRANCH  27  50
ATOM     50  C   UNL A   1      47.702  28.364  27.897  1.00  0.00    -0.014 A 
ATOM     51  C   UNL A   1      48.553  27.736  28.821  1.00  0.00     0.010 A 
ATOM     52  C   UNL A   1      48.062  28.369  26.534  1.00  0.00     0.010 A 
ATOM     53  C   UNL A   1      49.727  27.108  28.386  1.00  0.00     0.020 A 
ATOM     54  C   UNL A   1      49.219  27.722  26.094  1.00  0.00     0.020 A 
ATOM     55  C   UNL A   1      50.047  27.095  27.024  1.00  0.00     0.054 A 
BRANCH  55  56
ATOM     56  S   UNL A   1      51.513  26.179  26.465  1.00  0.00     0.124 S 
ATOM     57  O   UNL A   1      52.593  26.903  27.125  1.00  0.00    -0.237 OA
ATOM     58  O   UNL A   1      51.256  24.831  26.964  1.00  0.00    -0.237 OA
ATOM     59  O   UNL A   1      51.463  26.314  25.011  1.00  0.00    -0.744 OA
ENDBRANCH  55  56
ENDBRANCH  27  50
BRANCH  39  60
ATOM     60  C   UNL A   1      45.229  34.666  29.711  1.00  0.00    -0.014 A 
ATOM     61  C   UNL A   1      45.292  35.553  28.623  1.00  0.00     0.010 A 
ATOM     62  C   UNL A   1      45.668  35.082  30.979  1.00  0.00     0.010 A 
ATOM     63  C   UNL A   1      45.783  36.845  28.805  1.00  0.00     0.020 A 
ATOM     64  C   UNL A   1      46.144  36.379  31.166  1.00  0.00     0.020 A 
ATOM     65  C   UNL A   1      46.200  37.251  30.077  1.00  0.00     0.054 A 
BRANCH  65  66
ATOM     66  S   UNL A   1      46.734  38.966  30.315  1.00  0.00     0.124 S 
ATOM     67  O   UNL A   1      46.756  39.468  28.944  1.00  0.00    -0.237 OA
ATOM     68  O   UNL A   1      45.685  39.517  31.170  1.00  0.00    -0.237 OA
ATOM     69  O   UNL A   1      48.043  38.834  30.952  1.00  0.00    -0.744 OA
ENDBRANCH  65  66
ENDBRANCH  39  60
ENDBRANCH  13  14
ENDBRANCH   6   8
ENDBRANCH   5   6
ENDBRANCH   4   5
ENDBRANCH   3   4
ENDBRANCH   2   3
ENDBRANCH   1   2
BRANCH   1  70
ATOM     70  C   UNL A   1      34.495  23.935  26.424  1.00  0.00     0.261 C 
BRANCH  70  71
ATOM     71  O   UNL A   1      34.643  24.823  25.300  1.00  0.00    -0.463 OA
BRANCH  71  72
ATOM     72  C   UNL A   1      33.953  25.988  25.358  1.00  0.00     0.309 C 
ATOM     73  O   UNL A   1      34.107  26.874  26.187  1.00  0.00    -0.252 OA
BRANCH  72  74
ATOM     74  C   UNL A   1      32.901  26.070  24.272  1.00  0.00     0.111 C 
ATOM     75  C   UNL A   1      33.342  27.139  23.265  1.00  0.00     0.016 C 
ATOM     76  C   UNL A   1      31.465  26.290  24.774  1.00  0.00     0.093 C 
ATOM     77  C   UNL A   1      32.354  27.224  22.110  1.00  0.00     0.001 C 
ATOM     78  C   UNL A   1      30.481  26.467  23.610  1.00  0.00     0.014 C 
ATOM     79  C   UNL A   1      30.952  27.529  22.623  1.00  0.00     0.001 C 
BRANCH  76  80
ATOM     80  C   UNL A   1      30.806  25.349  25.794  1.00  0.00     0.228 C 
ATOM     81  O   UNL A   1      30.173  25.863  26.728  1.00  0.00    -0.274 OA
ATOM     82  N   UNL A   1      30.692  23.994  25.697  1.00  0.00    -0.326 N 
ATOM     83  H   UNL A   1      30.065  23.610  26.351  1.00  0.00     0.169 HD
BRANCH  82  84
ATOM     84  C   UNL A   1      31.277  23.040  24.868  1.00  0.00     0.041 A 
ATOM     85  C   UNL A   1      31.689  21.845  25.446  1.00  0.00     0.028 A 
ATOM     86  C   UNL A   1      31.529  23.232  23.520  1.00  0.00     0.028 A 
ATOM     87  C   UNL A   1      32.062  20.770  24.637  1.00  0.00     0.028 A 
ATOM     88  C   UNL A   1      31.853  22.149  22.702  1.00  0.00     0.028 A 
ATOM     89  C   UNL A   1      32.001  20.875  23.251  1.00  0.00     0.041 A 
BRANCH  89  90
ATOM     90  N   UNL A   1      32.038  19.798  22.349  1.00  0.00    -0.319 N 
ATOM     91  C   UNL A   1      32.395  18.471  22.488  1.00  0.00     0.291 C 
ATOM     92  H   UNL A   1      31.752  20.036  21.438  1.00  0.00     0.170 HD
ATOM     93  O   UNL A   1      32.270  17.749  21.493  1.00  0.00    -0.265 OA
BRANCH  91  94
ATOM     94  C   UNL A   1      32.849  17.957  23.756  1.00  0.00     0.191 A 
ATOM     95  C   UNL A   1      34.109  17.720  24.281  1.00  0.00     0.056 A 
ATOM     96  O   UNL A   1      31.900  17.593  24.671  1.00  0.00    -0.459 OA
ATOM     97  C   UNL A   1      33.910  17.128  25.555  1.00  0.00     0.043 A 
ATOM     98  C   UNL A   1      32.549  17.083  25.747  1.00  0.00     0.196 A 
ENDBRANCH  91  94
ENDBRANCH  89  90
ENDBRANCH  82  84
ENDBRANCH  76  80
ENDBRANCH  72  74
ENDBRANCH  71  72
ENDBRANCH  70  71
ENDBRANCH   1  70
TORSDOF 21
ENDMDL
