MODEL 1
REMARK VINA RESULT:      -9.8      0.000      0.000
REMARK SMILES CNc1nccc(-c2cc(C(=O)OCCOCCOC(=O)c3ccc(-c4c5nc(c(-c6ccc(S(=O)(=O)[O-])cc6)c6ccc([nH]6)c(-c6ccc(S(=O)(=O)[O-])cc6)c6nc(c(-c7ccc(S(=O)(=O)[O-])cc7)c7ccc4[nH]7)C=C6)C=C5)cc3)ccn2)n1
REMARK SMILES IDX 17 1 16 2 15 3 14 4 13 5 11 6 12 7 10 8 8 9 9 10 84 11 83 12
REMARK SMILES IDX 82 13 7 14 3 15 4 16 85 17 5 18 6 19 2 20 1 21 18 23 19 24
REMARK SMILES IDX 20 25 21 26 22 27 23 28 81 29 24 30 80 31 25 32 26 33 27 34
REMARK SMILES IDX 74 35 28 36 79 37 73 38 75 39 29 40 78 41 72 42 71 43 30 45
REMARK SMILES IDX 60 46 41 47 59 48 42 49 45 50 58 51 76 52 43 53 44 54 57 56
REMARK SMILES IDX 77 57 46 58 31 59 32 60 40 61 33 62 39 63 34 64 35 65 36 66
REMARK SMILES IDX 37 67 38 68 61 69 62 70 70 71 63 72 69 73 64 74 65 75 66 76
REMARK SMILES IDX 67 77 68 78 47 79 48 80 56 81 49 82 55 83 50 84 51 85 52 86
REMARK SMILES IDX 53 87 54 88
REMARK H PARENT 2 22 75 44 45 55
REMARK Flexibility Score: inf
ROOT
ATOM      1  C   UNL A   1      36.176  21.189  25.263  1.00  0.00     0.202 C 
ENDROOT
BRANCH   1   2
ATOM      2  O   UNL A   1      35.531  21.607  26.465  1.00  0.00    -0.374 OA
BRANCH   2   3
ATOM      3  C   UNL A   1      34.404  22.473  26.340  1.00  0.00     0.202 C 
BRANCH   3   4
ATOM      4  C   UNL A   1      33.055  21.924  26.821  1.00  0.00     0.261 C 
BRANCH   4   5
ATOM      5  O   UNL A   1      32.282  22.933  27.492  1.00  0.00    -0.460 OA
BRANCH   5   6
ATOM      6  C   UNL A   1      31.041  23.137  26.991  1.00  0.00     0.338 C 
ATOM      7  O   UNL A   1      29.986  22.708  27.435  1.00  0.00    -0.246 OA
BRANCH   6   8
ATOM      8  C   UNL A   1      31.097  24.130  25.897  1.00  0.00     0.063 A 
ATOM      9  C   UNL A   1      31.338  26.355  25.035  1.00  0.00     0.090 A 
ATOM     10  C   UNL A   1      31.249  25.497  26.132  1.00  0.00     0.046 A 
ATOM     11  N   UNL A   1      31.209  25.893  23.761  1.00  0.00    -0.255 NA
ATOM     12  C   UNL A   1      31.032  24.570  23.568  1.00  0.00     0.112 A 
ATOM     13  C   UNL A   1      30.990  23.652  24.593  1.00  0.00     0.036 A 
BRANCH   9  14
ATOM     14  C   UNL A   1      31.726  27.777  25.180  1.00  0.00     0.094 A 
ATOM     15  C   UNL A   1      33.144  29.347  26.094  1.00  0.00     0.222 A 
ATOM     16  N   UNL A   1      32.389  30.367  25.664  1.00  0.00    -0.222 NA
ATOM     17  N   UNL A   1      32.854  28.056  25.879  1.00  0.00    -0.211 NA
ATOM     18  C   UNL A   1      31.299  30.062  24.946  1.00  0.00     0.117 A 
ATOM     19  C   UNL A   1      30.920  28.776  24.668  1.00  0.00     0.051 A 
BRANCH  15  20
ATOM     20  N   UNL A   1      34.284  29.731  26.745  1.00  0.00    -0.357 N 
ATOM     21  C   UNL A   1      34.373  30.969  27.460  1.00  0.00     0.143 C 
ATOM     22  H   UNL A   1      35.068  29.136  26.723  1.00  0.00     0.163 HD
ENDBRANCH  15  20
ENDBRANCH   9  14
ENDBRANCH   6   8
ENDBRANCH   5   6
ENDBRANCH   4   5
ENDBRANCH   3   4
ENDBRANCH   2   3
ENDBRANCH   1   2
BRANCH   1  23
ATOM     23  C   UNL A   1      37.684  21.442  25.141  1.00  0.00     0.261 C 
BRANCH  23  24
ATOM     24  O   UNL A   1      38.061  22.758  25.579  1.00  0.00    -0.460 OA
BRANCH  24  25
ATOM     25  C   UNL A   1      39.250  22.818  26.227  1.00  0.00     0.338 C 
ATOM     26  O   UNL A   1      40.155  21.998  26.184  1.00  0.00    -0.246 OA
BRANCH  25  27
ATOM     27  C   UNL A   1      39.400  24.135  26.872  1.00  0.00     0.060 A 
ATOM     28  C   UNL A   1      40.132  25.114  26.188  1.00  0.00     0.016 A 
ATOM     29  C   UNL A   1      38.890  24.389  28.146  1.00  0.00     0.016 A 
ATOM     30  C   UNL A   1      40.393  26.340  26.795  1.00  0.00     0.010 A 
ATOM     31  C   UNL A   1      39.159  25.618  28.755  1.00  0.00     0.010 A 
ATOM     32  C   UNL A   1      39.938  26.586  28.097  1.00  0.00    -0.014 A 
BRANCH  32  33
ATOM     33  C   UNL A   1      40.379  27.806  28.815  1.00  0.00     0.031 A 
ATOM     34  C   UNL A   1      41.764  27.852  29.401  1.00  0.00     0.074 A 
ATOM     35  C   UNL A   1      39.561  28.867  28.931  1.00  0.00     0.049 A 
ATOM     36  N   UNL A   1      42.339  28.801  30.093  1.00  0.00    -0.248 NA
ATOM     37  C   UNL A   1      42.611  26.670  29.177  1.00  0.00     0.031 C 
ATOM     38  C   UNL A   1      38.217  28.963  28.364  1.00  0.00     0.029 A 
ATOM     39  N   UNL A   1      39.745  30.067  29.568  1.00  0.00    -0.354 N 
ATOM     40  C   UNL A   1      43.610  28.328  30.397  1.00  0.00     0.074 A 
ATOM     41  C   UNL A   1      43.708  26.996  29.843  1.00  0.00     0.031 C 
ATOM     42  C   UNL A   1      37.696  30.160  28.679  1.00  0.00     0.029 A 
ATOM     43  C   UNL A   1      38.653  30.898  29.502  1.00  0.00     0.049 A 
ATOM     44  H   UNL A   1      40.579  30.310  30.031  1.00  0.00     0.167 HD
ATOM     45  C   UNL A   1      44.608  28.950  31.073  1.00  0.00     0.031 A 
ATOM     46  C   UNL A   1      38.441  32.109  30.057  1.00  0.00     0.031 A 
ATOM     47  C   UNL A   1      44.495  30.265  31.645  1.00  0.00     0.049 A 
ATOM     48  C   UNL A   1      39.528  32.742  30.883  1.00  0.00     0.074 A 
ATOM     49  C   UNL A   1      45.451  30.988  32.338  1.00  0.00     0.029 A 
ATOM     50  N   UNL A   1      43.353  31.052  31.605  1.00  0.00    -0.354 N 
ATOM     51  N   UNL A   1      40.733  32.293  31.144  1.00  0.00    -0.248 NA
ATOM     52  C   UNL A   1      39.226  34.047  31.486  1.00  0.00     0.031 C 
ATOM     53  C   UNL A   1      44.865  32.183  32.772  1.00  0.00     0.029 A 
ATOM     54  C   UNL A   1      43.567  32.236  32.290  1.00  0.00     0.049 A 
ATOM     55  H   UNL A   1      42.513  30.804  31.154  1.00  0.00     0.167 HD
ATOM     56  C   UNL A   1      41.344  33.274  31.919  1.00  0.00     0.074 A 
ATOM     57  C   UNL A   1      40.378  34.344  32.075  1.00  0.00     0.031 C 
ATOM     58  C   UNL A   1      42.593  33.290  32.447  1.00  0.00     0.031 A 
BRANCH  45  59
ATOM     59  C   UNL A   1      45.890  28.181  31.267  1.00  0.00    -0.014 A 
ATOM     60  C   UNL A   1      46.104  27.386  32.410  1.00  0.00     0.010 A 
ATOM     61  C   UNL A   1      46.900  28.254  30.290  1.00  0.00     0.010 A 
ATOM     62  C   UNL A   1      47.324  26.733  32.600  1.00  0.00     0.020 A 
ATOM     63  C   UNL A   1      48.110  27.577  30.462  1.00  0.00     0.020 A 
ATOM     64  C   UNL A   1      48.324  26.841  31.629  1.00  0.00     0.054 A 
BRANCH  64  65
ATOM     65  S   UNL A   1      49.907  26.001  31.911  1.00  0.00     0.124 S 
ATOM     66  O   UNL A   1      50.843  27.123  31.927  1.00  0.00    -0.237 OA
ATOM     67  O   UNL A   1      49.696  25.342  33.197  1.00  0.00    -0.237 OA
ATOM     68  O   UNL A   1      50.032  25.103  30.767  1.00  0.00    -0.744 OA
ENDBRANCH  64  65
ENDBRANCH  45  59
BRANCH  46  69
ATOM     69  C   UNL A   1      37.140  32.796  29.843  1.00  0.00    -0.014 A 
ATOM     70  C   UNL A   1      36.099  32.661  30.778  1.00  0.00     0.010 A 
ATOM     71  C   UNL A   1      36.947  33.622  28.719  1.00  0.00     0.010 A 
ATOM     72  C   UNL A   1      34.890  33.340  30.595  1.00  0.00     0.020 A 
ATOM     73  C   UNL A   1      35.751  34.323  28.547  1.00  0.00     0.020 A 
ATOM     74  C   UNL A   1      34.728  34.175  29.486  1.00  0.00     0.054 A 
BRANCH  74  75
ATOM     75  S   UNL A   1      33.185  35.115  29.319  1.00  0.00     0.124 S 
ATOM     76  O   UNL A   1      32.464  34.342  28.314  1.00  0.00    -0.237 OA
ATOM     77  O   UNL A   1      32.639  35.063  30.673  1.00  0.00    -0.237 OA
ATOM     78  O   UNL A   1      33.636  36.438  28.889  1.00  0.00    -0.744 OA
ENDBRANCH  74  75
ENDBRANCH  46  69
BRANCH  58  79
ATOM     79  C   UNL A   1      43.006  34.515  33.222  1.00  0.00    -0.014 A 
ATOM     80  C   UNL A   1      42.885  34.572  34.622  1.00  0.00     0.010 A 
ATOM     81  C   UNL A   1      43.581  35.605  32.542  1.00  0.00     0.010 A 
ATOM     82  C   UNL A   1      43.305  35.707  35.323  1.00  0.00     0.020 A 
ATOM     83  C   UNL A   1      44.029  36.728  33.241  1.00  0.00     0.020 A 
ATOM     84  C   UNL A   1      43.876  36.777  34.627  1.00  0.00     0.054 A 
BRANCH  84  85
ATOM     85  S   UNL A   1      44.458  38.217  35.566  1.00  0.00     0.124 S 
ATOM     86  O   UNL A   1      43.836  38.002  36.870  1.00  0.00    -0.237 OA
ATOM     87  O   UNL A   1      45.909  38.058  35.528  1.00  0.00    -0.237 OA
ATOM     88  O   UNL A   1      43.942  39.355  34.810  1.00  0.00    -0.744 OA
ENDBRANCH  84  85
ENDBRANCH  58  79
ENDBRANCH  32  33
ENDBRANCH  25  27
ENDBRANCH  24  25
ENDBRANCH  23  24
ENDBRANCH   1  23
TORSDOF 19
ENDMDL
MODEL 2
REMARK VINA RESULT:      -9.6      3.460      4.257
REMARK SMILES CNc1nccc(-c2cc(C(=O)OCCOCCOC(=O)c3ccc(-c4c5nc(c(-c6ccc(S(=O)(=O)[O-])cc6)c6ccc([nH]6)c(-c6ccc(S(=O)(=O)[O-])cc6)c6nc(c(-c7ccc(S(=O)(=O)[O-])cc7)c7ccc4[nH]7)C=C6)C=C5)cc3)ccn2)n1
REMARK SMILES IDX 17 1 16 2 15 3 14 4 13 5 11 6 12 7 10 8 8 9 9 10 84 11 83 12
REMARK SMILES IDX 82 13 7 14 3 15 4 16 85 17 5 18 6 19 2 20 1 21 18 23 19 24
REMARK SMILES IDX 20 25 21 26 22 27 23 28 81 29 24 30 80 31 25 32 26 33 27 34
REMARK SMILES IDX 74 35 28 36 79 37 73 38 75 39 29 40 78 41 72 42 71 43 30 45
REMARK SMILES IDX 60 46 41 47 59 48 42 49 45 50 58 51 76 52 43 53 44 54 57 56
REMARK SMILES IDX 77 57 46 58 31 59 32 60 40 61 33 62 39 63 34 64 35 65 36 66
REMARK SMILES IDX 37 67 38 68 61 69 62 70 70 71 63 72 69 73 64 74 65 75 66 76
REMARK SMILES IDX 67 77 68 78 47 79 48 80 56 81 49 82 55 83 50 84 51 85 52 86
REMARK SMILES IDX 53 87 54 88
REMARK H PARENT 2 22 75 44 45 55
REMARK Flexibility Score: inf
ROOT
ATOM      1  C   UNL A   1      37.193  23.946  25.972  1.00  0.00     0.202 C 
ENDROOT
BRANCH   1   2
ATOM      2  O   UNL A   1      36.248  22.898  26.186  1.00  0.00    -0.374 OA
BRANCH   2   3
ATOM      3  C   UNL A   1      36.262  21.802  25.272  1.00  0.00     0.202 C 
BRANCH   3   4
ATOM      4  C   UNL A   1      34.917  21.124  24.986  1.00  0.00     0.261 C 
BRANCH   4   5
ATOM      5  O   UNL A   1      34.131  21.879  24.049  1.00  0.00    -0.460 OA
BRANCH   5   6
ATOM      6  C   UNL A   1      32.793  21.703  24.144  1.00  0.00     0.338 C 
ATOM      7  O   UNL A   1      32.148  20.731  23.776  1.00  0.00    -0.246 OA
BRANCH   6   8
ATOM      8  C   UNL A   1      32.196  22.796  24.941  1.00  0.00     0.063 A 
ATOM      9  C   UNL A   1      31.758  25.106  25.417  1.00  0.00     0.090 A 
ATOM     10  C   UNL A   1      32.399  24.143  24.637  1.00  0.00     0.046 A 
ATOM     11  N   UNL A   1      31.005  24.757  26.497  1.00  0.00    -0.255 NA
ATOM     12  C   UNL A   1      30.853  23.448  26.783  1.00  0.00     0.112 A 
ATOM     13  C   UNL A   1      31.406  22.436  26.030  1.00  0.00     0.036 A 
BRANCH   9  14
ATOM     14  C   UNL A   1      31.730  26.535  25.034  1.00  0.00     0.094 A 
ATOM     15  C   UNL A   1      32.665  28.635  25.198  1.00  0.00     0.222 A 
ATOM     16  N   UNL A   1      31.643  29.207  24.548  1.00  0.00    -0.222 NA
ATOM     17  N   UNL A   1      32.748  27.324  25.460  1.00  0.00    -0.211 NA
ATOM     18  C   UNL A   1      30.668  28.399  24.109  1.00  0.00     0.117 A 
ATOM     19  C   UNL A   1      30.662  27.047  24.321  1.00  0.00     0.051 A 
BRANCH  15  20
ATOM     20  N   UNL A   1      33.664  29.504  25.543  1.00  0.00    -0.357 N 
ATOM     21  C   UNL A   1      33.813  30.002  26.877  1.00  0.00     0.143 C 
ATOM     22  H   UNL A   1      34.303  29.794  24.852  1.00  0.00     0.163 HD
ENDBRANCH  15  20
ENDBRANCH   9  14
ENDBRANCH   6   8
ENDBRANCH   5   6
ENDBRANCH   4   5
ENDBRANCH   3   4
ENDBRANCH   2   3
ENDBRANCH   1   2
BRANCH   1  23
ATOM     23  C   UNL A   1      38.670  23.636  26.242  1.00  0.00     0.261 C 
BRANCH  23  24
ATOM     24  O   UNL A   1      39.181  24.333  27.392  1.00  0.00    -0.460 OA
BRANCH  24  25
ATOM     25  C   UNL A   1      39.869  25.464  27.105  1.00  0.00     0.338 C 
ATOM     26  O   UNL A   1      40.429  25.740  26.054  1.00  0.00    -0.246 OA
BRANCH  25  27
ATOM     27  C   UNL A   1      39.700  26.440  28.196  1.00  0.00     0.060 A 
ATOM     28  C   UNL A   1      40.363  27.668  28.078  1.00  0.00     0.016 A 
ATOM     29  C   UNL A   1      38.961  26.138  29.341  1.00  0.00     0.016 A 
ATOM     30  C   UNL A   1      40.323  28.586  29.125  1.00  0.00     0.010 A 
ATOM     31  C   UNL A   1      38.927  27.059  30.393  1.00  0.00     0.010 A 
ATOM     32  C   UNL A   1      39.634  28.272  30.303  1.00  0.00    -0.014 A 
BRANCH  32  33
ATOM     33  C   UNL A   1      39.752  29.157  31.487  1.00  0.00     0.031 A 
ATOM     34  C   UNL A   1      40.896  28.955  32.443  1.00  0.00     0.074 A 
ATOM     35  C   UNL A   1      38.859  30.140  31.700  1.00  0.00     0.049 A 
ATOM     36  N   UNL A   1      41.170  29.591  33.552  1.00  0.00    -0.248 NA
ATOM     37  C   UNL A   1      41.857  27.895  32.101  1.00  0.00     0.031 C 
ATOM     38  C   UNL A   1      37.738  30.467  30.820  1.00  0.00     0.029 A 
ATOM     39  N   UNL A   1      38.759  31.042  32.727  1.00  0.00    -0.354 N 
ATOM     40  C   UNL A   1      42.327  29.002  34.048  1.00  0.00     0.074 A 
ATOM     41  C   UNL A   1      42.682  27.937  33.136  1.00  0.00     0.031 C 
ATOM     42  C   UNL A   1      37.060  31.501  31.347  1.00  0.00     0.029 A 
ATOM     43  C   UNL A   1      37.676  31.881  32.617  1.00  0.00     0.049 A 
ATOM     44  H   UNL A   1      39.400  31.085  33.473  1.00  0.00     0.167 HD
ATOM     45  C   UNL A   1      43.034  29.322  35.161  1.00  0.00     0.031 A 
ATOM     46  C   UNL A   1      37.220  32.834  33.455  1.00  0.00     0.031 A 
ATOM     47  C   UNL A   1      42.660  30.365  36.079  1.00  0.00     0.049 A 
ATOM     48  C   UNL A   1      37.966  33.111  34.733  1.00  0.00     0.074 A 
ATOM     49  C   UNL A   1      43.313  30.775  37.228  1.00  0.00     0.029 A 
ATOM     50  N   UNL A   1      41.525  31.154  35.963  1.00  0.00    -0.354 N 
ATOM     51  N   UNL A   1      39.071  32.562  35.179  1.00  0.00    -0.248 NA
ATOM     52  C   UNL A   1      37.405  34.141  35.618  1.00  0.00     0.031 C 
ATOM     53  C   UNL A   1      42.539  31.767  37.840  1.00  0.00     0.029 A 
ATOM     54  C   UNL A   1      41.440  32.025  37.036  1.00  0.00     0.049 A 
ATOM     55  H   UNL A   1      40.875  31.102  35.224  1.00  0.00     0.167 HD
ATOM     56  C   UNL A   1      39.353  33.198  36.384  1.00  0.00     0.074 A 
ATOM     57  C   UNL A   1      38.307  34.180  36.591  1.00  0.00     0.031 C 
ATOM     58  C   UNL A   1      40.387  32.992  37.237  1.00  0.00     0.031 A 
BRANCH  45  59
ATOM     59  C   UNL A   1      44.255  28.492  35.462  1.00  0.00    -0.014 A 
ATOM     60  C   UNL A   1      44.169  27.302  36.210  1.00  0.00     0.010 A 
ATOM     61  C   UNL A   1      45.513  28.909  34.989  1.00  0.00     0.010 A 
ATOM     62  C   UNL A   1      45.322  26.582  36.532  1.00  0.00     0.020 A 
ATOM     63  C   UNL A   1      46.666  28.175  35.283  1.00  0.00     0.020 A 
ATOM     64  C   UNL A   1      46.566  27.029  36.075  1.00  0.00     0.054 A 
BRANCH  64  65
ATOM     65  S   UNL A   1      48.049  26.089  36.526  1.00  0.00     0.124 S 
ATOM     66  O   UNL A   1      47.479  24.967  37.269  1.00  0.00    -0.237 OA
ATOM     67  O   UNL A   1      48.623  25.752  35.226  1.00  0.00    -0.237 OA
ATOM     68  O   UNL A   1      48.830  27.031  37.323  1.00  0.00    -0.744 OA
ENDBRANCH  64  65
ENDBRANCH  45  59
BRANCH  46  69
ATOM     69  C   UNL A   1      35.992  33.596  33.103  1.00  0.00    -0.014 A 
ATOM     70  C   UNL A   1      34.720  33.042  33.331  1.00  0.00     0.010 A 
ATOM     71  C   UNL A   1      36.088  34.895  32.570  1.00  0.00     0.010 A 
ATOM     72  C   UNL A   1      33.566  33.776  33.036  1.00  0.00     0.020 A 
ATOM     73  C   UNL A   1      34.937  35.641  32.300  1.00  0.00     0.020 A 
ATOM     74  C   UNL A   1      33.683  35.074  32.532  1.00  0.00     0.054 A 
BRANCH  74  75
ATOM     75  S   UNL A   1      32.172  36.037  32.242  1.00  0.00     0.124 S 
ATOM     76  O   UNL A   1      32.249  36.301  30.810  1.00  0.00    -0.237 OA
ATOM     77  O   UNL A   1      31.125  35.109  32.662  1.00  0.00    -0.237 OA
ATOM     78  O   UNL A   1      32.341  37.204  33.106  1.00  0.00    -0.744 OA
ENDBRANCH  74  75
ENDBRANCH  46  69
BRANCH  58  79
ATOM     79  C   UNL A   1      40.462  33.863  38.464  1.00  0.00    -0.014 A 
ATOM     80  C   UNL A   1      41.147  35.091  38.451  1.00  0.00     0.010 A 
ATOM     81  C   UNL A   1      39.783  33.473  39.634  1.00  0.00     0.010 A 
ATOM     82  C   UNL A   1      41.175  35.898  39.593  1.00  0.00     0.020 A 
ATOM     83  C   UNL A   1      39.783  34.290  40.767  1.00  0.00     0.020 A 
ATOM     84  C   UNL A   1      40.491  35.492  40.743  1.00  0.00     0.054 A 
BRANCH  84  85
ATOM     85  S   UNL A   1      40.502  36.581  42.195  1.00  0.00     0.124 S 
ATOM     86  O   UNL A   1      39.270  36.193  42.876  1.00  0.00    -0.237 OA
ATOM     87  O   UNL A   1      41.740  36.202  42.870  1.00  0.00    -0.237 OA
ATOM     88  O   UNL A   1      40.499  37.924  41.620  1.00  0.00    -0.744 OA
ENDBRANCH  84  85
ENDBRANCH  58  79
ENDBRANCH  32  33
ENDBRANCH  25  27
ENDBRANCH  24  25
ENDBRANCH  23  24
ENDBRANCH   1  23
TORSDOF 19
ENDMDL
MODEL 3
REMARK VINA RESULT:      -9.5      3.201      9.746
REMARK SMILES CNc1nccc(-c2cc(C(=O)OCCOCCOC(=O)c3ccc(-c4c5nc(c(-c6ccc(S(=O)(=O)[O-])cc6)c6ccc([nH]6)c(-c6ccc(S(=O)(=O)[O-])cc6)c6nc(c(-c7ccc(S(=O)(=O)[O-])cc7)c7ccc4[nH]7)C=C6)C=C5)cc3)ccn2)n1
REMARK SMILES IDX 17 1 16 2 15 3 14 4 13 5 11 6 12 7 10 8 8 9 9 10 84 11 83 12
REMARK SMILES IDX 82 13 7 14 3 15 4 16 85 17 5 18 6 19 2 20 1 21 18 23 19 24
REMARK SMILES IDX 20 25 21 26 22 27 23 28 81 29 24 30 80 31 25 32 26 33 27 34
REMARK SMILES IDX 74 35 28 36 79 37 73 38 75 39 29 40 78 41 72 42 71 43 30 45
REMARK SMILES IDX 60 46 41 47 59 48 42 49 45 50 58 51 76 52 43 53 44 54 57 56
REMARK SMILES IDX 77 57 46 58 31 59 32 60 40 61 33 62 39 63 34 64 35 65 36 66
REMARK SMILES IDX 37 67 38 68 61 69 62 70 70 71 63 72 69 73 64 74 65 75 66 76
REMARK SMILES IDX 67 77 68 78 47 79 48 80 56 81 49 82 55 83 50 84 51 85 52 86
REMARK SMILES IDX 53 87 54 88
REMARK H PARENT 2 22 75 44 45 55
REMARK Flexibility Score: inf
ROOT
ATOM      1  C   UNL A   1      33.766  28.351  26.087  1.00  0.00     0.202 C 
ENDROOT
BRANCH   1   2
ATOM      2  O   UNL A   1      33.258  27.025  26.227  1.00  0.00    -0.374 OA
BRANCH   2   3
ATOM      3  C   UNL A   1      32.333  26.567  25.242  1.00  0.00     0.202 C 
BRANCH   3   4
ATOM      4  C   UNL A   1      31.034  25.933  25.756  1.00  0.00     0.261 C 
BRANCH   4   5
ATOM      5  O   UNL A   1      30.964  24.535  25.433  1.00  0.00    -0.460 OA
BRANCH   5   6
ATOM      6  C   UNL A   1      30.914  23.699  26.496  1.00  0.00     0.338 C 
ATOM      7  O   UNL A   1      29.968  23.519  27.250  1.00  0.00    -0.246 OA
BRANCH   6   8
ATOM      8  C   UNL A   1      32.131  22.861  26.536  1.00  0.00     0.063 A 
ATOM      9  C   UNL A   1      33.350  20.835  26.129  1.00  0.00     0.090 A 
ATOM     10  C   UNL A   1      32.143  21.536  26.097  1.00  0.00     0.046 A 
ATOM     11  N   UNL A   1      34.481  21.395  26.639  1.00  0.00    -0.255 NA
ATOM     12  C   UNL A   1      34.429  22.667  27.084  1.00  0.00     0.112 A 
ATOM     13  C   UNL A   1      33.293  23.443  27.035  1.00  0.00     0.036 A 
BRANCH   9  14
ATOM     14  C   UNL A   1      33.508  19.515  25.478  1.00  0.00     0.094 A 
ATOM     15  C   UNL A   1      32.827  17.322  25.283  1.00  0.00     0.222 A 
ATOM     16  N   UNL A   1      33.856  17.010  24.485  1.00  0.00    -0.222 NA
ATOM     17  N   UNL A   1      32.618  18.543  25.796  1.00  0.00    -0.211 NA
ATOM     18  C   UNL A   1      34.701  17.999  24.160  1.00  0.00     0.117 A 
ATOM     19  C   UNL A   1      34.572  19.279  24.626  1.00  0.00     0.051 A 
BRANCH  15  20
ATOM     20  N   UNL A   1      31.958  16.289  25.505  1.00  0.00    -0.357 N 
ATOM     21  C   UNL A   1      32.377  14.920  25.467  1.00  0.00     0.143 C 
ATOM     22  H   UNL A   1      31.015  16.494  25.699  1.00  0.00     0.163 HD
ENDBRANCH  15  20
ENDBRANCH   9  14
ENDBRANCH   6   8
ENDBRANCH   5   6
ENDBRANCH   4   5
ENDBRANCH   3   4
ENDBRANCH   2   3
ENDBRANCH   1   2
BRANCH   1  23
ATOM     23  C   UNL A   1      33.459  29.350  27.209  1.00  0.00     0.261 C 
BRANCH  23  24
ATOM     24  O   UNL A   1      34.164  30.593  27.051  1.00  0.00    -0.460 OA
BRANCH  24  25
ATOM     25  C   UNL A   1      34.756  31.053  28.180  1.00  0.00     0.338 C 
ATOM     26  O   UNL A   1      34.261  31.779  29.029  1.00  0.00    -0.246 OA
BRANCH  25  27
ATOM     27  C   UNL A   1      36.064  30.396  28.359  1.00  0.00     0.060 A 
ATOM     28  C   UNL A   1      36.400  29.958  29.646  1.00  0.00     0.016 A 
ATOM     29  C   UNL A   1      36.969  30.267  27.304  1.00  0.00     0.016 A 
ATOM     30  C   UNL A   1      37.663  29.425  29.894  1.00  0.00     0.010 A 
ATOM     31  C   UNL A   1      38.239  29.738  27.557  1.00  0.00     0.010 A 
ATOM     32  C   UNL A   1      38.603  29.345  28.858  1.00  0.00    -0.014 A 
BRANCH  32  33
ATOM     33  C   UNL A   1      40.003  28.964  29.159  1.00  0.00     0.031 A 
ATOM     34  C   UNL A   1      40.909  29.964  29.824  1.00  0.00     0.074 A 
ATOM     35  C   UNL A   1      40.459  27.735  28.858  1.00  0.00     0.049 A 
ATOM     36  N   UNL A   1      42.172  29.851  30.145  1.00  0.00    -0.248 NA
ATOM     37  C   UNL A   1      40.311  31.262  30.169  1.00  0.00     0.031 C 
ATOM     38  C   UNL A   1      39.665  26.662  28.259  1.00  0.00     0.029 A 
ATOM     39  N   UNL A   1      41.706  27.185  29.015  1.00  0.00    -0.354 N 
ATOM     40  C   UNL A   1      42.523  31.067  30.721  1.00  0.00     0.074 A 
ATOM     41  C   UNL A   1      41.350  31.911  30.672  1.00  0.00     0.031 C 
ATOM     42  C   UNL A   1      40.446  25.580  28.100  1.00  0.00     0.029 A 
ATOM     43  C   UNL A   1      41.801  25.897  28.548  1.00  0.00     0.049 A 
ATOM     44  H   UNL A   1      42.460  27.667  29.423  1.00  0.00     0.167 HD
ATOM     45  C   UNL A   1      43.715  31.444  31.247  1.00  0.00     0.031 A 
ATOM     46  C   UNL A   1      42.865  25.071  28.472  1.00  0.00     0.031 A 
ATOM     47  C   UNL A   1      44.886  30.608  31.268  1.00  0.00     0.049 A 
ATOM     48  C   UNL A   1      44.202  25.543  28.975  1.00  0.00     0.074 A 
ATOM     49  C   UNL A   1      46.137  30.892  31.788  1.00  0.00     0.029 A 
ATOM     50  N   UNL A   1      44.958  29.330  30.734  1.00  0.00    -0.354 N 
ATOM     51  N   UNL A   1      44.515  26.686  29.538  1.00  0.00    -0.248 NA
ATOM     52  C   UNL A   1      45.328  24.609  28.839  1.00  0.00     0.031 C 
ATOM     53  C   UNL A   1      46.982  29.812  31.509  1.00  0.00     0.029 A 
ATOM     54  C   UNL A   1      46.239  28.825  30.879  1.00  0.00     0.049 A 
ATOM     55  H   UNL A   1      44.207  28.852  30.313  1.00  0.00     0.167 HD
ATOM     56  C   UNL A   1      45.869  26.600  29.847  1.00  0.00     0.074 A 
ATOM     57  C   UNL A   1      46.311  25.287  29.418  1.00  0.00     0.031 C 
ATOM     58  C   UNL A   1      46.670  27.521  30.438  1.00  0.00     0.031 A 
BRANCH  45  59
ATOM     59  C   UNL A   1      43.811  32.844  31.796  1.00  0.00    -0.014 A 
ATOM     60  C   UNL A   1      44.378  33.891  31.044  1.00  0.00     0.010 A 
ATOM     61  C   UNL A   1      43.327  33.120  33.089  1.00  0.00     0.010 A 
ATOM     62  C   UNL A   1      44.517  35.167  31.596  1.00  0.00     0.020 A 
ATOM     63  C   UNL A   1      43.435  34.403  33.633  1.00  0.00     0.020 A 
ATOM     64  C   UNL A   1      44.053  35.412  32.893  1.00  0.00     0.054 A 
BRANCH  64  65
ATOM     65  S   UNL A   1      44.263  37.071  33.594  1.00  0.00     0.124 S 
ATOM     66  O   UNL A   1      45.687  37.079  33.924  1.00  0.00    -0.237 OA
ATOM     67  O   UNL A   1      43.871  37.940  32.487  1.00  0.00    -0.237 OA
ATOM     68  O   UNL A   1      43.359  37.082  34.740  1.00  0.00    -0.744 OA
ENDBRANCH  64  65
ENDBRANCH  45  59
BRANCH  46  69
ATOM     69  C   UNL A   1      42.698  23.711  27.893  1.00  0.00    -0.014 A 
ATOM     70  C   UNL A   1      42.337  22.627  28.712  1.00  0.00     0.010 A 
ATOM     71  C   UNL A   1      42.865  23.499  26.511  1.00  0.00     0.010 A 
ATOM     72  C   UNL A   1      42.142  21.357  28.159  1.00  0.00     0.020 A 
ATOM     73  C   UNL A   1      42.645  22.238  25.952  1.00  0.00     0.020 A 
ATOM     74  C   UNL A   1      42.287  21.173  26.781  1.00  0.00     0.054 A 
BRANCH  74  75
ATOM     75  S   UNL A   1      41.941  19.537  26.077  1.00  0.00     0.124 S 
ATOM     76  O   UNL A   1      42.770  19.541  24.876  1.00  0.00    -0.237 OA
ATOM     77  O   UNL A   1      42.375  18.640  27.145  1.00  0.00    -0.237 OA
ATOM     78  O   UNL A   1      40.499  19.564  25.846  1.00  0.00    -0.744 OA
ENDBRANCH  74  75
ENDBRANCH  46  69
BRANCH  58  79
ATOM     79  C   UNL A   1      48.107  27.137  30.687  1.00  0.00    -0.014 A 
ATOM     80  C   UNL A   1      49.130  27.510  29.797  1.00  0.00     0.010 A 
ATOM     81  C   UNL A   1      48.445  26.441  31.863  1.00  0.00     0.010 A 
ATOM     82  C   UNL A   1      50.459  27.171  30.065  1.00  0.00     0.020 A 
ATOM     83  C   UNL A   1      49.776  26.126  32.149  1.00  0.00     0.020 A 
ATOM     84  C   UNL A   1      50.774  26.481  31.241  1.00  0.00     0.054 A 
BRANCH  84  85
ATOM     85  S   UNL A   1      52.512  26.097  31.589  1.00  0.00     0.124 S 
ATOM     86  O   UNL A   1      53.080  26.013  30.246  1.00  0.00    -0.237 OA
ATOM     87  O   UNL A   1      52.941  27.246  32.381  1.00  0.00    -0.237 OA
ATOM     88  O   UNL A   1      52.449  24.833  32.318  1.00  0.00    -0.744 OA
ENDBRANCH  84  85
ENDBRANCH  58  79
ENDBRANCH  32  33
ENDBRANCH  25  27
ENDBRANCH  24  25
ENDBRANCH  23  24
ENDBRANCH   1  23
TORSDOF 19
ENDMDL
