MODEL 1
REMARK VINA RESULT:     -10.1      0.000      0.000
REMARK SMILES COc1cccc([C@@H]2C[N@@H+](Cc3nccn3C)C[C@H]2C(=O)OCCOCCOC(=O)c2ccc(-c3c4nc(c(-c5ccc(S(=O)(=O)[O-])cc5)c5ccc([nH]5)c(-c5ccc(S(=O)(=O)[O-])cc5)c5nc(c(-c6ccc(S(=O)(=O)[O-])cc6)c6ccc3[nH]6)C=C5)C=C4)cc2)c1
REMARK SMILES IDX 26 1 25 2 24 3 23 4 22 5 20 6 21 7 19 8 8 9 9 10 10 11 18 12
REMARK SMILES IDX 7 14 3 15 4 16 91 17 5 18 6 19 2 20 1 21 11 22 12 23 13 24
REMARK SMILES IDX 16 25 14 26 15 27 17 28 27 29 28 30 29 31 30 32 31 33 32 34
REMARK SMILES IDX 90 35 33 36 89 37 34 38 35 39 36 40 83 41 37 42 88 43 82 44
REMARK SMILES IDX 84 45 38 46 87 47 81 48 80 49 39 51 69 52 50 53 68 54 51 55
REMARK SMILES IDX 54 56 67 57 85 58 52 59 53 60 66 62 86 63 55 64 40 65 41 66
REMARK SMILES IDX 49 67 42 68 48 69 43 70 44 71 45 72 46 73 47 74 70 75 71 76
REMARK SMILES IDX 79 77 72 78 78 79 73 80 74 81 75 82 76 83 77 84 56 85 57 86
REMARK SMILES IDX 65 87 58 88 64 89 59 90 60 91 61 92 62 93 63 94
REMARK H PARENT 10 13 84 50 54 61
REMARK Flexibility Score: inf
ROOT
ATOM      1  C   UNL A   1      32.330  30.026  25.664  1.00  0.00     0.202 C 
ENDROOT
BRANCH   1   2
ATOM      2  O   UNL A   1      31.397  28.966  25.846  1.00  0.00    -0.374 OA
BRANCH   2   3
ATOM      3  C   UNL A   1      31.544  28.161  27.012  1.00  0.00     0.202 C 
BRANCH   3   4
ATOM      4  C   UNL A   1      31.335  26.653  26.851  1.00  0.00     0.261 C 
BRANCH   4   5
ATOM      5  O   UNL A   1      30.241  26.303  25.975  1.00  0.00    -0.463 OA
BRANCH   5   6
ATOM      6  C   UNL A   1      30.459  25.226  25.181  1.00  0.00     0.315 C 
ATOM      7  O   UNL A   1      30.830  24.130  25.594  1.00  0.00    -0.252 OA
BRANCH   6   8
ATOM      8  C   UNL A   1      30.309  25.466  23.696  1.00  0.00     0.167 C 
ATOM      9  C   UNL A   1      30.722  26.802  23.070  1.00  0.00     0.094 C 
ATOM     10  C   UNL A   1      31.208  26.368  21.675  1.00  0.00     0.272 C 
ATOM     11  N   UNL A   1      31.811  25.037  21.839  1.00  0.00    -0.327 N 
ATOM     12  C   UNL A   1      31.131  24.402  22.967  1.00  0.00     0.278 C 
ATOM     13  H   UNL A   1      31.669  24.486  20.994  1.00  0.00     0.348 HD
BRANCH   9  14
ATOM     14  C   UNL A   1      29.672  27.898  22.943  1.00  0.00    -0.035 A 
ATOM     15  C   UNL A   1      28.976  30.180  22.420  1.00  0.00     0.119 A 
ATOM     16  C   UNL A   1      27.669  29.871  22.788  1.00  0.00     0.046 A 
ATOM     17  C   UNL A   1      29.973  29.205  22.524  1.00  0.00     0.050 A 
ATOM     18  C   UNL A   1      27.356  28.595  23.250  1.00  0.00     0.004 A 
ATOM     19  C   UNL A   1      28.352  27.619  23.333  1.00  0.00     0.004 A 
BRANCH  15  20
ATOM     20  O   UNL A   1      29.181  31.472  22.013  1.00  0.00    -0.497 OA
ATOM     21  C   UNL A   1      28.495  32.470  22.762  1.00  0.00     0.278 C 
ENDBRANCH  15  20
ENDBRANCH   9  14
BRANCH  11  22
ATOM     22  C   UNL A   1      33.284  25.049  21.945  1.00  0.00     0.339 C 
BRANCH  22  23
ATOM     23  C   UNL A   1      33.858  24.464  23.202  1.00  0.00     0.164 A 
ATOM     24  N   UNL A   1      34.141  23.182  23.362  1.00  0.00    -0.236 NA
ATOM     25  N   UNL A   1      34.186  25.166  24.339  1.00  0.00    -0.333 N 
ATOM     26  C   UNL A   1      34.693  23.065  24.603  1.00  0.00     0.131 A 
ATOM     27  C   UNL A   1      34.780  24.293  25.209  1.00  0.00     0.107 A 
ATOM     28  C   UNL A   1      33.958  26.563  24.616  1.00  0.00     0.151 C 
ENDBRANCH  22  23
ENDBRANCH  11  22
ENDBRANCH   6   8
ENDBRANCH   5   6
ENDBRANCH   4   5
ENDBRANCH   3   4
ENDBRANCH   2   3
ENDBRANCH   1   2
BRANCH   1  29
ATOM     29  C   UNL A   1      32.337  31.153  26.706  1.00  0.00     0.261 C 
BRANCH  29  30
ATOM     30  O   UNL A   1      33.307  31.005  27.756  1.00  0.00    -0.460 OA
BRANCH  30  31
ATOM     31  C   UNL A   1      34.294  31.935  27.750  1.00  0.00     0.338 C 
ATOM     32  O   UNL A   1      34.204  33.116  27.441  1.00  0.00    -0.246 OA
BRANCH  31  33
ATOM     33  C   UNL A   1      35.540  31.359  28.282  1.00  0.00     0.060 A 
ATOM     34  C   UNL A   1      35.508  30.076  28.843  1.00  0.00     0.016 A 
ATOM     35  C   UNL A   1      36.711  32.117  28.318  1.00  0.00     0.016 A 
ATOM     36  C   UNL A   1      36.657  29.544  29.436  1.00  0.00     0.010 A 
ATOM     37  C   UNL A   1      37.861  31.579  28.908  1.00  0.00     0.010 A 
ATOM     38  C   UNL A   1      37.840  30.295  29.484  1.00  0.00    -0.014 A 
BRANCH  38  39
ATOM     39  C   UNL A   1      39.034  29.784  30.210  1.00  0.00     0.031 A 
ATOM     40  C   UNL A   1      39.469  30.452  31.486  1.00  0.00     0.074 A 
ATOM     41  C   UNL A   1      39.739  28.740  29.730  1.00  0.00     0.049 A 
ATOM     42  N   UNL A   1      40.513  30.205  32.234  1.00  0.00    -0.248 NA
ATOM     43  C   UNL A   1      38.614  31.541  31.985  1.00  0.00     0.031 C 
ATOM     44  C   UNL A   1      39.412  27.982  28.523  1.00  0.00     0.029 A 
ATOM     45  N   UNL A   1      40.885  28.143  30.196  1.00  0.00    -0.354 N 
ATOM     46  C   UNL A   1      40.451  31.114  33.283  1.00  0.00     0.074 A 
ATOM     47  C   UNL A   1      39.280  31.935  33.061  1.00  0.00     0.031 C 
ATOM     48  C   UNL A   1      40.343  27.031  28.336  1.00  0.00     0.029 A 
ATOM     49  C   UNL A   1      41.351  27.133  29.389  1.00  0.00     0.049 A 
ATOM     50  H   UNL A   1      41.331  28.414  31.032  1.00  0.00     0.167 HD
ATOM     51  C   UNL A   1      41.289  31.251  34.340  1.00  0.00     0.031 A 
ATOM     52  C   UNL A   1      42.473  26.389  29.468  1.00  0.00     0.031 A 
ATOM     53  C   UNL A   1      42.457  30.439  34.559  1.00  0.00     0.049 A 
ATOM     54  C   UNL A   1      43.432  26.613  30.608  1.00  0.00     0.074 A 
ATOM     55  C   UNL A   1      43.343  30.482  35.622  1.00  0.00     0.029 A 
ATOM     56  N   UNL A   1      42.912  29.453  33.698  1.00  0.00    -0.354 N 
ATOM     57  N   UNL A   1      43.331  27.444  31.618  1.00  0.00    -0.248 NA
ATOM     58  C   UNL A   1      44.657  25.800  30.619  1.00  0.00     0.031 C 
ATOM     59  C   UNL A   1      44.369  29.564  35.371  1.00  0.00     0.029 A 
ATOM     60  C   UNL A   1      44.088  28.907  34.184  1.00  0.00     0.049 A 
ATOM     61  H   UNL A   1      42.464  29.180  32.865  1.00  0.00     0.167 HD
ATOM     62  C   UNL A   1      44.470  27.243  32.390  1.00  0.00     0.074 A 
ATOM     63  C   UNL A   1      45.236  26.197  31.744  1.00  0.00     0.031 C 
ATOM     64  C   UNL A   1      44.847  27.871  33.530  1.00  0.00     0.031 A 
BRANCH  51  65
ATOM     65  C   UNL A   1      40.988  32.344  35.330  1.00  0.00    -0.014 A 
ATOM     66  C   UNL A   1      40.194  32.101  36.466  1.00  0.00     0.010 A 
ATOM     67  C   UNL A   1      41.551  33.620  35.148  1.00  0.00     0.010 A 
ATOM     68  C   UNL A   1      39.939  33.125  37.382  1.00  0.00     0.020 A 
ATOM     69  C   UNL A   1      41.319  34.640  36.076  1.00  0.00     0.020 A 
ATOM     70  C   UNL A   1      40.502  34.389  37.179  1.00  0.00     0.054 A 
BRANCH  70  71
ATOM     71  S   UNL A   1      40.175  35.690  38.399  1.00  0.00     0.124 S 
ATOM     72  O   UNL A   1      39.888  36.839  37.543  1.00  0.00    -0.237 OA
ATOM     73  O   UNL A   1      39.033  35.158  39.138  1.00  0.00    -0.237 OA
ATOM     74  O   UNL A   1      41.420  35.777  39.158  1.00  0.00    -0.744 OA
ENDBRANCH  70  71
ENDBRANCH  51  65
BRANCH  52  75
ATOM     75  C   UNL A   1      42.773  25.379  28.416  1.00  0.00    -0.014 A 
ATOM     76  C   UNL A   1      43.436  25.746  27.233  1.00  0.00     0.010 A 
ATOM     77  C   UNL A   1      42.387  24.036  28.594  1.00  0.00     0.010 A 
ATOM     78  C   UNL A   1      43.701  24.794  26.244  1.00  0.00     0.020 A 
ATOM     79  C   UNL A   1      42.673  23.076  27.620  1.00  0.00     0.020 A 
ATOM     80  C   UNL A   1      43.321  23.463  26.446  1.00  0.00     0.054 A 
BRANCH  80  81
ATOM     81  S   UNL A   1      43.730  22.233  25.176  1.00  0.00     0.124 S 
ATOM     82  O   UNL A   1      42.749  21.186  25.440  1.00  0.00    -0.237 OA
ATOM     83  O   UNL A   1      43.540  22.985  23.938  1.00  0.00    -0.237 OA
ATOM     84  O   UNL A   1      45.118  21.885  25.477  1.00  0.00    -0.744 OA
ENDBRANCH  80  81
ENDBRANCH  52  75
BRANCH  64  85
ATOM     85  C   UNL A   1      46.143  27.445  34.170  1.00  0.00    -0.014 A 
ATOM     86  C   UNL A   1      47.348  28.106  33.873  1.00  0.00     0.010 A 
ATOM     87  C   UNL A   1      46.142  26.423  35.138  1.00  0.00     0.010 A 
ATOM     88  C   UNL A   1      48.532  27.743  34.521  1.00  0.00     0.020 A 
ATOM     89  C   UNL A   1      47.319  26.076  35.808  1.00  0.00     0.020 A 
ATOM     90  C   UNL A   1      48.509  26.733  35.489  1.00  0.00     0.054 A 
BRANCH  90  91
ATOM     91  S   UNL A   1      50.045  26.327  36.364  1.00  0.00     0.124 S 
ATOM     92  O   UNL A   1      49.938  24.879  36.514  1.00  0.00    -0.237 OA
ATOM     93  O   UNL A   1      51.074  26.788  35.433  1.00  0.00    -0.237 OA
ATOM     94  O   UNL A   1      49.950  27.091  37.606  1.00  0.00    -0.744 OA
ENDBRANCH  90  91
ENDBRANCH  64  85
ENDBRANCH  38  39
ENDBRANCH  31  33
ENDBRANCH  30  31
ENDBRANCH  29  30
ENDBRANCH   1  29
TORSDOF 21
ENDMDL
MODEL 2
REMARK VINA RESULT:     -10.0      4.392      9.757
REMARK SMILES COc1cccc([C@@H]2C[N@@H+](Cc3nccn3C)C[C@H]2C(=O)OCCOCCOC(=O)c2ccc(-c3c4nc(c(-c5ccc(S(=O)(=O)[O-])cc5)c5ccc([nH]5)c(-c5ccc(S(=O)(=O)[O-])cc5)c5nc(c(-c6ccc(S(=O)(=O)[O-])cc6)c6ccc3[nH]6)C=C5)C=C4)cc2)c1
REMARK SMILES IDX 26 1 25 2 24 3 23 4 22 5 20 6 21 7 19 8 8 9 9 10 10 11 18 12
REMARK SMILES IDX 7 14 3 15 4 16 91 17 5 18 6 19 2 20 1 21 11 22 12 23 13 24
REMARK SMILES IDX 16 25 14 26 15 27 17 28 27 29 28 30 29 31 30 32 31 33 32 34
REMARK SMILES IDX 90 35 33 36 89 37 34 38 35 39 36 40 83 41 37 42 88 43 82 44
REMARK SMILES IDX 84 45 38 46 87 47 81 48 80 49 39 51 69 52 50 53 68 54 51 55
REMARK SMILES IDX 54 56 67 57 85 58 52 59 53 60 66 62 86 63 55 64 40 65 41 66
REMARK SMILES IDX 49 67 42 68 48 69 43 70 44 71 45 72 46 73 47 74 70 75 71 76
REMARK SMILES IDX 79 77 72 78 78 79 73 80 74 81 75 82 76 83 77 84 56 85 57 86
REMARK SMILES IDX 65 87 58 88 64 89 59 90 60 91 61 92 62 93 63 94
REMARK H PARENT 10 13 84 50 54 61
REMARK Flexibility Score: inf
ROOT
ATOM      1  C   UNL A   1      36.206  22.093  25.707  1.00  0.00     0.202 C 
ENDROOT
BRANCH   1   2
ATOM      2  O   UNL A   1      35.067  21.332  26.094  1.00  0.00    -0.374 OA
BRANCH   2   3
ATOM      3  C   UNL A   1      33.904  22.053  26.491  1.00  0.00     0.202 C 
BRANCH   3   4
ATOM      4  C   UNL A   1      33.490  23.243  25.621  1.00  0.00     0.261 C 
BRANCH   4   5
ATOM      5  O   UNL A   1      33.360  24.484  26.350  1.00  0.00    -0.463 OA
BRANCH   5   6
ATOM      6  C   UNL A   1      33.502  25.609  25.606  1.00  0.00     0.315 C 
ATOM      7  O   UNL A   1      34.391  25.777  24.775  1.00  0.00    -0.252 OA
BRANCH   6   8
ATOM      8  C   UNL A   1      32.537  26.728  25.922  1.00  0.00     0.167 C 
ATOM      9  C   UNL A   1      32.802  28.157  25.436  1.00  0.00     0.094 C 
ATOM     10  C   UNL A   1      31.376  28.686  25.197  1.00  0.00     0.272 C 
ATOM     11  N   UNL A   1      30.576  27.539  24.745  1.00  0.00    -0.327 N 
ATOM     12  C   UNL A   1      31.174  26.346  25.341  1.00  0.00     0.278 C 
ATOM     13  H   UNL A   1      29.613  27.640  25.065  1.00  0.00     0.348 HD
BRANCH   9  14
ATOM     14  C   UNL A   1      33.568  29.103  26.351  1.00  0.00    -0.035 A 
ATOM     15  C   UNL A   1      33.821  31.203  27.572  1.00  0.00     0.119 A 
ATOM     16  C   UNL A   1      35.081  30.802  28.010  1.00  0.00     0.046 A 
ATOM     17  C   UNL A   1      33.084  30.367  26.727  1.00  0.00     0.050 A 
ATOM     18  C   UNL A   1      35.601  29.572  27.614  1.00  0.00     0.004 A 
ATOM     19  C   UNL A   1      34.852  28.733  26.785  1.00  0.00     0.004 A 
BRANCH  15  20
ATOM     20  O   UNL A   1      33.421  32.444  27.993  1.00  0.00    -0.497 OA
ATOM     21  C   UNL A   1      34.429  33.449  27.988  1.00  0.00     0.278 C 
ENDBRANCH  15  20
ENDBRANCH   9  14
BRANCH  11  22
ATOM     22  C   UNL A   1      30.398  27.464  23.281  1.00  0.00     0.339 C 
BRANCH  22  23
ATOM     23  C   UNL A   1      29.714  28.637  22.641  1.00  0.00     0.164 A 
ATOM     24  N   UNL A   1      30.333  29.551  21.914  1.00  0.00    -0.236 NA
ATOM     25  N   UNL A   1      28.366  28.910  22.698  1.00  0.00    -0.333 N 
ATOM     26  C   UNL A   1      29.366  30.403  21.468  1.00  0.00     0.131 A 
ATOM     27  C   UNL A   1      28.129  29.995  21.899  1.00  0.00     0.107 A 
ATOM     28  C   UNL A   1      27.351  28.219  23.455  1.00  0.00     0.151 C 
ENDBRANCH  22  23
ENDBRANCH  11  22
ENDBRANCH   6   8
ENDBRANCH   5   6
ENDBRANCH   4   5
ENDBRANCH   3   4
ENDBRANCH   2   3
ENDBRANCH   1   2
BRANCH   1  29
ATOM     29  C   UNL A   1      37.501  21.328  25.402  1.00  0.00     0.261 C 
BRANCH  29  30
ATOM     30  O   UNL A   1      38.696  22.127  25.407  1.00  0.00    -0.460 OA
BRANCH  30  31
ATOM     31  C   UNL A   1      39.498  21.942  26.485  1.00  0.00     0.338 C 
ATOM     32  O   UNL A   1      39.880  20.879  26.955  1.00  0.00    -0.246 OA
BRANCH  31  33
ATOM     33  C   UNL A   1      39.966  23.239  27.000  1.00  0.00     0.060 A 
ATOM     34  C   UNL A   1      39.515  24.415  26.388  1.00  0.00     0.016 A 
ATOM     35  C   UNL A   1      40.922  23.293  28.015  1.00  0.00     0.016 A 
ATOM     36  C   UNL A   1      40.015  25.654  26.800  1.00  0.00     0.010 A 
ATOM     37  C   UNL A   1      41.417  24.536  28.428  1.00  0.00     0.010 A 
ATOM     38  C   UNL A   1      40.979  25.724  27.815  1.00  0.00    -0.014 A 
BRANCH  38  39
ATOM     39  C   UNL A   1      41.599  27.026  28.183  1.00  0.00     0.031 A 
ATOM     40  C   UNL A   1      43.074  27.233  27.966  1.00  0.00     0.074 A 
ATOM     41  C   UNL A   1      40.859  28.015  28.721  1.00  0.00     0.049 A 
ATOM     42  N   UNL A   1      43.818  28.262  28.277  1.00  0.00    -0.248 NA
ATOM     43  C   UNL A   1      43.805  26.135  27.312  1.00  0.00     0.031 C 
ATOM     44  C   UNL A   1      39.417  27.960  28.958  1.00  0.00     0.029 A 
ATOM     45  N   UNL A   1      41.223  29.259  29.178  1.00  0.00    -0.354 N 
ATOM     46  C   UNL A   1      45.107  27.934  27.872  1.00  0.00     0.074 A 
ATOM     47  C   UNL A   1      45.047  26.599  27.315  1.00  0.00     0.031 C 
ATOM     48  C   UNL A   1      39.021  29.111  29.529  1.00  0.00     0.029 A 
ATOM     49  C   UNL A   1      40.185  29.972  29.730  1.00  0.00     0.049 A 
ATOM     50  H   UNL A   1      42.143  29.607  29.116  1.00  0.00     0.167 HD
ATOM     51  C   UNL A   1      46.237  28.678  27.949  1.00  0.00     0.031 A 
ATOM     52  C   UNL A   1      40.171  31.168  30.351  1.00  0.00     0.031 A 
ATOM     53  C   UNL A   1      46.299  30.003  28.507  1.00  0.00     0.049 A 
ATOM     54  C   UNL A   1      41.455  31.942  30.498  1.00  0.00     0.074 A 
ATOM     55  C   UNL A   1      47.394  30.846  28.593  1.00  0.00     0.029 A 
ATOM     56  N   UNL A   1      45.233  30.672  29.086  1.00  0.00    -0.354 N 
ATOM     57  N   UNL A   1      42.654  31.638  30.063  1.00  0.00    -0.248 NA
ATOM     58  C   UNL A   1      41.383  33.222  31.219  1.00  0.00     0.031 C 
ATOM     59  C   UNL A   1      47.003  31.999  29.282  1.00  0.00     0.029 A 
ATOM     60  C   UNL A   1      45.652  31.900  29.570  1.00  0.00     0.049 A 
ATOM     61  H   UNL A   1      44.314  30.325  29.145  1.00  0.00     0.167 HD
ATOM     62  C   UNL A   1      43.476  32.693  30.446  1.00  0.00     0.074 A 
ATOM     63  C   UNL A   1      42.634  33.654  31.128  1.00  0.00     0.031 C 
ATOM     64  C   UNL A   1      44.808  32.848  30.252  1.00  0.00     0.031 A 
BRANCH  51  65
ATOM     65  C   UNL A   1      47.513  28.060  27.442  1.00  0.00    -0.014 A 
ATOM     66  C   UNL A   1      48.026  28.384  26.173  1.00  0.00     0.010 A 
ATOM     67  C   UNL A   1      48.236  27.181  28.269  1.00  0.00     0.010 A 
ATOM     68  C   UNL A   1      49.220  27.812  25.727  1.00  0.00     0.020 A 
ATOM     69  C   UNL A   1      49.443  26.627  27.837  1.00  0.00     0.020 A 
ATOM     70  C   UNL A   1      49.921  26.935  26.562  1.00  0.00     0.054 A 
BRANCH  70  71
ATOM     71  S   UNL A   1      51.481  26.229  25.966  1.00  0.00     0.124 S 
ATOM     72  O   UNL A   1      51.486  24.920  26.616  1.00  0.00    -0.237 OA
ATOM     73  O   UNL A   1      51.292  26.210  24.518  1.00  0.00    -0.237 OA
ATOM     74  O   UNL A   1      52.494  27.165  26.447  1.00  0.00    -0.744 OA
ENDBRANCH  70  71
ENDBRANCH  51  65
BRANCH  52  75
ATOM     75  C   UNL A   1      38.899  31.700  30.914  1.00  0.00    -0.014 A 
ATOM     76  C   UNL A   1      38.538  31.440  32.248  1.00  0.00     0.010 A 
ATOM     77  C   UNL A   1      38.036  32.470  30.110  1.00  0.00     0.010 A 
ATOM     78  C   UNL A   1      37.335  31.931  32.764  1.00  0.00     0.020 A 
ATOM     79  C   UNL A   1      36.846  32.985  30.631  1.00  0.00     0.020 A 
ATOM     80  C   UNL A   1      36.499  32.704  31.954  1.00  0.00     0.054 A 
BRANCH  80  81
ATOM     81  S   UNL A   1      34.973  33.383  32.664  1.00  0.00     0.124 S 
ATOM     82  O   UNL A   1      35.140  33.087  34.082  1.00  0.00    -0.237 OA
ATOM     83  O   UNL A   1      35.056  34.794  32.295  1.00  0.00    -0.237 OA
ATOM     84  O   UNL A   1      33.919  32.632  31.984  1.00  0.00    -0.744 OA
ENDBRANCH  80  81
ENDBRANCH  52  75
BRANCH  64  85
ATOM     85  C   UNL A   1      45.450  34.108  30.772  1.00  0.00    -0.014 A 
ATOM     86  C   UNL A   1      45.470  35.282  29.998  1.00  0.00     0.010 A 
ATOM     87  C   UNL A   1      45.968  34.140  32.080  1.00  0.00     0.010 A 
ATOM     88  C   UNL A   1      46.012  36.462  30.517  1.00  0.00     0.020 A 
ATOM     89  C   UNL A   1      46.485  35.325  32.613  1.00  0.00     0.020 A 
ATOM     90  C   UNL A   1      46.511  36.477  31.824  1.00  0.00     0.054 A 
BRANCH  90  91
ATOM     91  S   UNL A   1      47.146  38.038  32.497  1.00  0.00     0.124 S 
ATOM     92  O   UNL A   1      45.923  38.692  32.955  1.00  0.00    -0.237 OA
ATOM     93  O   UNL A   1      48.050  37.587  33.553  1.00  0.00    -0.237 OA
ATOM     94  O   UNL A   1      47.799  38.669  31.352  1.00  0.00    -0.744 OA
ENDBRANCH  90  91
ENDBRANCH  64  85
ENDBRANCH  38  39
ENDBRANCH  31  33
ENDBRANCH  30  31
ENDBRANCH  29  30
ENDBRANCH   1  29
TORSDOF 21
ENDMDL
MODEL 3
REMARK VINA RESULT:      -9.9      4.498      9.943
REMARK SMILES COc1cccc([C@@H]2C[N@@H+](Cc3nccn3C)C[C@H]2C(=O)OCCOCCOC(=O)c2ccc(-c3c4nc(c(-c5ccc(S(=O)(=O)[O-])cc5)c5ccc([nH]5)c(-c5ccc(S(=O)(=O)[O-])cc5)c5nc(c(-c6ccc(S(=O)(=O)[O-])cc6)c6ccc3[nH]6)C=C5)C=C4)cc2)c1
REMARK SMILES IDX 26 1 25 2 24 3 23 4 22 5 20 6 21 7 19 8 8 9 9 10 10 11 18 12
REMARK SMILES IDX 7 14 3 15 4 16 91 17 5 18 6 19 2 20 1 21 11 22 12 23 13 24
REMARK SMILES IDX 16 25 14 26 15 27 17 28 27 29 28 30 29 31 30 32 31 33 32 34
REMARK SMILES IDX 90 35 33 36 89 37 34 38 35 39 36 40 83 41 37 42 88 43 82 44
REMARK SMILES IDX 84 45 38 46 87 47 81 48 80 49 39 51 69 52 50 53 68 54 51 55
REMARK SMILES IDX 54 56 67 57 85 58 52 59 53 60 66 62 86 63 55 64 40 65 41 66
REMARK SMILES IDX 49 67 42 68 48 69 43 70 44 71 45 72 46 73 47 74 70 75 71 76
REMARK SMILES IDX 79 77 72 78 78 79 73 80 74 81 75 82 76 83 77 84 56 85 57 86
REMARK SMILES IDX 65 87 58 88 64 89 59 90 60 91 61 92 62 93 63 94
REMARK H PARENT 10 13 84 50 54 61
REMARK Flexibility Score: inf
ROOT
ATOM      1  C   UNL A   1      36.086  22.143  25.736  1.00  0.00     0.202 C 
ENDROOT
BRANCH   1   2
ATOM      2  O   UNL A   1      35.149  21.614  26.669  1.00  0.00    -0.374 OA
BRANCH   2   3
ATOM      3  C   UNL A   1      34.483  22.541  27.520  1.00  0.00     0.202 C 
BRANCH   3   4
ATOM      4  C   UNL A   1      33.045  22.208  27.927  1.00  0.00     0.261 C 
BRANCH   4   5
ATOM      5  O   UNL A   1      32.067  23.160  27.454  1.00  0.00    -0.463 OA
BRANCH   5   6
ATOM      6  C   UNL A   1      31.456  22.831  26.288  1.00  0.00     0.315 C 
ATOM      7  O   UNL A   1      30.259  22.575  26.187  1.00  0.00    -0.252 OA
BRANCH   6   8
ATOM      8  C   UNL A   1      32.366  22.696  25.089  1.00  0.00     0.167 C 
ATOM      9  C   UNL A   1      31.907  21.948  23.833  1.00  0.00     0.094 C 
ATOM     10  C   UNL A   1      32.629  22.722  22.715  1.00  0.00     0.272 C 
ATOM     11  N   UNL A   1      32.698  24.123  23.155  1.00  0.00    -0.327 N 
ATOM     12  C   UNL A   1      32.725  24.106  24.617  1.00  0.00     0.278 C 
ATOM     13  H   UNL A   1      33.548  24.558  22.798  1.00  0.00     0.348 HD
BRANCH   9  14
ATOM     14  C   UNL A   1      32.211  20.460  23.724  1.00  0.00    -0.035 A 
ATOM     15  C   UNL A   1      32.864  18.308  24.676  1.00  0.00     0.119 A 
ATOM     16  C   UNL A   1      32.801  17.725  23.412  1.00  0.00     0.046 A 
ATOM     17  C   UNL A   1      32.596  19.673  24.822  1.00  0.00     0.050 A 
ATOM     18  C   UNL A   1      32.466  18.496  22.302  1.00  0.00     0.004 A 
ATOM     19  C   UNL A   1      32.180  19.854  22.456  1.00  0.00     0.004 A 
BRANCH  15  20
ATOM     20  O   UNL A   1      33.236  17.467  25.691  1.00  0.00    -0.497 OA
ATOM     21  C   UNL A   1      32.715  16.145  25.618  1.00  0.00     0.278 C 
ENDBRANCH  15  20
ENDBRANCH   9  14
BRANCH  11  22
ATOM     22  C   UNL A   1      31.652  24.992  22.577  1.00  0.00     0.339 C 
BRANCH  22  23
ATOM     23  C   UNL A   1      31.529  26.362  23.176  1.00  0.00     0.164 A 
ATOM     24  N   UNL A   1      30.527  26.746  23.948  1.00  0.00    -0.236 NA
ATOM     25  N   UNL A   1      32.435  27.387  23.031  1.00  0.00    -0.333 N 
ATOM     26  C   UNL A   1      30.811  28.023  24.334  1.00  0.00     0.131 A 
ATOM     27  C   UNL A   1      32.018  28.425  23.819  1.00  0.00     0.107 A 
ATOM     28  C   UNL A   1      33.617  27.417  22.205  1.00  0.00     0.151 C 
ENDBRANCH  22  23
ENDBRANCH  11  22
ENDBRANCH   6   8
ENDBRANCH   5   6
ENDBRANCH   4   5
ENDBRANCH   3   4
ENDBRANCH   2   3
ENDBRANCH   1   2
BRANCH   1  29
ATOM     29  C   UNL A   1      37.401  21.377  25.539  1.00  0.00     0.261 C 
BRANCH  29  30
ATOM     30  O   UNL A   1      38.576  22.199  25.438  1.00  0.00    -0.460 OA
BRANCH  30  31
ATOM     31  C   UNL A   1      39.473  22.032  26.442  1.00  0.00     0.338 C 
ATOM     32  O   UNL A   1      39.952  20.980  26.844  1.00  0.00    -0.246 OA
BRANCH  31  33
ATOM     33  C   UNL A   1      39.908  23.339  26.960  1.00  0.00     0.060 A 
ATOM     34  C   UNL A   1      39.523  24.500  26.278  1.00  0.00     0.016 A 
ATOM     35  C   UNL A   1      40.773  23.414  28.052  1.00  0.00     0.016 A 
ATOM     36  C   UNL A   1      39.999  25.746  26.698  1.00  0.00     0.010 A 
ATOM     37  C   UNL A   1      41.243  24.665  28.472  1.00  0.00     0.010 A 
ATOM     38  C   UNL A   1      40.872  25.838  27.791  1.00  0.00    -0.014 A 
BRANCH  38  39
ATOM     39  C   UNL A   1      41.471  27.145  28.175  1.00  0.00     0.031 A 
ATOM     40  C   UNL A   1      42.964  27.322  28.120  1.00  0.00     0.074 A 
ATOM     41  C   UNL A   1      40.693  28.167  28.586  1.00  0.00     0.049 A 
ATOM     42  N   UNL A   1      43.688  28.352  28.473  1.00  0.00    -0.248 NA
ATOM     43  C   UNL A   1      43.744  26.187  27.598  1.00  0.00     0.031 C 
ATOM     44  C   UNL A   1      39.233  28.142  28.658  1.00  0.00     0.029 A 
ATOM     45  N   UNL A   1      41.027  29.423  29.031  1.00  0.00    -0.354 N 
ATOM     46  C   UNL A   1      45.007  27.989  28.231  1.00  0.00     0.074 A 
ATOM     47  C   UNL A   1      44.986  26.633  27.725  1.00  0.00     0.031 C 
ATOM     48  C   UNL A   1      38.797  29.321  29.133  1.00  0.00     0.029 A 
ATOM     49  C   UNL A   1      39.947  30.172  29.432  1.00  0.00     0.049 A 
ATOM     50  H   UNL A   1      41.954  29.754  29.061  1.00  0.00     0.167 HD
ATOM     51  C   UNL A   1      46.136  28.719  28.407  1.00  0.00     0.031 A 
ATOM     52  C   UNL A   1      39.884  31.394  29.999  1.00  0.00     0.031 A 
ATOM     53  C   UNL A   1      46.160  30.065  28.915  1.00  0.00     0.049 A 
ATOM     54  C   UNL A   1      41.158  32.155  30.262  1.00  0.00     0.074 A 
ATOM     55  C   UNL A   1      47.253  30.895  29.092  1.00  0.00     0.029 A 
ATOM     56  N   UNL A   1      45.047  30.773  29.342  1.00  0.00    -0.354 N 
ATOM     57  N   UNL A   1      42.393  31.815  29.979  1.00  0.00    -0.248 NA
ATOM     58  C   UNL A   1      41.029  33.465  30.919  1.00  0.00     0.031 C 
ATOM     59  C   UNL A   1      46.809  32.081  29.686  1.00  0.00     0.029 A 
ATOM     60  C   UNL A   1      45.432  32.014  29.821  1.00  0.00     0.049 A 
ATOM     61  H   UNL A   1      44.121  30.441  29.310  1.00  0.00     0.167 HD
ATOM     62  C   UNL A   1      43.186  32.873  30.411  1.00  0.00     0.074 A 
ATOM     63  C   UNL A   1      42.290  33.874  30.953  1.00  0.00     0.031 C 
ATOM     64  C   UNL A   1      44.534  33.001  30.365  1.00  0.00     0.031 A 
BRANCH  51  65
ATOM     65  C   UNL A   1      47.449  28.062  28.074  1.00  0.00    -0.014 A 
ATOM     66  C   UNL A   1      47.995  28.138  26.780  1.00  0.00     0.010 A 
ATOM     67  C   UNL A   1      48.172  27.404  29.085  1.00  0.00     0.010 A 
ATOM     68  C   UNL A   1      49.222  27.535  26.495  1.00  0.00     0.020 A 
ATOM     69  C   UNL A   1      49.413  26.822  28.810  1.00  0.00     0.020 A 
ATOM     70  C   UNL A   1      49.923  26.879  27.512  1.00  0.00     0.054 A 
BRANCH  70  71
ATOM     71  S   UNL A   1      51.526  26.129  27.118  1.00  0.00     0.124 S 
ATOM     72  O   UNL A   1      51.152  24.741  26.857  1.00  0.00    -0.237 OA
ATOM     73  O   UNL A   1      51.960  26.892  25.951  1.00  0.00    -0.237 OA
ATOM     74  O   UNL A   1      52.317  26.342  28.328  1.00  0.00    -0.744 OA
ENDBRANCH  70  71
ENDBRANCH  51  65
BRANCH  52  75
ATOM     75  C   UNL A   1      38.568  31.967  30.393  1.00  0.00    -0.014 A 
ATOM     76  C   UNL A   1      38.020  31.710  31.661  1.00  0.00     0.010 A 
ATOM     77  C   UNL A   1      37.849  32.774  29.489  1.00  0.00     0.010 A 
ATOM     78  C   UNL A   1      36.776  32.240  32.017  1.00  0.00     0.020 A 
ATOM     79  C   UNL A   1      36.618  33.327  29.850  1.00  0.00     0.020 A 
ATOM     80  C   UNL A   1      36.084  33.049  31.110  1.00  0.00     0.054 A 
BRANCH  80  81
ATOM     81  S   UNL A   1      34.501  33.777  31.616  1.00  0.00     0.124 S 
ATOM     82  O   UNL A   1      34.931  34.983  32.316  1.00  0.00    -0.237 OA
ATOM     83  O   UNL A   1      33.831  33.990  30.335  1.00  0.00    -0.237 OA
ATOM     84  O   UNL A   1      33.904  32.740  32.455  1.00  0.00    -0.744 OA
ENDBRANCH  80  81
ENDBRANCH  52  75
BRANCH  64  85
ATOM     85  C   UNL A   1      45.137  34.272  30.904  1.00  0.00    -0.014 A 
ATOM     86  C   UNL A   1      45.320  35.394  30.076  1.00  0.00     0.010 A 
ATOM     87  C   UNL A   1      45.449  34.372  32.272  1.00  0.00     0.010 A 
ATOM     88  C   UNL A   1      45.821  36.588  30.604  1.00  0.00     0.020 A 
ATOM     89  C   UNL A   1      45.924  35.573  32.809  1.00  0.00     0.020 A 
ATOM     90  C   UNL A   1      46.114  36.671  31.969  1.00  0.00     0.054 A 
BRANCH  90  91
ATOM     91  S   UNL A   1      46.698  38.252  32.641  1.00  0.00     0.124 S 
ATOM     92  O   UNL A   1      48.096  38.265  32.220  1.00  0.00    -0.237 OA
ATOM     93  O   UNL A   1      45.832  39.222  31.974  1.00  0.00    -0.237 OA
ATOM     94  O   UNL A   1      46.481  38.119  34.080  1.00  0.00    -0.744 OA
ENDBRANCH  90  91
ENDBRANCH  64  85
ENDBRANCH  38  39
ENDBRANCH  31  33
ENDBRANCH  30  31
ENDBRANCH  29  30
ENDBRANCH   1  29
TORSDOF 21
ENDMDL
