MODEL 1
REMARK VINA RESULT:     -10.9      0.000      0.000
REMARK SMILES O=C(OCCOCCOC(=O)c1cc(-c2ccccc2)nc(Nc2nc3ccccc3s2)n1)c1ccc(-c2c3nc(c(-c4ccc(S(=O)(=O)[O-])cc4)c4ccc([nH]4)c(-c4ccc(S(=O)(=O)[O-])cc4)c4nc(c(-c5ccc(S(=O)(=O)[O-])cc5)c5ccc2[nH]5)C=C4)C=C3)cc1
REMARK SMILES IDX 5 1 4 2 3 3 2 4 1 5 34 6 35 7 93 8 36 9 92 10 37 11 38 12
REMARK SMILES IDX 39 13 86 14 40 15 91 16 85 17 87 18 41 19 90 20 84 21 83 22
REMARK SMILES IDX 42 24 72 25 53 26 71 27 54 28 57 29 70 30 88 31 55 32 56 33
REMARK SMILES IDX 69 35 89 36 58 37 43 38 44 39 52 40 45 41 51 42 46 43 47 44
REMARK SMILES IDX 48 45 49 46 50 47 73 48 74 49 82 50 75 51 81 52 76 53 77 54
REMARK SMILES IDX 78 55 79 56 80 57 59 58 60 59 68 60 61 61 67 62 62 63 63 64
REMARK SMILES IDX 64 65 65 66 66 67 6 68 7 69 8 70 9 71 10 72 11 73 12 74
REMARK SMILES IDX 13 75 33 76 14 77 22 78 21 79 15 80 16 81 20 82 17 83 19 84
REMARK SMILES IDX 18 85 23 86 24 88 25 89 32 90 26 91 31 92 27 93 30 94 28 95
REMARK SMILES IDX 29 96
REMARK H PARENT 87 23 57 34 23 87
REMARK Flexibility Score: inf
ROOT
ATOM      1  C   UNL A   1      41.910  19.390  26.956  1.00  0.00     0.202 C 
ENDROOT
BRANCH   1   2
ATOM      2  C   UNL A   1      42.648  18.343  26.129  1.00  0.00     0.261 C 
BRANCH   2   3
ATOM      3  O   UNL A   1      43.925  18.845  25.721  1.00  0.00    -0.460 OA
BRANCH   3   4
ATOM      4  C   UNL A   1      44.157  19.865  24.864  1.00  0.00     0.338 C 
ATOM      5  O   UNL A   1      44.204  19.607  23.661  1.00  0.00    -0.246 OA
BRANCH   4   6
ATOM      6  C   UNL A   1      44.350  21.293  25.277  1.00  0.00     0.060 A 
ATOM      7  C   UNL A   1      44.712  21.742  26.553  1.00  0.00     0.016 A 
ATOM      8  C   UNL A   1      44.258  22.249  24.254  1.00  0.00     0.016 A 
ATOM      9  C   UNL A   1      44.989  23.075  26.816  1.00  0.00     0.010 A 
ATOM     10  C   UNL A   1      44.535  23.593  24.502  1.00  0.00     0.010 A 
ATOM     11  C   UNL A   1      44.905  24.001  25.788  1.00  0.00    -0.014 A 
BRANCH  11  12
ATOM     12  C   UNL A   1      45.089  25.419  26.114  1.00  0.00     0.031 A 
ATOM     13  C   UNL A   1      46.456  25.993  25.954  1.00  0.00     0.074 A 
ATOM     14  C   UNL A   1      44.033  26.160  26.485  1.00  0.00     0.049 A 
ATOM     15  N   UNL A   1      46.908  27.159  26.316  1.00  0.00    -0.248 NA
ATOM     16  C   UNL A   1      47.451  25.128  25.293  1.00  0.00     0.031 C 
ATOM     17  C   UNL A   1      42.646  25.691  26.525  1.00  0.00     0.029 A 
ATOM     18  N   UNL A   1      43.963  27.460  26.900  1.00  0.00    -0.354 N 
ATOM     19  C   UNL A   1      48.253  27.154  25.973  1.00  0.00     0.074 A 
ATOM     20  C   UNL A   1      48.542  25.874  25.366  1.00  0.00     0.031 C 
ATOM     21  C   UNL A   1      41.863  26.688  26.967  1.00  0.00     0.029 A 
ATOM     22  C   UNL A   1      42.704  27.831  27.305  1.00  0.00     0.049 A 
ATOM     23  H   UNL A   1      44.736  28.068  26.910  1.00  0.00     0.167 HD
ATOM     24  C   UNL A   1      49.163  28.131  26.183  1.00  0.00     0.031 A 
ATOM     25  C   UNL A   1      42.299  28.950  27.934  1.00  0.00     0.031 A 
ATOM     26  C   UNL A   1      48.828  29.371  26.827  1.00  0.00     0.049 A 
ATOM     27  C   UNL A   1      43.339  29.992  28.242  1.00  0.00     0.074 A 
ATOM     28  C   UNL A   1      49.653  30.429  27.153  1.00  0.00     0.029 A 
ATOM     29  N   UNL A   1      47.547  29.707  27.253  1.00  0.00    -0.354 N 
ATOM     30  N   UNL A   1      44.625  29.968  27.972  1.00  0.00    -0.248 NA
ATOM     31  C   UNL A   1      42.889  31.200  28.940  1.00  0.00     0.031 C 
ATOM     32  C   UNL A   1      48.880  31.379  27.829  1.00  0.00     0.029 A 
ATOM     33  C   UNL A   1      47.560  30.948  27.860  1.00  0.00     0.049 A 
ATOM     34  H   UNL A   1      46.748  29.143  27.140  1.00  0.00     0.167 HD
ATOM     35  C   UNL A   1      45.137  31.169  28.444  1.00  0.00     0.074 A 
ATOM     36  C   UNL A   1      44.018  31.896  29.016  1.00  0.00     0.031 C 
ATOM     37  C   UNL A   1      46.411  31.633  28.405  1.00  0.00     0.031 A 
BRANCH  24  38
ATOM     38  C   UNL A   1      50.587  27.822  25.815  1.00  0.00    -0.014 A 
ATOM     39  C   UNL A   1      51.090  28.062  24.522  1.00  0.00     0.010 A 
ATOM     40  C   UNL A   1      51.417  27.199  26.765  1.00  0.00     0.010 A 
ATOM     41  C   UNL A   1      52.367  27.616  24.166  1.00  0.00     0.020 A 
ATOM     42  C   UNL A   1      52.705  26.780  26.422  1.00  0.00     0.020 A 
ATOM     43  C   UNL A   1      53.159  26.963  25.115  1.00  0.00     0.054 A 
BRANCH  43  44
ATOM     44  S   UNL A   1      54.789  26.342  24.613  1.00  0.00     0.124 S 
ATOM     45  O   UNL A   1      54.826  26.708  23.199  1.00  0.00    -0.237 OA
ATOM     46  O   UNL A   1      55.698  27.091  25.477  1.00  0.00    -0.237 OA
ATOM     47  O   UNL A   1      54.714  24.909  24.885  1.00  0.00    -0.744 OA
ENDBRANCH  43  44
ENDBRANCH  24  38
BRANCH  25  48
ATOM     48  C   UNL A   1      40.876  29.083  28.353  1.00  0.00    -0.014 A 
ATOM     49  C   UNL A   1      40.502  28.970  29.703  1.00  0.00     0.010 A 
ATOM     50  C   UNL A   1      39.890  29.408  27.400  1.00  0.00     0.010 A 
ATOM     51  C   UNL A   1      39.174  29.191  30.091  1.00  0.00     0.020 A 
ATOM     52  C   UNL A   1      38.569  29.655  27.787  1.00  0.00     0.020 A 
ATOM     53  C   UNL A   1      38.219  29.543  29.132  1.00  0.00     0.054 A 
BRANCH  53  54
ATOM     54  S   UNL A   1      36.526  29.914  29.673  1.00  0.00     0.124 S 
ATOM     55  O   UNL A   1      36.545  31.370  29.759  1.00  0.00    -0.237 OA
ATOM     56  O   UNL A   1      35.719  29.354  28.591  1.00  0.00    -0.237 OA
ATOM     57  O   UNL A   1      36.411  29.213  30.951  1.00  0.00    -0.744 OA
ENDBRANCH  53  54
ENDBRANCH  25  48
BRANCH  37  58
ATOM     58  C   UNL A   1      46.660  33.013  28.946  1.00  0.00    -0.014 A 
ATOM     59  C   UNL A   1      47.086  33.210  30.269  1.00  0.00     0.010 A 
ATOM     60  C   UNL A   1      46.601  34.108  28.064  1.00  0.00     0.010 A 
ATOM     61  C   UNL A   1      47.456  34.486  30.701  1.00  0.00     0.020 A 
ATOM     62  C   UNL A   1      46.995  35.377  28.485  1.00  0.00     0.020 A 
ATOM     63  C   UNL A   1      47.420  35.557  29.802  1.00  0.00     0.054 A 
BRANCH  63  64
ATOM     64  S   UNL A   1      48.016  37.178  30.354  1.00  0.00     0.124 S 
ATOM     65  O   UNL A   1      48.239  36.950  31.779  1.00  0.00    -0.237 OA
ATOM     66  O   UNL A   1      49.222  37.365  29.551  1.00  0.00    -0.237 OA
ATOM     67  O   UNL A   1      46.914  38.081  30.032  1.00  0.00    -0.744 OA
ENDBRANCH  63  64
ENDBRANCH  37  58
ENDBRANCH  11  12
ENDBRANCH   4   6
ENDBRANCH   3   4
ENDBRANCH   2   3
ENDBRANCH   1   2
BRANCH   1  68
ATOM     68  O   UNL A   1      40.620  19.721  26.444  1.00  0.00    -0.374 OA
BRANCH  68  69
ATOM     69  C   UNL A   1      40.481  20.983  25.798  1.00  0.00     0.202 C 
BRANCH  69  70
ATOM     70  C   UNL A   1      39.425  21.796  26.546  1.00  0.00     0.261 C 
BRANCH  70  71
ATOM     71  O   UNL A   1      38.204  21.724  25.797  1.00  0.00    -0.459 OA
BRANCH  71  72
ATOM     72  C   UNL A   1      37.514  22.904  25.733  1.00  0.00     0.357 C 
ATOM     73  O   UNL A   1      37.974  24.020  25.692  1.00  0.00    -0.244 OA
BRANCH  72  74
ATOM     74  C   UNL A   1      36.075  22.551  25.611  1.00  0.00     0.154 A 
ATOM     75  C   UNL A   1      35.732  21.409  24.954  1.00  0.00     0.065 A 
ATOM     76  N   UNL A   1      35.178  23.386  26.165  1.00  0.00    -0.206 NA
ATOM     77  C   UNL A   1      34.405  21.066  25.016  1.00  0.00     0.077 A 
ATOM     78  C   UNL A   1      33.884  23.062  26.061  1.00  0.00     0.230 A 
ATOM     79  N   UNL A   1      33.466  21.883  25.552  1.00  0.00    -0.213 NA
BRANCH  77  80
ATOM     80  C   UNL A   1      34.032  19.711  24.584  1.00  0.00     0.000 A 
ATOM     81  C   UNL A   1      32.814  19.408  23.969  1.00  0.00     0.010 A 
ATOM     82  C   UNL A   1      34.992  18.679  24.697  1.00  0.00     0.010 A 
ATOM     83  C   UNL A   1      32.589  18.128  23.444  1.00  0.00     0.001 A 
ATOM     84  C   UNL A   1      34.774  17.411  24.168  1.00  0.00     0.001 A 
ATOM     85  C   UNL A   1      33.571  17.139  23.532  1.00  0.00     0.000 A 
ENDBRANCH  77  80
BRANCH  78  86
ATOM     86  N   UNL A   1      32.919  23.915  26.590  1.00  0.00    -0.300 N 
ATOM     87  H   UNL A   1      32.550  23.691  27.475  1.00  0.00     0.172 HD
BRANCH  86  88
ATOM     88  C   UNL A   1      32.448  25.028  25.984  1.00  0.00     0.190 A 
ATOM     89  N   UNL A   1      32.914  26.249  26.148  1.00  0.00    -0.220 NA
ATOM     90  S   UNL A   1      31.185  24.908  24.810  1.00  0.00    -0.097 S 
ATOM     91  C   UNL A   1      32.176  27.166  25.409  1.00  0.00     0.084 A 
ATOM     92  C   UNL A   1      31.138  26.623  24.654  1.00  0.00     0.056 A 
ATOM     93  C   UNL A   1      32.379  28.562  25.365  1.00  0.00     0.030 A 
ATOM     94  C   UNL A   1      30.264  27.434  23.908  1.00  0.00     0.021 A 
ATOM     95  C   UNL A   1      31.508  29.381  24.640  1.00  0.00     0.002 A 
ATOM     96  C   UNL A   1      30.455  28.821  23.929  1.00  0.00     0.002 A 
ENDBRANCH  86  88
ENDBRANCH  78  86
ENDBRANCH  72  74
ENDBRANCH  71  72
ENDBRANCH  70  71
ENDBRANCH  69  70
ENDBRANCH  68  69
ENDBRANCH   1  68
TORSDOF 20
ENDMDL
MODEL 2
REMARK VINA RESULT:     -10.9      6.565     12.718
REMARK SMILES O=C(OCCOCCOC(=O)c1cc(-c2ccccc2)nc(Nc2nc3ccccc3s2)n1)c1ccc(-c2c3nc(c(-c4ccc(S(=O)(=O)[O-])cc4)c4ccc([nH]4)c(-c4ccc(S(=O)(=O)[O-])cc4)c4nc(c(-c5ccc(S(=O)(=O)[O-])cc5)c5ccc2[nH]5)C=C4)C=C3)cc1
REMARK SMILES IDX 5 1 4 2 3 3 2 4 1 5 34 6 35 7 93 8 36 9 92 10 37 11 38 12
REMARK SMILES IDX 39 13 86 14 40 15 91 16 85 17 87 18 41 19 90 20 84 21 83 22
REMARK SMILES IDX 42 24 72 25 53 26 71 27 54 28 57 29 70 30 88 31 55 32 56 33
REMARK SMILES IDX 69 35 89 36 58 37 43 38 44 39 52 40 45 41 51 42 46 43 47 44
REMARK SMILES IDX 48 45 49 46 50 47 73 48 74 49 82 50 75 51 81 52 76 53 77 54
REMARK SMILES IDX 78 55 79 56 80 57 59 58 60 59 68 60 61 61 67 62 62 63 63 64
REMARK SMILES IDX 64 65 65 66 66 67 6 68 7 69 8 70 9 71 10 72 11 73 12 74
REMARK SMILES IDX 13 75 33 76 14 77 22 78 21 79 15 80 16 81 20 82 17 83 19 84
REMARK SMILES IDX 18 85 23 86 24 88 25 89 32 90 26 91 31 92 27 93 30 94 28 95
REMARK SMILES IDX 29 96
REMARK H PARENT 87 23 57 34 23 87
REMARK Flexibility Score: inf
ROOT
ATOM      1  C   UNL A   1      34.522  34.050  28.087  1.00  0.00     0.202 C 
ENDROOT
BRANCH   1   2
ATOM      2  C   UNL A   1      33.109  34.386  28.551  1.00  0.00     0.261 C 
BRANCH   2   3
ATOM      3  O   UNL A   1      33.153  35.284  29.664  1.00  0.00    -0.460 OA
BRANCH   3   4
ATOM      4  C   UNL A   1      33.284  34.949  30.969  1.00  0.00     0.338 C 
ATOM      5  O   UNL A   1      32.373  35.259  31.737  1.00  0.00    -0.246 OA
BRANCH   4   6
ATOM      6  C   UNL A   1      34.458  34.216  31.543  1.00  0.00     0.060 A 
ATOM      7  C   UNL A   1      34.459  32.897  32.014  1.00  0.00     0.016 A 
ATOM      8  C   UNL A   1      35.688  34.892  31.501  1.00  0.00     0.016 A 
ATOM      9  C   UNL A   1      35.621  32.257  32.415  1.00  0.00     0.010 A 
ATOM     10  C   UNL A   1      36.866  34.260  31.900  1.00  0.00     0.010 A 
ATOM     11  C   UNL A   1      36.827  32.938  32.354  1.00  0.00    -0.014 A 
BRANCH  11  12
ATOM     12  C   UNL A   1      38.023  32.282  32.891  1.00  0.00     0.031 A 
ATOM     13  C   UNL A   1      38.372  32.540  34.317  1.00  0.00     0.074 A 
ATOM     14  C   UNL A   1      38.725  31.440  32.116  1.00  0.00     0.049 A 
ATOM     15  N   UNL A   1      39.446  32.210  34.976  1.00  0.00    -0.248 NA
ATOM     16  C   UNL A   1      37.369  33.275  35.109  1.00  0.00     0.031 C 
ATOM     17  C   UNL A   1      38.356  31.037  30.757  1.00  0.00     0.029 A 
ATOM     18  N   UNL A   1      39.894  30.775  32.359  1.00  0.00    -0.354 N 
ATOM     19  C   UNL A   1      39.272  32.738  36.248  1.00  0.00     0.074 A 
ATOM     20  C   UNL A   1      37.988  33.401  36.272  1.00  0.00     0.031 C 
ATOM     21  C   UNL A   1      39.298  30.209  30.277  1.00  0.00     0.029 A 
ATOM     22  C   UNL A   1      40.363  30.086  31.267  1.00  0.00     0.049 A 
ATOM     23  H   UNL A   1      40.355  30.789  33.229  1.00  0.00     0.167 HD
ATOM     24  C   UNL A   1      40.136  32.690  37.287  1.00  0.00     0.031 A 
ATOM     25  C   UNL A   1      41.549  29.479  31.078  1.00  0.00     0.031 A 
ATOM     26  C   UNL A   1      41.418  32.049  37.195  1.00  0.00     0.049 A 
ATOM     27  C   UNL A   1      42.536  29.511  32.212  1.00  0.00     0.074 A 
ATOM     28  C   UNL A   1      42.416  31.967  38.145  1.00  0.00     0.029 A 
ATOM     29  N   UNL A   1      41.878  31.383  36.063  1.00  0.00    -0.354 N 
ATOM     30  N   UNL A   1      42.402  30.059  33.399  1.00  0.00    -0.248 NA
ATOM     31  C   UNL A   1      43.831  28.859  31.991  1.00  0.00     0.031 C 
ATOM     32  C   UNL A   1      43.502  31.302  37.566  1.00  0.00     0.029 A 
ATOM     33  C   UNL A   1      43.155  30.905  36.281  1.00  0.00     0.049 A 
ATOM     34  H   UNL A   1      41.368  31.271  35.228  1.00  0.00     0.167 HD
ATOM     35  C   UNL A   1      43.583  29.798  34.079  1.00  0.00     0.074 A 
ATOM     36  C   UNL A   1      44.422  29.040  33.167  1.00  0.00     0.031 C 
ATOM     37  C   UNL A   1      43.943  30.144  35.340  1.00  0.00     0.031 A 
BRANCH  24  38
ATOM     38  C   UNL A   1      39.747  33.445  38.527  1.00  0.00    -0.014 A 
ATOM     39  C   UNL A   1      40.088  34.798  38.712  1.00  0.00     0.010 A 
ATOM     40  C   UNL A   1      39.095  32.758  39.568  1.00  0.00     0.010 A 
ATOM     41  C   UNL A   1      39.854  35.425  39.940  1.00  0.00     0.020 A 
ATOM     42  C   UNL A   1      38.832  33.390  40.786  1.00  0.00     0.020 A 
ATOM     43  C   UNL A   1      39.242  34.711  40.974  1.00  0.00     0.054 A 
BRANCH  43  44
ATOM     44  S   UNL A   1      39.002  35.527  42.577  1.00  0.00     0.124 S 
ATOM     45  O   UNL A   1      37.572  35.326  42.803  1.00  0.00    -0.237 OA
ATOM     46  O   UNL A   1      39.887  34.771  43.458  1.00  0.00    -0.237 OA
ATOM     47  O   UNL A   1      39.405  36.908  42.327  1.00  0.00    -0.744 OA
ENDBRANCH  43  44
ENDBRANCH  24  38
BRANCH  25  48
ATOM     48  C   UNL A   1      41.859  28.868  29.756  1.00  0.00    -0.014 A 
ATOM     49  C   UNL A   1      41.508  27.538  29.470  1.00  0.00     0.010 A 
ATOM     50  C   UNL A   1      42.440  29.651  28.739  1.00  0.00     0.010 A 
ATOM     51  C   UNL A   1      41.721  27.008  28.191  1.00  0.00     0.020 A 
ATOM     52  C   UNL A   1      42.631  29.134  27.454  1.00  0.00     0.020 A 
ATOM     53  C   UNL A   1      42.271  27.813  27.189  1.00  0.00     0.054 A 
BRANCH  53  54
ATOM     54  S   UNL A   1      42.453  27.132  25.515  1.00  0.00     0.124 S 
ATOM     55  O   UNL A   1      41.324  26.211  25.436  1.00  0.00    -0.237 OA
ATOM     56  O   UNL A   1      42.357  28.325  24.677  1.00  0.00    -0.237 OA
ATOM     57  O   UNL A   1      43.772  26.503  25.541  1.00  0.00    -0.744 OA
ENDBRANCH  53  54
ENDBRANCH  25  48
BRANCH  37  58
ATOM     58  C   UNL A   1      45.279  29.664  35.833  1.00  0.00    -0.014 A 
ATOM     59  C   UNL A   1      46.425  30.469  35.732  1.00  0.00     0.010 A 
ATOM     60  C   UNL A   1      45.345  28.446  36.535  1.00  0.00     0.010 A 
ATOM     61  C   UNL A   1      47.619  30.063  36.333  1.00  0.00     0.020 A 
ATOM     62  C   UNL A   1      46.527  28.051  37.158  1.00  0.00     0.020 A 
ATOM     63  C   UNL A   1      47.658  28.863  37.052  1.00  0.00     0.054 A 
BRANCH  63  64
ATOM     64  S   UNL A   1      49.185  28.418  37.921  1.00  0.00     0.124 S 
ATOM     65  O   UNL A   1      50.210  28.939  37.021  1.00  0.00    -0.237 OA
ATOM     66  O   UNL A   1      49.047  29.123  39.193  1.00  0.00    -0.237 OA
ATOM     67  O   UNL A   1      49.119  26.961  38.013  1.00  0.00    -0.744 OA
ENDBRANCH  63  64
ENDBRANCH  37  58
ENDBRANCH  11  12
ENDBRANCH   4   6
ENDBRANCH   3   4
ENDBRANCH   2   3
ENDBRANCH   1   2
BRANCH   1  68
ATOM     68  O   UNL A   1      34.660  32.724  27.581  1.00  0.00    -0.374 OA
BRANCH  68  69
ATOM     69  C   UNL A   1      33.510  31.885  27.631  1.00  0.00     0.202 C 
BRANCH  69  70
ATOM     70  C   UNL A   1      33.924  30.470  27.227  1.00  0.00     0.261 C 
BRANCH  70  71
ATOM     71  O   UNL A   1      33.048  30.042  26.174  1.00  0.00    -0.459 OA
BRANCH  71  72
ATOM     72  C   UNL A   1      33.128  28.706  25.887  1.00  0.00     0.357 C 
ATOM     73  O   UNL A   1      33.889  27.898  26.364  1.00  0.00    -0.244 OA
BRANCH  72  74
ATOM     74  C   UNL A   1      32.017  28.405  24.945  1.00  0.00     0.154 A 
ATOM     75  C   UNL A   1      31.116  29.384  24.659  1.00  0.00     0.065 A 
ATOM     76  N   UNL A   1      31.963  27.169  24.417  1.00  0.00    -0.206 NA
ATOM     77  C   UNL A   1      30.214  29.087  23.668  1.00  0.00     0.077 A 
ATOM     78  C   UNL A   1      30.969  26.904  23.564  1.00  0.00     0.230 A 
ATOM     79  N   UNL A   1      30.117  27.852  23.118  1.00  0.00    -0.213 NA
BRANCH  77  80
ATOM     80  C   UNL A   1      29.418  30.194  23.119  1.00  0.00     0.000 A 
ATOM     81  C   UNL A   1      29.182  31.388  23.807  1.00  0.00     0.010 A 
ATOM     82  C   UNL A   1      28.956  30.097  21.785  1.00  0.00     0.010 A 
ATOM     83  C   UNL A   1      28.548  32.459  23.164  1.00  0.00     0.001 A 
ATOM     84  C   UNL A   1      28.336  31.163  21.142  1.00  0.00     0.001 A 
ATOM     85  C   UNL A   1      28.139  32.350  21.833  1.00  0.00     0.000 A 
ENDBRANCH  77  80
BRANCH  78  86
ATOM     86  N   UNL A   1      30.854  25.627  23.020  1.00  0.00    -0.300 N 
ATOM     87  H   UNL A   1      30.219  25.504  22.277  1.00  0.00     0.172 HD
BRANCH  86  88
ATOM     88  C   UNL A   1      31.545  24.540  23.432  1.00  0.00     0.190 A 
ATOM     89  N   UNL A   1      31.081  23.584  24.211  1.00  0.00    -0.220 NA
ATOM     90  S   UNL A   1      33.151  24.263  22.858  1.00  0.00    -0.097 S 
ATOM     91  C   UNL A   1      32.063  22.637  24.474  1.00  0.00     0.084 A 
ATOM     92  C   UNL A   1      33.294  22.873  23.865  1.00  0.00     0.056 A 
ATOM     93  C   UNL A   1      31.925  21.492  25.288  1.00  0.00     0.030 A 
ATOM     94  C   UNL A   1      34.403  22.037  24.092  1.00  0.00     0.021 A 
ATOM     95  C   UNL A   1      33.022  20.662  25.533  1.00  0.00     0.002 A 
ATOM     96  C   UNL A   1      34.251  20.942  24.950  1.00  0.00     0.002 A 
ENDBRANCH  86  88
ENDBRANCH  78  86
ENDBRANCH  72  74
ENDBRANCH  71  72
ENDBRANCH  70  71
ENDBRANCH  69  70
ENDBRANCH  68  69
ENDBRANCH   1  68
TORSDOF 20
ENDMDL
MODEL 3
REMARK VINA RESULT:     -10.9      6.459     11.573
REMARK SMILES O=C(OCCOCCOC(=O)c1cc(-c2ccccc2)nc(Nc2nc3ccccc3s2)n1)c1ccc(-c2c3nc(c(-c4ccc(S(=O)(=O)[O-])cc4)c4ccc([nH]4)c(-c4ccc(S(=O)(=O)[O-])cc4)c4nc(c(-c5ccc(S(=O)(=O)[O-])cc5)c5ccc2[nH]5)C=C4)C=C3)cc1
REMARK SMILES IDX 5 1 4 2 3 3 2 4 1 5 34 6 35 7 93 8 36 9 92 10 37 11 38 12
REMARK SMILES IDX 39 13 86 14 40 15 91 16 85 17 87 18 41 19 90 20 84 21 83 22
REMARK SMILES IDX 42 24 72 25 53 26 71 27 54 28 57 29 70 30 88 31 55 32 56 33
REMARK SMILES IDX 69 35 89 36 58 37 43 38 44 39 52 40 45 41 51 42 46 43 47 44
REMARK SMILES IDX 48 45 49 46 50 47 73 48 74 49 82 50 75 51 81 52 76 53 77 54
REMARK SMILES IDX 78 55 79 56 80 57 59 58 60 59 68 60 61 61 67 62 62 63 63 64
REMARK SMILES IDX 64 65 65 66 66 67 6 68 7 69 8 70 9 71 10 72 11 73 12 74
REMARK SMILES IDX 13 75 33 76 14 77 22 78 21 79 15 80 16 81 20 82 17 83 19 84
REMARK SMILES IDX 18 85 23 86 24 88 25 89 32 90 26 91 31 92 27 93 30 94 28 95
REMARK SMILES IDX 29 96
REMARK H PARENT 87 23 57 34 23 87
REMARK Flexibility Score: inf
ROOT
ATOM      1  C   UNL A   1      33.117  32.114  27.760  1.00  0.00     0.202 C 
ENDROOT
BRANCH   1   2
ATOM      2  C   UNL A   1      33.265  33.613  27.526  1.00  0.00     0.261 C 
BRANCH   2   3
ATOM      3  O   UNL A   1      32.596  34.344  28.558  1.00  0.00    -0.460 OA
BRANCH   3   4
ATOM      4  C   UNL A   1      33.167  34.924  29.639  1.00  0.00     0.338 C 
ATOM      5  O   UNL A   1      32.675  35.973  30.056  1.00  0.00    -0.246 OA
BRANCH   4   6
ATOM      6  C   UNL A   1      34.352  34.372  30.372  1.00  0.00     0.060 A 
ATOM      7  C   UNL A   1      34.314  33.563  31.513  1.00  0.00     0.016 A 
ATOM      8  C   UNL A   1      35.605  34.611  29.786  1.00  0.00     0.016 A 
ATOM      9  C   UNL A   1      35.457  32.994  32.054  1.00  0.00     0.010 A 
ATOM     10  C   UNL A   1      36.764  34.046  30.317  1.00  0.00     0.010 A 
ATOM     11  C   UNL A   1      36.683  33.233  31.453  1.00  0.00    -0.014 A 
BRANCH  11  12
ATOM     12  C   UNL A   1      37.890  32.718  32.107  1.00  0.00     0.031 A 
ATOM     13  C   UNL A   1      38.630  31.616  31.426  1.00  0.00     0.074 A 
ATOM     14  C   UNL A   1      38.318  33.277  33.250  1.00  0.00     0.049 A 
ATOM     15  N   UNL A   1      39.620  30.895  31.864  1.00  0.00    -0.248 NA
ATOM     16  C   UNL A   1      38.188  31.285  30.059  1.00  0.00     0.031 C 
ATOM     17  C   UNL A   1      37.718  34.449  33.893  1.00  0.00     0.029 A 
ATOM     18  N   UNL A   1      39.355  32.935  34.072  1.00  0.00    -0.354 N 
ATOM     19  C   UNL A   1      39.892  29.989  30.848  1.00  0.00     0.074 A 
ATOM     20  C   UNL A   1      38.969  30.257  29.768  1.00  0.00     0.031 C 
ATOM     21  C   UNL A   1      38.387  34.712  35.027  1.00  0.00     0.029 A 
ATOM     22  C   UNL A   1      39.408  33.689  35.219  1.00  0.00     0.049 A 
ATOM     23  H   UNL A   1      39.998  32.220  33.864  1.00  0.00     0.167 HD
ATOM     24  C   UNL A   1      40.816  29.002  30.846  1.00  0.00     0.031 A 
ATOM     25  C   UNL A   1      40.161  33.523  36.322  1.00  0.00     0.031 A 
ATOM     26  C   UNL A   1      41.683  28.755  31.965  1.00  0.00     0.049 A 
ATOM     27  C   UNL A   1      41.122  32.366  36.342  1.00  0.00     0.074 A 
ATOM     28  C   UNL A   1      42.628  27.762  32.126  1.00  0.00     0.029 A 
ATOM     29  N   UNL A   1      41.693  29.519  33.127  1.00  0.00    -0.354 N 
ATOM     30  N   UNL A   1      41.343  31.470  35.407  1.00  0.00    -0.248 NA
ATOM     31  C   UNL A   1      41.928  32.187  37.554  1.00  0.00     0.031 C 
ATOM     32  C   UNL A   1      43.167  27.892  33.410  1.00  0.00     0.029 A 
ATOM     33  C   UNL A   1      42.613  29.008  34.022  1.00  0.00     0.049 A 
ATOM     34  H   UNL A   1      41.126  30.308  33.289  1.00  0.00     0.167 HD
ATOM     35  C   UNL A   1      42.332  30.632  35.904  1.00  0.00     0.074 A 
ATOM     36  C   UNL A   1      42.666  31.132  37.226  1.00  0.00     0.031 C 
ATOM     37  C   UNL A   1      42.915  29.554  35.325  1.00  0.00     0.031 A 
BRANCH  24  38
ATOM     38  C   UNL A   1      40.825  28.084  29.655  1.00  0.00    -0.014 A 
ATOM     39  C   UNL A   1      39.917  27.016  29.533  1.00  0.00     0.010 A 
ATOM     40  C   UNL A   1      41.822  28.248  28.676  1.00  0.00     0.010 A 
ATOM     41  C   UNL A   1      40.055  26.086  28.497  1.00  0.00     0.020 A 
ATOM     42  C   UNL A   1      41.944  27.338  27.622  1.00  0.00     0.020 A 
ATOM     43  C   UNL A   1      41.079  26.245  27.558  1.00  0.00     0.054 A 
BRANCH  43  44
ATOM     44  S   UNL A   1      41.273  24.995  26.258  1.00  0.00     0.124 S 
ATOM     45  O   UNL A   1      42.386  24.200  26.772  1.00  0.00    -0.237 OA
ATOM     46  O   UNL A   1      39.974  24.327  26.258  1.00  0.00    -0.237 OA
ATOM     47  O   UNL A   1      41.568  25.780  25.062  1.00  0.00    -0.744 OA
ENDBRANCH  43  44
ENDBRANCH  24  38
BRANCH  25  48
ATOM     48  C   UNL A   1      39.971  34.433  37.485  1.00  0.00    -0.014 A 
ATOM     49  C   UNL A   1      39.051  34.130  38.502  1.00  0.00     0.010 A 
ATOM     50  C   UNL A   1      40.779  35.579  37.620  1.00  0.00     0.010 A 
ATOM     51  C   UNL A   1      38.952  34.948  39.635  1.00  0.00     0.020 A 
ATOM     52  C   UNL A   1      40.702  36.384  38.760  1.00  0.00     0.020 A 
ATOM     53  C   UNL A   1      39.786  36.063  39.762  1.00  0.00     0.054 A 
BRANCH  53  54
ATOM     54  S   UNL A   1      39.702  37.055  41.281  1.00  0.00     0.124 S 
ATOM     55  O   UNL A   1      38.969  38.235  40.835  1.00  0.00    -0.237 OA
ATOM     56  O   UNL A   1      38.984  36.170  42.195  1.00  0.00    -0.237 OA
ATOM     57  O   UNL A   1      41.106  37.282  41.621  1.00  0.00    -0.744 OA
ENDBRANCH  53  54
ENDBRANCH  25  48
BRANCH  37  58
ATOM     58  C   UNL A   1      44.014  28.869  36.088  1.00  0.00    -0.014 A 
ATOM     59  C   UNL A   1      45.332  29.355  36.060  1.00  0.00     0.010 A 
ATOM     60  C   UNL A   1      43.681  27.811  36.953  1.00  0.00     0.010 A 
ATOM     61  C   UNL A   1      46.300  28.793  36.895  1.00  0.00     0.020 A 
ATOM     62  C   UNL A   1      44.639  27.266  37.807  1.00  0.00     0.020 A 
ATOM     63  C   UNL A   1      45.944  27.762  37.771  1.00  0.00     0.054 A 
BRANCH  63  64
ATOM     64  S   UNL A   1      47.190  27.131  38.927  1.00  0.00     0.124 S 
ATOM     65  O   UNL A   1      47.714  28.362  39.510  1.00  0.00    -0.237 OA
ATOM     66  O   UNL A   1      46.398  26.296  39.827  1.00  0.00    -0.237 OA
ATOM     67  O   UNL A   1      48.121  26.401  38.068  1.00  0.00    -0.744 OA
ENDBRANCH  63  64
ENDBRANCH  37  58
ENDBRANCH  11  12
ENDBRANCH   4   6
ENDBRANCH   3   4
ENDBRANCH   2   3
ENDBRANCH   1   2
BRANCH   1  68
ATOM     68  O   UNL A   1      34.251  31.514  28.384  1.00  0.00    -0.374 OA
BRANCH  68  69
ATOM     69  C   UNL A   1      35.159  30.811  27.542  1.00  0.00     0.202 C 
BRANCH  69  70
ATOM     70  C   UNL A   1      34.817  29.322  27.597  1.00  0.00     0.261 C 
BRANCH  70  71
ATOM     71  O   UNL A   1      34.045  29.007  26.429  1.00  0.00    -0.459 OA
BRANCH  71  72
ATOM     72  C   UNL A   1      32.797  28.515  26.697  1.00  0.00     0.357 C 
ATOM     73  O   UNL A   1      32.268  28.407  27.778  1.00  0.00    -0.244 OA
BRANCH  72  74
ATOM     74  C   UNL A   1      32.157  28.234  25.384  1.00  0.00     0.154 A 
ATOM     75  C   UNL A   1      31.168  29.060  24.946  1.00  0.00     0.065 A 
ATOM     76  N   UNL A   1      32.597  27.169  24.690  1.00  0.00    -0.206 NA
ATOM     77  C   UNL A   1      30.733  28.835  23.664  1.00  0.00     0.077 A 
ATOM     78  C   UNL A   1      32.026  26.924  23.506  1.00  0.00     0.230 A 
ATOM     79  N   UNL A   1      31.140  27.768  22.934  1.00  0.00    -0.213 NA
BRANCH  77  80
ATOM     80  C   UNL A   1      29.890  29.865  23.041  1.00  0.00     0.000 A 
ATOM     81  C   UNL A   1      29.572  29.880  21.679  1.00  0.00     0.010 A 
ATOM     82  C   UNL A   1      29.277  30.830  23.874  1.00  0.00     0.010 A 
ATOM     83  C   UNL A   1      28.638  30.799  21.183  1.00  0.00     0.001 A 
ATOM     84  C   UNL A   1      28.343  31.737  23.385  1.00  0.00     0.001 A 
ATOM     85  C   UNL A   1      28.017  31.715  22.037  1.00  0.00     0.000 A 
ENDBRANCH  77  80
BRANCH  78  86
ATOM     86  N   UNL A   1      32.426  25.812  22.769  1.00  0.00    -0.300 N 
ATOM     87  H   UNL A   1      32.092  25.734  21.846  1.00  0.00     0.172 HD
BRANCH  86  88
ATOM     88  C   UNL A   1      33.237  24.829  23.221  1.00  0.00     0.190 A 
ATOM     89  N   UNL A   1      34.536  24.751  23.021  1.00  0.00    -0.220 NA
ATOM     90  S   UNL A   1      32.604  23.579  24.233  1.00  0.00    -0.097 S 
ATOM     91  C   UNL A   1      35.058  23.594  23.586  1.00  0.00     0.084 A 
ATOM     92  C   UNL A   1      34.134  22.786  24.245  1.00  0.00     0.056 A 
ATOM     93  C   UNL A   1      36.405  23.176  23.544  1.00  0.00     0.030 A 
ATOM     94  C   UNL A   1      34.501  21.550  24.809  1.00  0.00     0.021 A 
ATOM     95  C   UNL A   1      36.781  21.943  24.087  1.00  0.00     0.002 A 
ATOM     96  C   UNL A   1      35.833  21.135  24.702  1.00  0.00     0.002 A 
ENDBRANCH  86  88
ENDBRANCH  78  86
ENDBRANCH  72  74
ENDBRANCH  71  72
ENDBRANCH  70  71
ENDBRANCH  69  70
ENDBRANCH  68  69
ENDBRANCH   1  68
TORSDOF 20
ENDMDL
