MODEL 1
REMARK VINA RESULT:      -9.1      0.000      0.000
REMARK SMILES Cc1cc(C(=O)OCCOCCOC(=O)c2ccc(-c3c4nc(c(-c5ccc(S(=O)(=O)[O-])cc5)c5ccc([nH]5)c(-c5ccc(S(=O)(=O)[O-])cc5)c5nc(c(-c6ccc(S(=O)(=O)[O-])cc6)c6ccc3[nH]6)C=C5)C=C4)cc2)c(O)c(S(=O)(=O)N2CCCc3cc(F)cc(F)c32)c1
REMARK SMILES IDX 11 1 10 2 9 3 8 4 7 5 5 6 6 7 4 8 1 9 2 10 3 11 94 12 78 13
REMARK SMILES IDX 76 14 79 15 80 16 81 17 82 18 83 19 93 20 84 21 86 22 91 23
REMARK SMILES IDX 85 24 87 25 90 26 92 27 88 28 89 29 77 30 12 32 13 33 14 34
REMARK SMILES IDX 15 35 16 36 17 37 75 38 18 39 74 40 19 41 20 42 21 43 68 44
REMARK SMILES IDX 22 45 73 46 67 47 69 48 23 49 72 50 66 51 65 52 24 54 54 55
REMARK SMILES IDX 35 56 53 57 36 58 39 59 52 60 70 61 37 62 38 63 51 65 71 66
REMARK SMILES IDX 40 67 25 68 26 69 34 70 27 71 33 72 28 73 29 74 30 75 31 76
REMARK SMILES IDX 32 77 55 78 56 79 64 80 57 81 63 82 58 83 59 84 60 85 61 86
REMARK SMILES IDX 62 87 41 88 42 89 50 90 43 91 49 92 44 93 45 94 46 95 47 96
REMARK SMILES IDX 48 97
REMARK H PARENT 77 31 69 53 39 64
REMARK Flexibility Score: inf
ROOT
ATOM      1  C   UNL A   1      32.132  32.501  27.208  1.00  0.00     0.202 C 
ENDROOT
BRANCH   1   2
ATOM      2  O   UNL A   1      33.106  33.542  27.296  1.00  0.00    -0.374 OA
BRANCH   2   3
ATOM      3  C   UNL A   1      33.074  34.373  28.456  1.00  0.00     0.202 C 
BRANCH   3   4
ATOM      4  C   UNL A   1      34.059  34.028  29.574  1.00  0.00     0.261 C 
BRANCH   4   5
ATOM      5  O   UNL A   1      35.332  34.650  29.372  1.00  0.00    -0.460 OA
BRANCH   5   6
ATOM      6  C   UNL A   1      36.371  33.829  29.090  1.00  0.00     0.342 C 
ATOM      7  O   UNL A   1      36.412  32.978  28.216  1.00  0.00    -0.246 OA
BRANCH   6   8
ATOM      8  C   UNL A   1      37.561  34.171  29.910  1.00  0.00     0.103 A 
ATOM      9  C   UNL A   1      41.151  35.163  29.171  1.00  0.00     0.044 C 
ATOM     10  C   UNL A   1      39.937  34.741  29.950  1.00  0.00    -0.049 A 
ATOM     11  C   UNL A   1      38.748  34.488  29.241  1.00  0.00     0.023 A 
ATOM     12  C   UNL A   1      39.958  34.608  31.350  1.00  0.00     0.029 A 
ATOM     13  C   UNL A   1      38.768  34.312  32.015  1.00  0.00     0.130 A 
ATOM     14  C   UNL A   1      37.560  34.148  31.301  1.00  0.00     0.150 A 
BRANCH  13  15
ATOM     15  S   UNL A   1      38.602  34.064  33.747  1.00  0.00     0.268 S 
ATOM     16  O   UNL A   1      39.966  34.241  34.223  1.00  0.00    -0.201 OA
ATOM     17  O   UNL A   1      37.577  35.008  34.143  1.00  0.00    -0.201 OA
BRANCH  15  18
ATOM     18  N   UNL A   1      38.071  32.474  34.262  1.00  0.00    -0.263 N 
ATOM     19  C   UNL A   1      38.282  31.356  33.291  1.00  0.00     0.136 C 
ATOM     20  C   UNL A   1      38.750  32.278  35.567  1.00  0.00     0.091 A 
ATOM     21  C   UNL A   1      39.311  30.319  33.744  1.00  0.00     0.028 C 
ATOM     22  C   UNL A   1      40.087  31.830  35.520  1.00  0.00    -0.018 A 
ATOM     23  C   UNL A   1      38.304  32.987  36.695  1.00  0.00     0.150 A 
ATOM     24  C   UNL A   1      40.535  30.990  34.357  1.00  0.00     0.040 C 
ATOM     25  C   UNL A   1      40.994  32.290  36.479  1.00  0.00     0.045 A 
ATOM     26  C   UNL A   1      39.202  33.415  37.665  1.00  0.00     0.080 A 
ATOM     27  F   UNL A   1      37.020  33.367  36.781  1.00  0.00    -0.205 F 
ATOM     28  C   UNL A   1      40.548  33.107  37.516  1.00  0.00     0.126 A 
ATOM     29  F   UNL A   1      41.440  33.619  38.372  1.00  0.00    -0.207 F 
ENDBRANCH  15  18
ENDBRANCH  13  15
BRANCH  14  30
ATOM     30  O   UNL A   1      36.361  33.935  31.937  1.00  0.00    -0.506 OA
ATOM     31  H   UNL A   1      36.318  33.954  32.872  1.00  0.00     0.293 HD
ENDBRANCH  14  30
ENDBRANCH   6   8
ENDBRANCH   5   6
ENDBRANCH   4   5
ENDBRANCH   3   4
ENDBRANCH   2   3
ENDBRANCH   1   2
BRANCH   1  32
ATOM     32  C   UNL A   1      32.655  31.063  27.101  1.00  0.00     0.261 C 
BRANCH  32  33
ATOM     33  O   UNL A   1      33.858  30.837  27.854  1.00  0.00    -0.460 OA
BRANCH  33  34
ATOM     34  C   UNL A   1      34.386  29.596  27.710  1.00  0.00     0.338 C 
ATOM     35  O   UNL A   1      33.855  28.626  27.197  1.00  0.00    -0.246 OA
BRANCH  34  36
ATOM     36  C   UNL A   1      35.795  29.578  28.147  1.00  0.00     0.060 A 
ATOM     37  C   UNL A   1      36.782  29.707  27.163  1.00  0.00     0.016 A 
ATOM     38  C   UNL A   1      36.145  29.324  29.475  1.00  0.00     0.016 A 
ATOM     39  C   UNL A   1      38.126  29.536  27.495  1.00  0.00     0.010 A 
ATOM     40  C   UNL A   1      37.493  29.145  29.805  1.00  0.00     0.010 A 
ATOM     41  C   UNL A   1      38.487  29.218  28.811  1.00  0.00    -0.014 A 
BRANCH  41  42
ATOM     42  C   UNL A   1      39.890  28.846  29.120  1.00  0.00     0.031 A 
ATOM     43  C   UNL A   1      40.781  29.839  29.818  1.00  0.00     0.074 A 
ATOM     44  C   UNL A   1      40.361  27.629  28.799  1.00  0.00     0.049 A 
ATOM     45  N   UNL A   1      42.036  29.722  30.168  1.00  0.00    -0.248 NA
ATOM     46  C   UNL A   1      40.175  31.134  30.169  1.00  0.00     0.031 C 
ATOM     47  C   UNL A   1      39.588  26.565  28.158  1.00  0.00     0.029 A 
ATOM     48  N   UNL A   1      41.608  27.082  28.971  1.00  0.00    -0.354 N 
ATOM     49  C   UNL A   1      42.377  30.929  30.769  1.00  0.00     0.074 A 
ATOM     50  C   UNL A   1      41.201  31.772  30.716  1.00  0.00     0.031 C 
ATOM     51  C   UNL A   1      40.380  25.493  27.988  1.00  0.00     0.029 A 
ATOM     52  C   UNL A   1      41.721  25.804  28.479  1.00  0.00     0.049 A 
ATOM     53  H   UNL A   1      42.351  27.560  29.405  1.00  0.00     0.167 HD
ATOM     54  C   UNL A   1      43.557  31.301  31.318  1.00  0.00     0.031 A 
ATOM     55  C   UNL A   1      42.788  24.982  28.417  1.00  0.00     0.031 A 
ATOM     56  C   UNL A   1      44.730  30.466  31.358  1.00  0.00     0.049 A 
ATOM     57  C   UNL A   1      44.110  25.443  28.971  1.00  0.00     0.074 A 
ATOM     58  C   UNL A   1      45.967  30.746  31.913  1.00  0.00     0.029 A 
ATOM     59  N   UNL A   1      44.815  29.194  30.812  1.00  0.00    -0.354 N 
ATOM     60  N   UNL A   1      44.406  26.575  29.563  1.00  0.00    -0.248 NA
ATOM     61  C   UNL A   1      45.239  24.510  28.854  1.00  0.00     0.031 C 
ATOM     62  C   UNL A   1      46.816  29.663  31.656  1.00  0.00     0.029 A 
ATOM     63  C   UNL A   1      46.092  28.687  30.989  1.00  0.00     0.049 A 
ATOM     64  H   UNL A   1      44.077  28.721  30.364  1.00  0.00     0.167 HD
ATOM     65  C   UNL A   1      45.750  26.481  29.910  1.00  0.00     0.074 A 
ATOM     66  C   UNL A   1      46.205  25.177  29.471  1.00  0.00     0.031 C 
ATOM     67  C   UNL A   1      46.534  27.391  30.541  1.00  0.00     0.031 A 
BRANCH  54  68
ATOM     68  C   UNL A   1      43.650  32.694  31.883  1.00  0.00    -0.014 A 
ATOM     69  C   UNL A   1      43.362  32.954  33.234  1.00  0.00     0.010 A 
ATOM     70  C   UNL A   1      44.049  33.755  31.050  1.00  0.00     0.010 A 
ATOM     71  C   UNL A   1      43.424  34.259  33.732  1.00  0.00     0.020 A 
ATOM     72  C   UNL A   1      44.137  35.057  31.550  1.00  0.00     0.020 A 
ATOM     73  C   UNL A   1      43.804  35.305  32.883  1.00  0.00     0.054 A 
BRANCH  73  74
ATOM     74  S   UNL A   1      43.876  36.990  33.550  1.00  0.00     0.124 S 
ATOM     75  O   UNL A   1      43.895  37.795  32.331  1.00  0.00    -0.237 OA
ATOM     76  O   UNL A   1      42.650  37.078  34.340  1.00  0.00    -0.237 OA
ATOM     77  O   UNL A   1      45.115  37.004  34.324  1.00  0.00    -0.744 OA
ENDBRANCH  73  74
ENDBRANCH  54  68
BRANCH  55  78
ATOM     78  C   UNL A   1      42.647  23.637  27.798  1.00  0.00    -0.014 A 
ATOM     79  C   UNL A   1      42.707  23.484  26.402  1.00  0.00     0.010 A 
ATOM     80  C   UNL A   1      42.469  22.498  28.605  1.00  0.00     0.010 A 
ATOM     81  C   UNL A   1      42.585  22.217  25.824  1.00  0.00     0.020 A 
ATOM     82  C   UNL A   1      42.371  21.227  28.032  1.00  0.00     0.020 A 
ATOM     83  C   UNL A   1      42.421  21.096  26.643  1.00  0.00     0.054 A 
BRANCH  83  84
ATOM     84  S   UNL A   1      42.328  19.456  25.872  1.00  0.00     0.124 S 
ATOM     85  O   UNL A   1      40.972  19.451  25.333  1.00  0.00    -0.237 OA
ATOM     86  O   UNL A   1      43.403  19.510  24.883  1.00  0.00    -0.237 OA
ATOM     87  O   UNL A   1      42.563  18.541  26.987  1.00  0.00    -0.744 OA
ENDBRANCH  83  84
ENDBRANCH  55  78
BRANCH  67  88
ATOM     88  C   UNL A   1      47.961  27.000  30.824  1.00  0.00    -0.014 A 
ATOM     89  C   UNL A   1      48.993  27.305  29.919  1.00  0.00     0.010 A 
ATOM     90  C   UNL A   1      48.280  26.367  32.039  1.00  0.00     0.010 A 
ATOM     91  C   UNL A   1      50.315  26.959  30.212  1.00  0.00     0.020 A 
ATOM     92  C   UNL A   1      49.604  26.042  32.347  1.00  0.00     0.020 A 
ATOM     93  C   UNL A   1      50.613  26.328  31.425  1.00  0.00     0.054 A 
BRANCH  93  94
ATOM     94  S   UNL A   1      52.341  25.928  31.804  1.00  0.00     0.124 S 
ATOM     95  O   UNL A   1      52.634  26.849  32.898  1.00  0.00    -0.237 OA
ATOM     96  O   UNL A   1      52.272  24.516  32.172  1.00  0.00    -0.237 OA
ATOM     97  O   UNL A   1      53.043  26.204  30.552  1.00  0.00    -0.744 OA
ENDBRANCH  93  94
ENDBRANCH  67  88
ENDBRANCH  41  42
ENDBRANCH  34  36
ENDBRANCH  33  34
ENDBRANCH  32  33
ENDBRANCH   1  32
TORSDOF 20
ENDMDL
MODEL 2
REMARK VINA RESULT:      -9.0      5.406     12.480
REMARK SMILES Cc1cc(C(=O)OCCOCCOC(=O)c2ccc(-c3c4nc(c(-c5ccc(S(=O)(=O)[O-])cc5)c5ccc([nH]5)c(-c5ccc(S(=O)(=O)[O-])cc5)c5nc(c(-c6ccc(S(=O)(=O)[O-])cc6)c6ccc3[nH]6)C=C5)C=C4)cc2)c(O)c(S(=O)(=O)N2CCCc3cc(F)cc(F)c32)c1
REMARK SMILES IDX 11 1 10 2 9 3 8 4 7 5 5 6 6 7 4 8 1 9 2 10 3 11 94 12 78 13
REMARK SMILES IDX 76 14 79 15 80 16 81 17 82 18 83 19 93 20 84 21 86 22 91 23
REMARK SMILES IDX 85 24 87 25 90 26 92 27 88 28 89 29 77 30 12 32 13 33 14 34
REMARK SMILES IDX 15 35 16 36 17 37 75 38 18 39 74 40 19 41 20 42 21 43 68 44
REMARK SMILES IDX 22 45 73 46 67 47 69 48 23 49 72 50 66 51 65 52 24 54 54 55
REMARK SMILES IDX 35 56 53 57 36 58 39 59 52 60 70 61 37 62 38 63 51 65 71 66
REMARK SMILES IDX 40 67 25 68 26 69 34 70 27 71 33 72 28 73 29 74 30 75 31 76
REMARK SMILES IDX 32 77 55 78 56 79 64 80 57 81 63 82 58 83 59 84 60 85 61 86
REMARK SMILES IDX 62 87 41 88 42 89 50 90 43 91 49 92 44 93 45 94 46 95 47 96
REMARK SMILES IDX 48 97
REMARK H PARENT 77 31 69 53 39 64
REMARK Flexibility Score: inf
ROOT
ATOM      1  C   UNL A   1      42.112  22.522  26.571  1.00  0.00     0.202 C 
ENDROOT
BRANCH   1   2
ATOM      2  O   UNL A   1      41.075  22.713  27.532  1.00  0.00    -0.374 OA
BRANCH   2   3
ATOM      3  C   UNL A   1      39.735  22.785  27.046  1.00  0.00     0.202 C 
BRANCH   3   4
ATOM      4  C   UNL A   1      39.285  21.665  26.105  1.00  0.00     0.261 C 
BRANCH   4   5
ATOM      5  O   UNL A   1      37.901  21.783  25.762  1.00  0.00    -0.460 OA
BRANCH   5   6
ATOM      6  C   UNL A   1      37.364  20.767  25.045  1.00  0.00     0.342 C 
ATOM      7  O   UNL A   1      37.924  19.734  24.712  1.00  0.00    -0.246 OA
BRANCH   6   8
ATOM      8  C   UNL A   1      35.916  20.989  24.801  1.00  0.00     0.103 A 
ATOM      9  C   UNL A   1      32.769  18.893  25.148  1.00  0.00     0.044 C 
ATOM     10  C   UNL A   1      33.666  20.038  24.768  1.00  0.00    -0.049 A 
ATOM     11  C   UNL A   1      35.040  19.930  25.054  1.00  0.00     0.023 A 
ATOM     12  C   UNL A   1      33.170  21.203  24.156  1.00  0.00     0.029 A 
ATOM     13  C   UNL A   1      34.043  22.266  23.925  1.00  0.00     0.130 A 
ATOM     14  C   UNL A   1      35.404  22.180  24.297  1.00  0.00     0.150 A 
BRANCH  13  15
ATOM     15  S   UNL A   1      33.623  23.779  23.134  1.00  0.00     0.268 S 
ATOM     16  O   UNL A   1      34.570  24.715  23.720  1.00  0.00    -0.201 OA
ATOM     17  O   UNL A   1      33.700  23.472  21.721  1.00  0.00    -0.201 OA
BRANCH  15  18
ATOM     18  N   UNL A   1      32.013  24.401  23.443  1.00  0.00    -0.263 N 
ATOM     19  C   UNL A   1      31.361  23.958  24.714  1.00  0.00     0.136 C 
ATOM     20  C   UNL A   1      32.173  25.872  23.327  1.00  0.00     0.091 A 
ATOM     21  C   UNL A   1      31.161  25.076  25.738  1.00  0.00     0.028 C 
ATOM     22  C   UNL A   1      32.665  26.544  24.465  1.00  0.00    -0.018 A 
ATOM     23  C   UNL A   1      32.347  26.453  22.060  1.00  0.00     0.150 A 
ATOM     24  C   UNL A   1      32.394  25.968  25.827  1.00  0.00     0.040 C 
ATOM     25  C   UNL A   1      33.506  27.648  24.295  1.00  0.00     0.045 A 
ATOM     26  C   UNL A   1      33.157  27.571  21.896  1.00  0.00     0.080 A 
ATOM     27  F   UNL A   1      31.832  25.857  20.974  1.00  0.00    -0.205 F 
ATOM     28  C   UNL A   1      33.771  28.123  23.012  1.00  0.00     0.126 A 
ATOM     29  F   UNL A   1      34.652  29.117  22.855  1.00  0.00    -0.207 F 
ENDBRANCH  15  18
ENDBRANCH  13  15
BRANCH  14  30
ATOM     30  O   UNL A   1      36.266  23.239  24.154  1.00  0.00    -0.506 OA
ATOM     31  H   UNL A   1      36.182  23.815  23.421  1.00  0.00     0.293 HD
ENDBRANCH  14  30
ENDBRANCH   6   8
ENDBRANCH   5   6
ENDBRANCH   4   5
ENDBRANCH   3   4
ENDBRANCH   2   3
ENDBRANCH   1   2
BRANCH   1  32
ATOM     32  C   UNL A   1      42.524  23.743  25.737  1.00  0.00     0.261 C 
BRANCH  32  33
ATOM     33  O   UNL A   1      41.628  24.858  25.879  1.00  0.00    -0.460 OA
BRANCH  33  34
ATOM     34  C   UNL A   1      42.234  26.071  25.844  1.00  0.00     0.338 C 
ATOM     35  O   UNL A   1      42.644  26.660  24.860  1.00  0.00    -0.246 OA
BRANCH  34  36
ATOM     36  C   UNL A   1      42.228  26.691  27.183  1.00  0.00     0.060 A 
ATOM     37  C   UNL A   1      41.295  26.217  28.113  1.00  0.00     0.016 A 
ATOM     38  C   UNL A   1      43.035  27.790  27.484  1.00  0.00     0.016 A 
ATOM     39  C   UNL A   1      41.132  26.871  29.334  1.00  0.00     0.010 A 
ATOM     40  C   UNL A   1      42.865  28.449  28.707  1.00  0.00     0.010 A 
ATOM     41  C   UNL A   1      41.891  28.013  29.624  1.00  0.00    -0.014 A 
BRANCH  41  42
ATOM     42  C   UNL A   1      41.581  28.815  30.833  1.00  0.00     0.031 A 
ATOM     43  C   UNL A   1      40.409  29.759  30.815  1.00  0.00     0.074 A 
ATOM     44  C   UNL A   1      42.328  28.691  31.945  1.00  0.00     0.049 A 
ATOM     45  N   UNL A   1      39.975  30.559  31.754  1.00  0.00    -0.248 NA
ATOM     46  C   UNL A   1      39.621  29.806  29.571  1.00  0.00     0.031 C 
ATOM     47  C   UNL A   1      43.465  27.785  32.103  1.00  0.00     0.029 A 
ATOM     48  N   UNL A   1      42.238  29.333  33.154  1.00  0.00    -0.354 N 
ATOM     49  C   UNL A   1      38.872  31.213  31.216  1.00  0.00     0.074 A 
ATOM     50  C   UNL A   1      38.717  30.732  29.859  1.00  0.00     0.031 C 
ATOM     51  C   UNL A   1      43.969  27.930  33.340  1.00  0.00     0.029 A 
ATOM     52  C   UNL A   1      43.213  28.960  34.049  1.00  0.00     0.049 A 
ATOM     53  H   UNL A   1      41.543  29.999  33.361  1.00  0.00     0.167 HD
ATOM     54  C   UNL A   1      38.059  32.127  31.798  1.00  0.00     0.031 A 
ATOM     55  C   UNL A   1      43.475  29.408  35.292  1.00  0.00     0.031 A 
ATOM     56  C   UNL A   1      38.222  32.614  33.143  1.00  0.00     0.049 A 
ATOM     57  C   UNL A   1      42.600  30.475  35.894  1.00  0.00     0.074 A 
ATOM     58  C   UNL A   1      37.436  33.524  33.830  1.00  0.00     0.029 A 
ATOM     59  N   UNL A   1      39.245  32.242  34.002  1.00  0.00    -0.354 N 
ATOM     60  N   UNL A   1      41.544  31.061  35.383  1.00  0.00    -0.248 NA
ATOM     61  C   UNL A   1      42.951  30.936  37.245  1.00  0.00     0.031 C 
ATOM     62  C   UNL A   1      38.015  33.740  35.086  1.00  0.00     0.029 A 
ATOM     63  C   UNL A   1      39.129  32.925  35.201  1.00  0.00     0.049 A 
ATOM     64  H   UNL A   1      39.950  31.587  33.790  1.00  0.00     0.167 HD
ATOM     65  C   UNL A   1      41.089  31.942  36.360  1.00  0.00     0.074 A 
ATOM     66  C   UNL A   1      41.980  31.805  37.494  1.00  0.00     0.031 C 
ATOM     67  C   UNL A   1      40.027  32.784  36.321  1.00  0.00     0.031 A 
BRANCH  54  68
ATOM     68  C   UNL A   1      36.942  32.692  30.961  1.00  0.00    -0.014 A 
ATOM     69  C   UNL A   1      37.182  33.691  30.002  1.00  0.00     0.010 A 
ATOM     70  C   UNL A   1      35.634  32.201  31.127  1.00  0.00     0.010 A 
ATOM     71  C   UNL A   1      36.126  34.224  29.256  1.00  0.00     0.020 A 
ATOM     72  C   UNL A   1      34.580  32.713  30.366  1.00  0.00     0.020 A 
ATOM     73  C   UNL A   1      34.829  33.737  29.450  1.00  0.00     0.054 A 
BRANCH  73  74
ATOM     74  S   UNL A   1      33.475  34.444  28.473  1.00  0.00     0.124 S 
ATOM     75  O   UNL A   1      32.552  34.890  29.515  1.00  0.00    -0.237 OA
ATOM     76  O   UNL A   1      34.138  35.510  27.725  1.00  0.00    -0.237 OA
ATOM     77  O   UNL A   1      33.004  33.321  27.666  1.00  0.00    -0.744 OA
ENDBRANCH  73  74
ENDBRANCH  54  68
BRANCH  55  78
ATOM     78  C   UNL A   1      44.626  28.848  36.050  1.00  0.00    -0.014 A 
ATOM     79  C   UNL A   1      45.900  29.433  35.948  1.00  0.00     0.010 A 
ATOM     80  C   UNL A   1      44.449  27.734  36.892  1.00  0.00     0.010 A 
ATOM     81  C   UNL A   1      46.978  28.910  36.670  1.00  0.00     0.020 A 
ATOM     82  C   UNL A   1      45.518  27.224  37.633  1.00  0.00     0.020 A 
ATOM     83  C   UNL A   1      46.779  27.811  37.510  1.00  0.00     0.054 A 
BRANCH  83  84
ATOM     84  S   UNL A   1      48.179  27.190  38.483  1.00  0.00     0.124 S 
ATOM     85  O   UNL A   1      47.597  26.028  39.146  1.00  0.00    -0.237 OA
ATOM     86  O   UNL A   1      49.175  26.901  37.454  1.00  0.00    -0.237 OA
ATOM     87  O   UNL A   1      48.509  28.312  39.360  1.00  0.00    -0.744 OA
ENDBRANCH  83  84
ENDBRANCH  55  78
BRANCH  67  88
ATOM     88  C   UNL A   1      39.747  33.606  37.552  1.00  0.00    -0.014 A 
ATOM     89  C   UNL A   1      38.987  33.088  38.615  1.00  0.00     0.010 A 
ATOM     90  C   UNL A   1      40.299  34.895  37.667  1.00  0.00     0.010 A 
ATOM     91  C   UNL A   1      38.761  33.857  39.762  1.00  0.00     0.020 A 
ATOM     92  C   UNL A   1      40.097  35.656  38.822  1.00  0.00     0.020 A 
ATOM     93  C   UNL A   1      39.317  35.137  39.857  1.00  0.00     0.054 A 
BRANCH  93  94
ATOM     94  S   UNL A   1      39.049  36.098  41.372  1.00  0.00     0.124 S 
ATOM     95  O   UNL A   1      37.814  35.514  41.888  1.00  0.00    -0.237 OA
ATOM     96  O   UNL A   1      40.252  35.814  42.151  1.00  0.00    -0.237 OA
ATOM     97  O   UNL A   1      38.935  37.474  40.894  1.00  0.00    -0.744 OA
ENDBRANCH  93  94
ENDBRANCH  67  88
ENDBRANCH  41  42
ENDBRANCH  34  36
ENDBRANCH  33  34
ENDBRANCH  32  33
ENDBRANCH   1  32
TORSDOF 20
ENDMDL
MODEL 3
REMARK VINA RESULT:      -8.9      5.516     13.081
REMARK SMILES Cc1cc(C(=O)OCCOCCOC(=O)c2ccc(-c3c4nc(c(-c5ccc(S(=O)(=O)[O-])cc5)c5ccc([nH]5)c(-c5ccc(S(=O)(=O)[O-])cc5)c5nc(c(-c6ccc(S(=O)(=O)[O-])cc6)c6ccc3[nH]6)C=C5)C=C4)cc2)c(O)c(S(=O)(=O)N2CCCc3cc(F)cc(F)c32)c1
REMARK SMILES IDX 11 1 10 2 9 3 8 4 7 5 5 6 6 7 4 8 1 9 2 10 3 11 94 12 78 13
REMARK SMILES IDX 76 14 79 15 80 16 81 17 82 18 83 19 93 20 84 21 86 22 91 23
REMARK SMILES IDX 85 24 87 25 90 26 92 27 88 28 89 29 77 30 12 32 13 33 14 34
REMARK SMILES IDX 15 35 16 36 17 37 75 38 18 39 74 40 19 41 20 42 21 43 68 44
REMARK SMILES IDX 22 45 73 46 67 47 69 48 23 49 72 50 66 51 65 52 24 54 54 55
REMARK SMILES IDX 35 56 53 57 36 58 39 59 52 60 70 61 37 62 38 63 51 65 71 66
REMARK SMILES IDX 40 67 25 68 26 69 34 70 27 71 33 72 28 73 29 74 30 75 31 76
REMARK SMILES IDX 32 77 55 78 56 79 64 80 57 81 63 82 58 83 59 84 60 85 61 86
REMARK SMILES IDX 62 87 41 88 42 89 50 90 43 91 49 92 44 93 45 94 46 95 47 96
REMARK SMILES IDX 48 97
REMARK H PARENT 77 31 69 53 39 64
REMARK Flexibility Score: inf
ROOT
ATOM      1  C   UNL A   1      40.945  23.758  27.090  1.00  0.00     0.202 C 
ENDROOT
BRANCH   1   2
ATOM      2  O   UNL A   1      40.944  22.390  26.686  1.00  0.00    -0.374 OA
BRANCH   2   3
ATOM      3  C   UNL A   1      39.681  21.726  26.621  1.00  0.00     0.202 C 
BRANCH   3   4
ATOM      4  C   UNL A   1      38.691  22.238  25.573  1.00  0.00     0.261 C 
BRANCH   4   5
ATOM      5  O   UNL A   1      37.365  21.756  25.815  1.00  0.00    -0.460 OA
BRANCH   5   6
ATOM      6  C   UNL A   1      36.920  20.769  25.001  1.00  0.00     0.342 C 
ATOM      7  O   UNL A   1      37.563  19.813  24.595  1.00  0.00    -0.246 OA
BRANCH   6   8
ATOM      8  C   UNL A   1      35.464  20.903  24.743  1.00  0.00     0.103 A 
ATOM      9  C   UNL A   1      32.464  18.583  24.935  1.00  0.00     0.044 C 
ATOM     10  C   UNL A   1      33.285  19.804  24.626  1.00  0.00    -0.049 A 
ATOM     11  C   UNL A   1      34.659  19.775  24.930  1.00  0.00     0.023 A 
ATOM     12  C   UNL A   1      32.719  20.960  24.060  1.00  0.00     0.029 A 
ATOM     13  C   UNL A   1      33.520  22.090  23.895  1.00  0.00     0.130 A 
ATOM     14  C   UNL A   1      34.877  22.079  24.287  1.00  0.00     0.150 A 
BRANCH  13  15
ATOM     15  S   UNL A   1      33.008  23.607  23.169  1.00  0.00     0.268 S 
ATOM     16  O   UNL A   1      33.699  23.593  21.889  1.00  0.00    -0.201 OA
ATOM     17  O   UNL A   1      31.561  23.543  23.202  1.00  0.00    -0.201 OA
BRANCH  15  18
ATOM     18  N   UNL A   1      33.483  25.074  24.005  1.00  0.00    -0.263 N 
ATOM     19  C   UNL A   1      33.551  26.317  23.178  1.00  0.00     0.136 C 
ATOM     20  C   UNL A   1      32.534  25.156  25.143  1.00  0.00     0.091 A 
ATOM     21  C   UNL A   1      32.496  27.366  23.534  1.00  0.00     0.028 C 
ATOM     22  C   UNL A   1      31.266  25.708  24.867  1.00  0.00    -0.018 A 
ATOM     23  C   UNL A   1      32.677  24.278  26.230  1.00  0.00     0.150 A 
ATOM     24  C   UNL A   1      31.135  26.720  23.763  1.00  0.00     0.040 C 
ATOM     25  C   UNL A   1      30.143  25.204  25.530  1.00  0.00     0.045 A 
ATOM     26  C   UNL A   1      31.562  23.802  26.911  1.00  0.00     0.080 A 
ATOM     27  F   UNL A   1      33.888  23.792  26.543  1.00  0.00    -0.205 F 
ATOM     28  C   UNL A   1      30.302  24.231  26.515  1.00  0.00     0.126 A 
ATOM     29  F   UNL A   1      29.215  23.685  27.074  1.00  0.00    -0.207 F 
ENDBRANCH  15  18
ENDBRANCH  13  15
BRANCH  14  30
ATOM     30  O   UNL A   1      35.667  23.201  24.209  1.00  0.00    -0.506 OA
ATOM     31  H   UNL A   1      35.288  24.049  24.325  1.00  0.00     0.293 HD
ENDBRANCH  14  30
ENDBRANCH   6   8
ENDBRANCH   5   6
ENDBRANCH   4   5
ENDBRANCH   3   4
ENDBRANCH   2   3
ENDBRANCH   1   2
BRANCH   1  32
ATOM     32  C   UNL A   1      41.944  24.691  26.392  1.00  0.00     0.261 C 
BRANCH  32  33
ATOM     33  O   UNL A   1      42.283  25.849  27.174  1.00  0.00    -0.460 OA
BRANCH  33  34
ATOM     34  C   UNL A   1      41.672  26.993  26.776  1.00  0.00     0.338 C 
ATOM     35  O   UNL A   1      41.405  27.326  25.635  1.00  0.00    -0.246 OA
BRANCH  34  36
ATOM     36  C   UNL A   1      41.226  27.774  27.945  1.00  0.00     0.060 A 
ATOM     37  C   UNL A   1      41.666  29.100  28.047  1.00  0.00     0.016 A 
ATOM     38  C   UNL A   1      40.490  27.190  28.978  1.00  0.00     0.016 A 
ATOM     39  C   UNL A   1      41.412  29.833  29.205  1.00  0.00     0.010 A 
ATOM     40  C   UNL A   1      40.243  27.925  30.143  1.00  0.00     0.010 A 
ATOM     41  C   UNL A   1      40.731  29.239  30.275  1.00  0.00    -0.014 A 
BRANCH  41  42
ATOM     42  C   UNL A   1      40.632  29.951  31.573  1.00  0.00     0.031 A 
ATOM     43  C   UNL A   1      41.702  29.748  32.612  1.00  0.00     0.074 A 
ATOM     44  C   UNL A   1      39.608  30.788  31.817  1.00  0.00     0.049 A 
ATOM     45  N   UNL A   1      41.800  30.261  33.811  1.00  0.00    -0.248 NA
ATOM     46  C   UNL A   1      42.809  28.846  32.250  1.00  0.00     0.031 C 
ATOM     47  C   UNL A   1      38.530  31.100  30.879  1.00  0.00     0.029 A 
ATOM     48  N   UNL A   1      39.308  31.529  32.933  1.00  0.00    -0.354 N 
ATOM     49  C   UNL A   1      42.970  29.739  34.353  1.00  0.00     0.074 A 
ATOM     50  C   UNL A   1      43.535  28.851  33.359  1.00  0.00     0.031 C 
ATOM     51  C   UNL A   1      37.685  31.969  31.460  1.00  0.00     0.029 A 
ATOM     52  C   UNL A   1      38.143  32.248  32.820  1.00  0.00     0.049 A 
ATOM     53  H   UNL A   1      39.874  31.542  33.739  1.00  0.00     0.167 HD
ATOM     54  C   UNL A   1      43.525  29.979  35.565  1.00  0.00     0.031 A 
ATOM     55  C   UNL A   1      37.510  33.032  33.714  1.00  0.00     0.031 A 
ATOM     56  C   UNL A   1      42.955  30.852  36.558  1.00  0.00     0.049 A 
ATOM     57  C   UNL A   1      38.109  33.229  35.081  1.00  0.00     0.074 A 
ATOM     58  C   UNL A   1      43.455  31.177  37.807  1.00  0.00     0.029 A 
ATOM     59  N   UNL A   1      41.754  31.530  36.420  1.00  0.00    -0.354 N 
ATOM     60  N   UNL A   1      39.231  32.752  35.566  1.00  0.00    -0.248 NA
ATOM     61  C   UNL A   1      37.360  34.078  36.018  1.00  0.00     0.031 C 
ATOM     62  C   UNL A   1      42.529  32.011  38.445  1.00  0.00     0.029 A 
ATOM     63  C   UNL A   1      41.480  32.248  37.572  1.00  0.00     0.049 A 
ATOM     64  H   UNL A   1      41.179  31.505  35.620  1.00  0.00     0.167 HD
ATOM     65  C   UNL A   1      39.333  33.262  36.856  1.00  0.00     0.074 A 
ATOM     66  C   UNL A   1      38.165  34.092  37.072  1.00  0.00     0.031 C 
ATOM     67  C   UNL A   1      40.310  33.065  37.777  1.00  0.00     0.031 A 
BRANCH  54  68
ATOM     68  C   UNL A   1      44.799  29.248  35.899  1.00  0.00    -0.014 A 
ATOM     69  C   UNL A   1      46.057  29.801  35.604  1.00  0.00     0.010 A 
ATOM     70  C   UNL A   1      44.733  27.995  36.536  1.00  0.00     0.010 A 
ATOM     71  C   UNL A   1      47.227  29.093  35.896  1.00  0.00     0.020 A 
ATOM     72  C   UNL A   1      45.901  27.295  36.852  1.00  0.00     0.020 A 
ATOM     73  C   UNL A   1      47.140  27.839  36.510  1.00  0.00     0.054 A 
BRANCH  73  74
ATOM     74  S   UNL A   1      48.671  26.938  36.877  1.00  0.00     0.124 S 
ATOM     75  O   UNL A   1      49.435  27.130  35.646  1.00  0.00    -0.237 OA
ATOM     76  O   UNL A   1      49.186  27.639  38.051  1.00  0.00    -0.237 OA
ATOM     77  O   UNL A   1      48.219  25.571  37.120  1.00  0.00    -0.744 OA
ENDBRANCH  73  74
ENDBRANCH  54  68
BRANCH  55  78
ATOM     78  C   UNL A   1      36.226  33.685  33.343  1.00  0.00    -0.014 A 
ATOM     79  C   UNL A   1      36.203  35.025  32.920  1.00  0.00     0.010 A 
ATOM     80  C   UNL A   1      35.019  32.962  33.395  1.00  0.00     0.010 A 
ATOM     81  C   UNL A   1      34.995  35.632  32.561  1.00  0.00     0.020 A 
ATOM     82  C   UNL A   1      33.814  33.559  33.015  1.00  0.00     0.020 A 
ATOM     83  C   UNL A   1      33.809  34.894  32.608  1.00  0.00     0.054 A 
BRANCH  83  84
ATOM     84  S   UNL A   1      32.265  35.686  32.079  1.00  0.00     0.124 S 
ATOM     85  O   UNL A   1      31.262  34.903  32.792  1.00  0.00    -0.237 OA
ATOM     86  O   UNL A   1      32.441  37.061  32.540  1.00  0.00    -0.237 OA
ATOM     87  O   UNL A   1      32.275  35.519  30.627  1.00  0.00    -0.744 OA
ENDBRANCH  83  84
ENDBRANCH  55  78
BRANCH  67  88
ATOM     88  C   UNL A   1      40.176  33.781  39.095  1.00  0.00    -0.014 A 
ATOM     89  C   UNL A   1      40.702  35.071  39.280  1.00  0.00     0.010 A 
ATOM     90  C   UNL A   1      39.464  33.173  40.146  1.00  0.00     0.010 A 
ATOM     91  C   UNL A   1      40.543  35.731  40.503  1.00  0.00     0.020 A 
ATOM     92  C   UNL A   1      39.281  33.839  41.361  1.00  0.00     0.020 A 
ATOM     93  C   UNL A   1      39.834  35.110  41.537  1.00  0.00     0.054 A 
BRANCH  93  94
ATOM     94  S   UNL A   1      39.602  36.002  43.099  1.00  0.00     0.124 S 
ATOM     95  O   UNL A   1      40.699  35.483  43.912  1.00  0.00    -0.237 OA
ATOM     96  O   UNL A   1      39.728  37.400  42.693  1.00  0.00    -0.237 OA
ATOM     97  O   UNL A   1      38.264  35.604  43.530  1.00  0.00    -0.744 OA
ENDBRANCH  93  94
ENDBRANCH  67  88
ENDBRANCH  41  42
ENDBRANCH  34  36
ENDBRANCH  33  34
ENDBRANCH  32  33
ENDBRANCH   1  32
TORSDOF 20
ENDMDL
