MODEL 1
REMARK VINA RESULT:      -9.9      0.000      0.000
REMARK SMILES CC[C@@H](C)[C@H](NC(=O)CCc1ccc(F)c(F)c1)C(=O)OCCOCCOC(=O)c1ccc(-c2c3nc(c(-c4ccc(S(=O)(=O)[O-])cc4)c4ccc([nH]4)c(-c4ccc(S(=O)(=O)[O-])cc4)c4nc(c(-c5ccc(S(=O)(=O)[O-])cc5)c5ccc2[nH]5)C=C4)C=C3)cc1
REMARK SMILES IDX 23 1 22 2 21 3 19 4 20 5 5 6 3 7 4 8 2 9 1 10 6 11 7 12 8 14
REMARK SMILES IDX 9 15 10 16 11 17 12 18 18 19 13 20 16 21 14 22 17 23 15 24
REMARK SMILES IDX 24 25 25 26 26 27 27 28 28 29 29 30 30 31 31 32 89 33 32 34
REMARK SMILES IDX 88 35 33 36 34 37 35 38 82 39 36 40 87 41 81 42 83 43 37 44
REMARK SMILES IDX 86 45 80 46 79 47 38 49 68 50 49 51 67 52 50 53 53 54 66 55
REMARK SMILES IDX 84 56 51 57 52 58 65 60 85 61 54 62 39 63 40 64 48 65 41 66
REMARK SMILES IDX 47 67 42 68 43 69 44 70 45 71 46 72 69 73 70 74 78 75 71 76
REMARK SMILES IDX 77 77 72 78 73 79 74 80 75 81 76 82 55 83 56 84 64 85 57 86
REMARK SMILES IDX 63 87 58 88 59 89 60 90 61 91 62 92
REMARK H PARENT 6 13 83 48 53 59
REMARK Flexibility Score: inf
ROOT
ATOM      1  C   UNL A   1      34.270  30.880  27.585  1.00  0.00     0.202 C 
ENDROOT
BRANCH   1   2
ATOM      2  C   UNL A   1      33.015  30.068  27.242  1.00  0.00     0.261 C 
BRANCH   2   3
ATOM      3  O   UNL A   1      33.290  28.686  26.931  1.00  0.00    -0.462 OA
BRANCH   3   4
ATOM      4  C   UNL A   1      32.206  27.868  26.986  1.00  0.00     0.328 C 
ATOM      5  O   UNL A   1      31.427  27.806  27.934  1.00  0.00    -0.250 OA
BRANCH   4   6
ATOM      6  C   UNL A   1      32.072  26.917  25.784  1.00  0.00     0.195 C 
BRANCH   6   7
ATOM      7  C   UNL A   1      31.692  25.509  26.327  1.00  0.00     0.019 C 
ATOM      8  C   UNL A   1      32.895  24.558  26.376  1.00  0.00     0.010 C 
BRANCH   7   9
ATOM      9  C   UNL A   1      30.531  24.880  25.531  1.00  0.00     0.002 C 
ATOM     10  C   UNL A   1      30.837  23.450  25.105  1.00  0.00     0.004 C 
ENDBRANCH   7   9
ENDBRANCH   6   7
BRANCH   6  11
ATOM     11  N   UNL A   1      33.108  26.846  24.749  1.00  0.00    -0.343 N 
ATOM     12  C   UNL A   1      33.009  27.151  23.421  1.00  0.00     0.221 C 
ATOM     13  H   UNL A   1      33.993  26.536  25.051  1.00  0.00     0.164 HD
ATOM     14  O   UNL A   1      33.806  26.632  22.636  1.00  0.00    -0.275 OA
BRANCH  12  15
ATOM     15  C   UNL A   1      31.996  28.167  22.917  1.00  0.00     0.105 C 
BRANCH  15  16
ATOM     16  C   UNL A   1      30.552  27.684  22.771  1.00  0.00     0.045 C 
BRANCH  16  17
ATOM     17  C   UNL A   1      29.552  28.807  22.923  1.00  0.00    -0.044 A 
ATOM     18  C   UNL A   1      28.179  28.552  22.795  1.00  0.00     0.007 A 
ATOM     19  C   UNL A   1      29.974  30.097  23.299  1.00  0.00     0.046 A 
ATOM     20  C   UNL A   1      27.245  29.534  23.136  1.00  0.00     0.043 A 
ATOM     21  C   UNL A   1      29.035  31.068  23.638  1.00  0.00     0.159 A 
ATOM     22  C   UNL A   1      27.678  30.780  23.575  1.00  0.00     0.158 A 
ATOM     23  F   UNL A   1      29.456  32.269  24.056  1.00  0.00    -0.204 F 
ATOM     24  F   UNL A   1      26.775  31.696  23.948  1.00  0.00    -0.204 F 
ENDBRANCH  16  17
ENDBRANCH  15  16
ENDBRANCH  12  15
ENDBRANCH   6  11
ENDBRANCH   4   6
ENDBRANCH   3   4
ENDBRANCH   2   3
ENDBRANCH   1   2
BRANCH   1  25
ATOM     25  O   UNL A   1      34.089  32.112  28.280  1.00  0.00    -0.374 OA
BRANCH  25  26
ATOM     26  C   UNL A   1      35.166  33.042  28.250  1.00  0.00     0.202 C 
BRANCH  26  27
ATOM     27  C   UNL A   1      35.650  33.629  29.582  1.00  0.00     0.261 C 
BRANCH  27  28
ATOM     28  O   UNL A   1      36.957  33.161  29.956  1.00  0.00    -0.460 OA
BRANCH  28  29
ATOM     29  C   UNL A   1      36.955  31.994  30.647  1.00  0.00     0.338 C 
ATOM     30  O   UNL A   1      36.104  31.603  31.428  1.00  0.00    -0.246 OA
BRANCH  29  31
ATOM     31  C   UNL A   1      38.052  31.125  30.187  1.00  0.00     0.060 A 
ATOM     32  C   UNL A   1      39.074  30.841  31.101  1.00  0.00     0.016 A 
ATOM     33  C   UNL A   1      38.144  30.703  28.859  1.00  0.00     0.016 A 
ATOM     34  C   UNL A   1      40.221  30.176  30.678  1.00  0.00     0.010 A 
ATOM     35  C   UNL A   1      39.304  30.046  28.434  1.00  0.00     0.010 A 
ATOM     36  C   UNL A   1      40.362  29.818  29.332  1.00  0.00    -0.014 A 
BRANCH  36  37
ATOM     37  C   UNL A   1      41.684  29.354  28.849  1.00  0.00     0.031 A 
ATOM     38  C   UNL A   1      42.821  30.337  28.788  1.00  0.00     0.074 A 
ATOM     39  C   UNL A   1      41.883  28.063  28.527  1.00  0.00     0.049 A 
ATOM     40  N   UNL A   1      44.063  30.145  28.424  1.00  0.00    -0.248 NA
ATOM     41  C   UNL A   1      42.520  31.720  29.197  1.00  0.00     0.031 C 
ATOM     42  C   UNL A   1      40.869  27.011  28.593  1.00  0.00     0.029 A 
ATOM     43  N   UNL A   1      43.010  27.419  28.085  1.00  0.00    -0.354 N 
ATOM     44  C   UNL A   1      44.691  31.378  28.557  1.00  0.00     0.074 A 
ATOM     45  C   UNL A   1      43.687  32.319  29.008  1.00  0.00     0.031 C 
ATOM     46  C   UNL A   1      41.421  25.851  28.199  1.00  0.00     0.029 A 
ATOM     47  C   UNL A   1      42.817  26.084  27.830  1.00  0.00     0.049 A 
ATOM     48  H   UNL A   1      43.875  27.872  27.961  1.00  0.00     0.167 HD
ATOM     49  C   UNL A   1      45.987  31.699  28.331  1.00  0.00     0.031 A 
ATOM     50  C   UNL A   1      43.664  25.158  27.340  1.00  0.00     0.031 A 
ATOM     51  C   UNL A   1      46.977  30.766  27.862  1.00  0.00     0.049 A 
ATOM     52  C   UNL A   1      45.083  25.552  27.029  1.00  0.00     0.074 A 
ATOM     53  C   UNL A   1      48.317  30.989  27.604  1.00  0.00     0.029 A 
ATOM     54  N   UNL A   1      46.730  29.431  27.575  1.00  0.00    -0.354 N 
ATOM     55  N   UNL A   1      45.666  26.718  27.178  1.00  0.00    -0.248 NA
ATOM     56  C   UNL A   1      45.961  24.503  26.491  1.00  0.00     0.031 C 
ATOM     57  C   UNL A   1      48.870  29.801  27.112  1.00  0.00     0.029 A 
ATOM     58  C   UNL A   1      47.887  28.824  27.117  1.00  0.00     0.049 A 
ATOM     59  H   UNL A   1      45.860  28.983  27.681  1.00  0.00     0.167 HD
ATOM     60  C   UNL A   1      46.984  26.537  26.774  1.00  0.00     0.074 A 
ATOM     61  C   UNL A   1      47.115  25.147  26.386  1.00  0.00     0.031 C 
ATOM     62  C   UNL A   1      47.996  27.440  26.730  1.00  0.00     0.031 A 
BRANCH  49  63
ATOM     63  C   UNL A   1      46.394  33.132  28.551  1.00  0.00    -0.014 A 
ATOM     64  C   UNL A   1      46.306  34.082  27.518  1.00  0.00     0.010 A 
ATOM     65  C   UNL A   1      46.852  33.538  29.818  1.00  0.00     0.010 A 
ATOM     66  C   UNL A   1      46.712  35.401  27.734  1.00  0.00     0.020 A 
ATOM     67  C   UNL A   1      47.234  34.864  30.046  1.00  0.00     0.020 A 
ATOM     68  C   UNL A   1      47.179  35.783  28.996  1.00  0.00     0.054 A 
BRANCH  68  69
ATOM     69  S   UNL A   1      47.691  37.504  29.253  1.00  0.00     0.124 S 
ATOM     70  O   UNL A   1      48.927  37.569  28.475  1.00  0.00    -0.237 OA
ATOM     71  O   UNL A   1      46.566  38.260  28.709  1.00  0.00    -0.237 OA
ATOM     72  O   UNL A   1      47.862  37.602  30.700  1.00  0.00    -0.744 OA
ENDBRANCH  68  69
ENDBRANCH  49  63
BRANCH  50  73
ATOM     73  C   UNL A   1      43.182  23.771  27.100  1.00  0.00    -0.014 A 
ATOM     74  C   UNL A   1      43.085  22.848  28.155  1.00  0.00     0.010 A 
ATOM     75  C   UNL A   1      42.797  23.374  25.805  1.00  0.00     0.010 A 
ATOM     76  C   UNL A   1      42.619  21.551  27.919  1.00  0.00     0.020 A 
ATOM     77  C   UNL A   1      42.307  22.087  25.571  1.00  0.00     0.020 A 
ATOM     78  C   UNL A   1      42.229  21.179  26.629  1.00  0.00     0.054 A 
BRANCH  78  79
ATOM     79  S   UNL A   1      41.561  19.514  26.357  1.00  0.00     0.124 S 
ATOM     80  O   UNL A   1      41.843  18.863  27.632  1.00  0.00    -0.237 OA
ATOM     81  O   UNL A   1      40.153  19.780  26.077  1.00  0.00    -0.237 OA
ATOM     82  O   UNL A   1      42.332  19.021  25.218  1.00  0.00    -0.744 OA
ENDBRANCH  78  79
ENDBRANCH  50  73
BRANCH  62  83
ATOM     83  C   UNL A   1      49.342  26.949  26.270  1.00  0.00    -0.014 A 
ATOM     84  C   UNL A   1      49.774  27.139  24.946  1.00  0.00     0.010 A 
ATOM     85  C   UNL A   1      50.211  26.339  27.195  1.00  0.00     0.010 A 
ATOM     86  C   UNL A   1      51.039  26.701  24.546  1.00  0.00     0.020 A 
ATOM     87  C   UNL A   1      51.486  25.922  26.805  1.00  0.00     0.020 A 
ATOM     88  C   UNL A   1      51.886  26.093  25.478  1.00  0.00     0.054 A 
BRANCH  88  89
ATOM     89  S   UNL A   1      53.540  25.572  24.946  1.00  0.00     0.124 S 
ATOM     90  O   UNL A   1      53.500  25.847  23.513  1.00  0.00    -0.237 OA
ATOM     91  O   UNL A   1      54.418  26.439  25.728  1.00  0.00    -0.237 OA
ATOM     92  O   UNL A   1      53.591  24.157  25.308  1.00  0.00    -0.744 OA
ENDBRANCH  88  89
ENDBRANCH  62  83
ENDBRANCH  36  37
ENDBRANCH  29  31
ENDBRANCH  28  29
ENDBRANCH  27  28
ENDBRANCH  26  27
ENDBRANCH  25  26
ENDBRANCH   1  25
TORSDOF 23
ENDMDL
MODEL 2
REMARK VINA RESULT:      -9.9      2.577      4.114
REMARK SMILES CC[C@@H](C)[C@H](NC(=O)CCc1ccc(F)c(F)c1)C(=O)OCCOCCOC(=O)c1ccc(-c2c3nc(c(-c4ccc(S(=O)(=O)[O-])cc4)c4ccc([nH]4)c(-c4ccc(S(=O)(=O)[O-])cc4)c4nc(c(-c5ccc(S(=O)(=O)[O-])cc5)c5ccc2[nH]5)C=C4)C=C3)cc1
REMARK SMILES IDX 23 1 22 2 21 3 19 4 20 5 5 6 3 7 4 8 2 9 1 10 6 11 7 12 8 14
REMARK SMILES IDX 9 15 10 16 11 17 12 18 18 19 13 20 16 21 14 22 17 23 15 24
REMARK SMILES IDX 24 25 25 26 26 27 27 28 28 29 29 30 30 31 31 32 89 33 32 34
REMARK SMILES IDX 88 35 33 36 34 37 35 38 82 39 36 40 87 41 81 42 83 43 37 44
REMARK SMILES IDX 86 45 80 46 79 47 38 49 68 50 49 51 67 52 50 53 53 54 66 55
REMARK SMILES IDX 84 56 51 57 52 58 65 60 85 61 54 62 39 63 40 64 48 65 41 66
REMARK SMILES IDX 47 67 42 68 43 69 44 70 45 71 46 72 69 73 70 74 78 75 71 76
REMARK SMILES IDX 77 77 72 78 73 79 74 80 75 81 76 82 55 83 56 84 64 85 57 86
REMARK SMILES IDX 63 87 58 88 59 89 60 90 61 91 62 92
REMARK H PARENT 6 13 83 48 53 59
REMARK Flexibility Score: inf
ROOT
ATOM      1  C   UNL A   1      33.987  30.779  27.414  1.00  0.00     0.202 C 
ENDROOT
BRANCH   1   2
ATOM      2  C   UNL A   1      32.711  30.140  26.852  1.00  0.00     0.261 C 
BRANCH   2   3
ATOM      3  O   UNL A   1      32.872  28.754  26.489  1.00  0.00    -0.462 OA
BRANCH   3   4
ATOM      4  C   UNL A   1      31.918  27.924  26.988  1.00  0.00     0.328 C 
ATOM      5  O   UNL A   1      31.388  28.054  28.089  1.00  0.00    -0.250 OA
BRANCH   4   6
ATOM      6  C   UNL A   1      31.608  26.710  26.096  1.00  0.00     0.195 C 
BRANCH   6   7
ATOM      7  C   UNL A   1      30.686  27.189  24.938  1.00  0.00     0.019 C 
ATOM      8  C   UNL A   1      29.565  26.188  24.630  1.00  0.00     0.010 C 
BRANCH   7   9
ATOM      9  C   UNL A   1      31.488  27.519  23.663  1.00  0.00     0.002 C 
ATOM     10  C   UNL A   1      31.055  26.668  22.477  1.00  0.00     0.004 C 
ENDBRANCH   7   9
ENDBRANCH   6   7
BRANCH   6  11
ATOM     11  N   UNL A   1      31.154  25.438  26.668  1.00  0.00    -0.343 N 
ATOM     12  C   UNL A   1      31.592  24.174  26.392  1.00  0.00     0.221 C 
ATOM     13  H   UNL A   1      30.438  25.505  27.342  1.00  0.00     0.164 HD
ATOM     14  O   UNL A   1      30.836  23.227  26.614  1.00  0.00    -0.275 OA
BRANCH  12  15
ATOM     15  C   UNL A   1      33.007  23.919  25.897  1.00  0.00     0.105 C 
BRANCH  15  16
ATOM     16  C   UNL A   1      33.485  22.465  25.903  1.00  0.00     0.045 C 
BRANCH  16  17
ATOM     17  C   UNL A   1      34.964  22.345  25.612  1.00  0.00    -0.044 A 
ATOM     18  C   UNL A   1      35.813  23.443  25.811  1.00  0.00     0.007 A 
ATOM     19  C   UNL A   1      35.524  21.108  25.242  1.00  0.00     0.046 A 
ATOM     20  C   UNL A   1      37.200  23.283  25.744  1.00  0.00     0.043 A 
ATOM     21  C   UNL A   1      36.907  20.958  25.179  1.00  0.00     0.159 A 
ATOM     22  C   UNL A   1      37.740  22.036  25.449  1.00  0.00     0.158 A 
ATOM     23  F   UNL A   1      37.424  19.757  24.889  1.00  0.00    -0.204 F 
ATOM     24  F   UNL A   1      39.070  21.883  25.437  1.00  0.00    -0.204 F 
ENDBRANCH  16  17
ENDBRANCH  15  16
ENDBRANCH  12  15
ENDBRANCH   6  11
ENDBRANCH   4   6
ENDBRANCH   3   4
ENDBRANCH   2   3
ENDBRANCH   1   2
BRANCH   1  25
ATOM     25  O   UNL A   1      33.840  31.940  28.229  1.00  0.00    -0.374 OA
BRANCH  25  26
ATOM     26  C   UNL A   1      34.889  32.900  28.192  1.00  0.00     0.202 C 
BRANCH  26  27
ATOM     27  C   UNL A   1      35.471  33.385  29.526  1.00  0.00     0.261 C 
BRANCH  27  28
ATOM     28  O   UNL A   1      36.797  32.885  29.771  1.00  0.00    -0.460 OA
BRANCH  28  29
ATOM     29  C   UNL A   1      36.835  31.746  30.509  1.00  0.00     0.338 C 
ATOM     30  O   UNL A   1      36.011  31.369  31.324  1.00  0.00    -0.246 OA
BRANCH  29  31
ATOM     31  C   UNL A   1      37.939  30.882  30.056  1.00  0.00     0.060 A 
ATOM     32  C   UNL A   1      38.939  30.574  30.987  1.00  0.00     0.016 A 
ATOM     33  C   UNL A   1      38.060  30.486  28.723  1.00  0.00     0.016 A 
ATOM     34  C   UNL A   1      40.092  29.912  30.578  1.00  0.00     0.010 A 
ATOM     35  C   UNL A   1      39.227  29.832  28.311  1.00  0.00     0.010 A 
ATOM     36  C   UNL A   1      40.262  29.581  29.228  1.00  0.00    -0.014 A 
BRANCH  36  37
ATOM     37  C   UNL A   1      41.594  29.120  28.767  1.00  0.00     0.031 A 
ATOM     38  C   UNL A   1      42.726  30.110  28.714  1.00  0.00     0.074 A 
ATOM     39  C   UNL A   1      41.803  27.829  28.457  1.00  0.00     0.049 A 
ATOM     40  N   UNL A   1      43.974  29.922  28.368  1.00  0.00    -0.248 NA
ATOM     41  C   UNL A   1      42.412  31.493  29.108  1.00  0.00     0.031 C 
ATOM     42  C   UNL A   1      40.794  26.772  28.518  1.00  0.00     0.029 A 
ATOM     43  N   UNL A   1      42.940  27.188  28.035  1.00  0.00    -0.354 N 
ATOM     44  C   UNL A   1      44.593  31.159  28.500  1.00  0.00     0.074 A 
ATOM     45  C   UNL A   1      43.578  32.097  28.930  1.00  0.00     0.031 C 
ATOM     46  C   UNL A   1      41.358  25.612  28.139  1.00  0.00     0.029 A 
ATOM     47  C   UNL A   1      42.757  25.850  27.788  1.00  0.00     0.049 A 
ATOM     48  H   UNL A   1      43.804  27.644  27.920  1.00  0.00     0.167 HD
ATOM     49  C   UNL A   1      45.890  31.485  28.289  1.00  0.00     0.031 A 
ATOM     50  C   UNL A   1      43.616  24.924  27.316  1.00  0.00     0.031 A 
ATOM     51  C   UNL A   1      46.891  30.554  27.841  1.00  0.00     0.049 A 
ATOM     52  C   UNL A   1      45.037  25.324  27.021  1.00  0.00     0.074 A 
ATOM     53  C   UNL A   1      48.234  30.783  27.599  1.00  0.00     0.029 A 
ATOM     54  N   UNL A   1      46.656  29.216  27.560  1.00  0.00    -0.354 N 
ATOM     55  N   UNL A   1      45.611  26.494  27.169  1.00  0.00    -0.248 NA
ATOM     56  C   UNL A   1      45.928  24.276  26.503  1.00  0.00     0.031 C 
ATOM     57  C   UNL A   1      48.800  29.594  27.123  1.00  0.00     0.029 A 
ATOM     58  C   UNL A   1      47.822  28.612  27.123  1.00  0.00     0.049 A 
ATOM     59  H   UNL A   1      45.787  28.763  27.658  1.00  0.00     0.167 HD
ATOM     60  C   UNL A   1      46.936  26.318  26.784  1.00  0.00     0.074 A 
ATOM     61  C   UNL A   1      47.080  24.925  26.409  1.00  0.00     0.031 C 
ATOM     62  C   UNL A   1      47.944  27.225  26.747  1.00  0.00     0.031 A 
BRANCH  49  63
ATOM     63  C   UNL A   1      46.287  32.922  28.504  1.00  0.00    -0.014 A 
ATOM     64  C   UNL A   1      46.225  33.859  27.457  1.00  0.00     0.010 A 
ATOM     65  C   UNL A   1      46.708  33.344  29.778  1.00  0.00     0.010 A 
ATOM     66  C   UNL A   1      46.621  35.183  27.670  1.00  0.00     0.020 A 
ATOM     67  C   UNL A   1      47.080  34.674  30.001  1.00  0.00     0.020 A 
ATOM     68  C   UNL A   1      47.051  35.580  28.940  1.00  0.00     0.054 A 
BRANCH  68  69
ATOM     69  S   UNL A   1      47.551  37.306  29.191  1.00  0.00     0.124 S 
ATOM     70  O   UNL A   1      48.350  37.565  27.995  1.00  0.00    -0.237 OA
ATOM     71  O   UNL A   1      46.271  38.007  29.254  1.00  0.00    -0.237 OA
ATOM     72  O   UNL A   1      48.300  37.271  30.444  1.00  0.00    -0.744 OA
ENDBRANCH  68  69
ENDBRANCH  49  63
BRANCH  50  73
ATOM     73  C   UNL A   1      43.144  23.534  27.080  1.00  0.00    -0.014 A 
ATOM     74  C   UNL A   1      42.654  23.142  25.822  1.00  0.00     0.010 A 
ATOM     75  C   UNL A   1      43.203  22.584  28.117  1.00  0.00     0.010 A 
ATOM     76  C   UNL A   1      42.226  21.829  25.607  1.00  0.00     0.020 A 
ATOM     77  C   UNL A   1      42.799  21.264  27.899  1.00  0.00     0.020 A 
ATOM     78  C   UNL A   1      42.304  20.896  26.646  1.00  0.00     0.054 A 
BRANCH  78  79
ATOM     79  S   UNL A   1      41.808  19.180  26.327  1.00  0.00     0.124 S 
ATOM     80  O   UNL A   1      42.806  18.752  25.354  1.00  0.00    -0.237 OA
ATOM     81  O   UNL A   1      41.910  18.571  27.651  1.00  0.00    -0.237 OA
ATOM     82  O   UNL A   1      40.446  19.310  25.814  1.00  0.00    -0.744 OA
ENDBRANCH  78  79
ENDBRANCH  50  73
BRANCH  62  83
ATOM     83  C   UNL A   1      49.298  26.738  26.309  1.00  0.00    -0.014 A 
ATOM     84  C   UNL A   1      49.783  26.998  25.015  1.00  0.00     0.010 A 
ATOM     85  C   UNL A   1      50.122  26.059  27.227  1.00  0.00     0.010 A 
ATOM     86  C   UNL A   1      51.055  26.562  24.638  1.00  0.00     0.020 A 
ATOM     87  C   UNL A   1      51.404  25.643  26.861  1.00  0.00     0.020 A 
ATOM     88  C   UNL A   1      51.857  25.885  25.562  1.00  0.00     0.054 A 
BRANCH  88  89
ATOM     89  S   UNL A   1      53.522  25.367  25.062  1.00  0.00     0.124 S 
ATOM     90  O   UNL A   1      54.368  26.232  25.880  1.00  0.00    -0.237 OA
ATOM     91  O   UNL A   1      53.539  23.951  25.421  1.00  0.00    -0.237 OA
ATOM     92  O   UNL A   1      53.554  25.640  23.627  1.00  0.00    -0.744 OA
ENDBRANCH  88  89
ENDBRANCH  62  83
ENDBRANCH  36  37
ENDBRANCH  29  31
ENDBRANCH  28  29
ENDBRANCH  27  28
ENDBRANCH  26  27
ENDBRANCH  25  26
ENDBRANCH   1  25
TORSDOF 23
ENDMDL
MODEL 3
REMARK VINA RESULT:      -9.5      3.949      9.681
REMARK SMILES CC[C@@H](C)[C@H](NC(=O)CCc1ccc(F)c(F)c1)C(=O)OCCOCCOC(=O)c1ccc(-c2c3nc(c(-c4ccc(S(=O)(=O)[O-])cc4)c4ccc([nH]4)c(-c4ccc(S(=O)(=O)[O-])cc4)c4nc(c(-c5ccc(S(=O)(=O)[O-])cc5)c5ccc2[nH]5)C=C4)C=C3)cc1
REMARK SMILES IDX 23 1 22 2 21 3 19 4 20 5 5 6 3 7 4 8 2 9 1 10 6 11 7 12 8 14
REMARK SMILES IDX 9 15 10 16 11 17 12 18 18 19 13 20 16 21 14 22 17 23 15 24
REMARK SMILES IDX 24 25 25 26 26 27 27 28 28 29 29 30 30 31 31 32 89 33 32 34
REMARK SMILES IDX 88 35 33 36 34 37 35 38 82 39 36 40 87 41 81 42 83 43 37 44
REMARK SMILES IDX 86 45 80 46 79 47 38 49 68 50 49 51 67 52 50 53 53 54 66 55
REMARK SMILES IDX 84 56 51 57 52 58 65 60 85 61 54 62 39 63 40 64 48 65 41 66
REMARK SMILES IDX 47 67 42 68 43 69 44 70 45 71 46 72 69 73 70 74 78 75 71 76
REMARK SMILES IDX 77 77 72 78 73 79 74 80 75 81 76 82 55 83 56 84 64 85 57 86
REMARK SMILES IDX 63 87 58 88 59 89 60 90 61 91 62 92
REMARK H PARENT 6 13 83 48 53 59
REMARK Flexibility Score: inf
ROOT
ATOM      1  C   UNL A   1      36.403  22.158  25.675  1.00  0.00     0.202 C 
ENDROOT
BRANCH   1   2
ATOM      2  C   UNL A   1      35.998  23.603  25.357  1.00  0.00     0.261 C 
BRANCH   2   3
ATOM      3  O   UNL A   1      34.632  23.734  24.911  1.00  0.00    -0.462 OA
BRANCH   3   4
ATOM      4  C   UNL A   1      34.455  23.562  23.574  1.00  0.00     0.328 C 
ATOM      5  O   UNL A   1      35.354  23.293  22.781  1.00  0.00    -0.250 OA
BRANCH   4   6
ATOM      6  C   UNL A   1      33.022  23.838  23.087  1.00  0.00     0.195 C 
BRANCH   6   7
ATOM      7  C   UNL A   1      32.287  24.647  24.194  1.00  0.00     0.019 C 
ATOM      8  C   UNL A   1      30.968  23.990  24.621  1.00  0.00     0.010 C 
BRANCH   7   9
ATOM      9  C   UNL A   1      32.056  26.113  23.777  1.00  0.00     0.002 C 
ATOM     10  C   UNL A   1      33.180  27.026  24.250  1.00  0.00     0.004 C 
ENDBRANCH   7   9
ENDBRANCH   6   7
BRANCH   6  11
ATOM     11  N   UNL A   1      32.182  22.767  22.542  1.00  0.00    -0.343 N 
ATOM     12  C   UNL A   1      32.227  21.428  22.810  1.00  0.00     0.221 C 
ATOM     13  H   UNL A   1      31.494  23.050  21.896  1.00  0.00     0.164 HD
ATOM     14  O   UNL A   1      31.777  20.644  21.972  1.00  0.00    -0.275 OA
BRANCH  12  15
ATOM     15  C   UNL A   1      32.744  20.906  24.141  1.00  0.00     0.105 C 
BRANCH  15  16
ATOM     16  C   UNL A   1      34.014  20.052  24.098  1.00  0.00     0.045 C 
BRANCH  16  17
ATOM     17  C   UNL A   1      33.786  18.657  24.636  1.00  0.00    -0.044 A 
ATOM     18  C   UNL A   1      32.501  18.251  25.021  1.00  0.00     0.007 A 
ATOM     19  C   UNL A   1      34.835  17.718  24.658  1.00  0.00     0.046 A 
ATOM     20  C   UNL A   1      32.247  16.909  25.322  1.00  0.00     0.043 A 
ATOM     21  C   UNL A   1      34.570  16.384  24.958  1.00  0.00     0.159 A 
ATOM     22  C   UNL A   1      33.279  15.979  25.268  1.00  0.00     0.158 A 
ATOM     23  F   UNL A   1      35.569  15.491  24.910  1.00  0.00    -0.204 F 
ATOM     24  F   UNL A   1      33.014  14.689  25.509  1.00  0.00    -0.204 F 
ENDBRANCH  16  17
ENDBRANCH  15  16
ENDBRANCH  12  15
ENDBRANCH   6  11
ENDBRANCH   4   6
ENDBRANCH   3   4
ENDBRANCH   2   3
ENDBRANCH   1   2
BRANCH   1  25
ATOM     25  O   UNL A   1      37.570  21.645  25.037  1.00  0.00    -0.374 OA
BRANCH  25  26
ATOM     26  C   UNL A   1      37.689  20.230  24.935  1.00  0.00     0.202 C 
BRANCH  26  27
ATOM     27  C   UNL A   1      39.019  19.586  25.347  1.00  0.00     0.261 C 
BRANCH  27  28
ATOM     28  O   UNL A   1      39.899  20.505  26.018  1.00  0.00    -0.460 OA
BRANCH  28  29
ATOM     29  C   UNL A   1      41.156  20.030  26.214  1.00  0.00     0.338 C 
ATOM     30  O   UNL A   1      41.527  18.873  26.127  1.00  0.00    -0.246 OA
BRANCH  29  31
ATOM     31  C   UNL A   1      42.105  21.147  26.365  1.00  0.00     0.060 A 
ATOM     32  C   UNL A   1      42.439  21.535  27.669  1.00  0.00     0.016 A 
ATOM     33  C   UNL A   1      42.558  21.877  25.265  1.00  0.00     0.016 A 
ATOM     34  C   UNL A   1      43.188  22.688  27.882  1.00  0.00     0.010 A 
ATOM     35  C   UNL A   1      43.300  23.044  25.482  1.00  0.00     0.010 A 
ATOM     36  C   UNL A   1      43.581  23.474  26.791  1.00  0.00    -0.014 A 
BRANCH  36  37
ATOM     37  C   UNL A   1      44.142  24.822  27.046  1.00  0.00     0.031 A 
ATOM     38  C   UNL A   1      43.219  25.918  27.506  1.00  0.00     0.074 A 
ATOM     39  C   UNL A   1      45.462  25.050  26.926  1.00  0.00     0.049 A 
ATOM     40  N   UNL A   1      43.496  27.160  27.811  1.00  0.00    -0.248 NA
ATOM     41  C   UNL A   1      41.796  25.567  27.646  1.00  0.00     0.031 C 
ATOM     42  C   UNL A   1      46.458  24.053  26.534  1.00  0.00     0.029 A 
ATOM     43  N   UNL A   1      46.190  26.194  27.129  1.00  0.00    -0.354 N 
ATOM     44  C   UNL A   1      42.286  27.738  28.177  1.00  0.00     0.074 A 
ATOM     45  C   UNL A   1      41.268  26.720  28.029  1.00  0.00     0.031 C 
ATOM     46  C   UNL A   1      47.670  24.633  26.520  1.00  0.00     0.029 A 
ATOM     47  C   UNL A   1      47.532  26.045  26.876  1.00  0.00     0.049 A 
ATOM     48  H   UNL A   1      45.789  27.042  27.426  1.00  0.00     0.167 HD
ATOM     49  C   UNL A   1      42.044  29.000  28.604  1.00  0.00     0.031 A 
ATOM     50  C   UNL A   1      48.532  26.947  26.913  1.00  0.00     0.031 A 
ATOM     51  C   UNL A   1      43.057  30.015  28.729  1.00  0.00     0.049 A 
ATOM     52  C   UNL A   1      48.229  28.364  27.323  1.00  0.00     0.074 A 
ATOM     53  C   UNL A   1      42.916  31.324  29.155  1.00  0.00     0.029 A 
ATOM     54  N   UNL A   1      44.397  29.835  28.423  1.00  0.00    -0.354 N 
ATOM     55  N   UNL A   1      47.082  28.889  27.683  1.00  0.00    -0.248 NA
ATOM     56  C   UNL A   1      49.356  29.306  27.338  1.00  0.00     0.031 C 
ATOM     57  C   UNL A   1      44.164  31.951  29.057  1.00  0.00     0.029 A 
ATOM     58  C   UNL A   1      45.091  31.016  28.624  1.00  0.00     0.049 A 
ATOM     59  H   UNL A   1      44.796  28.992  28.107  1.00  0.00     0.167 HD
ATOM     60  C   UNL A   1      47.355  30.218  27.991  1.00  0.00     0.074 A 
ATOM     61  C   UNL A   1      48.776  30.411  27.786  1.00  0.00     0.031 C 
ATOM     62  C   UNL A   1      46.506  31.190  28.408  1.00  0.00     0.031 A 
BRANCH  49  63
ATOM     63  C   UNL A   1      40.618  29.360  28.927  1.00  0.00    -0.014 A 
ATOM     64  C   UNL A   1      39.671  29.570  27.909  1.00  0.00     0.010 A 
ATOM     65  C   UNL A   1      40.215  29.470  30.270  1.00  0.00     0.010 A 
ATOM     66  C   UNL A   1      38.358  29.927  28.228  1.00  0.00     0.020 A 
ATOM     67  C   UNL A   1      38.896  29.801  30.594  1.00  0.00     0.020 A 
ATOM     68  C   UNL A   1      37.981  30.046  29.569  1.00  0.00     0.054 A 
BRANCH  68  69
ATOM     69  S   UNL A   1      36.267  30.503  29.956  1.00  0.00     0.124 S 
ATOM     70  O   UNL A   1      35.574  30.140  28.722  1.00  0.00    -0.237 OA
ATOM     71  O   UNL A   1      35.965  29.666  31.115  1.00  0.00    -0.237 OA
ATOM     72  O   UNL A   1      36.344  31.935  30.229  1.00  0.00    -0.744 OA
ENDBRANCH  68  69
ENDBRANCH  49  63
BRANCH  50  73
ATOM     73  C   UNL A   1      49.910  26.535  26.533  1.00  0.00    -0.014 A 
ATOM     74  C   UNL A   1      50.804  26.034  27.494  1.00  0.00     0.010 A 
ATOM     75  C   UNL A   1      50.328  26.628  25.192  1.00  0.00     0.010 A 
ATOM     76  C   UNL A   1      52.093  25.639  27.123  1.00  0.00     0.020 A 
ATOM     77  C   UNL A   1      51.607  26.210  24.813  1.00  0.00     0.020 A 
ATOM     78  C   UNL A   1      52.485  25.726  25.784  1.00  0.00     0.054 A 
BRANCH  78  79
ATOM     79  S   UNL A   1      54.138  25.143  25.312  1.00  0.00     0.124 S 
ATOM     80  O   UNL A   1      54.869  25.254  26.570  1.00  0.00    -0.237 OA
ATOM     81  O   UNL A   1      53.873  23.783  24.849  1.00  0.00    -0.237 OA
ATOM     82  O   UNL A   1      54.543  26.080  24.266  1.00  0.00    -0.744 OA
ENDBRANCH  78  79
ENDBRANCH  50  73
BRANCH  62  83
ATOM     83  C   UNL A   1      47.093  32.545  28.696  1.00  0.00    -0.014 A 
ATOM     84  C   UNL A   1      47.713  32.824  29.927  1.00  0.00     0.010 A 
ATOM     85  C   UNL A   1      47.075  33.536  27.697  1.00  0.00     0.010 A 
ATOM     86  C   UNL A   1      48.278  34.079  30.164  1.00  0.00     0.020 A 
ATOM     87  C   UNL A   1      47.660  34.785  27.921  1.00  0.00     0.020 A 
ATOM     88  C   UNL A   1      48.246  35.053  29.160  1.00  0.00     0.054 A 
BRANCH  88  89
ATOM     89  S   UNL A   1      49.024  36.661  29.476  1.00  0.00     0.124 S 
ATOM     90  O   UNL A   1      48.255  37.152  30.616  1.00  0.00    -0.237 OA
ATOM     91  O   UNL A   1      50.410  36.297  29.762  1.00  0.00    -0.237 OA
ATOM     92  O   UNL A   1      48.825  37.393  28.228  1.00  0.00    -0.744 OA
ENDBRANCH  88  89
ENDBRANCH  62  83
ENDBRANCH  36  37
ENDBRANCH  29  31
ENDBRANCH  28  29
ENDBRANCH  27  28
ENDBRANCH  26  27
ENDBRANCH  25  26
ENDBRANCH   1  25
TORSDOF 23
ENDMDL
