MODEL 1
REMARK VINA RESULT:     -12.3      0.000      0.000
REMARK SMILES NS(=O)(=O)c1ccc(-n2nc(C(=O)OCCOCCOC(=O)c3ccc(-c4c5nc(c(-c6ccc(S(=O)(=O)[O-])cc6)c6ccc([nH]6)c(-c6ccc(S(=O)(=O)[O-])cc6)c6nc(c(-c7ccc(S(=O)(=O)[O-])cc7)c7ccc4[nH]7)C=C6)C=C5)cc3)c(Cl)c2-c2ccc(Cl)cc2)cc1
REMARK SMILES IDX 17 1 16 2 15 3 14 4 12 5 13 6 11 7 9 8 10 9 85 10 83 11
REMARK SMILES IDX 84 12 8 13 5 14 6 15 94 16 7 17 93 18 2 19 3 20 4 21 1 22
REMARK SMILES IDX 86 25 87 26 92 27 88 28 91 29 89 30 90 31 18 32 19 33 20 34
REMARK SMILES IDX 21 35 22 36 23 37 24 38 82 39 25 40 81 41 26 42 27 43 28 44
REMARK SMILES IDX 75 45 29 46 80 47 74 48 76 49 30 50 79 51 73 52 72 53 31 55
REMARK SMILES IDX 61 56 42 57 60 58 43 59 46 60 59 61 77 62 44 63 45 64 58 66
REMARK SMILES IDX 78 67 47 68 32 69 33 70 41 71 34 72 40 73 35 74 36 75 37 76
REMARK SMILES IDX 38 77 39 78 62 79 63 80 71 81 64 82 70 83 65 84 66 85 67 86
REMARK SMILES IDX 68 87 69 88 48 89 49 90 57 91 50 92 56 93 51 94 52 95 53 96
REMARK SMILES IDX 54 97 55 98
REMARK H PARENT 1 23 1 24 76 54 46 65
REMARK Flexibility Score: inf
ROOT
ATOM      1  O   UNL A   1      37.016  22.494  23.808  1.00  0.00    -0.374 OA
ENDROOT
BRANCH   1   2
ATOM      2  C   UNL A   1      35.745  22.914  23.314  1.00  0.00     0.202 C 
BRANCH   2   3
ATOM      3  C   UNL A   1      34.522  22.132  23.784  1.00  0.00     0.261 C 
BRANCH   3   4
ATOM      4  O   UNL A   1      33.330  22.582  23.123  1.00  0.00    -0.458 OA
BRANCH   4   5
ATOM      5  C   UNL A   1      32.198  22.678  23.881  1.00  0.00     0.360 C 
ATOM      6  O   UNL A   1      31.493  21.724  24.187  1.00  0.00    -0.244 OA
BRANCH   5   7
ATOM      7  C   UNL A   1      31.940  24.055  24.321  1.00  0.00     0.190 A 
ATOM      8  N   UNL A   1      31.225  26.079  24.243  1.00  0.00    -0.231 N 
ATOM      9  N   UNL A   1      31.020  24.841  23.724  1.00  0.00    -0.159 NA
ATOM     10  C   UNL A   1      32.203  26.079  25.226  1.00  0.00     0.094 A 
ATOM     11  C   UNL A   1      32.579  24.755  25.366  1.00  0.00     0.102 A 
ATOM     12  Cl  UNL A   1      33.679  24.124  26.509  1.00  0.00    -0.079 Cl
BRANCH   8  13
ATOM     13  C   UNL A   1      30.515  27.185  23.706  1.00  0.00     0.065 A 
ATOM     14  C   UNL A   1      29.123  29.310  22.561  1.00  0.00     0.082 A 
ATOM     15  C   UNL A   1      30.515  29.249  22.439  1.00  0.00     0.024 A 
ATOM     16  C   UNL A   1      28.426  28.329  23.275  1.00  0.00     0.024 A 
ATOM     17  C   UNL A   1      31.218  28.200  23.041  1.00  0.00     0.030 A 
ATOM     18  C   UNL A   1      29.120  27.254  23.833  1.00  0.00     0.030 A 
BRANCH  14  19
ATOM     19  S   UNL A   1      28.215  30.636  21.822  1.00  0.00     0.238 S 
ATOM     20  O   UNL A   1      27.164  31.064  22.724  1.00  0.00    -0.207 OA
ATOM     21  O   UNL A   1      27.966  30.313  20.441  1.00  0.00    -0.207 OA
BRANCH  19  22
ATOM     22  N   UNL A   1      29.332  31.891  21.820  1.00  0.00    -0.225 NA
ATOM     23  H   UNL A   1      30.207  31.566  21.406  1.00  0.00     0.137 HD
ATOM     24  H   UNL A   1      29.502  32.196  22.778  1.00  0.00     0.137 HD
ENDBRANCH  19  22
ENDBRANCH  14  19
ENDBRANCH   8  13
BRANCH  10  25
ATOM     25  C   UNL A   1      32.695  27.223  25.989  1.00  0.00     0.002 A 
ATOM     26  C   UNL A   1      31.774  27.960  26.751  1.00  0.00     0.012 A 
ATOM     27  C   UNL A   1      34.018  27.669  25.897  1.00  0.00     0.012 A 
ATOM     28  C   UNL A   1      32.151  29.149  27.371  1.00  0.00     0.021 A 
ATOM     29  C   UNL A   1      34.401  28.855  26.533  1.00  0.00     0.021 A 
ATOM     30  C   UNL A   1      33.463  29.596  27.253  1.00  0.00     0.041 A 
ATOM     31  Cl  UNL A   1      33.916  31.081  27.989  1.00  0.00    -0.084 Cl
ENDBRANCH  10  25
ENDBRANCH   5   7
ENDBRANCH   4   5
ENDBRANCH   3   4
ENDBRANCH   2   3
ENDBRANCH   1   2
BRANCH   1  32
ATOM     32  C   UNL A   1      37.146  22.041  25.151  1.00  0.00     0.202 C 
BRANCH  32  33
ATOM     33  C   UNL A   1      38.546  21.873  25.726  1.00  0.00     0.261 C 
BRANCH  33  34
ATOM     34  O   UNL A   1      38.765  22.711  26.847  1.00  0.00    -0.460 OA
BRANCH  34  35
ATOM     35  C   UNL A   1      40.049  22.723  27.281  1.00  0.00     0.338 C 
ATOM     36  O   UNL A   1      40.660  21.805  27.798  1.00  0.00    -0.246 OA
BRANCH  35  37
ATOM     37  C   UNL A   1      40.551  24.096  27.174  1.00  0.00     0.060 A 
ATOM     38  C   UNL A   1      41.762  24.344  27.823  1.00  0.00     0.016 A 
ATOM     39  C   UNL A   1      39.674  25.125  26.801  1.00  0.00     0.016 A 
ATOM     40  C   UNL A   1      41.946  25.587  28.375  1.00  0.00     0.010 A 
ATOM     41  C   UNL A   1      39.853  26.360  27.364  1.00  0.00     0.010 A 
ATOM     42  C   UNL A   1      40.923  26.531  28.237  1.00  0.00    -0.014 A 
BRANCH  42  43
ATOM     43  C   UNL A   1      41.023  27.759  28.986  1.00  0.00     0.031 A 
ATOM     44  C   UNL A   1      42.107  28.616  28.475  1.00  0.00     0.074 A 
ATOM     45  C   UNL A   1      40.142  28.094  29.946  1.00  0.00     0.049 A 
ATOM     46  N   UNL A   1      43.285  28.772  28.980  1.00  0.00    -0.248 NA
ATOM     47  C   UNL A   1      41.954  29.149  27.111  1.00  0.00     0.031 C 
ATOM     48  C   UNL A   1      38.894  27.416  30.318  1.00  0.00     0.029 A 
ATOM     49  N   UNL A   1      40.133  29.194  30.738  1.00  0.00    -0.354 N 
ATOM     50  C   UNL A   1      43.922  29.653  28.118  1.00  0.00     0.074 A 
ATOM     51  C   UNL A   1      43.183  29.611  26.883  1.00  0.00     0.031 C 
ATOM     52  C   UNL A   1      38.146  28.246  31.085  1.00  0.00     0.029 A 
ATOM     53  C   UNL A   1      38.923  29.439  31.376  1.00  0.00     0.049 A 
ATOM     54  H   UNL A   1      40.920  29.774  30.852  1.00  0.00     0.167 HD
ATOM     55  C   UNL A   1      44.752  30.618  28.597  1.00  0.00     0.031 A 
ATOM     56  C   UNL A   1      38.587  30.576  32.040  1.00  0.00     0.031 A 
ATOM     57  C   UNL A   1      45.147  30.346  29.957  1.00  0.00     0.049 A 
ATOM     58  C   UNL A   1      39.861  31.246  32.400  1.00  0.00     0.074 A 
ATOM     59  C   UNL A   1      45.858  29.355  30.601  1.00  0.00     0.029 A 
ATOM     60  N   UNL A   1      44.418  30.997  30.924  1.00  0.00    -0.354 N 
ATOM     61  N   UNL A   1      40.735  30.726  33.218  1.00  0.00    -0.248 NA
ATOM     62  C   UNL A   1      40.378  32.280  31.517  1.00  0.00     0.031 C 
ATOM     63  C   UNL A   1      45.233  29.208  31.875  1.00  0.00     0.029 A 
ATOM     64  C   UNL A   1      44.205  30.149  31.979  1.00  0.00     0.049 A 
ATOM     65  H   UNL A   1      44.097  31.926  30.867  1.00  0.00     0.167 HD
ATOM     66  C   UNL A   1      41.969  31.043  32.669  1.00  0.00     0.074 A 
ATOM     67  C   UNL A   1      41.689  32.104  31.704  1.00  0.00     0.031 C 
ATOM     68  C   UNL A   1      43.043  30.216  32.846  1.00  0.00     0.031 A 
BRANCH  55  69
ATOM     69  C   UNL A   1      44.757  32.024  28.034  1.00  0.00    -0.014 A 
ATOM     70  C   UNL A   1      45.749  32.371  27.099  1.00  0.00     0.010 A 
ATOM     71  C   UNL A   1      44.020  33.088  28.604  1.00  0.00     0.010 A 
ATOM     72  C   UNL A   1      46.034  33.712  26.809  1.00  0.00     0.020 A 
ATOM     73  C   UNL A   1      44.265  34.422  28.291  1.00  0.00     0.020 A 
ATOM     74  C   UNL A   1      45.296  34.728  27.420  1.00  0.00     0.054 A 
BRANCH  74  75
ATOM     75  S   UNL A   1      45.742  36.455  27.132  1.00  0.00     0.124 S 
ATOM     76  O   UNL A   1      46.774  36.329  26.108  1.00  0.00    -0.237 OA
ATOM     77  O   UNL A   1      44.474  37.028  26.691  1.00  0.00    -0.237 OA
ATOM     78  O   UNL A   1      46.206  36.911  28.440  1.00  0.00    -0.744 OA
ENDBRANCH  74  75
ENDBRANCH  55  69
BRANCH  56  79
ATOM     79  C   UNL A   1      37.284  31.293  32.024  1.00  0.00    -0.014 A 
ATOM     80  C   UNL A   1      36.676  31.735  33.217  1.00  0.00     0.010 A 
ATOM     81  C   UNL A   1      36.789  31.814  30.810  1.00  0.00     0.010 A 
ATOM     82  C   UNL A   1      35.654  32.702  33.198  1.00  0.00     0.020 A 
ATOM     83  C   UNL A   1      35.770  32.776  30.783  1.00  0.00     0.020 A 
ATOM     84  C   UNL A   1      35.221  33.233  31.979  1.00  0.00     0.054 A 
BRANCH  84  85
ATOM     85  S   UNL A   1      34.020  34.601  31.968  1.00  0.00     0.124 S 
ATOM     86  O   UNL A   1      34.838  35.735  32.387  1.00  0.00    -0.237 OA
ATOM     87  O   UNL A   1      33.574  34.623  30.578  1.00  0.00    -0.237 OA
ATOM     88  O   UNL A   1      33.008  34.178  32.935  1.00  0.00    -0.744 OA
ENDBRANCH  84  85
ENDBRANCH  56  79
BRANCH  68  89
ATOM     89  C   UNL A   1      42.942  29.148  33.914  1.00  0.00    -0.014 A 
ATOM     90  C   UNL A   1      43.473  29.279  35.213  1.00  0.00     0.010 A 
ATOM     91  C   UNL A   1      42.149  28.025  33.625  1.00  0.00     0.010 A 
ATOM     92  C   UNL A   1      43.219  28.303  36.192  1.00  0.00     0.020 A 
ATOM     93  C   UNL A   1      41.882  27.060  34.597  1.00  0.00     0.020 A 
ATOM     94  C   UNL A   1      42.420  27.199  35.877  1.00  0.00     0.054 A 
BRANCH  94  95
ATOM     95  S   UNL A   1      42.037  25.970  37.159  1.00  0.00     0.124 S 
ATOM     96  O   UNL A   1      42.266  24.705  36.466  1.00  0.00    -0.237 OA
ATOM     97  O   UNL A   1      42.995  26.293  38.215  1.00  0.00    -0.237 OA
ATOM     98  O   UNL A   1      40.641  26.245  37.497  1.00  0.00    -0.744 OA
ENDBRANCH  94  95
ENDBRANCH  68  89
ENDBRANCH  42  43
ENDBRANCH  35  37
ENDBRANCH  34  35
ENDBRANCH  33  34
ENDBRANCH  32  33
ENDBRANCH   1  32
TORSDOF 21
ENDMDL
MODEL 2
REMARK VINA RESULT:     -11.6      3.434      5.643
REMARK SMILES NS(=O)(=O)c1ccc(-n2nc(C(=O)OCCOCCOC(=O)c3ccc(-c4c5nc(c(-c6ccc(S(=O)(=O)[O-])cc6)c6ccc([nH]6)c(-c6ccc(S(=O)(=O)[O-])cc6)c6nc(c(-c7ccc(S(=O)(=O)[O-])cc7)c7ccc4[nH]7)C=C6)C=C5)cc3)c(Cl)c2-c2ccc(Cl)cc2)cc1
REMARK SMILES IDX 17 1 16 2 15 3 14 4 12 5 13 6 11 7 9 8 10 9 85 10 83 11
REMARK SMILES IDX 84 12 8 13 5 14 6 15 94 16 7 17 93 18 2 19 3 20 4 21 1 22
REMARK SMILES IDX 86 25 87 26 92 27 88 28 91 29 89 30 90 31 18 32 19 33 20 34
REMARK SMILES IDX 21 35 22 36 23 37 24 38 82 39 25 40 81 41 26 42 27 43 28 44
REMARK SMILES IDX 75 45 29 46 80 47 74 48 76 49 30 50 79 51 73 52 72 53 31 55
REMARK SMILES IDX 61 56 42 57 60 58 43 59 46 60 59 61 77 62 44 63 45 64 58 66
REMARK SMILES IDX 78 67 47 68 32 69 33 70 41 71 34 72 40 73 35 74 36 75 37 76
REMARK SMILES IDX 38 77 39 78 62 79 63 80 71 81 64 82 70 83 65 84 66 85 67 86
REMARK SMILES IDX 68 87 69 88 48 89 49 90 57 91 50 92 56 93 51 94 52 95 53 96
REMARK SMILES IDX 54 97 55 98
REMARK H PARENT 1 23 1 24 76 54 46 65
REMARK Flexibility Score: inf
ROOT
ATOM      1  O   UNL A   1      43.636  21.402  26.090  1.00  0.00    -0.374 OA
ENDROOT
BRANCH   1   2
ATOM      2  C   UNL A   1      43.023  20.116  26.171  1.00  0.00     0.202 C 
BRANCH   2   3
ATOM      3  C   UNL A   1      41.531  20.035  25.864  1.00  0.00     0.261 C 
BRANCH   3   4
ATOM      4  O   UNL A   1      40.757  20.739  26.846  1.00  0.00    -0.458 OA
BRANCH   4   5
ATOM      5  C   UNL A   1      40.307  21.982  26.508  1.00  0.00     0.360 C 
ATOM      6  O   UNL A   1      41.023  22.974  26.430  1.00  0.00    -0.244 OA
BRANCH   5   7
ATOM      7  C   UNL A   1      38.869  21.993  26.211  1.00  0.00     0.190 A 
ATOM      8  N   UNL A   1      36.951  21.256  25.583  1.00  0.00    -0.231 N 
ATOM      9  N   UNL A   1      38.156  20.856  26.065  1.00  0.00    -0.159 NA
ATOM     10  C   UNL A   1      36.852  22.638  25.501  1.00  0.00     0.094 A 
ATOM     11  C   UNL A   1      38.041  23.119  26.022  1.00  0.00     0.102 A 
ATOM     12  Cl  UNL A   1      38.451  24.756  26.278  1.00  0.00    -0.079 Cl
BRANCH   8  13
ATOM     13  C   UNL A   1      36.008  20.280  25.169  1.00  0.00     0.065 A 
ATOM     14  C   UNL A   1      34.164  18.398  24.261  1.00  0.00     0.082 A 
ATOM     15  C   UNL A   1      33.740  19.701  24.546  1.00  0.00     0.024 A 
ATOM     16  C   UNL A   1      35.498  18.024  24.454  1.00  0.00     0.024 A 
ATOM     17  C   UNL A   1      34.658  20.638  25.033  1.00  0.00     0.030 A 
ATOM     18  C   UNL A   1      36.427  18.972  24.890  1.00  0.00     0.030 A 
BRANCH  14  19
ATOM     19  S   UNL A   1      33.016  17.194  23.661  1.00  0.00     0.238 S 
ATOM     20  O   UNL A   1      33.602  15.873  23.768  1.00  0.00    -0.207 OA
ATOM     21  O   UNL A   1      32.428  17.682  22.441  1.00  0.00    -0.207 OA
BRANCH  19  22
ATOM     22  N   UNL A   1      31.801  17.233  24.820  1.00  0.00    -0.225 NA
ATOM     23  H   UNL A   1      30.898  17.074  24.371  1.00  0.00     0.137 HD
ATOM     24  H   UNL A   1      31.797  18.144  25.278  1.00  0.00     0.137 HD
ENDBRANCH  19  22
ENDBRANCH  14  19
ENDBRANCH   8  13
BRANCH  10  25
ATOM     25  C   UNL A   1      35.717  23.420  25.020  1.00  0.00     0.002 A 
ATOM     26  C   UNL A   1      35.494  23.488  23.636  1.00  0.00     0.012 A 
ATOM     27  C   UNL A   1      34.920  24.184  25.880  1.00  0.00     0.012 A 
ATOM     28  C   UNL A   1      34.528  24.342  23.110  1.00  0.00     0.021 A 
ATOM     29  C   UNL A   1      33.937  25.029  25.353  1.00  0.00     0.021 A 
ATOM     30  C   UNL A   1      33.757  25.116  23.972  1.00  0.00     0.041 A 
ATOM     31  Cl  UNL A   1      32.590  26.194  23.319  1.00  0.00    -0.084 Cl
ENDBRANCH  10  25
ENDBRANCH   5   7
ENDBRANCH   4   5
ENDBRANCH   3   4
ENDBRANCH   2   3
ENDBRANCH   1   2
BRANCH   1  32
ATOM     32  C   UNL A   1      44.767  21.603  25.249  1.00  0.00     0.202 C 
BRANCH  32  33
ATOM     33  C   UNL A   1      44.689  22.679  24.176  1.00  0.00     0.261 C 
BRANCH  33  34
ATOM     34  O   UNL A   1      43.670  23.627  24.445  1.00  0.00    -0.460 OA
BRANCH  34  35
ATOM     35  C   UNL A   1      44.133  24.811  24.914  1.00  0.00     0.338 C 
ATOM     36  O   UNL A   1      45.236  25.295  24.734  1.00  0.00    -0.246 OA
BRANCH  35  37
ATOM     37  C   UNL A   1      43.127  25.361  25.829  1.00  0.00     0.060 A 
ATOM     38  C   UNL A   1      42.235  26.272  25.262  1.00  0.00     0.016 A 
ATOM     39  C   UNL A   1      43.331  25.271  27.213  1.00  0.00     0.016 A 
ATOM     40  C   UNL A   1      41.785  27.300  26.053  1.00  0.00     0.010 A 
ATOM     41  C   UNL A   1      42.892  26.305  27.997  1.00  0.00     0.010 A 
ATOM     42  C   UNL A   1      42.230  27.360  27.377  1.00  0.00    -0.014 A 
BRANCH  42  43
ATOM     43  C   UNL A   1      41.927  28.542  28.146  1.00  0.00     0.031 A 
ATOM     44  C   UNL A   1      43.008  29.538  28.052  1.00  0.00     0.074 A 
ATOM     45  C   UNL A   1      40.744  28.719  28.761  1.00  0.00     0.049 A 
ATOM     46  N   UNL A   1      43.923  29.785  28.928  1.00  0.00    -0.248 NA
ATOM     47  C   UNL A   1      43.252  30.139  26.729  1.00  0.00     0.031 C 
ATOM     48  C   UNL A   1      39.535  27.892  28.674  1.00  0.00     0.029 A 
ATOM     49  N   UNL A   1      40.340  29.759  29.531  1.00  0.00    -0.354 N 
ATOM     50  C   UNL A   1      44.699  30.781  28.353  1.00  0.00     0.074 A 
ATOM     51  C   UNL A   1      44.422  30.741  26.940  1.00  0.00     0.031 C 
ATOM     52  C   UNL A   1      38.481  28.587  29.164  1.00  0.00     0.029 A 
ATOM     53  C   UNL A   1      38.967  29.835  29.730  1.00  0.00     0.049 A 
ATOM     54  H   UNL A   1      40.969  30.411  29.918  1.00  0.00     0.167 HD
ATOM     55  C   UNL A   1      45.200  31.796  29.109  1.00  0.00     0.031 A 
ATOM     56  C   UNL A   1      38.295  30.884  30.270  1.00  0.00     0.031 A 
ATOM     57  C   UNL A   1      45.151  31.480  30.515  1.00  0.00     0.049 A 
ATOM     58  C   UNL A   1      39.287  31.661  31.055  1.00  0.00     0.074 A 
ATOM     59  C   UNL A   1      45.723  30.531  31.335  1.00  0.00     0.029 A 
ATOM     60  N   UNL A   1      44.070  31.987  31.195  1.00  0.00    -0.354 N 
ATOM     61  N   UNL A   1      39.896  31.184  32.106  1.00  0.00    -0.248 NA
ATOM     62  C   UNL A   1      39.939  32.798  30.424  1.00  0.00     0.031 C 
ATOM     63  C   UNL A   1      44.733  30.237  32.320  1.00  0.00     0.029 A 
ATOM     64  C   UNL A   1      43.623  31.056  32.095  1.00  0.00     0.049 A 
ATOM     65  H   UNL A   1      43.676  32.879  31.056  1.00  0.00     0.167 HD
ATOM     66  C   UNL A   1      41.194  31.663  32.013  1.00  0.00     0.074 A 
ATOM     67  C   UNL A   1      41.125  32.749  31.038  1.00  0.00     0.031 C 
ATOM     68  C   UNL A   1      42.240  30.945  32.521  1.00  0.00     0.031 A 
BRANCH  55  69
ATOM     69  C   UNL A   1      45.222  33.227  28.615  1.00  0.00    -0.014 A 
ATOM     70  C   UNL A   1      46.415  33.964  28.737  1.00  0.00     0.010 A 
ATOM     71  C   UNL A   1      44.051  33.961  28.318  1.00  0.00     0.010 A 
ATOM     72  C   UNL A   1      46.417  35.361  28.639  1.00  0.00     0.020 A 
ATOM     73  C   UNL A   1      44.048  35.345  28.175  1.00  0.00     0.020 A 
ATOM     74  C   UNL A   1      45.227  36.042  28.372  1.00  0.00     0.054 A 
BRANCH  74  75
ATOM     75  S   UNL A   1      45.214  37.849  28.360  1.00  0.00     0.124 S 
ATOM     76  O   UNL A   1      44.157  38.132  27.395  1.00  0.00    -0.237 OA
ATOM     77  O   UNL A   1      44.906  38.160  29.753  1.00  0.00    -0.237 OA
ATOM     78  O   UNL A   1      46.567  38.197  27.933  1.00  0.00    -0.744 OA
ENDBRANCH  74  75
ENDBRANCH  55  69
BRANCH  56  79
ATOM     79  C   UNL A   1      36.995  31.461  29.834  1.00  0.00    -0.014 A 
ATOM     80  C   UNL A   1      35.981  31.767  30.764  1.00  0.00     0.010 A 
ATOM     81  C   UNL A   1      36.869  31.994  28.534  1.00  0.00     0.010 A 
ATOM     82  C   UNL A   1      34.915  32.620  30.423  1.00  0.00     0.020 A 
ATOM     83  C   UNL A   1      35.809  32.844  28.187  1.00  0.00     0.020 A 
ATOM     84  C   UNL A   1      34.847  33.171  29.140  1.00  0.00     0.054 A 
BRANCH  84  85
ATOM     85  S   UNL A   1      33.564  34.404  28.755  1.00  0.00     0.124 S 
ATOM     86  O   UNL A   1      34.343  35.491  28.171  1.00  0.00    -0.237 OA
ATOM     87  O   UNL A   1      32.695  33.682  27.830  1.00  0.00    -0.237 OA
ATOM     88  O   UNL A   1      32.969  34.700  30.058  1.00  0.00    -0.744 OA
ENDBRANCH  84  85
ENDBRANCH  56  79
BRANCH  68  89
ATOM     89  C   UNL A   1      41.920  29.806  33.465  1.00  0.00    -0.014 A 
ATOM     90  C   UNL A   1      41.614  28.495  33.044  1.00  0.00     0.010 A 
ATOM     91  C   UNL A   1      42.079  30.047  34.840  1.00  0.00     0.010 A 
ATOM     92  C   UNL A   1      41.463  27.459  33.981  1.00  0.00     0.020 A 
ATOM     93  C   UNL A   1      41.945  29.018  35.774  1.00  0.00     0.020 A 
ATOM     94  C   UNL A   1      41.634  27.728  35.343  1.00  0.00     0.054 A 
BRANCH  94  95
ATOM     95  S   UNL A   1      41.504  26.377  36.550  1.00  0.00     0.124 S 
ATOM     96  O   UNL A   1      40.626  26.944  37.570  1.00  0.00    -0.237 OA
ATOM     97  O   UNL A   1      40.934  25.288  35.760  1.00  0.00    -0.237 OA
ATOM     98  O   UNL A   1      42.887  26.160  36.978  1.00  0.00    -0.744 OA
ENDBRANCH  94  95
ENDBRANCH  68  89
ENDBRANCH  42  43
ENDBRANCH  35  37
ENDBRANCH  34  35
ENDBRANCH  33  34
ENDBRANCH  32  33
ENDBRANCH   1  32
TORSDOF 21
ENDMDL
MODEL 3
REMARK VINA RESULT:     -11.5      3.412      9.845
REMARK SMILES NS(=O)(=O)c1ccc(-n2nc(C(=O)OCCOCCOC(=O)c3ccc(-c4c5nc(c(-c6ccc(S(=O)(=O)[O-])cc6)c6ccc([nH]6)c(-c6ccc(S(=O)(=O)[O-])cc6)c6nc(c(-c7ccc(S(=O)(=O)[O-])cc7)c7ccc4[nH]7)C=C6)C=C5)cc3)c(Cl)c2-c2ccc(Cl)cc2)cc1
REMARK SMILES IDX 17 1 16 2 15 3 14 4 12 5 13 6 11 7 9 8 10 9 85 10 83 11
REMARK SMILES IDX 84 12 8 13 5 14 6 15 94 16 7 17 93 18 2 19 3 20 4 21 1 22
REMARK SMILES IDX 86 25 87 26 92 27 88 28 91 29 89 30 90 31 18 32 19 33 20 34
REMARK SMILES IDX 21 35 22 36 23 37 24 38 82 39 25 40 81 41 26 42 27 43 28 44
REMARK SMILES IDX 75 45 29 46 80 47 74 48 76 49 30 50 79 51 73 52 72 53 31 55
REMARK SMILES IDX 61 56 42 57 60 58 43 59 46 60 59 61 77 62 44 63 45 64 58 66
REMARK SMILES IDX 78 67 47 68 32 69 33 70 41 71 34 72 40 73 35 74 36 75 37 76
REMARK SMILES IDX 38 77 39 78 62 79 63 80 71 81 64 82 70 83 65 84 66 85 67 86
REMARK SMILES IDX 68 87 69 88 48 89 49 90 57 91 50 92 56 93 51 94 52 95 53 96
REMARK SMILES IDX 54 97 55 98
REMARK H PARENT 1 23 1 24 76 54 46 65
REMARK Flexibility Score: inf
ROOT
ATOM      1  O   UNL A   1      32.423  29.983  25.073  1.00  0.00    -0.374 OA
ENDROOT
BRANCH   1   2
ATOM      2  C   UNL A   1      31.559  29.258  24.199  1.00  0.00     0.202 C 
BRANCH   2   3
ATOM      3  C   UNL A   1      31.076  27.891  24.673  1.00  0.00     0.261 C 
BRANCH   3   4
ATOM      4  O   UNL A   1      31.286  26.886  23.669  1.00  0.00    -0.458 OA
BRANCH   4   5
ATOM      5  C   UNL A   1      30.802  25.637  23.929  1.00  0.00     0.360 C 
ATOM      6  O   UNL A   1      29.613  25.378  24.077  1.00  0.00    -0.244 OA
BRANCH   5   7
ATOM      7  C   UNL A   1      31.865  24.626  23.974  1.00  0.00     0.190 A 
ATOM      8  N   UNL A   1      32.781  22.694  24.183  1.00  0.00    -0.231 N 
ATOM      9  N   UNL A   1      31.608  23.305  23.878  1.00  0.00    -0.159 NA
ATOM     10  C   UNL A   1      33.808  23.604  24.388  1.00  0.00     0.094 A 
ATOM     11  C   UNL A   1      33.250  24.845  24.132  1.00  0.00     0.102 A 
ATOM     12  Cl  UNL A   1      34.065  26.345  24.120  1.00  0.00    -0.079 Cl
BRANCH   8  13
ATOM     13  C   UNL A   1      32.815  21.282  24.326  1.00  0.00     0.065 A 
ATOM     14  C   UNL A   1      32.970  18.509  24.556  1.00  0.00     0.082 A 
ATOM     15  C   UNL A   1      32.499  19.079  23.368  1.00  0.00     0.024 A 
ATOM     16  C   UNL A   1      33.338  19.316  25.638  1.00  0.00     0.024 A 
ATOM     17  C   UNL A   1      32.389  20.471  23.263  1.00  0.00     0.030 A 
ATOM     18  C   UNL A   1      33.279  20.706  25.516  1.00  0.00     0.030 A 
BRANCH  14  19
ATOM     19  S   UNL A   1      33.100  16.752  24.716  1.00  0.00     0.238 S 
ATOM     20  O   UNL A   1      33.885  16.225  23.618  1.00  0.00    -0.207 OA
ATOM     21  O   UNL A   1      31.809  16.223  25.069  1.00  0.00    -0.207 OA
BRANCH  19  22
ATOM     22  N   UNL A   1      34.070  16.578  26.076  1.00  0.00    -0.225 NA
ATOM     23  H   UNL A   1      34.937  16.106  25.817  1.00  0.00     0.137 HD
ATOM     24  H   UNL A   1      33.578  16.024  26.777  1.00  0.00     0.137 HD
ENDBRANCH  19  22
ENDBRANCH  14  19
ENDBRANCH   8  13
BRANCH  10  25
ATOM     25  C   UNL A   1      35.194  23.314  24.744  1.00  0.00     0.002 A 
ATOM     26  C   UNL A   1      35.918  22.429  23.931  1.00  0.00     0.012 A 
ATOM     27  C   UNL A   1      35.780  23.799  25.919  1.00  0.00     0.012 A 
ATOM     28  C   UNL A   1      37.187  21.992  24.305  1.00  0.00     0.021 A 
ATOM     29  C   UNL A   1      37.061  23.374  26.287  1.00  0.00     0.021 A 
ATOM     30  C   UNL A   1      37.751  22.461  25.487  1.00  0.00     0.041 A 
ATOM     31  Cl  UNL A   1      39.300  21.893  25.964  1.00  0.00    -0.084 Cl
ENDBRANCH  10  25
ENDBRANCH   5   7
ENDBRANCH   4   5
ENDBRANCH   3   4
ENDBRANCH   2   3
ENDBRANCH   1   2
BRANCH   1  32
ATOM     32  C   UNL A   1      32.157  30.018  26.471  1.00  0.00     0.202 C 
BRANCH  32  33
ATOM     33  C   UNL A   1      32.877  31.057  27.319  1.00  0.00     0.261 C 
BRANCH  33  34
ATOM     34  O   UNL A   1      33.948  30.494  28.056  1.00  0.00    -0.460 OA
BRANCH  34  35
ATOM     35  C   UNL A   1      34.675  31.404  28.750  1.00  0.00     0.338 C 
ATOM     36  O   UNL A   1      34.258  32.237  29.534  1.00  0.00    -0.246 OA
BRANCH  35  37
ATOM     37  C   UNL A   1      36.062  31.332  28.278  1.00  0.00     0.060 A 
ATOM     38  C   UNL A   1      36.402  30.163  27.595  1.00  0.00     0.016 A 
ATOM     39  C   UNL A   1      37.025  32.185  28.833  1.00  0.00     0.016 A 
ATOM     40  C   UNL A   1      37.683  29.690  27.740  1.00  0.00     0.010 A 
ATOM     41  C   UNL A   1      38.299  31.705  28.989  1.00  0.00     0.010 A 
ATOM     42  C   UNL A   1      38.569  30.415  28.543  1.00  0.00    -0.014 A 
BRANCH  42  43
ATOM     43  C   UNL A   1      39.843  29.819  28.863  1.00  0.00     0.031 A 
ATOM     44  C   UNL A   1      40.100  29.843  30.313  1.00  0.00     0.074 A 
ATOM     45  C   UNL A   1      40.614  29.223  27.937  1.00  0.00     0.049 A 
ATOM     46  N   UNL A   1      40.861  30.663  30.960  1.00  0.00    -0.248 NA
ATOM     47  C   UNL A   1      39.210  29.037  31.166  1.00  0.00     0.031 C 
ATOM     48  C   UNL A   1      40.297  28.930  26.534  1.00  0.00     0.029 A 
ATOM     49  N   UNL A   1      41.834  28.652  28.094  1.00  0.00    -0.354 N 
ATOM     50  C   UNL A   1      40.740  30.279  32.288  1.00  0.00     0.074 A 
ATOM     51  C   UNL A   1      39.531  29.501  32.373  1.00  0.00     0.031 C 
ATOM     52  C   UNL A   1      41.193  28.036  26.050  1.00  0.00     0.029 A 
ATOM     53  C   UNL A   1      42.220  27.814  27.054  1.00  0.00     0.049 A 
ATOM     54  H   UNL A   1      42.401  28.817  28.881  1.00  0.00     0.167 HD
ATOM     55  C   UNL A   1      41.818  30.297  33.118  1.00  0.00     0.031 A 
ATOM     56  C   UNL A   1      43.280  26.964  27.066  1.00  0.00     0.031 A 
ATOM     57  C   UNL A   1      42.892  31.086  32.569  1.00  0.00     0.049 A 
ATOM     58  C   UNL A   1      44.205  27.459  28.115  1.00  0.00     0.074 A 
ATOM     59  C   UNL A   1      43.075  32.411  32.235  1.00  0.00     0.029 A 
ATOM     60  N   UNL A   1      43.866  30.377  31.907  1.00  0.00    -0.354 N 
ATOM     61  N   UNL A   1      44.810  28.613  28.047  1.00  0.00    -0.248 NA
ATOM     62  C   UNL A   1      44.120  26.883  29.448  1.00  0.00     0.031 C 
ATOM     63  C   UNL A   1      43.916  32.399  31.083  1.00  0.00     0.029 A 
ATOM     64  C   UNL A   1      44.257  31.074  30.795  1.00  0.00     0.049 A 
ATOM     65  H   UNL A   1      44.225  29.503  32.186  1.00  0.00     0.167 HD
ATOM     66  C   UNL A   1      44.792  29.103  29.345  1.00  0.00     0.074 A 
ATOM     67  C   UNL A   1      44.475  27.944  30.178  1.00  0.00     0.031 C 
ATOM     68  C   UNL A   1      44.752  30.448  29.583  1.00  0.00     0.031 A 
BRANCH  55  69
ATOM     69  C   UNL A   1      42.075  29.193  34.122  1.00  0.00    -0.014 A 
ATOM     70  C   UNL A   1      42.324  27.893  33.645  1.00  0.00     0.010 A 
ATOM     71  C   UNL A   1      41.788  29.319  35.501  1.00  0.00     0.010 A 
ATOM     72  C   UNL A   1      42.219  26.778  34.488  1.00  0.00     0.020 A 
ATOM     73  C   UNL A   1      41.723  28.223  36.357  1.00  0.00     0.020 A 
ATOM     74  C   UNL A   1      41.905  26.954  35.837  1.00  0.00     0.054 A 
BRANCH  74  75
ATOM     75  S   UNL A   1      41.657  25.509  36.893  1.00  0.00     0.124 S 
ATOM     76  O   UNL A   1      42.338  24.466  36.134  1.00  0.00    -0.237 OA
ATOM     77  O   UNL A   1      42.308  25.923  38.133  1.00  0.00    -0.237 OA
ATOM     78  O   UNL A   1      40.204  25.386  36.968  1.00  0.00    -0.744 OA
ENDBRANCH  74  75
ENDBRANCH  55  69
BRANCH  56  79
ATOM     79  C   UNL A   1      43.346  25.577  26.533  1.00  0.00    -0.014 A 
ATOM     80  C   UNL A   1      43.679  25.326  25.187  1.00  0.00     0.010 A 
ATOM     81  C   UNL A   1      43.379  24.486  27.426  1.00  0.00     0.010 A 
ATOM     82  C   UNL A   1      44.086  24.046  24.765  1.00  0.00     0.020 A 
ATOM     83  C   UNL A   1      43.783  23.209  27.014  1.00  0.00     0.020 A 
ATOM     84  C   UNL A   1      44.156  22.998  25.688  1.00  0.00     0.054 A 
BRANCH  84  85
ATOM     85  S   UNL A   1      44.842  21.392  25.178  1.00  0.00     0.124 S 
ATOM     86  O   UNL A   1      44.727  21.452  23.724  1.00  0.00    -0.237 OA
ATOM     87  O   UNL A   1      46.202  21.443  25.707  1.00  0.00    -0.237 OA
ATOM     88  O   UNL A   1      43.963  20.421  25.828  1.00  0.00    -0.744 OA
ENDBRANCH  84  85
ENDBRANCH  56  79
BRANCH  68  89
ATOM     89  C   UNL A   1      45.065  31.376  28.429  1.00  0.00    -0.014 A 
ATOM     90  C   UNL A   1      44.129  31.756  27.445  1.00  0.00     0.010 A 
ATOM     91  C   UNL A   1      46.324  32.000  28.430  1.00  0.00     0.010 A 
ATOM     92  C   UNL A   1      44.454  32.728  26.484  1.00  0.00     0.020 A 
ATOM     93  C   UNL A   1      46.647  32.978  27.487  1.00  0.00     0.020 A 
ATOM     94  C   UNL A   1      45.713  33.337  26.515  1.00  0.00     0.054 A 
BRANCH  94  95
ATOM     95  S   UNL A   1      46.111  34.641  25.315  1.00  0.00     0.124 S 
ATOM     96  O   UNL A   1      45.264  34.295  24.176  1.00  0.00    -0.237 OA
ATOM     97  O   UNL A   1      45.742  35.862  26.028  1.00  0.00    -0.237 OA
ATOM     98  O   UNL A   1      47.547  34.478  25.088  1.00  0.00    -0.744 OA
ENDBRANCH  94  95
ENDBRANCH  68  89
ENDBRANCH  42  43
ENDBRANCH  35  37
ENDBRANCH  34  35
ENDBRANCH  33  34
ENDBRANCH  32  33
ENDBRANCH   1  32
TORSDOF 21
ENDMDL
