MODEL 1
REMARK VINA RESULT:      -9.8      0.000      0.000
REMARK SMILES CCOC(=O)C1=NN(c2ccc(OC(F)(F)F)cc2)[C@@](C)(C(=O)OCCOCCOC(=O)c2ccc(-c3c4nc(c(-c5ccc(S(=O)(=O)[O-])cc5)c5ccc([nH]5)c(-c5ccc(S(=O)(=O)[O-])cc5)c5nc(c(-c6ccc(S(=O)(=O)[O-])cc6)c6ccc3[nH]6)C=C5)C=C4)cc2)C1
REMARK SMILES IDX 27 1 26 2 25 3 24 4 22 5 23 6 20 7 6 8 7 9 93 10 8 11 21 12
REMARK SMILES IDX 4 13 5 14 3 15 2 16 1 17 9 18 10 19 19 20 11 21 18 22 12 23
REMARK SMILES IDX 13 24 14 25 15 26 16 27 17 28 28 29 29 30 30 31 31 32 32 33
REMARK SMILES IDX 33 34 34 35 92 36 35 37 91 38 36 39 37 40 38 41 85 42 39 43
REMARK SMILES IDX 90 44 84 45 86 46 40 47 89 48 83 49 82 50 41 52 71 53 52 54
REMARK SMILES IDX 70 55 53 56 56 57 69 58 87 59 54 60 55 61 68 63 88 64 57 65
REMARK SMILES IDX 42 66 43 67 51 68 44 69 50 70 45 71 46 72 47 73 48 74 49 75
REMARK SMILES IDX 72 76 73 77 81 78 74 79 80 80 75 81 76 82 77 83 78 84 79 85
REMARK SMILES IDX 58 86 59 87 67 88 60 89 66 90 61 91 62 92 63 93 64 94 65 95
REMARK H PARENT 86 51 56 62
REMARK Flexibility Score: inf
ROOT
ATOM      1  O   UNL A   1      35.243  23.863  25.028  1.00  0.00    -0.374 OA
ENDROOT
BRANCH   1   2
ATOM      2  C   UNL A   1      34.797  22.878  24.098  1.00  0.00     0.202 C 
BRANCH   2   3
ATOM      3  C   UNL A   1      34.292  23.365  22.735  1.00  0.00     0.261 C 
BRANCH   3   4
ATOM      4  O   UNL A   1      32.885  23.672  22.729  1.00  0.00    -0.461 OA
BRANCH   4   5
ATOM      5  C   UNL A   1      32.580  24.997  22.684  1.00  0.00     0.334 C 
ATOM      6  O   UNL A   1      33.100  25.791  21.899  1.00  0.00    -0.249 OA
BRANCH   5   7
ATOM      7  C   UNL A   1      31.548  25.465  23.731  1.00  0.00     0.163 C 
ATOM      8  C   UNL A   1      31.290  23.839  25.351  1.00  0.00     0.149 C 
ATOM      9  N   UNL A   1      32.063  24.706  25.922  1.00  0.00    -0.169 NA
ATOM     10  C   UNL A   1      30.660  24.246  24.067  1.00  0.00     0.108 C 
ATOM     11  N   UNL A   1      32.121  25.787  25.069  1.00  0.00    -0.248 N 
ATOM     12  C   UNL A   1      30.728  26.552  23.054  1.00  0.00     0.050 C 
BRANCH   8  13
ATOM     13  C   UNL A   1      31.007  22.484  25.927  1.00  0.00     0.354 C 
ATOM     14  O   UNL A   1      29.905  22.201  26.366  1.00  0.00    -0.245 OA
BRANCH  13  15
ATOM     15  O   UNL A   1      32.115  21.726  25.898  1.00  0.00    -0.461 OA
BRANCH  15  16
ATOM     16  C   UNL A   1      32.149  20.739  24.857  1.00  0.00     0.230 C 
ATOM     17  C   UNL A   1      33.055  19.585  25.244  1.00  0.00     0.049 C 
ENDBRANCH  15  16
ENDBRANCH  13  15
ENDBRANCH   8  13
BRANCH  11  18
ATOM     18  C   UNL A   1      32.556  26.987  25.617  1.00  0.00     0.061 A 
ATOM     19  C   UNL A   1      31.806  27.617  26.625  1.00  0.00     0.032 A 
ATOM     20  C   UNL A   1      33.662  27.699  25.145  1.00  0.00     0.032 A 
ATOM     21  C   UNL A   1      32.164  28.867  27.152  1.00  0.00     0.049 A 
ATOM     22  C   UNL A   1      34.027  28.955  25.660  1.00  0.00     0.049 A 
ATOM     23  C   UNL A   1      33.282  29.545  26.674  1.00  0.00     0.129 A 
BRANCH  23  24
ATOM     24  O   UNL A   1      33.522  30.756  27.254  1.00  0.00    -0.406 OA
BRANCH  24  25
ATOM     25  C   UNL A   1      34.702  30.891  28.030  1.00  0.00     0.573 C 
ATOM     26  F   UNL A   1      35.681  31.509  27.337  1.00  0.00    -0.132 F 
ATOM     27  F   UNL A   1      34.458  31.578  29.168  1.00  0.00    -0.132 F 
ATOM     28  F   UNL A   1      35.142  29.661  28.376  1.00  0.00    -0.132 F 
ENDBRANCH  24  25
ENDBRANCH  23  24
ENDBRANCH  11  18
ENDBRANCH   5   7
ENDBRANCH   4   5
ENDBRANCH   3   4
ENDBRANCH   2   3
ENDBRANCH   1   2
BRANCH   1  29
ATOM     29  C   UNL A   1      36.142  23.437  26.050  1.00  0.00     0.202 C 
BRANCH  29  30
ATOM     30  C   UNL A   1      37.014  22.207  25.776  1.00  0.00     0.261 C 
BRANCH  30  31
ATOM     31  O   UNL A   1      38.368  22.547  25.433  1.00  0.00    -0.460 OA
BRANCH  31  32
ATOM     32  C   UNL A   1      39.223  22.557  26.484  1.00  0.00     0.338 C 
ATOM     33  O   UNL A   1      39.883  21.620  26.903  1.00  0.00    -0.246 OA
BRANCH  32  34
ATOM     34  C   UNL A   1      39.419  23.933  26.984  1.00  0.00     0.060 A 
ATOM     35  C   UNL A   1      40.023  24.840  26.105  1.00  0.00     0.016 A 
ATOM     36  C   UNL A   1      39.124  24.306  28.298  1.00  0.00     0.016 A 
ATOM     37  C   UNL A   1      40.412  26.095  26.559  1.00  0.00     0.010 A 
ATOM     38  C   UNL A   1      39.519  25.572  28.754  1.00  0.00     0.010 A 
ATOM     39  C   UNL A   1      40.212  26.450  27.900  1.00  0.00    -0.014 A 
BRANCH  39  40
ATOM     40  C   UNL A   1      40.880  27.675  28.406  1.00  0.00     0.031 A 
ATOM     41  C   UNL A   1      42.376  27.802  28.278  1.00  0.00     0.074 A 
ATOM     42  C   UNL A   1      40.152  28.705  28.874  1.00  0.00     0.049 A 
ATOM     43  N   UNL A   1      43.143  28.832  28.531  1.00  0.00    -0.248 NA
ATOM     44  C   UNL A   1      43.104  26.616  27.797  1.00  0.00     0.031 C 
ATOM     45  C   UNL A   1      38.697  28.713  29.022  1.00  0.00     0.029 A 
ATOM     46  N   UNL A   1      40.540  29.954  29.290  1.00  0.00    -0.354 N 
ATOM     47  C   UNL A   1      44.440  28.420  28.241  1.00  0.00     0.074 A 
ATOM     48  C   UNL A   1      44.360  27.037  27.827  1.00  0.00     0.031 C 
ATOM     49  C   UNL A   1      38.313  29.915  29.484  1.00  0.00     0.029 A 
ATOM     50  C   UNL A   1      39.494  30.754  29.680  1.00  0.00     0.049 A 
ATOM     51  H   UNL A   1      41.479  30.249  29.306  1.00  0.00     0.167 HD
ATOM     52  C   UNL A   1      45.591  29.131  28.304  1.00  0.00     0.031 A 
ATOM     53  C   UNL A   1      39.486  32.021  30.142  1.00  0.00     0.031 A 
ATOM     54  C   UNL A   1      45.670  30.507  28.722  1.00  0.00     0.049 A 
ATOM     55  C   UNL A   1      40.783  32.781  30.231  1.00  0.00     0.074 A 
ATOM     56  C   UNL A   1      46.787  31.322  28.793  1.00  0.00     0.029 A 
ATOM     57  N   UNL A   1      44.593  31.269  29.147  1.00  0.00    -0.354 N 
ATOM     58  N   UNL A   1      41.993  32.388  29.910  1.00  0.00    -0.248 NA
ATOM     59  C   UNL A   1      40.707  34.162  30.724  1.00  0.00     0.031 C 
ATOM     60  C   UNL A   1      46.394  32.559  29.315  1.00  0.00     0.029 A 
ATOM     61  C   UNL A   1      45.022  32.536  29.510  1.00  0.00     0.049 A 
ATOM     62  H   UNL A   1      43.661  30.957  29.186  1.00  0.00     0.167 HD
ATOM     63  C   UNL A   1      42.820  33.482  30.144  1.00  0.00     0.074 A 
ATOM     64  C   UNL A   1      41.967  34.558  30.607  1.00  0.00     0.031 C 
ATOM     65  C   UNL A   1      44.164  33.590  29.988  1.00  0.00     0.031 A 
BRANCH  52  66
ATOM     66  C   UNL A   1      46.870  28.422  27.941  1.00  0.00    -0.014 A 
ATOM     67  C   UNL A   1      47.594  27.680  28.893  1.00  0.00     0.010 A 
ATOM     68  C   UNL A   1      47.333  28.464  26.612  1.00  0.00     0.010 A 
ATOM     69  C   UNL A   1      48.772  27.021  28.530  1.00  0.00     0.020 A 
ATOM     70  C   UNL A   1      48.497  27.785  26.241  1.00  0.00     0.020 A 
ATOM     71  C   UNL A   1      49.218  27.080  27.206  1.00  0.00     0.054 A 
BRANCH  71  72
ATOM     72  S   UNL A   1      50.733  26.191  26.755  1.00  0.00     0.124 S 
ATOM     73  O   UNL A   1      50.507  24.882  27.365  1.00  0.00    -0.237 OA
ATOM     74  O   UNL A   1      50.699  26.217  25.296  1.00  0.00    -0.237 OA
ATOM     75  O   UNL A   1      51.796  26.985  27.365  1.00  0.00    -0.744 OA
ENDBRANCH  71  72
ENDBRANCH  52  66
BRANCH  53  76
ATOM     76  C   UNL A   1      38.203  32.648  30.561  1.00  0.00    -0.014 A 
ATOM     77  C   UNL A   1      37.374  33.300  29.631  1.00  0.00     0.010 A 
ATOM     78  C   UNL A   1      37.805  32.595  31.910  1.00  0.00     0.010 A 
ATOM     79  C   UNL A   1      36.183  33.903  30.045  1.00  0.00     0.020 A 
ATOM     80  C   UNL A   1      36.601  33.170  32.322  1.00  0.00     0.020 A 
ATOM     81  C   UNL A   1      35.803  33.832  31.388  1.00  0.00     0.054 A 
BRANCH  81  82
ATOM     82  S   UNL A   1      34.225  34.573  31.896  1.00  0.00     0.124 S 
ATOM     83  O   UNL A   1      33.653  33.523  32.734  1.00  0.00    -0.237 OA
ATOM     84  O   UNL A   1      34.654  35.780  32.597  1.00  0.00    -0.237 OA
ATOM     85  O   UNL A   1      33.536  34.809  30.629  1.00  0.00    -0.744 OA
ENDBRANCH  81  82
ENDBRANCH  53  76
BRANCH  65  86
ATOM     86  C   UNL A   1      44.786  34.926  30.303  1.00  0.00    -0.014 A 
ATOM     87  C   UNL A   1      45.269  35.223  31.590  1.00  0.00     0.010 A 
ATOM     88  C   UNL A   1      44.892  35.899  29.291  1.00  0.00     0.010 A 
ATOM     89  C   UNL A   1      45.790  36.488  31.875  1.00  0.00     0.020 A 
ATOM     90  C   UNL A   1      45.441  37.154  29.565  1.00  0.00     0.020 A 
ATOM     91  C   UNL A   1      45.863  37.449  30.864  1.00  0.00     0.054 A 
BRANCH  91  92
ATOM     92  S   UNL A   1      46.532  39.089  31.258  1.00  0.00     0.124 S 
ATOM     93  O   UNL A   1      47.685  39.166  30.365  1.00  0.00    -0.237 OA
ATOM     94  O   UNL A   1      45.421  39.979  30.929  1.00  0.00    -0.237 OA
ATOM     95  O   UNL A   1      46.851  39.000  32.681  1.00  0.00    -0.744 OA
ENDBRANCH  91  92
ENDBRANCH  65  86
ENDBRANCH  39  40
ENDBRANCH  32  34
ENDBRANCH  31  32
ENDBRANCH  30  31
ENDBRANCH  29  30
ENDBRANCH   1  29
TORSDOF 23
ENDMDL
MODEL 2
REMARK VINA RESULT:      -9.7      5.639      7.501
REMARK SMILES CCOC(=O)C1=NN(c2ccc(OC(F)(F)F)cc2)[C@@](C)(C(=O)OCCOCCOC(=O)c2ccc(-c3c4nc(c(-c5ccc(S(=O)(=O)[O-])cc5)c5ccc([nH]5)c(-c5ccc(S(=O)(=O)[O-])cc5)c5nc(c(-c6ccc(S(=O)(=O)[O-])cc6)c6ccc3[nH]6)C=C5)C=C4)cc2)C1
REMARK SMILES IDX 27 1 26 2 25 3 24 4 22 5 23 6 20 7 6 8 7 9 93 10 8 11 21 12
REMARK SMILES IDX 4 13 5 14 3 15 2 16 1 17 9 18 10 19 19 20 11 21 18 22 12 23
REMARK SMILES IDX 13 24 14 25 15 26 16 27 17 28 28 29 29 30 30 31 31 32 32 33
REMARK SMILES IDX 33 34 34 35 92 36 35 37 91 38 36 39 37 40 38 41 85 42 39 43
REMARK SMILES IDX 90 44 84 45 86 46 40 47 89 48 83 49 82 50 41 52 71 53 52 54
REMARK SMILES IDX 70 55 53 56 56 57 69 58 87 59 54 60 55 61 68 63 88 64 57 65
REMARK SMILES IDX 42 66 43 67 51 68 44 69 50 70 45 71 46 72 47 73 48 74 49 75
REMARK SMILES IDX 72 76 73 77 81 78 74 79 80 80 75 81 76 82 77 83 78 84 79 85
REMARK SMILES IDX 58 86 59 87 67 88 60 89 66 90 61 91 62 92 63 93 64 94 65 95
REMARK H PARENT 86 51 56 62
REMARK Flexibility Score: inf
ROOT
ATOM      1  O   UNL A   1      39.450  22.397  26.902  1.00  0.00    -0.374 OA
ENDROOT
BRANCH   1   2
ATOM      2  C   UNL A   1      38.834  21.521  25.960  1.00  0.00     0.202 C 
BRANCH   2   3
ATOM      3  C   UNL A   1      37.681  22.080  25.119  1.00  0.00     0.261 C 
BRANCH   3   4
ATOM      4  O   UNL A   1      36.434  22.145  25.836  1.00  0.00    -0.461 OA
BRANCH   4   5
ATOM      5  C   UNL A   1      35.755  23.317  25.714  1.00  0.00     0.334 C 
ATOM      6  O   UNL A   1      36.292  24.394  25.456  1.00  0.00    -0.249 OA
BRANCH   5   7
ATOM      7  C   UNL A   1      34.236  23.219  25.965  1.00  0.00     0.163 C 
ATOM      8  C   UNL A   1      33.108  24.545  24.447  1.00  0.00     0.149 C 
ATOM      9  N   UNL A   1      32.969  23.354  23.960  1.00  0.00    -0.169 NA
ATOM     10  C   UNL A   1      33.661  24.646  25.824  1.00  0.00     0.108 C 
ATOM     11  N   UNL A   1      33.476  22.492  24.909  1.00  0.00    -0.248 N 
ATOM     12  C   UNL A   1      34.078  22.718  27.393  1.00  0.00     0.050 C 
BRANCH   8  13
ATOM     13  C   UNL A   1      32.732  25.789  23.699  1.00  0.00     0.354 C 
ATOM     14  O   UNL A   1      33.563  26.638  23.425  1.00  0.00    -0.245 OA
BRANCH  13  15
ATOM     15  O   UNL A   1      31.412  25.797  23.446  1.00  0.00    -0.461 OA
BRANCH  15  16
ATOM     16  C   UNL A   1      30.797  27.092  23.474  1.00  0.00     0.230 C 
ATOM     17  C   UNL A   1      29.298  26.967  23.678  1.00  0.00     0.049 C 
ENDBRANCH  15  16
ENDBRANCH  13  15
ENDBRANCH   8  13
BRANCH  11  18
ATOM     18  C   UNL A   1      33.093  21.160  24.804  1.00  0.00     0.061 A 
ATOM     19  C   UNL A   1      33.262  20.289  25.894  1.00  0.00     0.032 A 
ATOM     20  C   UNL A   1      32.642  20.574  23.618  1.00  0.00     0.032 A 
ATOM     21  C   UNL A   1      32.963  18.920  25.809  1.00  0.00     0.049 A 
ATOM     22  C   UNL A   1      32.346  19.204  23.519  1.00  0.00     0.049 A 
ATOM     23  C   UNL A   1      32.499  18.367  24.618  1.00  0.00     0.129 A 
BRANCH  23  24
ATOM     24  O   UNL A   1      32.256  17.025  24.655  1.00  0.00    -0.406 OA
BRANCH  24  25
ATOM     25  C   UNL A   1      33.369  16.153  24.535  1.00  0.00     0.573 C 
ATOM     26  F   UNL A   1      33.846  16.131  23.273  1.00  0.00    -0.132 F 
ATOM     27  F   UNL A   1      34.361  16.514  25.381  1.00  0.00    -0.132 F 
ATOM     28  F   UNL A   1      32.983  14.901  24.863  1.00  0.00    -0.132 F 
ENDBRANCH  24  25
ENDBRANCH  23  24
ENDBRANCH  11  18
ENDBRANCH   5   7
ENDBRANCH   4   5
ENDBRANCH   3   4
ENDBRANCH   2   3
ENDBRANCH   1   2
BRANCH   1  29
ATOM     29  C   UNL A   1      40.857  22.601  26.782  1.00  0.00     0.202 C 
BRANCH  29  30
ATOM     30  C   UNL A   1      41.357  24.021  26.493  1.00  0.00     0.261 C 
BRANCH  30  31
ATOM     31  O   UNL A   1      40.297  24.992  26.465  1.00  0.00    -0.460 OA
BRANCH  31  32
ATOM     32  C   UNL A   1      40.721  26.275  26.371  1.00  0.00     0.338 C 
ATOM     33  O   UNL A   1      41.257  26.802  25.409  1.00  0.00    -0.246 OA
BRANCH  32  34
ATOM     34  C   UNL A   1      40.283  27.058  27.543  1.00  0.00     0.060 A 
ATOM     35  C   UNL A   1      40.822  28.343  27.677  1.00  0.00     0.016 A 
ATOM     36  C   UNL A   1      39.458  26.527  28.538  1.00  0.00     0.016 A 
ATOM     37  C   UNL A   1      40.610  29.069  28.844  1.00  0.00     0.010 A 
ATOM     38  C   UNL A   1      39.246  27.261  29.714  1.00  0.00     0.010 A 
ATOM     39  C   UNL A   1      39.865  28.511  29.892  1.00  0.00    -0.014 A 
BRANCH  39  40
ATOM     40  C   UNL A   1      39.891  29.196  31.209  1.00  0.00     0.031 A 
ATOM     41  C   UNL A   1      41.015  28.901  32.169  1.00  0.00     0.074 A 
ATOM     42  C   UNL A   1      38.986  30.149  31.500  1.00  0.00     0.049 A 
ATOM     43  N   UNL A   1      41.302  29.478  33.307  1.00  0.00    -0.248 NA
ATOM     44  C   UNL A   1      41.938  27.817  31.796  1.00  0.00     0.031 C 
ATOM     45  C   UNL A   1      37.869  30.543  30.643  1.00  0.00     0.029 A 
ATOM     46  N   UNL A   1      38.881  30.973  32.593  1.00  0.00    -0.354 N 
ATOM     47  C   UNL A   1      42.437  28.830  33.785  1.00  0.00     0.074 A 
ATOM     48  C   UNL A   1      42.763  27.793  32.832  1.00  0.00     0.031 C 
ATOM     49  C   UNL A   1      37.196  31.544  31.237  1.00  0.00     0.029 A 
ATOM     50  C   UNL A   1      37.825  31.849  32.521  1.00  0.00     0.049 A 
ATOM     51  H   UNL A   1      39.504  30.941  33.354  1.00  0.00     0.167 HD
ATOM     52  C   UNL A   1      43.148  29.080  34.911  1.00  0.00     0.031 A 
ATOM     53  C   UNL A   1      37.410  32.791  33.391  1.00  0.00     0.031 A 
ATOM     54  C   UNL A   1      42.818  30.109  35.863  1.00  0.00     0.049 A 
ATOM     55  C   UNL A   1      38.200  33.031  34.650  1.00  0.00     0.074 A 
ATOM     56  C   UNL A   1      43.493  30.459  37.021  1.00  0.00     0.029 A 
ATOM     57  N   UNL A   1      41.718  30.947  35.775  1.00  0.00    -0.354 N 
ATOM     58  N   UNL A   1      39.295  32.438  35.063  1.00  0.00    -0.248 NA
ATOM     59  C   UNL A   1      37.709  34.084  35.548  1.00  0.00     0.031 C 
ATOM     60  C   UNL A   1      42.769  31.470  37.661  1.00  0.00     0.029 A 
ATOM     61  C   UNL A   1      41.677  31.795  36.871  1.00  0.00     0.049 A 
ATOM     62  H   UNL A   1      41.061  30.942  35.042  1.00  0.00     0.167 HD
ATOM     63  C   UNL A   1      39.635  33.060  36.260  1.00  0.00     0.074 A 
ATOM     64  C   UNL A   1      38.644  34.092  36.488  1.00  0.00     0.031 C 
ATOM     65  C   UNL A   1      40.674  32.804  37.095  1.00  0.00     0.031 A 
BRANCH  52  66
ATOM     66  C   UNL A   1      44.340  28.204  35.193  1.00  0.00    -0.014 A 
ATOM     67  C   UNL A   1      44.213  27.000  35.910  1.00  0.00     0.010 A 
ATOM     68  C   UNL A   1      45.604  28.571  34.695  1.00  0.00     0.010 A 
ATOM     69  C   UNL A   1      45.332  26.196  36.150  1.00  0.00     0.020 A 
ATOM     70  C   UNL A   1      46.720  27.758  34.911  1.00  0.00     0.020 A 
ATOM     71  C   UNL A   1      46.579  26.583  35.651  1.00  0.00     0.054 A 
BRANCH  71  72
ATOM     72  S   UNL A   1      48.010  25.507  35.950  1.00  0.00     0.124 S 
ATOM     73  O   UNL A   1      48.268  25.739  37.370  1.00  0.00    -0.237 OA
ATOM     74  O   UNL A   1      47.492  24.184  35.615  1.00  0.00    -0.237 OA
ATOM     75  O   UNL A   1      49.028  26.023  35.040  1.00  0.00    -0.744 OA
ENDBRANCH  71  72
ENDBRANCH  52  66
BRANCH  53  76
ATOM     76  C   UNL A   1      36.179  33.577  33.101  1.00  0.00    -0.014 A 
ATOM     77  C   UNL A   1      36.253  34.853  32.514  1.00  0.00     0.010 A 
ATOM     78  C   UNL A   1      34.916  33.042  33.417  1.00  0.00     0.010 A 
ATOM     79  C   UNL A   1      35.088  35.587  32.268  1.00  0.00     0.020 A 
ATOM     80  C   UNL A   1      33.749  33.760  33.145  1.00  0.00     0.020 A 
ATOM     81  C   UNL A   1      33.843  35.034  32.583  1.00  0.00     0.054 A 
BRANCH  81  82
ATOM     82  S   UNL A   1      32.341  35.979  32.204  1.00  0.00     0.124 S 
ATOM     83  O   UNL A   1      31.289  35.028  32.552  1.00  0.00    -0.237 OA
ATOM     84  O   UNL A   1      32.465  37.137  33.085  1.00  0.00    -0.237 OA
ATOM     85  O   UNL A   1      32.473  36.273  30.779  1.00  0.00    -0.744 OA
ENDBRANCH  81  82
ENDBRANCH  53  76
BRANCH  65  86
ATOM     86  C   UNL A   1      40.797  33.671  38.322  1.00  0.00    -0.014 A 
ATOM     87  C   UNL A   1      41.545  34.861  38.303  1.00  0.00     0.010 A 
ATOM     88  C   UNL A   1      40.149  33.289  39.511  1.00  0.00     0.010 A 
ATOM     89  C   UNL A   1      41.694  35.622  39.466  1.00  0.00     0.020 A 
ATOM     90  C   UNL A   1      40.269  34.063  40.668  1.00  0.00     0.020 A 
ATOM     91  C   UNL A   1      41.064  35.212  40.644  1.00  0.00     0.054 A 
BRANCH  91  92
ATOM     92  S   UNL A   1      41.279  36.207  42.146  1.00  0.00     0.124 S 
ATOM     93  O   UNL A   1      42.634  36.724  41.973  1.00  0.00    -0.237 OA
ATOM     94  O   UNL A   1      40.209  37.195  42.034  1.00  0.00    -0.237 OA
ATOM     95  O   UNL A   1      41.116  35.240  43.228  1.00  0.00    -0.744 OA
ENDBRANCH  91  92
ENDBRANCH  65  86
ENDBRANCH  39  40
ENDBRANCH  32  34
ENDBRANCH  31  32
ENDBRANCH  30  31
ENDBRANCH  29  30
ENDBRANCH   1  29
TORSDOF 23
ENDMDL
MODEL 3
REMARK VINA RESULT:      -9.3      3.320      8.511
REMARK SMILES CCOC(=O)C1=NN(c2ccc(OC(F)(F)F)cc2)[C@@](C)(C(=O)OCCOCCOC(=O)c2ccc(-c3c4nc(c(-c5ccc(S(=O)(=O)[O-])cc5)c5ccc([nH]5)c(-c5ccc(S(=O)(=O)[O-])cc5)c5nc(c(-c6ccc(S(=O)(=O)[O-])cc6)c6ccc3[nH]6)C=C5)C=C4)cc2)C1
REMARK SMILES IDX 27 1 26 2 25 3 24 4 22 5 23 6 20 7 6 8 7 9 93 10 8 11 21 12
REMARK SMILES IDX 4 13 5 14 3 15 2 16 1 17 9 18 10 19 19 20 11 21 18 22 12 23
REMARK SMILES IDX 13 24 14 25 15 26 16 27 17 28 28 29 29 30 30 31 31 32 32 33
REMARK SMILES IDX 33 34 34 35 92 36 35 37 91 38 36 39 37 40 38 41 85 42 39 43
REMARK SMILES IDX 90 44 84 45 86 46 40 47 89 48 83 49 82 50 41 52 71 53 52 54
REMARK SMILES IDX 70 55 53 56 56 57 69 58 87 59 54 60 55 61 68 63 88 64 57 65
REMARK SMILES IDX 42 66 43 67 51 68 44 69 50 70 45 71 46 72 47 73 48 74 49 75
REMARK SMILES IDX 72 76 73 77 81 78 74 79 80 80 75 81 76 82 77 83 78 84 79 85
REMARK SMILES IDX 58 86 59 87 67 88 60 89 66 90 61 91 62 92 63 93 64 94 65 95
REMARK H PARENT 86 51 56 62
REMARK Flexibility Score: inf
ROOT
ATOM      1  O   UNL A   1      33.578  30.393  26.399  1.00  0.00    -0.374 OA
ENDROOT
BRANCH   1   2
ATOM      2  C   UNL A   1      32.578  29.388  26.247  1.00  0.00     0.202 C 
BRANCH   2   3
ATOM      3  C   UNL A   1      33.036  27.925  26.242  1.00  0.00     0.261 C 
BRANCH   3   4
ATOM      4  O   UNL A   1      33.925  27.612  25.154  1.00  0.00    -0.461 OA
BRANCH   4   5
ATOM      5  C   UNL A   1      33.887  26.322  24.725  1.00  0.00     0.334 C 
ATOM      6  O   UNL A   1      34.412  25.386  25.329  1.00  0.00    -0.249 OA
BRANCH   5   7
ATOM      7  C   UNL A   1      33.161  26.102  23.382  1.00  0.00     0.163 C 
ATOM      8  C   UNL A   1      32.070  24.067  23.409  1.00  0.00     0.149 C 
ATOM      9  N   UNL A   1      31.119  24.917  23.631  1.00  0.00    -0.169 NA
ATOM     10  C   UNL A   1      33.381  24.626  22.984  1.00  0.00     0.108 C 
ATOM     11  N   UNL A   1      31.674  26.166  23.459  1.00  0.00    -0.248 N 
ATOM     12  C   UNL A   1      33.838  27.030  22.384  1.00  0.00     0.050 C 
BRANCH   8  13
ATOM     13  C   UNL A   1      31.899  22.584  23.549  1.00  0.00     0.354 C 
ATOM     14  O   UNL A   1      32.080  21.835  22.604  1.00  0.00    -0.245 OA
BRANCH  13  15
ATOM     15  O   UNL A   1      31.507  22.277  24.796  1.00  0.00    -0.461 OA
BRANCH  15  16
ATOM     16  C   UNL A   1      32.549  22.298  25.782  1.00  0.00     0.230 C 
ATOM     17  C   UNL A   1      32.135  23.132  26.980  1.00  0.00     0.049 C 
ENDBRANCH  15  16
ENDBRANCH  13  15
ENDBRANCH   8  13
BRANCH  11  18
ATOM     18  C   UNL A   1      30.788  27.216  23.256  1.00  0.00     0.061 A 
ATOM     19  C   UNL A   1      29.437  27.081  23.619  1.00  0.00     0.032 A 
ATOM     20  C   UNL A   1      31.125  28.398  22.590  1.00  0.00     0.032 A 
ATOM     21  C   UNL A   1      28.490  28.084  23.361  1.00  0.00     0.049 A 
ATOM     22  C   UNL A   1      30.184  29.406  22.319  1.00  0.00     0.049 A 
ATOM     23  C   UNL A   1      28.859  29.258  22.710  1.00  0.00     0.129 A 
BRANCH  23  24
ATOM     24  O   UNL A   1      27.850  30.153  22.504  1.00  0.00    -0.406 OA
BRANCH  24  25
ATOM     25  C   UNL A   1      27.883  31.363  23.244  1.00  0.00     0.573 C 
ATOM     26  F   UNL A   1      28.987  31.438  24.017  1.00  0.00    -0.132 F 
ATOM     27  F   UNL A   1      27.840  32.435  22.422  1.00  0.00    -0.132 F 
ATOM     28  F   UNL A   1      26.800  31.415  24.049  1.00  0.00    -0.132 F 
ENDBRANCH  24  25
ENDBRANCH  23  24
ENDBRANCH  11  18
ENDBRANCH   5   7
ENDBRANCH   4   5
ENDBRANCH   3   4
ENDBRANCH   2   3
ENDBRANCH   1   2
BRANCH   1  29
ATOM     29  C   UNL A   1      34.003  30.697  27.727  1.00  0.00     0.202 C 
BRANCH  29  30
ATOM     30  C   UNL A   1      35.233  29.966  28.275  1.00  0.00     0.261 C 
BRANCH  30  31
ATOM     31  O   UNL A   1      35.959  30.742  29.243  1.00  0.00    -0.460 OA
BRANCH  31  32
ATOM     32  C   UNL A   1      36.653  30.002  30.142  1.00  0.00     0.338 C 
ATOM     33  O   UNL A   1      36.191  29.236  30.973  1.00  0.00    -0.246 OA
BRANCH  32  34
ATOM     34  C   UNL A   1      38.103  30.085  29.880  1.00  0.00     0.060 A 
ATOM     35  C   UNL A   1      38.503  30.015  28.541  1.00  0.00     0.016 A 
ATOM     36  C   UNL A   1      39.053  30.124  30.904  1.00  0.00     0.016 A 
ATOM     37  C   UNL A   1      39.852  29.898  28.222  1.00  0.00     0.010 A 
ATOM     38  C   UNL A   1      40.412  30.004  30.581  1.00  0.00     0.010 A 
ATOM     39  C   UNL A   1      40.811  29.837  29.243  1.00  0.00    -0.014 A 
BRANCH  39  40
ATOM     40  C   UNL A   1      42.195  29.440  28.878  1.00  0.00     0.031 A 
ATOM     41  C   UNL A   1      42.456  28.032  28.408  1.00  0.00     0.074 A 
ATOM     42  C   UNL A   1      43.184  30.352  28.862  1.00  0.00     0.049 A 
ATOM     43  N   UNL A   1      43.553  27.514  27.918  1.00  0.00    -0.248 NA
ATOM     44  C   UNL A   1      41.332  27.085  28.495  1.00  0.00     0.031 C 
ATOM     45  C   UNL A   1      43.050  31.751  29.269  1.00  0.00     0.029 A 
ATOM     46  N   UNL A   1      44.493  30.239  28.466  1.00  0.00    -0.354 N 
ATOM     47  C   UNL A   1      43.254  26.185  27.640  1.00  0.00     0.074 A 
ATOM     48  C   UNL A   1      41.884  25.966  28.048  1.00  0.00     0.031 C 
ATOM     49  C   UNL A   1      44.229  32.371  29.089  1.00  0.00     0.029 A 
ATOM     50  C   UNL A   1      45.203  31.411  28.571  1.00  0.00     0.049 A 
ATOM     51  H   UNL A   1      44.886  29.399  28.136  1.00  0.00     0.167 HD
ATOM     52  C   UNL A   1      44.044  25.233  27.087  1.00  0.00     0.031 A 
ATOM     53  C   UNL A   1      46.491  31.682  28.283  1.00  0.00     0.031 A 
ATOM     54  C   UNL A   1      45.411  25.450  26.687  1.00  0.00     0.049 A 
ATOM     55  C   UNL A   1      47.358  30.600  27.696  1.00  0.00     0.074 A 
ATOM     56  C   UNL A   1      46.286  24.556  26.092  1.00  0.00     0.029 A 
ATOM     57  N   UNL A   1      46.104  26.639  26.848  1.00  0.00    -0.354 N 
ATOM     58  N   UNL A   1      47.045  29.361  27.399  1.00  0.00    -0.248 NA
ATOM     59  C   UNL A   1      48.747  30.961  27.386  1.00  0.00     0.031 C 
ATOM     60  C   UNL A   1      47.525  25.189  25.945  1.00  0.00     0.029 A 
ATOM     61  C   UNL A   1      47.405  26.496  26.390  1.00  0.00     0.049 A 
ATOM     62  H   UNL A   1      45.729  27.465  27.230  1.00  0.00     0.167 HD
ATOM     63  C   UNL A   1      48.193  28.801  26.849  1.00  0.00     0.074 A 
ATOM     64  C   UNL A   1      49.197  29.845  26.830  1.00  0.00     0.031 C 
ATOM     65  C   UNL A   1      48.400  27.538  26.396  1.00  0.00     0.031 A 
BRANCH  52  66
ATOM     66  C   UNL A   1      43.460  23.856  26.910  1.00  0.00    -0.014 A 
ATOM     67  C   UNL A   1      43.013  23.405  25.654  1.00  0.00     0.010 A 
ATOM     68  C   UNL A   1      43.394  22.983  28.012  1.00  0.00     0.010 A 
ATOM     69  C   UNL A   1      42.484  22.118  25.511  1.00  0.00     0.020 A 
ATOM     70  C   UNL A   1      42.890  21.688  27.867  1.00  0.00     0.020 A 
ATOM     71  C   UNL A   1      42.423  21.269  26.620  1.00  0.00     0.054 A 
BRANCH  71  72
ATOM     72  S   UNL A   1      41.761  19.594  26.401  1.00  0.00     0.124 S 
ATOM     73  O   UNL A   1      42.435  19.161  25.179  1.00  0.00    -0.237 OA
ATOM     74  O   UNL A   1      42.184  18.919  27.624  1.00  0.00    -0.237 OA
ATOM     75  O   UNL A   1      40.321  19.805  26.275  1.00  0.00    -0.744 OA
ENDBRANCH  71  72
ENDBRANCH  52  66
BRANCH  53  76
ATOM     76  C   UNL A   1      47.041  33.040  28.551  1.00  0.00    -0.014 A 
ATOM     77  C   UNL A   1      46.877  34.086  27.625  1.00  0.00     0.010 A 
ATOM     78  C   UNL A   1      47.738  33.289  29.747  1.00  0.00     0.010 A 
ATOM     79  C   UNL A   1      47.418  35.349  27.882  1.00  0.00     0.020 A 
ATOM     80  C   UNL A   1      48.254  34.558  30.021  1.00  0.00     0.020 A 
ATOM     81  C   UNL A   1      48.101  35.578  29.080  1.00  0.00     0.054 A 
BRANCH  81  82
ATOM     82  S   UNL A   1      48.748  37.239  29.420  1.00  0.00     0.124 S 
ATOM     83  O   UNL A   1      49.494  37.027  30.656  1.00  0.00    -0.237 OA
ATOM     84  O   UNL A   1      49.552  37.515  28.233  1.00  0.00    -0.237 OA
ATOM     85  O   UNL A   1      47.542  38.054  29.548  1.00  0.00    -0.744 OA
ENDBRANCH  81  82
ENDBRANCH  53  76
BRANCH  65  86
ATOM     86  C   UNL A   1      49.759  27.228  25.825  1.00  0.00    -0.014 A 
ATOM     87  C   UNL A   1      50.760  26.624  26.605  1.00  0.00     0.010 A 
ATOM     88  C   UNL A   1      50.036  27.543  24.481  1.00  0.00     0.010 A 
ATOM     89  C   UNL A   1      52.032  26.397  26.072  1.00  0.00     0.020 A 
ATOM     90  C   UNL A   1      51.297  27.289  23.935  1.00  0.00     0.020 A 
ATOM     91  C   UNL A   1      52.296  26.741  24.744  1.00  0.00     0.054 A 
BRANCH  91  92
ATOM     92  S   UNL A   1      53.956  26.449  24.075  1.00  0.00     0.124 S 
ATOM     93  O   UNL A   1      54.615  27.727  24.334  1.00  0.00    -0.237 OA
ATOM     94  O   UNL A   1      54.432  25.322  24.873  1.00  0.00    -0.237 OA
ATOM     95  O   UNL A   1      53.714  26.148  22.666  1.00  0.00    -0.744 OA
ENDBRANCH  91  92
ENDBRANCH  65  86
ENDBRANCH  39  40
ENDBRANCH  32  34
ENDBRANCH  31  32
ENDBRANCH  30  31
ENDBRANCH  29  30
ENDBRANCH   1  29
TORSDOF 23
ENDMDL
