MODEL 1
REMARK VINA RESULT:     -10.2      0.000      0.000
REMARK SMILES COc1cccc([C@H]2SC[C@@H](C(=O)OCCOCCOC(=O)c3ccc(-c4c5nc(c(-c6ccc(S(=O)(=O)[O-])cc6)c6ccc([nH]6)c(-c6ccc(S(=O)(=O)[O-])cc6)c6nc(c(-c7ccc(S(=O)(=O)[O-])cc7)c7ccc4[nH]7)C=C6)C=C5)cc3)N2C(C)=O)c1
REMARK SMILES IDX 18 1 17 2 16 3 15 4 14 5 12 6 13 7 11 8 8 9 9 10 83 11 10 12
REMARK SMILES IDX 7 13 3 14 4 15 87 16 5 17 6 18 2 19 1 20 84 21 85 22 86 23
REMARK SMILES IDX 19 24 20 25 21 26 22 27 23 28 24 29 82 30 25 31 81 32 26 33
REMARK SMILES IDX 27 34 28 35 75 36 29 37 80 38 74 39 76 40 30 41 79 42 73 43
REMARK SMILES IDX 72 44 31 46 61 47 42 48 60 49 43 50 46 51 59 52 77 53 44 54
REMARK SMILES IDX 45 55 58 57 78 58 47 59 32 60 33 61 41 62 34 63 40 64 35 65
REMARK SMILES IDX 36 66 37 67 38 68 39 69 62 70 63 71 71 72 64 73 70 74 65 75
REMARK SMILES IDX 66 76 67 77 68 78 69 79 48 80 49 81 57 82 50 83 56 84 51 85
REMARK SMILES IDX 52 86 53 87 54 88 55 89
REMARK H PARENT 76 45 46 56
REMARK Flexibility Score: inf
ROOT
ATOM      1  C   UNL A   1      39.269  22.574  26.471  1.00  0.00     0.202 C 
ENDROOT
BRANCH   1   2
ATOM      2  O   UNL A   1      38.440  21.615  25.819  1.00  0.00    -0.374 OA
BRANCH   2   3
ATOM      3  C   UNL A   1      37.606  22.112  24.769  1.00  0.00     0.202 C 
BRANCH   3   4
ATOM      4  C   UNL A   1      36.825  23.384  25.108  1.00  0.00     0.261 C 
BRANCH   4   5
ATOM      5  O   UNL A   1      35.697  23.102  25.965  1.00  0.00    -0.462 OA
BRANCH   5   6
ATOM      6  C   UNL A   1      34.537  23.733  25.655  1.00  0.00     0.329 C 
ATOM      7  O   UNL A   1      34.388  24.951  25.657  1.00  0.00    -0.250 OA
BRANCH   6   8
ATOM      8  C   UNL A   1      33.365  22.778  25.360  1.00  0.00     0.206 C 
ATOM      9  C   UNL A   1      31.350  23.436  24.084  1.00  0.00     0.175 C 
ATOM     10  S   UNL A   1      32.137  22.182  23.033  1.00  0.00    -0.129 SA
ATOM     11  N   UNL A   1      31.990  23.312  25.384  1.00  0.00    -0.312 N 
ATOM     12  C   UNL A   1      33.659  22.141  23.998  1.00  0.00     0.109 C 
BRANCH   9  13
ATOM     13  C   UNL A   1      31.382  24.832  23.494  1.00  0.00    -0.012 A 
ATOM     14  C   UNL A   1      32.467  26.628  22.244  1.00  0.00     0.119 A 
ATOM     15  C   UNL A   1      31.323  27.408  22.395  1.00  0.00     0.046 A 
ATOM     16  C   UNL A   1      32.480  25.336  22.768  1.00  0.00     0.053 A 
ATOM     17  C   UNL A   1      30.224  26.934  23.106  1.00  0.00     0.004 A 
ATOM     18  C   UNL A   1      30.262  25.663  23.670  1.00  0.00     0.007 A 
BRANCH  14  19
ATOM     19  O   UNL A   1      33.507  27.253  21.616  1.00  0.00    -0.497 OA
ATOM     20  C   UNL A   1      34.114  28.360  22.267  1.00  0.00     0.278 C 
ENDBRANCH  14  19
ENDBRANCH   9  13
BRANCH  11  21
ATOM     21  C   UNL A   1      31.187  23.443  26.502  1.00  0.00     0.221 C 
ATOM     22  C   UNL A   1      30.028  22.491  26.673  1.00  0.00     0.114 C 
ATOM     23  O   UNL A   1      31.326  24.360  27.313  1.00  0.00    -0.275 OA
ENDBRANCH  11  21
ENDBRANCH   6   8
ENDBRANCH   5   6
ENDBRANCH   4   5
ENDBRANCH   3   4
ENDBRANCH   2   3
ENDBRANCH   1   2
BRANCH   1  24
ATOM     24  C   UNL A   1      40.755  22.229  26.612  1.00  0.00     0.261 C 
BRANCH  24  25
ATOM     25  O   UNL A   1      41.431  23.025  27.596  1.00  0.00    -0.460 OA
BRANCH  25  26
ATOM     26  C   UNL A   1      42.040  24.127  27.105  1.00  0.00     0.338 C 
ATOM     27  O   UNL A   1      42.744  24.191  26.099  1.00  0.00    -0.246 OA
BRANCH  26  28
ATOM     28  C   UNL A   1      41.650  25.324  27.864  1.00  0.00     0.060 A 
ATOM     29  C   UNL A   1      42.633  26.286  28.121  1.00  0.00     0.016 A 
ATOM     30  C   UNL A   1      40.373  25.451  28.413  1.00  0.00     0.016 A 
ATOM     31  C   UNL A   1      42.359  27.357  28.969  1.00  0.00     0.010 A 
ATOM     32  C   UNL A   1      40.102  26.525  29.266  1.00  0.00     0.010 A 
ATOM     33  C   UNL A   1      41.101  27.467  29.576  1.00  0.00    -0.014 A 
BRANCH  33  34
ATOM     34  C   UNL A   1      40.873  28.477  30.642  1.00  0.00     0.031 A 
ATOM     35  C   UNL A   1      41.701  28.407  31.897  1.00  0.00     0.074 A 
ATOM     36  C   UNL A   1      39.950  29.445  30.498  1.00  0.00     0.049 A 
ATOM     37  N   UNL A   1      41.655  29.164  32.963  1.00  0.00    -0.248 NA
ATOM     38  C   UNL A   1      42.711  27.338  31.960  1.00  0.00     0.031 C 
ATOM     39  C   UNL A   1      39.103  29.642  29.323  1.00  0.00     0.029 A 
ATOM     40  N   UNL A   1      39.563  30.443  31.358  1.00  0.00    -0.354 N 
ATOM     41  C   UNL A   1      42.620  28.657  33.826  1.00  0.00     0.074 A 
ATOM     42  C   UNL A   1      43.200  27.500  33.180  1.00  0.00     0.031 C 
ATOM     43  C   UNL A   1      38.276  30.677  29.546  1.00  0.00     0.029 A 
ATOM     44  C   UNL A   1      38.530  31.213  30.880  1.00  0.00     0.049 A 
ATOM     45  H   UNL A   1      39.986  30.593  32.234  1.00  0.00     0.167 HD
ATOM     46  C   UNL A   1      43.005  29.120  35.039  1.00  0.00     0.031 A 
ATOM     47  C   UNL A   1      37.857  32.231  31.454  1.00  0.00     0.031 A 
ATOM     48  C   UNL A   1      42.426  30.267  35.683  1.00  0.00     0.049 A 
ATOM     49  C   UNL A   1      38.266  32.706  32.821  1.00  0.00     0.074 A 
ATOM     50  C   UNL A   1      42.767  30.840  36.895  1.00  0.00     0.029 A 
ATOM     51  N   UNL A   1      41.378  31.016  35.167  1.00  0.00    -0.354 N 
ATOM     52  N   UNL A   1      39.214  32.245  33.604  1.00  0.00    -0.248 NA
ATOM     53  C   UNL A   1      37.532  33.852  33.375  1.00  0.00     0.031 C 
ATOM     54  C   UNL A   1      41.892  31.906  37.135  1.00  0.00     0.029 A 
ATOM     55  C   UNL A   1      41.042  32.030  36.048  1.00  0.00     0.049 A 
ATOM     56  H   UNL A   1      40.938  30.850  34.302  1.00  0.00     0.167 HD
ATOM     57  C   UNL A   1      39.208  33.061  34.730  1.00  0.00     0.074 A 
ATOM     58  C   UNL A   1      38.169  34.049  34.523  1.00  0.00     0.031 C 
ATOM     59  C   UNL A   1      39.998  33.002  35.831  1.00  0.00     0.031 A 
BRANCH  46  60
ATOM     60  C   UNL A   1      44.088  28.352  35.752  1.00  0.00    -0.014 A 
ATOM     61  C   UNL A   1      45.449  28.655  35.550  1.00  0.00     0.010 A 
ATOM     62  C   UNL A   1      43.744  27.301  36.619  1.00  0.00     0.010 A 
ATOM     63  C   UNL A   1      46.443  27.877  36.150  1.00  0.00     0.020 A 
ATOM     64  C   UNL A   1      44.735  26.540  37.244  1.00  0.00     0.020 A 
ATOM     65  C   UNL A   1      46.079  26.817  36.984  1.00  0.00     0.054 A 
BRANCH  65  66
ATOM     66  S   UNL A   1      47.387  25.806  37.732  1.00  0.00     0.124 S 
ATOM     67  O   UNL A   1      48.582  26.588  37.424  1.00  0.00    -0.237 OA
ATOM     68  O   UNL A   1      47.005  25.776  39.142  1.00  0.00    -0.237 OA
ATOM     69  O   UNL A   1      47.281  24.528  37.034  1.00  0.00    -0.744 OA
ENDBRANCH  65  66
ENDBRANCH  46  60
BRANCH  47  70
ATOM     70  C   UNL A   1      36.736  32.875  30.717  1.00  0.00    -0.014 A 
ATOM     71  C   UNL A   1      35.405  32.504  30.972  1.00  0.00     0.010 A 
ATOM     72  C   UNL A   1      36.996  33.903  29.791  1.00  0.00     0.010 A 
ATOM     73  C   UNL A   1      34.352  33.151  30.314  1.00  0.00     0.020 A 
ATOM     74  C   UNL A   1      35.946  34.565  29.148  1.00  0.00     0.020 A 
ATOM     75  C   UNL A   1      34.630  34.183  29.412  1.00  0.00     0.054 A 
BRANCH  75  76
ATOM     76  S   UNL A   1      33.244  35.069  28.645  1.00  0.00     0.124 S 
ATOM     77  O   UNL A   1      33.933  36.075  27.842  1.00  0.00    -0.237 OA
ATOM     78  O   UNL A   1      32.571  34.011  27.893  1.00  0.00    -0.237 OA
ATOM     79  O   UNL A   1      32.492  35.584  29.787  1.00  0.00    -0.744 OA
ENDBRANCH  75  76
ENDBRANCH  47  70
BRANCH  59  80
ATOM     80  C   UNL A   1      39.793  34.050  36.891  1.00  0.00    -0.014 A 
ATOM     81  C   UNL A   1      39.018  33.788  38.034  1.00  0.00     0.010 A 
ATOM     82  C   UNL A   1      40.439  35.295  36.770  1.00  0.00     0.010 A 
ATOM     83  C   UNL A   1      38.872  34.762  39.027  1.00  0.00     0.020 A 
ATOM     84  C   UNL A   1      40.316  36.261  37.772  1.00  0.00     0.020 A 
ATOM     85  C   UNL A   1      39.523  35.992  38.890  1.00  0.00     0.054 A 
BRANCH  85  86
ATOM     86  S   UNL A   1      39.360  37.220  40.214  1.00  0.00     0.124 S 
ATOM     87  O   UNL A   1      38.608  36.481  41.224  1.00  0.00    -0.237 OA
ATOM     88  O   UNL A   1      40.751  37.513  40.553  1.00  0.00    -0.237 OA
ATOM     89  O   UNL A   1      38.637  38.321  39.579  1.00  0.00    -0.744 OA
ENDBRANCH  85  86
ENDBRANCH  59  80
ENDBRANCH  33  34
ENDBRANCH  26  28
ENDBRANCH  25  26
ENDBRANCH  24  25
ENDBRANCH   1  24
TORSDOF 20
ENDMDL
MODEL 2
REMARK VINA RESULT:     -10.1      1.602      8.662
REMARK SMILES COc1cccc([C@H]2SC[C@@H](C(=O)OCCOCCOC(=O)c3ccc(-c4c5nc(c(-c6ccc(S(=O)(=O)[O-])cc6)c6ccc([nH]6)c(-c6ccc(S(=O)(=O)[O-])cc6)c6nc(c(-c7ccc(S(=O)(=O)[O-])cc7)c7ccc4[nH]7)C=C6)C=C5)cc3)N2C(C)=O)c1
REMARK SMILES IDX 18 1 17 2 16 3 15 4 14 5 12 6 13 7 11 8 8 9 9 10 83 11 10 12
REMARK SMILES IDX 7 13 3 14 4 15 87 16 5 17 6 18 2 19 1 20 84 21 85 22 86 23
REMARK SMILES IDX 19 24 20 25 21 26 22 27 23 28 24 29 82 30 25 31 81 32 26 33
REMARK SMILES IDX 27 34 28 35 75 36 29 37 80 38 74 39 76 40 30 41 79 42 73 43
REMARK SMILES IDX 72 44 31 46 61 47 42 48 60 49 43 50 46 51 59 52 77 53 44 54
REMARK SMILES IDX 45 55 58 57 78 58 47 59 32 60 33 61 41 62 34 63 40 64 35 65
REMARK SMILES IDX 36 66 37 67 38 68 39 69 62 70 63 71 71 72 64 73 70 74 65 75
REMARK SMILES IDX 66 76 67 77 68 78 69 79 48 80 49 81 57 82 50 83 56 84 51 85
REMARK SMILES IDX 52 86 53 87 54 88 55 89
REMARK H PARENT 76 45 46 56
REMARK Flexibility Score: inf
ROOT
ATOM      1  C   UNL A   1      40.697  21.502  26.213  1.00  0.00     0.202 C 
ENDROOT
BRANCH   1   2
ATOM      2  O   UNL A   1      39.551  22.191  26.706  1.00  0.00    -0.374 OA
BRANCH   2   3
ATOM      3  C   UNL A   1      38.587  22.593  25.729  1.00  0.00     0.202 C 
BRANCH   3   4
ATOM      4  C   UNL A   1      37.208  21.946  25.874  1.00  0.00     0.261 C 
BRANCH   4   5
ATOM      5  O   UNL A   1      36.168  22.938  26.015  1.00  0.00    -0.462 OA
BRANCH   5   6
ATOM      6  C   UNL A   1      34.931  22.470  26.317  1.00  0.00     0.329 C 
ATOM      7  O   UNL A   1      34.713  21.509  27.049  1.00  0.00    -0.250 OA
BRANCH   6   8
ATOM      8  C   UNL A   1      33.788  23.210  25.596  1.00  0.00     0.206 C 
ATOM      9  C   UNL A   1      32.189  22.102  24.069  1.00  0.00     0.175 C 
ATOM     10  S   UNL A   1      31.154  22.646  25.458  1.00  0.00    -0.129 SA
ATOM     11  N   UNL A   1      33.446  22.816  24.216  1.00  0.00    -0.312 N 
ATOM     12  C   UNL A   1      32.557  23.086  26.500  1.00  0.00     0.109 C 
BRANCH   9  13
ATOM     13  C   UNL A   1      32.326  20.596  23.966  1.00  0.00    -0.012 A 
ATOM     14  C   UNL A   1      32.616  18.377  24.947  1.00  0.00     0.119 A 
ATOM     15  C   UNL A   1      32.515  17.815  23.677  1.00  0.00     0.046 A 
ATOM     16  C   UNL A   1      32.492  19.759  25.088  1.00  0.00     0.053 A 
ATOM     17  C   UNL A   1      32.349  18.618  22.551  1.00  0.00     0.004 A 
ATOM     18  C   UNL A   1      32.278  20.000  22.693  1.00  0.00     0.007 A 
BRANCH  14  19
ATOM     19  O   UNL A   1      32.880  17.485  25.947  1.00  0.00    -0.497 OA
ATOM     20  C   UNL A   1      33.101  16.128  25.592  1.00  0.00     0.278 C 
ENDBRANCH  14  19
ENDBRANCH   9  13
BRANCH  11  21
ATOM     21  C   UNL A   1      34.051  23.283  23.063  1.00  0.00     0.221 C 
ATOM     22  C   UNL A   1      33.175  23.648  21.888  1.00  0.00     0.114 C 
ATOM     23  O   UNL A   1      35.274  23.326  22.928  1.00  0.00    -0.275 OA
ENDBRANCH  11  21
ENDBRANCH   6   8
ENDBRANCH   5   6
ENDBRANCH   4   5
ENDBRANCH   3   4
ENDBRANCH   2   3
ENDBRANCH   1   2
BRANCH   1  24
ATOM     24  C   UNL A   1      42.024  22.268  26.213  1.00  0.00     0.261 C 
BRANCH  24  25
ATOM     25  O   UNL A   1      42.041  23.372  27.130  1.00  0.00    -0.460 OA
BRANCH  25  26
ATOM     26  C   UNL A   1      42.054  24.589  26.542  1.00  0.00     0.338 C 
ATOM     27  O   UNL A   1      42.255  24.830  25.353  1.00  0.00    -0.246 OA
BRANCH  26  28
ATOM     28  C   UNL A   1      41.659  25.636  27.496  1.00  0.00     0.060 A 
ATOM     29  C   UNL A   1      42.495  26.750  27.630  1.00  0.00     0.016 A 
ATOM     30  C   UNL A   1      40.549  25.478  28.328  1.00  0.00     0.016 A 
ATOM     31  C   UNL A   1      42.254  27.689  28.631  1.00  0.00     0.010 A 
ATOM     32  C   UNL A   1      40.311  26.421  29.332  1.00  0.00     0.010 A 
ATOM     33  C   UNL A   1      41.179  27.515  29.511  1.00  0.00    -0.014 A 
BRANCH  33  34
ATOM     34  C   UNL A   1      41.044  28.389  30.706  1.00  0.00     0.031 A 
ATOM     35  C   UNL A   1      39.969  29.443  30.716  1.00  0.00     0.074 A 
ATOM     36  C   UNL A   1      41.856  28.246  31.769  1.00  0.00     0.049 A 
ATOM     37  N   UNL A   1      39.687  30.330  31.635  1.00  0.00    -0.248 NA
ATOM     38  C   UNL A   1      39.103  29.509  29.528  1.00  0.00     0.031 C 
ATOM     39  C   UNL A   1      42.917  27.248  31.899  1.00  0.00     0.029 A 
ATOM     40  N   UNL A   1      41.923  28.957  32.942  1.00  0.00    -0.354 N 
ATOM     41  C   UNL A   1      38.619  31.065  31.133  1.00  0.00     0.074 A 
ATOM     42  C   UNL A   1      38.337  30.553  29.810  1.00  0.00     0.031 C 
ATOM     43  C   UNL A   1      43.546  27.426  33.071  1.00  0.00     0.029 A 
ATOM     44  C   UNL A   1      42.939  28.554  33.774  1.00  0.00     0.049 A 
ATOM     45  H   UNL A   1      41.299  29.685  33.166  1.00  0.00     0.167 HD
ATOM     46  C   UNL A   1      37.921  32.064  31.724  1.00  0.00     0.031 A 
ATOM     47  C   UNL A   1      43.343  29.042  34.964  1.00  0.00     0.031 A 
ATOM     48  C   UNL A   1      38.204  32.575  33.037  1.00  0.00     0.049 A 
ATOM     49  C   UNL A   1      42.586  30.182  35.588  1.00  0.00     0.074 A 
ATOM     50  C   UNL A   1      37.535  33.561  33.741  1.00  0.00     0.029 A 
ATOM     51  N   UNL A   1      39.247  32.143  33.844  1.00  0.00    -0.354 N 
ATOM     52  N   UNL A   1      41.547  30.835  35.120  1.00  0.00    -0.248 NA
ATOM     53  C   UNL A   1      43.039  30.638  36.910  1.00  0.00     0.031 C 
ATOM     54  C   UNL A   1      38.205  33.759  34.955  1.00  0.00     0.029 A 
ATOM     55  C   UNL A   1      39.256  32.860  35.029  1.00  0.00     0.049 A 
ATOM     56  H   UNL A   1      39.885  31.432  33.609  1.00  0.00     0.167 HD
ATOM     57  C   UNL A   1      41.206  31.759  36.101  1.00  0.00     0.074 A 
ATOM     58  C   UNL A   1      42.143  31.576  37.191  1.00  0.00     0.031 C 
ATOM     59  C   UNL A   1      40.202  32.671  36.102  1.00  0.00     0.031 A 
BRANCH  46  60
ATOM     60  C   UNL A   1      36.803  32.681  30.925  1.00  0.00    -0.014 A 
ATOM     61  C   UNL A   1      37.062  33.643  29.930  1.00  0.00     0.010 A 
ATOM     62  C   UNL A   1      35.472  32.311  31.187  1.00  0.00     0.010 A 
ATOM     63  C   UNL A   1      36.008  34.269  29.259  1.00  0.00     0.020 A 
ATOM     64  C   UNL A   1      34.417  32.914  30.497  1.00  0.00     0.020 A 
ATOM     65  C   UNL A   1      34.691  33.909  29.557  1.00  0.00     0.054 A 
BRANCH  65  66
ATOM     66  S   UNL A   1      33.339  34.753  28.691  1.00  0.00     0.124 S 
ATOM     67  O   UNL A   1      32.476  35.152  29.801  1.00  0.00    -0.237 OA
ATOM     68  O   UNL A   1      34.025  35.847  28.008  1.00  0.00    -0.237 OA
ATOM     69  O   UNL A   1      32.790  33.722  27.815  1.00  0.00    -0.744 OA
ENDBRANCH  65  66
ENDBRANCH  46  60
BRANCH  47  70
ATOM     70  C   UNL A   1      44.519  28.433  35.644  1.00  0.00    -0.014 A 
ATOM     71  C   UNL A   1      44.357  27.344  36.517  1.00  0.00     0.010 A 
ATOM     72  C   UNL A   1      45.816  28.912  35.379  1.00  0.00     0.010 A 
ATOM     73  C   UNL A   1      45.472  26.742  37.112  1.00  0.00     0.020 A 
ATOM     74  C   UNL A   1      46.933  28.300  35.955  1.00  0.00     0.020 A 
ATOM     75  C   UNL A   1      46.754  27.219  36.820  1.00  0.00     0.054 A 
BRANCH  75  76
ATOM     76  S   UNL A   1      48.188  26.362  37.530  1.00  0.00     0.124 S 
ATOM     77  O   UNL A   1      47.846  24.960  37.305  1.00  0.00    -0.237 OA
ATOM     78  O   UNL A   1      49.293  26.881  36.728  1.00  0.00    -0.237 OA
ATOM     79  O   UNL A   1      48.187  26.792  38.926  1.00  0.00    -0.744 OA
ENDBRANCH  75  76
ENDBRANCH  47  70
BRANCH  59  80
ATOM     80  C   UNL A   1      40.041  33.527  37.330  1.00  0.00    -0.014 A 
ATOM     81  C   UNL A   1      40.697  34.764  37.445  1.00  0.00     0.010 A 
ATOM     82  C   UNL A   1      39.169  33.114  38.354  1.00  0.00     0.010 A 
ATOM     83  C   UNL A   1      40.503  35.564  38.575  1.00  0.00     0.020 A 
ATOM     84  C   UNL A   1      38.954  33.921  39.473  1.00  0.00     0.020 A 
ATOM     85  C   UNL A   1      39.632  35.137  39.583  1.00  0.00     0.054 A 
BRANCH  85  86
ATOM     86  S   UNL A   1      39.357  36.213  41.016  1.00  0.00     0.124 S 
ATOM     87  O   UNL A   1      38.616  37.324  40.425  1.00  0.00    -0.237 OA
ATOM     88  O   UNL A   1      38.593  35.357  41.920  1.00  0.00    -0.237 OA
ATOM     89  O   UNL A   1      40.708  36.537  41.472  1.00  0.00    -0.744 OA
ENDBRANCH  85  86
ENDBRANCH  59  80
ENDBRANCH  33  34
ENDBRANCH  26  28
ENDBRANCH  25  26
ENDBRANCH  24  25
ENDBRANCH   1  24
TORSDOF 20
ENDMDL
MODEL 3
REMARK VINA RESULT:     -10.1      3.994     10.206
REMARK SMILES COc1cccc([C@H]2SC[C@@H](C(=O)OCCOCCOC(=O)c3ccc(-c4c5nc(c(-c6ccc(S(=O)(=O)[O-])cc6)c6ccc([nH]6)c(-c6ccc(S(=O)(=O)[O-])cc6)c6nc(c(-c7ccc(S(=O)(=O)[O-])cc7)c7ccc4[nH]7)C=C6)C=C5)cc3)N2C(C)=O)c1
REMARK SMILES IDX 18 1 17 2 16 3 15 4 14 5 12 6 13 7 11 8 8 9 9 10 83 11 10 12
REMARK SMILES IDX 7 13 3 14 4 15 87 16 5 17 6 18 2 19 1 20 84 21 85 22 86 23
REMARK SMILES IDX 19 24 20 25 21 26 22 27 23 28 24 29 82 30 25 31 81 32 26 33
REMARK SMILES IDX 27 34 28 35 75 36 29 37 80 38 74 39 76 40 30 41 79 42 73 43
REMARK SMILES IDX 72 44 31 46 61 47 42 48 60 49 43 50 46 51 59 52 77 53 44 54
REMARK SMILES IDX 45 55 58 57 78 58 47 59 32 60 33 61 41 62 34 63 40 64 35 65
REMARK SMILES IDX 36 66 37 67 38 68 39 69 62 70 63 71 71 72 64 73 70 74 65 75
REMARK SMILES IDX 66 76 67 77 68 78 69 79 48 80 49 81 57 82 50 83 56 84 51 85
REMARK SMILES IDX 52 86 53 87 54 88 55 89
REMARK H PARENT 76 45 46 56
REMARK Flexibility Score: inf
ROOT
ATOM      1  C   UNL A   1      32.889  29.451  25.933  1.00  0.00     0.202 C 
ENDROOT
BRANCH   1   2
ATOM      2  O   UNL A   1      31.651  28.753  25.829  1.00  0.00    -0.374 OA
BRANCH   2   3
ATOM      3  C   UNL A   1      31.159  28.532  24.505  1.00  0.00     0.202 C 
BRANCH   3   4
ATOM      4  C   UNL A   1      30.267  27.299  24.341  1.00  0.00     0.261 C 
BRANCH   4   5
ATOM      5  O   UNL A   1      30.527  26.316  25.366  1.00  0.00    -0.462 OA
BRANCH   5   6
ATOM      6  C   UNL A   1      31.614  25.527  25.177  1.00  0.00     0.329 C 
ATOM      7  O   UNL A   1      32.565  25.459  25.949  1.00  0.00    -0.250 OA
BRANCH   6   8
ATOM      8  C   UNL A   1      31.600  24.751  23.846  1.00  0.00     0.206 C 
ATOM      9  C   UNL A   1      33.494  23.379  23.042  1.00  0.00     0.175 C 
ATOM     10  S   UNL A   1      32.172  22.167  23.322  1.00  0.00    -0.129 SA
ATOM     11  N   UNL A   1      32.843  24.678  23.054  1.00  0.00    -0.312 N 
ATOM     12  C   UNL A   1      31.101  23.340  24.174  1.00  0.00     0.109 C 
BRANCH   9  13
ATOM     13  C   UNL A   1      34.656  23.245  24.006  1.00  0.00    -0.012 A 
ATOM     14  C   UNL A   1      36.357  21.939  25.176  1.00  0.00     0.119 A 
ATOM     15  C   UNL A   1      36.833  23.108  25.765  1.00  0.00     0.046 A 
ATOM     16  C   UNL A   1      35.292  22.017  24.279  1.00  0.00     0.053 A 
ATOM     17  C   UNL A   1      36.224  24.335  25.512  1.00  0.00     0.004 A 
ATOM     18  C   UNL A   1      35.129  24.398  24.656  1.00  0.00     0.007 A 
BRANCH  14  19
ATOM     19  O   UNL A   1      36.980  20.796  25.590  1.00  0.00    -0.497 OA
ATOM     20  C   UNL A   1      36.885  19.645  24.764  1.00  0.00     0.278 C 
ENDBRANCH  14  19
ENDBRANCH   9  13
BRANCH  11  21
ATOM     21  C   UNL A   1      33.279  25.617  22.137  1.00  0.00     0.221 C 
ATOM     22  C   UNL A   1      33.626  27.000  22.633  1.00  0.00     0.114 C 
ATOM     23  O   UNL A   1      33.307  25.396  20.925  1.00  0.00    -0.275 OA
ENDBRANCH  11  21
ENDBRANCH   6   8
ENDBRANCH   5   6
ENDBRANCH   4   5
ENDBRANCH   3   4
ENDBRANCH   2   3
ENDBRANCH   1   2
BRANCH   1  24
ATOM     24  C   UNL A   1      33.016  30.480  27.061  1.00  0.00     0.261 C 
BRANCH  24  25
ATOM     25  O   UNL A   1      34.304  31.112  27.108  1.00  0.00    -0.460 OA
BRANCH  25  26
ATOM     26  C   UNL A   1      34.814  31.253  28.351  1.00  0.00     0.338 C 
ATOM     27  O   UNL A   1      34.306  31.861  29.291  1.00  0.00    -0.246 OA
BRANCH  26  28
ATOM     28  C   UNL A   1      36.041  30.457  28.507  1.00  0.00     0.060 A 
ATOM     29  C   UNL A   1      36.258  29.820  29.734  1.00  0.00     0.016 A 
ATOM     30  C   UNL A   1      37.017  30.426  27.511  1.00  0.00     0.016 A 
ATOM     31  C   UNL A   1      37.474  29.190  29.991  1.00  0.00     0.010 A 
ATOM     32  C   UNL A   1      38.237  29.795  27.771  1.00  0.00     0.010 A 
ATOM     33  C   UNL A   1      38.486  29.201  29.023  1.00  0.00    -0.014 A 
BRANCH  33  34
ATOM     34  C   UNL A   1      39.851  28.723  29.366  1.00  0.00     0.031 A 
ATOM     35  C   UNL A   1      40.780  29.649  30.104  1.00  0.00     0.074 A 
ATOM     36  C   UNL A   1      40.259  27.485  29.035  1.00  0.00     0.049 A 
ATOM     37  N   UNL A   1      42.018  29.455  30.481  1.00  0.00    -0.248 NA
ATOM     38  C   UNL A   1      40.244  30.973  30.458  1.00  0.00     0.031 C 
ATOM     39  C   UNL A   1      39.450  26.481  28.346  1.00  0.00     0.029 A 
ATOM     40  N   UNL A   1      41.469  26.864  29.225  1.00  0.00    -0.354 N 
ATOM     41  C   UNL A   1      42.410  30.633  31.106  1.00  0.00     0.074 A 
ATOM     42  C   UNL A   1      41.297  31.553  31.014  1.00  0.00     0.031 C 
ATOM     43  C   UNL A   1      40.193  25.380  28.146  1.00  0.00     0.029 A 
ATOM     44  C   UNL A   1      41.532  25.601  28.687  1.00  0.00     0.049 A 
ATOM     45  H   UNL A   1      42.221  27.284  29.703  1.00  0.00     0.167 HD
ATOM     46  C   UNL A   1      43.583  30.921  31.719  1.00  0.00     0.031 A 
ATOM     47  C   UNL A   1      42.554  24.723  28.627  1.00  0.00     0.031 A 
ATOM     48  C   UNL A   1      44.690  30.008  31.807  1.00  0.00     0.049 A 
ATOM     49  C   UNL A   1      43.865  25.076  29.273  1.00  0.00     0.074 A 
ATOM     50  C   UNL A   1      45.909  30.190  32.437  1.00  0.00     0.029 A 
ATOM     51  N   UNL A   1      44.714  28.741  31.243  1.00  0.00    -0.354 N 
ATOM     52  N   UNL A   1      44.204  26.177  29.902  1.00  0.00    -0.248 NA
ATOM     53  C   UNL A   1      44.927  24.060  29.222  1.00  0.00     0.031 C 
ATOM     54  C   UNL A   1      46.689  29.050  32.210  1.00  0.00     0.029 A 
ATOM     55  C   UNL A   1      45.937  28.138  31.488  1.00  0.00     0.049 A 
ATOM     56  H   UNL A   1      43.972  28.331  30.743  1.00  0.00     0.167 HD
ATOM     57  C   UNL A   1      45.507  25.976  30.346  1.00  0.00     0.074 A 
ATOM     58  C   UNL A   1      45.892  24.645  29.920  1.00  0.00     0.031 C 
ATOM     59  C   UNL A   1      46.308  26.814  31.050  1.00  0.00     0.031 A 
BRANCH  46  60
ATOM     60  C   UNL A   1      43.723  32.299  32.313  1.00  0.00    -0.014 A 
ATOM     61  C   UNL A   1      44.253  33.366  31.562  1.00  0.00     0.010 A 
ATOM     62  C   UNL A   1      43.340  32.526  33.647  1.00  0.00     0.010 A 
ATOM     63  C   UNL A   1      44.457  34.615  32.154  1.00  0.00     0.020 A 
ATOM     64  C   UNL A   1      43.516  33.782  34.233  1.00  0.00     0.020 A 
ATOM     65  C   UNL A   1      44.099  34.811  33.491  1.00  0.00     0.054 A 
BRANCH  65  66
ATOM     66  S   UNL A   1      44.396  36.434  34.245  1.00  0.00     0.124 S 
ATOM     67  O   UNL A   1      45.583  36.887  33.522  1.00  0.00    -0.237 OA
ATOM     68  O   UNL A   1      43.165  37.161  33.944  1.00  0.00    -0.237 OA
ATOM     69  O   UNL A   1      44.607  36.127  35.657  1.00  0.00    -0.744 OA
ENDBRANCH  65  66
ENDBRANCH  46  60
BRANCH  47  70
ATOM     70  C   UNL A   1      42.359  23.419  27.938  1.00  0.00    -0.014 A 
ATOM     71  C   UNL A   1      42.961  23.168  26.694  1.00  0.00     0.010 A 
ATOM     72  C   UNL A   1      41.607  22.400  28.553  1.00  0.00     0.010 A 
ATOM     73  C   UNL A   1      42.817  21.920  26.077  1.00  0.00     0.020 A 
ATOM     74  C   UNL A   1      41.479  21.146  27.950  1.00  0.00     0.020 A 
ATOM     75  C   UNL A   1      42.084  20.914  26.713  1.00  0.00     0.054 A 
BRANCH  75  76
ATOM     76  S   UNL A   1      41.991  19.276  25.937  1.00  0.00     0.124 S 
ATOM     77  O   UNL A   1      42.526  18.412  26.985  1.00  0.00    -0.237 OA
ATOM     78  O   UNL A   1      40.562  19.135  25.668  1.00  0.00    -0.237 OA
ATOM     79  O   UNL A   1      42.830  19.412  24.748  1.00  0.00    -0.744 OA
ENDBRANCH  75  76
ENDBRANCH  47  70
BRANCH  59  80
ATOM     80  C   UNL A   1      47.675  26.313  31.431  1.00  0.00    -0.014 A 
ATOM     81  C   UNL A   1      47.907  25.708  32.678  1.00  0.00     0.010 A 
ATOM     82  C   UNL A   1      48.727  26.392  30.500  1.00  0.00     0.010 A 
ATOM     83  C   UNL A   1      49.175  25.213  32.998  1.00  0.00     0.020 A 
ATOM     84  C   UNL A   1      49.988  25.876  30.806  1.00  0.00     0.020 A 
ATOM     85  C   UNL A   1      50.208  25.300  32.059  1.00  0.00     0.054 A 
BRANCH  85  86
ATOM     86  S   UNL A   1      51.830  24.605  32.476  1.00  0.00     0.124 S 
ATOM     87  O   UNL A   1      51.944  24.929  33.895  1.00  0.00    -0.237 OA
ATOM     88  O   UNL A   1      51.662  23.187  32.166  1.00  0.00    -0.237 OA
ATOM     89  O   UNL A   1      52.751  25.322  31.596  1.00  0.00    -0.744 OA
ENDBRANCH  85  86
ENDBRANCH  59  80
ENDBRANCH  33  34
ENDBRANCH  26  28
ENDBRANCH  25  26
ENDBRANCH  24  25
ENDBRANCH   1  24
TORSDOF 20
ENDMDL
