MODEL 1
REMARK VINA RESULT:     -10.1      0.000      0.000
REMARK SMILES O=C(CCC(=O)N1CCc2sccc2C1)NC1(C(=O)OCCOCCOC(=O)c2ccc(-c3c4nc(c(-c5ccc(S(=O)(=O)[O-])cc5)c5ccc([nH]5)c(-c5ccc(S(=O)(=O)[O-])cc5)c5nc(c(-c6ccc(S(=O)(=O)[O-])cc6)c6ccc3[nH]6)C=C5)C=C4)cc2)CCCCC1
REMARK SMILES IDX 22 1 21 2 20 3 18 4 19 5 17 6 89 7 93 8 90 9 92 10 91 11
REMARK SMILES IDX 16 12 1 13 2 14 3 16 4 17 5 18 6 19 7 20 8 21 15 22 9 23
REMARK SMILES IDX 14 24 10 25 13 26 11 27 12 28 23 29 24 30 25 31 26 32 27 33
REMARK SMILES IDX 28 34 29 35 30 36 88 37 31 38 87 39 32 40 33 41 34 42 81 43
REMARK SMILES IDX 35 44 86 45 80 46 82 47 36 48 85 49 79 50 78 51 37 53 67 54
REMARK SMILES IDX 48 55 66 56 49 57 52 58 65 59 83 60 50 61 51 62 64 64 84 65
REMARK SMILES IDX 53 66 38 67 39 68 47 69 40 70 46 71 41 72 42 73 43 74 44 75
REMARK SMILES IDX 45 76 68 77 69 78 77 79 70 80 76 81 71 82 72 83 73 84 74 85
REMARK SMILES IDX 75 86 54 87 55 88 63 89 56 90 62 91 57 92 58 93 59 94 60 95
REMARK SMILES IDX 61 96
REMARK H PARENT 16 15 82 52 52 63
REMARK Flexibility Score: inf
ROOT
ATOM      1  C   UNL A   1      36.075  21.835  24.250  1.00  0.00     0.202 C 
ENDROOT
BRANCH   1   2
ATOM      2  C   UNL A   1      35.757  23.283  23.903  1.00  0.00     0.261 C 
BRANCH   2   3
ATOM      3  O   UNL A   1      34.333  23.449  23.767  1.00  0.00    -0.461 OA
BRANCH   3   4
ATOM      4  C   UNL A   1      33.644  23.359  24.931  1.00  0.00     0.331 C 
ATOM      5  O   UNL A   1      34.126  23.674  26.012  1.00  0.00    -0.249 OA
BRANCH   4   6
ATOM      6  C   UNL A   1      32.156  22.917  24.740  1.00  0.00     0.138 C 
ATOM      7  C   UNL A   1      31.958  21.833  25.825  1.00  0.00     0.040 C 
ATOM      8  C   UNL A   1      31.881  22.292  23.358  1.00  0.00     0.040 C 
ATOM      9  C   UNL A   1      32.888  20.636  25.589  1.00  0.00     0.003 C 
ATOM     10  C   UNL A   1      32.692  21.024  23.080  1.00  0.00     0.003 C 
ATOM     11  C   UNL A   1      32.637  20.012  24.222  1.00  0.00     0.000 C 
BRANCH   6  12
ATOM     12  N   UNL A   1      31.283  24.137  24.882  1.00  0.00    -0.340 N 
ATOM     13  O   UNL A   1      31.166  24.424  27.168  1.00  0.00    -0.275 OA
ATOM     14  C   UNL A   1      30.976  24.843  26.033  1.00  0.00     0.221 C 
ATOM     15  H   UNL A   1      30.879  24.476  24.050  1.00  0.00     0.164 HD
BRANCH  14  16
ATOM     16  C   UNL A   1      30.426  26.265  25.796  1.00  0.00     0.110 C 
BRANCH  16  17
ATOM     17  C   UNL A   1      31.445  27.367  26.168  1.00  0.00     0.110 C 
BRANCH  17  18
ATOM     18  C   UNL A   1      32.390  27.969  25.093  1.00  0.00     0.223 C 
ATOM     19  O   UNL A   1      33.485  27.442  24.881  1.00  0.00    -0.275 OA
BRANCH  18  20
ATOM     20  N   UNL A   1      31.939  29.029  24.324  1.00  0.00    -0.338 N 
ATOM     21  C   UNL A   1      31.813  28.896  22.898  1.00  0.00     0.125 C 
ATOM     22  C   UNL A   1      31.149  30.163  24.860  1.00  0.00     0.156 C 
ATOM     23  C   UNL A   1      30.406  28.311  22.643  1.00  0.00     0.068 C 
ATOM     24  C   UNL A   1      29.869  30.327  24.040  1.00  0.00    -0.015 A 
ATOM     25  C   UNL A   1      29.480  29.387  23.099  1.00  0.00     0.011 A 
ATOM     26  C   UNL A   1      29.061  31.498  23.879  1.00  0.00     0.017 A 
ATOM     27  S   UNL A   1      27.980  29.704  22.394  1.00  0.00    -0.149 S 
ATOM     28  C   UNL A   1      28.018  31.304  22.993  1.00  0.00     0.065 A 
ENDBRANCH  18  20
ENDBRANCH  17  18
ENDBRANCH  16  17
ENDBRANCH  14  16
ENDBRANCH   6  12
ENDBRANCH   4   6
ENDBRANCH   3   4
ENDBRANCH   2   3
ENDBRANCH   1   2
BRANCH   1  29
ATOM     29  O   UNL A   1      36.730  21.583  25.495  1.00  0.00    -0.374 OA
BRANCH  29  30
ATOM     30  C   UNL A   1      38.142  21.741  25.575  1.00  0.00     0.202 C 
BRANCH  30  31
ATOM     31  C   UNL A   1      38.987  20.472  25.725  1.00  0.00     0.261 C 
BRANCH  31  32
ATOM     32  O   UNL A   1      39.874  20.526  26.841  1.00  0.00    -0.460 OA
BRANCH  32  33
ATOM     33  C   UNL A   1      41.159  20.222  26.525  1.00  0.00     0.338 C 
ATOM     34  O   UNL A   1      41.577  19.182  26.040  1.00  0.00    -0.246 OA
BRANCH  33  35
ATOM     35  C   UNL A   1      41.972  21.442  26.653  1.00  0.00     0.060 A 
ATOM     36  C   UNL A   1      42.472  21.752  27.927  1.00  0.00     0.016 A 
ATOM     37  C   UNL A   1      42.264  22.243  25.548  1.00  0.00     0.016 A 
ATOM     38  C   UNL A   1      43.225  22.903  28.111  1.00  0.00     0.010 A 
ATOM     39  C   UNL A   1      42.999  23.411  25.737  1.00  0.00     0.010 A 
ATOM     40  C   UNL A   1      43.435  23.763  27.027  1.00  0.00    -0.014 A 
BRANCH  40  41
ATOM     41  C   UNL A   1      43.854  25.153  27.293  1.00  0.00     0.031 A 
ATOM     42  C   UNL A   1      45.297  25.493  27.041  1.00  0.00     0.074 A 
ATOM     43  C   UNL A   1      42.977  26.075  27.720  1.00  0.00     0.049 A 
ATOM     44  N   UNL A   1      45.933  26.611  27.255  1.00  0.00    -0.248 NA
ATOM     45  C   UNL A   1      46.135  24.419  26.477  1.00  0.00     0.031 C 
ATOM     46  C   UNL A   1      41.547  25.853  27.930  1.00  0.00     0.029 A 
ATOM     47  N   UNL A   1      43.170  27.388  28.060  1.00  0.00    -0.354 N 
ATOM     48  C   UNL A   1      47.247  26.371  26.865  1.00  0.00     0.074 A 
ATOM     49  C   UNL A   1      47.324  24.998  26.428  1.00  0.00     0.031 C 
ATOM     50  C   UNL A   1      40.992  26.992  28.380  1.00  0.00     0.029 A 
ATOM     51  C   UNL A   1      42.036  28.006  28.524  1.00  0.00     0.049 A 
ATOM     52  H   UNL A   1      44.039  27.843  27.978  1.00  0.00     0.167 HD
ATOM     53  C   UNL A   1      48.293  27.226  26.873  1.00  0.00     0.031 A 
ATOM     54  C   UNL A   1      41.875  29.243  29.032  1.00  0.00     0.031 A 
ATOM     55  C   UNL A   1      48.199  28.583  27.334  1.00  0.00     0.049 A 
ATOM     56  C   UNL A   1      43.074  30.154  29.106  1.00  0.00     0.074 A 
ATOM     57  C   UNL A   1      49.189  29.546  27.390  1.00  0.00     0.029 A 
ATOM     58  N   UNL A   1      47.040  29.167  27.828  1.00  0.00    -0.354 N 
ATOM     59  N   UNL A   1      44.309  29.924  28.725  1.00  0.00    -0.248 NA
ATOM     60  C   UNL A   1      42.858  31.492  29.673  1.00  0.00     0.031 C 
ATOM     61  C   UNL A   1      48.644  30.692  27.977  1.00  0.00     0.029 A 
ATOM     62  C   UNL A   1      47.296  30.467  28.219  1.00  0.00     0.049 A 
ATOM     63  H   UNL A   1      46.166  28.719  27.891  1.00  0.00     0.167 HD
ATOM     64  C   UNL A   1      45.011  31.098  28.977  1.00  0.00     0.074 A 
ATOM     65  C   UNL A   1      44.057  32.039  29.530  1.00  0.00     0.031 C 
ATOM     66  C   UNL A   1      46.322  31.378  28.767  1.00  0.00     0.031 A 
BRANCH  53  67
ATOM     67  C   UNL A   1      49.628  26.697  26.421  1.00  0.00    -0.014 A 
ATOM     68  C   UNL A   1      50.506  26.057  27.315  1.00  0.00     0.010 A 
ATOM     69  C   UNL A   1      50.005  26.830  25.073  1.00  0.00     0.010 A 
ATOM     70  C   UNL A   1      51.750  25.591  26.876  1.00  0.00     0.020 A 
ATOM     71  C   UNL A   1      51.233  26.339  24.623  1.00  0.00     0.020 A 
ATOM     72  C   UNL A   1      52.104  25.735  25.531  1.00  0.00     0.054 A 
BRANCH  72  73
ATOM     73  S   UNL A   1      53.709  25.093  24.981  1.00  0.00     0.124 S 
ATOM     74  O   UNL A   1      54.606  25.599  26.018  1.00  0.00    -0.237 OA
ATOM     75  O   UNL A   1      53.494  23.649  24.987  1.00  0.00    -0.237 OA
ATOM     76  O   UNL A   1      53.889  25.690  23.660  1.00  0.00    -0.744 OA
ENDBRANCH  72  73
ENDBRANCH  53  67
BRANCH  54  77
ATOM     77  C   UNL A   1      40.540  29.678  29.528  1.00  0.00    -0.014 A 
ATOM     78  C   UNL A   1      39.673  30.422  28.709  1.00  0.00     0.010 A 
ATOM     79  C   UNL A   1      40.124  29.342  30.830  1.00  0.00     0.010 A 
ATOM     80  C   UNL A   1      38.424  30.833  29.186  1.00  0.00     0.020 A 
ATOM     81  C   UNL A   1      38.864  29.724  31.301  1.00  0.00     0.020 A 
ATOM     82  C   UNL A   1      38.026  30.476  30.477  1.00  0.00     0.054 A 
BRANCH  82  83
ATOM     83  S   UNL A   1      36.379  30.975  31.055  1.00  0.00     0.124 S 
ATOM     84  O   UNL A   1      36.147  30.042  32.153  1.00  0.00    -0.237 OA
ATOM     85  O   UNL A   1      36.591  32.368  31.440  1.00  0.00    -0.237 OA
ATOM     86  O   UNL A   1      35.532  30.783  29.880  1.00  0.00    -0.744 OA
ENDBRANCH  82  83
ENDBRANCH  54  77
BRANCH  66  87
ATOM     87  C   UNL A   1      46.792  32.769  29.100  1.00  0.00    -0.014 A 
ATOM     88  C   UNL A   1      46.733  33.808  28.155  1.00  0.00     0.010 A 
ATOM     89  C   UNL A   1      47.238  33.050  30.406  1.00  0.00     0.010 A 
ATOM     90  C   UNL A   1      47.143  35.097  28.501  1.00  0.00     0.020 A 
ATOM     91  C   UNL A   1      47.617  34.345  30.764  1.00  0.00     0.020 A 
ATOM     92  C   UNL A   1      47.581  35.357  29.805  1.00  0.00     0.054 A 
BRANCH  92  93
ATOM     93  S   UNL A   1      48.064  37.050  30.239  1.00  0.00     0.124 S 
ATOM     94  O   UNL A   1      48.537  36.887  31.611  1.00  0.00    -0.237 OA
ATOM     95  O   UNL A   1      49.095  37.351  29.249  1.00  0.00    -0.237 OA
ATOM     96  O   UNL A   1      46.827  37.812  30.094  1.00  0.00    -0.744 OA
ENDBRANCH  92  93
ENDBRANCH  66  87
ENDBRANCH  40  41
ENDBRANCH  33  35
ENDBRANCH  32  33
ENDBRANCH  31  32
ENDBRANCH  30  31
ENDBRANCH  29  30
ENDBRANCH   1  29
TORSDOF 22
ENDMDL
MODEL 2
REMARK VINA RESULT:      -9.9      2.473      9.170
REMARK SMILES O=C(CCC(=O)N1CCc2sccc2C1)NC1(C(=O)OCCOCCOC(=O)c2ccc(-c3c4nc(c(-c5ccc(S(=O)(=O)[O-])cc5)c5ccc([nH]5)c(-c5ccc(S(=O)(=O)[O-])cc5)c5nc(c(-c6ccc(S(=O)(=O)[O-])cc6)c6ccc3[nH]6)C=C5)C=C4)cc2)CCCCC1
REMARK SMILES IDX 22 1 21 2 20 3 18 4 19 5 17 6 89 7 93 8 90 9 92 10 91 11
REMARK SMILES IDX 16 12 1 13 2 14 3 16 4 17 5 18 6 19 7 20 8 21 15 22 9 23
REMARK SMILES IDX 14 24 10 25 13 26 11 27 12 28 23 29 24 30 25 31 26 32 27 33
REMARK SMILES IDX 28 34 29 35 30 36 88 37 31 38 87 39 32 40 33 41 34 42 81 43
REMARK SMILES IDX 35 44 86 45 80 46 82 47 36 48 85 49 79 50 78 51 37 53 67 54
REMARK SMILES IDX 48 55 66 56 49 57 52 58 65 59 83 60 50 61 51 62 64 64 84 65
REMARK SMILES IDX 53 66 38 67 39 68 47 69 40 70 46 71 41 72 42 73 43 74 44 75
REMARK SMILES IDX 45 76 68 77 69 78 77 79 70 80 76 81 71 82 72 83 73 84 74 85
REMARK SMILES IDX 75 86 54 87 55 88 63 89 56 90 62 91 57 92 58 93 59 94 60 95
REMARK SMILES IDX 61 96
REMARK H PARENT 16 15 82 52 52 63
REMARK Flexibility Score: inf
ROOT
ATOM      1  C   UNL A   1      33.635  27.905  26.798  1.00  0.00     0.202 C 
ENDROOT
BRANCH   1   2
ATOM      2  C   UNL A   1      33.707  26.810  25.742  1.00  0.00     0.261 C 
BRANCH   2   3
ATOM      3  O   UNL A   1      32.768  25.765  26.060  1.00  0.00    -0.461 OA
BRANCH   3   4
ATOM      4  C   UNL A   1      31.516  25.973  25.584  1.00  0.00     0.331 C 
ATOM      5  O   UNL A   1      30.596  26.368  26.290  1.00  0.00    -0.249 OA
BRANCH   4   6
ATOM      6  C   UNL A   1      31.394  25.759  24.040  1.00  0.00     0.138 C 
ATOM      7  C   UNL A   1      31.828  27.121  23.451  1.00  0.00     0.040 C 
ATOM      8  C   UNL A   1      29.954  25.454  23.581  1.00  0.00     0.040 C 
ATOM      9  C   UNL A   1      30.880  28.243  23.894  1.00  0.00     0.003 C 
ATOM     10  C   UNL A   1      28.957  26.574  23.889  1.00  0.00     0.003 C 
ATOM     11  C   UNL A   1      29.449  27.953  23.458  1.00  0.00     0.000 C 
BRANCH   6  12
ATOM     12  N   UNL A   1      32.262  24.587  23.660  1.00  0.00    -0.340 N 
ATOM     13  O   UNL A   1      33.157  25.244  21.637  1.00  0.00    -0.275 OA
ATOM     14  C   UNL A   1      33.141  24.481  22.594  1.00  0.00     0.221 C 
ATOM     15  H   UNL A   1      32.195  23.796  24.242  1.00  0.00     0.164 HD
BRANCH  14  16
ATOM     16  C   UNL A   1      34.181  23.348  22.721  1.00  0.00     0.110 C 
BRANCH  16  17
ATOM     17  C   UNL A   1      34.651  23.132  24.179  1.00  0.00     0.110 C 
BRANCH  17  18
ATOM     18  C   UNL A   1      35.673  22.016  24.526  1.00  0.00     0.223 C 
ATOM     19  O   UNL A   1      36.877  22.217  24.351  1.00  0.00    -0.275 OA
BRANCH  18  20
ATOM     20  N   UNL A   1      35.216  20.853  25.123  1.00  0.00    -0.338 N 
ATOM     21  C   UNL A   1      33.863  20.759  25.602  1.00  0.00     0.125 C 
ATOM     22  C   UNL A   1      35.843  19.523  24.931  1.00  0.00     0.156 C 
ATOM     23  C   UNL A   1      33.012  20.297  24.399  1.00  0.00     0.068 C 
ATOM     24  C   UNL A   1      34.783  18.519  24.477  1.00  0.00    -0.015 A 
ATOM     25  C   UNL A   1      33.506  18.919  24.116  1.00  0.00     0.011 A 
ATOM     26  C   UNL A   1      34.798  17.093  24.606  1.00  0.00     0.017 A 
ATOM     27  S   UNL A   1      32.535  17.667  23.536  1.00  0.00    -0.149 S 
ATOM     28  C   UNL A   1      33.627  16.509  24.158  1.00  0.00     0.065 A 
ENDBRANCH  18  20
ENDBRANCH  17  18
ENDBRANCH  16  17
ENDBRANCH  14  16
ENDBRANCH   6  12
ENDBRANCH   4   6
ENDBRANCH   3   4
ENDBRANCH   2   3
ENDBRANCH   1   2
BRANCH   1  29
ATOM     29  O   UNL A   1      33.627  29.260  26.344  1.00  0.00    -0.374 OA
BRANCH  29  30
ATOM     30  C   UNL A   1      33.413  30.302  27.288  1.00  0.00     0.202 C 
BRANCH  30  31
ATOM     31  C   UNL A   1      34.640  30.852  28.024  1.00  0.00     0.261 C 
BRANCH  31  32
ATOM     32  O   UNL A   1      35.780  30.001  27.912  1.00  0.00    -0.460 OA
BRANCH  32  33
ATOM     33  C   UNL A   1      36.348  29.701  29.107  1.00  0.00     0.338 C 
ATOM     34  O   UNL A   1      35.781  29.366  30.135  1.00  0.00    -0.246 OA
BRANCH  33  35
ATOM     35  C   UNL A   1      37.807  29.626  28.924  1.00  0.00     0.060 A 
ATOM     36  C   UNL A   1      38.290  29.596  27.608  1.00  0.00     0.016 A 
ATOM     37  C   UNL A   1      38.679  29.618  30.015  1.00  0.00     0.016 A 
ATOM     38  C   UNL A   1      39.656  29.501  27.375  1.00  0.00     0.010 A 
ATOM     39  C   UNL A   1      40.047  29.497  29.782  1.00  0.00     0.010 A 
ATOM     40  C   UNL A   1      40.527  29.389  28.465  1.00  0.00    -0.014 A 
BRANCH  40  41
ATOM     41  C   UNL A   1      41.891  28.876  28.234  1.00  0.00     0.031 A 
ATOM     42  C   UNL A   1      43.014  29.876  28.269  1.00  0.00     0.074 A 
ATOM     43  C   UNL A   1      42.117  27.570  28.023  1.00  0.00     0.049 A 
ATOM     44  N   UNL A   1      44.285  29.702  28.035  1.00  0.00    -0.248 NA
ATOM     45  C   UNL A   1      42.647  31.262  28.611  1.00  0.00     0.031 C 
ATOM     46  C   UNL A   1      41.099  26.520  28.034  1.00  0.00     0.029 A 
ATOM     47  N   UNL A   1      43.285  26.908  27.751  1.00  0.00    -0.354 N 
ATOM     48  C   UNL A   1      44.866  30.956  28.186  1.00  0.00     0.074 A 
ATOM     49  C   UNL A   1      43.810  31.886  28.506  1.00  0.00     0.031 C 
ATOM     50  C   UNL A   1      41.688  25.342  27.764  1.00  0.00     0.029 A 
ATOM     51  C   UNL A   1      43.113  25.565  27.524  1.00  0.00     0.049 A 
ATOM     52  H   UNL A   1      44.163  27.353  27.721  1.00  0.00     0.167 HD
ATOM     53  C   UNL A   1      46.169  31.297  28.068  1.00  0.00     0.031 A 
ATOM     54  C   UNL A   1      44.008  24.634  27.139  1.00  0.00     0.031 A 
ATOM     55  C   UNL A   1      47.201  30.358  27.726  1.00  0.00     0.049 A 
ATOM     56  C   UNL A   1      45.441  25.053  26.935  1.00  0.00     0.074 A 
ATOM     57  C   UNL A   1      48.557  30.584  27.578  1.00  0.00     0.029 A 
ATOM     58  N   UNL A   1      46.985  29.011  27.472  1.00  0.00    -0.354 N 
ATOM     59  N   UNL A   1      45.984  26.238  27.091  1.00  0.00    -0.248 NA
ATOM     60  C   UNL A   1      46.383  24.010  26.508  1.00  0.00     0.031 C 
ATOM     61  C   UNL A   1      49.151  29.385  27.171  1.00  0.00     0.029 A 
ATOM     62  C   UNL A   1      48.178  28.397  27.139  1.00  0.00     0.049 A 
ATOM     63  H   UNL A   1      46.112  28.560  27.521  1.00  0.00     0.167 HD
ATOM     64  C   UNL A   1      47.338  26.077  26.812  1.00  0.00     0.074 A 
ATOM     65  C   UNL A   1      47.530  24.677  26.491  1.00  0.00     0.031 C 
ATOM     66  C   UNL A   1      48.334  26.999  26.823  1.00  0.00     0.031 A 
BRANCH  53  67
ATOM     67  C   UNL A   1      46.529  32.747  28.256  1.00  0.00    -0.014 A 
ATOM     68  C   UNL A   1      46.522  33.652  27.179  1.00  0.00     0.010 A 
ATOM     69  C   UNL A   1      46.866  33.215  29.539  1.00  0.00     0.010 A 
ATOM     70  C   UNL A   1      46.880  34.990  27.375  1.00  0.00     0.020 A 
ATOM     71  C   UNL A   1      47.194  34.557  29.745  1.00  0.00     0.020 A 
ATOM     72  C   UNL A   1      47.213  35.433  28.658  1.00  0.00     0.054 A 
BRANCH  72  73
ATOM     73  S   UNL A   1      47.642  37.180  28.890  1.00  0.00     0.124 S 
ATOM     74  O   UNL A   1      47.907  37.237  30.327  1.00  0.00    -0.237 OA
ATOM     75  O   UNL A   1      48.812  37.338  28.031  1.00  0.00    -0.237 OA
ATOM     76  O   UNL A   1      46.447  37.895  28.451  1.00  0.00    -0.744 OA
ENDBRANCH  72  73
ENDBRANCH  53  67
BRANCH  54  77
ATOM     77  C   UNL A   1      43.569  23.231  26.900  1.00  0.00    -0.014 A 
ATOM     78  C   UNL A   1      43.731  22.630  25.640  1.00  0.00     0.010 A 
ATOM     79  C   UNL A   1      42.990  22.483  27.942  1.00  0.00     0.010 A 
ATOM     80  C   UNL A   1      43.309  21.314  25.423  1.00  0.00     0.020 A 
ATOM     81  C   UNL A   1      42.595  21.157  27.738  1.00  0.00     0.020 A 
ATOM     82  C   UNL A   1      42.749  20.585  26.475  1.00  0.00     0.054 A 
BRANCH  82  83
ATOM     83  S   UNL A   1      42.259  18.862  26.183  1.00  0.00     0.124 S 
ATOM     84  O   UNL A   1      42.486  18.255  27.491  1.00  0.00    -0.237 OA
ATOM     85  O   UNL A   1      40.861  18.998  25.782  1.00  0.00    -0.237 OA
ATOM     86  O   UNL A   1      43.164  18.424  25.123  1.00  0.00    -0.744 OA
ENDBRANCH  82  83
ENDBRANCH  54  77
BRANCH  66  87
ATOM     87  C   UNL A   1      49.726  26.514  26.518  1.00  0.00    -0.014 A 
ATOM     88  C   UNL A   1      50.549  25.972  27.520  1.00  0.00     0.010 A 
ATOM     89  C   UNL A   1      50.188  26.543  25.188  1.00  0.00     0.010 A 
ATOM     90  C   UNL A   1      51.824  25.497  27.203  1.00  0.00     0.020 A 
ATOM     91  C   UNL A   1      51.448  26.039  24.863  1.00  0.00     0.020 A 
ATOM     92  C   UNL A   1      52.263  25.532  25.875  1.00  0.00     0.054 A 
BRANCH  92  93
ATOM     93  S   UNL A   1      53.905  24.868  25.484  1.00  0.00     0.124 S 
ATOM     94  O   UNL A   1      53.593  23.491  25.111  1.00  0.00    -0.237 OA
ATOM     95  O   UNL A   1      54.347  25.732  24.393  1.00  0.00    -0.237 OA
ATOM     96  O   UNL A   1      54.647  25.021  26.733  1.00  0.00    -0.744 OA
ENDBRANCH  92  93
ENDBRANCH  66  87
ENDBRANCH  40  41
ENDBRANCH  33  35
ENDBRANCH  32  33
ENDBRANCH  31  32
ENDBRANCH  30  31
ENDBRANCH  29  30
ENDBRANCH   1  29
TORSDOF 22
ENDMDL
MODEL 3
REMARK VINA RESULT:      -9.9      1.047      7.994
REMARK SMILES O=C(CCC(=O)N1CCc2sccc2C1)NC1(C(=O)OCCOCCOC(=O)c2ccc(-c3c4nc(c(-c5ccc(S(=O)(=O)[O-])cc5)c5ccc([nH]5)c(-c5ccc(S(=O)(=O)[O-])cc5)c5nc(c(-c6ccc(S(=O)(=O)[O-])cc6)c6ccc3[nH]6)C=C5)C=C4)cc2)CCCCC1
REMARK SMILES IDX 22 1 21 2 20 3 18 4 19 5 17 6 89 7 93 8 90 9 92 10 91 11
REMARK SMILES IDX 16 12 1 13 2 14 3 16 4 17 5 18 6 19 7 20 8 21 15 22 9 23
REMARK SMILES IDX 14 24 10 25 13 26 11 27 12 28 23 29 24 30 25 31 26 32 27 33
REMARK SMILES IDX 28 34 29 35 30 36 88 37 31 38 87 39 32 40 33 41 34 42 81 43
REMARK SMILES IDX 35 44 86 45 80 46 82 47 36 48 85 49 79 50 78 51 37 53 67 54
REMARK SMILES IDX 48 55 66 56 49 57 52 58 65 59 83 60 50 61 51 62 64 64 84 65
REMARK SMILES IDX 53 66 38 67 39 68 47 69 40 70 46 71 41 72 42 73 43 74 44 75
REMARK SMILES IDX 45 76 68 77 69 78 77 79 70 80 76 81 71 82 72 83 73 84 74 85
REMARK SMILES IDX 75 86 54 87 55 88 63 89 56 90 62 91 57 92 58 93 59 94 60 95
REMARK SMILES IDX 61 96
REMARK H PARENT 16 15 82 52 52 63
REMARK Flexibility Score: inf
ROOT
ATOM      1  C   UNL A   1      36.778  23.740  25.071  1.00  0.00     0.202 C 
ENDROOT
BRANCH   1   2
ATOM      2  C   UNL A   1      36.625  23.045  23.724  1.00  0.00     0.261 C 
BRANCH   2   3
ATOM      3  O   UNL A   1      35.510  22.135  23.771  1.00  0.00    -0.461 OA
BRANCH   3   4
ATOM      4  C   UNL A   1      34.315  22.694  23.461  1.00  0.00     0.331 C 
ATOM      5  O   UNL A   1      34.128  23.327  22.428  1.00  0.00    -0.249 OA
BRANCH   4   6
ATOM      6  C   UNL A   1      33.187  22.364  24.492  1.00  0.00     0.138 C 
ATOM      7  C   UNL A   1      33.922  21.552  25.584  1.00  0.00     0.040 C 
ATOM      8  C   UNL A   1      32.060  21.495  23.901  1.00  0.00     0.040 C 
ATOM      9  C   UNL A   1      34.498  20.250  25.012  1.00  0.00     0.003 C 
ATOM     10  C   UNL A   1      32.530  20.127  23.402  1.00  0.00     0.003 C 
ATOM     11  C   UNL A   1      33.397  19.383  24.413  1.00  0.00     0.000 C 
BRANCH   6  12
ATOM     12  N   UNL A   1      32.581  23.664  24.955  1.00  0.00    -0.340 N 
ATOM     13  O   UNL A   1      31.598  23.088  26.962  1.00  0.00    -0.275 OA
ATOM     14  C   UNL A   1      31.970  23.942  26.166  1.00  0.00     0.221 C 
ATOM     15  H   UNL A   1      32.623  24.410  24.314  1.00  0.00     0.164 HD
BRANCH  14  16
ATOM     16  C   UNL A   1      31.845  25.443  26.501  1.00  0.00     0.110 C 
BRANCH  16  17
ATOM     17  C   UNL A   1      31.871  26.338  25.240  1.00  0.00     0.110 C 
BRANCH  17  18
ATOM     18  C   UNL A   1      32.175  27.856  25.350  1.00  0.00     0.223 C 
ATOM     19  O   UNL A   1      32.879  28.271  26.274  1.00  0.00    -0.275 OA
BRANCH  18  20
ATOM     20  N   UNL A   1      31.730  28.702  24.348  1.00  0.00    -0.338 N 
ATOM     21  C   UNL A   1      31.405  28.186  23.046  1.00  0.00     0.125 C 
ATOM     22  C   UNL A   1      31.130  30.035  24.596  1.00  0.00     0.156 C 
ATOM     23  C   UNL A   1      29.927  27.741  23.117  1.00  0.00     0.068 C 
ATOM     24  C   UNL A   1      29.775  30.124  23.893  1.00  0.00    -0.015 A 
ATOM     25  C   UNL A   1      29.177  29.013  23.318  1.00  0.00     0.011 A 
ATOM     26  C   UNL A   1      29.069  31.296  23.470  1.00  0.00     0.017 A 
ATOM     27  S   UNL A   1      27.634  29.309  22.701  1.00  0.00    -0.149 S 
ATOM     28  C   UNL A   1      27.904  30.994  22.788  1.00  0.00     0.065 A 
ENDBRANCH  18  20
ENDBRANCH  17  18
ENDBRANCH  16  17
ENDBRANCH  14  16
ENDBRANCH   6  12
ENDBRANCH   4   6
ENDBRANCH   3   4
ENDBRANCH   2   3
ENDBRANCH   1   2
BRANCH   1  29
ATOM     29  O   UNL A   1      37.447  23.023  26.111  1.00  0.00    -0.374 OA
BRANCH  29  30
ATOM     30  C   UNL A   1      38.128  21.817  25.789  1.00  0.00     0.202 C 
BRANCH  30  31
ATOM     31  C   UNL A   1      39.634  21.760  26.063  1.00  0.00     0.261 C 
BRANCH  31  32
ATOM     32  O   UNL A   1      40.039  20.540  26.683  1.00  0.00    -0.460 OA
BRANCH  32  33
ATOM     33  C   UNL A   1      41.279  20.132  26.311  1.00  0.00     0.338 C 
ATOM     34  O   UNL A   1      41.581  19.088  25.756  1.00  0.00    -0.246 OA
BRANCH  33  35
ATOM     35  C   UNL A   1      42.212  21.258  26.483  1.00  0.00     0.060 A 
ATOM     36  C   UNL A   1      42.509  21.654  27.796  1.00  0.00     0.016 A 
ATOM     37  C   UNL A   1      42.805  21.888  25.387  1.00  0.00     0.016 A 
ATOM     38  C   UNL A   1      43.363  22.725  28.018  1.00  0.00     0.010 A 
ATOM     39  C   UNL A   1      43.642  22.979  25.609  1.00  0.00     0.010 A 
ATOM     40  C   UNL A   1      43.879  23.424  26.921  1.00  0.00    -0.014 A 
BRANCH  40  41
ATOM     41  C   UNL A   1      44.426  24.778  27.135  1.00  0.00     0.031 A 
ATOM     42  C   UNL A   1      43.455  25.853  27.537  1.00  0.00     0.074 A 
ATOM     43  C   UNL A   1      45.737  25.030  26.996  1.00  0.00     0.049 A 
ATOM     44  N   UNL A   1      43.660  27.128  27.721  1.00  0.00    -0.248 NA
ATOM     45  C   UNL A   1      42.060  25.429  27.756  1.00  0.00     0.031 C 
ATOM     46  C   UNL A   1      46.762  24.038  26.671  1.00  0.00     0.029 A 
ATOM     47  N   UNL A   1      46.428  26.208  27.106  1.00  0.00    -0.354 N 
ATOM     48  C   UNL A   1      42.421  27.659  28.061  1.00  0.00     0.074 A 
ATOM     49  C   UNL A   1      41.465  26.578  28.034  1.00  0.00     0.031 C 
ATOM     50  C   UNL A   1      47.954  24.655  26.593  1.00  0.00     0.029 A 
ATOM     51  C   UNL A   1      47.766  26.087  26.824  1.00  0.00     0.049 A 
ATOM     52  H   UNL A   1      46.004  27.059  27.363  1.00  0.00     0.167 HD
ATOM     53  C   UNL A   1      42.112  28.938  28.370  1.00  0.00     0.031 A 
ATOM     54  C   UNL A   1      48.718  27.035  26.737  1.00  0.00     0.031 A 
ATOM     55  C   UNL A   1      43.076  30.004  28.369  1.00  0.00     0.049 A 
ATOM     56  C   UNL A   1      48.335  28.468  27.007  1.00  0.00     0.074 A 
ATOM     57  C   UNL A   1      42.883  31.340  28.664  1.00  0.00     0.029 A 
ATOM     58  N   UNL A   1      44.417  29.850  28.046  1.00  0.00    -0.354 N 
ATOM     59  N   UNL A   1      47.163  28.960  27.339  1.00  0.00    -0.248 NA
ATOM     60  C   UNL A   1      49.400  29.473  26.895  1.00  0.00     0.031 C 
ATOM     61  C   UNL A   1      44.096  32.006  28.459  1.00  0.00     0.029 A 
ATOM     62  C   UNL A   1      45.060  31.072  28.107  1.00  0.00     0.049 A 
ATOM     63  H   UNL A   1      44.846  28.997  27.809  1.00  0.00     0.167 HD
ATOM     64  C   UNL A   1      47.358  30.327  27.507  1.00  0.00     0.074 A 
ATOM     65  C   UNL A   1      48.762  30.579  27.252  1.00  0.00     0.031 C 
ATOM     66  C   UNL A   1      46.462  31.288  27.845  1.00  0.00     0.031 A 
BRANCH  53  67
ATOM     67  C   UNL A   1      40.672  29.253  28.677  1.00  0.00    -0.014 A 
ATOM     68  C   UNL A   1      39.720  29.415  27.653  1.00  0.00     0.010 A 
ATOM     69  C   UNL A   1      40.260  29.373  30.016  1.00  0.00     0.010 A 
ATOM     70  C   UNL A   1      38.393  29.726  27.962  1.00  0.00     0.020 A 
ATOM     71  C   UNL A   1      38.928  29.654  30.331  1.00  0.00     0.020 A 
ATOM     72  C   UNL A   1      38.005  29.842  29.301  1.00  0.00     0.054 A 
BRANCH  72  73
ATOM     73  S   UNL A   1      36.270  30.216  29.675  1.00  0.00     0.124 S 
ATOM     74  O   UNL A   1      36.140  29.703  31.037  1.00  0.00    -0.237 OA
ATOM     75  O   UNL A   1      36.222  31.669  29.544  1.00  0.00    -0.237 OA
ATOM     76  O   UNL A   1      35.527  29.475  28.659  1.00  0.00    -0.744 OA
ENDBRANCH  72  73
ENDBRANCH  53  67
BRANCH  54  77
ATOM     77  C   UNL A   1      50.109  26.664  26.358  1.00  0.00    -0.014 A 
ATOM     78  C   UNL A   1      51.029  26.226  27.327  1.00  0.00     0.010 A 
ATOM     79  C   UNL A   1      50.521  26.741  25.014  1.00  0.00     0.010 A 
ATOM     80  C   UNL A   1      52.336  25.887  26.963  1.00  0.00     0.020 A 
ATOM     81  C   UNL A   1      51.818  26.373  24.641  1.00  0.00     0.020 A 
ATOM     82  C   UNL A   1      52.720  25.958  25.621  1.00  0.00     0.054 A 
BRANCH  82  83
ATOM     83  S   UNL A   1      54.405  25.461  25.166  1.00  0.00     0.124 S 
ATOM     84  O   UNL A   1      54.314  24.004  25.206  1.00  0.00    -0.237 OA
ATOM     85  O   UNL A   1      54.557  26.051  23.838  1.00  0.00    -0.237 OA
ATOM     86  O   UNL A   1      55.233  26.066  26.207  1.00  0.00    -0.744 OA
ENDBRANCH  82  83
ENDBRANCH  54  77
BRANCH  66  87
ATOM     87  C   UNL A   1      46.980  32.693  27.998  1.00  0.00    -0.014 A 
ATOM     88  C   UNL A   1      47.519  33.147  29.214  1.00  0.00     0.010 A 
ATOM     89  C   UNL A   1      46.987  33.549  26.880  1.00  0.00     0.010 A 
ATOM     90  C   UNL A   1      48.026  34.444  29.318  1.00  0.00     0.020 A 
ATOM     91  C   UNL A   1      47.522  34.834  26.971  1.00  0.00     0.020 A 
ATOM     92  C   UNL A   1      48.025  35.278  28.194  1.00  0.00     0.054 A 
BRANCH  92  93
ATOM     93  S   UNL A   1      48.731  36.942  28.346  1.00  0.00     0.124 S 
ATOM     94  O   UNL A   1      47.653  37.669  29.011  1.00  0.00    -0.237 OA
ATOM     95  O   UNL A   1      49.926  36.710  29.153  1.00  0.00    -0.237 OA
ATOM     96  O   UNL A   1      48.987  37.338  26.963  1.00  0.00    -0.744 OA
ENDBRANCH  92  93
ENDBRANCH  66  87
ENDBRANCH  40  41
ENDBRANCH  33  35
ENDBRANCH  32  33
ENDBRANCH  31  32
ENDBRANCH  30  31
ENDBRANCH  29  30
ENDBRANCH   1  29
TORSDOF 22
ENDMDL
