MODEL 1
REMARK VINA RESULT:      -9.4      0.000      0.000
REMARK SMILES COC(=O)C[C@H](NC(=O)N(C)C[C@@H]1CCC[N@H+]1C)C(=O)OCCOCCOC(=O)c1ccc(-c2c3nc(c(-c4ccc(S(=O)(=O)[O-])cc4)c4ccc([nH]4)c(-c4ccc(S(=O)(=O)[O-])cc4)c4nc(c(-c5ccc(S(=O)(=O)[O-])cc5)c5ccc2[nH]5)C=C4)C=C3)cc1
REMARK SMILES IDX 23 1 22 2 21 3 19 4 20 5 6 6 5 7 3 8 4 9 2 10 1 11 7 12 8 13
REMARK SMILES IDX 9 15 10 16 11 17 12 18 13 19 14 20 17 21 15 22 16 23 18 24
REMARK SMILES IDX 24 26 25 27 26 28 27 29 28 30 29 31 30 32 31 33 89 34 32 35
REMARK SMILES IDX 88 36 33 37 34 38 35 39 82 40 36 41 87 42 81 43 83 44 37 45
REMARK SMILES IDX 86 46 80 47 79 48 38 50 68 51 49 52 67 53 50 54 53 55 66 56
REMARK SMILES IDX 84 57 51 58 52 59 65 61 85 62 54 63 39 64 40 65 48 66 41 67
REMARK SMILES IDX 47 68 42 69 43 70 44 71 45 72 46 73 69 74 70 75 78 76 71 77
REMARK SMILES IDX 77 78 72 79 73 80 74 81 75 82 76 83 55 84 56 85 64 86 57 87
REMARK SMILES IDX 63 88 58 89 59 90 60 91 61 92 62 93
REMARK H PARENT 7 14 17 25 83 49 53 60
REMARK Flexibility Score: inf
ROOT
ATOM      1  C   UNL A   1      33.513  28.409  26.803  1.00  0.00     0.202 C 
ENDROOT
BRANCH   1   2
ATOM      2  C   UNL A   1      31.989  28.496  26.974  1.00  0.00     0.261 C 
BRANCH   2   3
ATOM      3  O   UNL A   1      31.252  27.933  25.873  1.00  0.00    -0.462 OA
BRANCH   3   4
ATOM      4  C   UNL A   1      31.173  28.706  24.753  1.00  0.00     0.329 C 
ATOM      5  O   UNL A   1      31.090  29.930  24.748  1.00  0.00    -0.250 OA
BRANCH   4   6
ATOM      6  C   UNL A   1      31.109  27.883  23.457  1.00  0.00     0.204 C 
BRANCH   6   7
ATOM      7  C   UNL A   1      30.233  28.675  22.481  1.00  0.00     0.159 C 
BRANCH   7   8
ATOM      8  C   UNL A   1      28.771  28.539  22.801  1.00  0.00     0.308 C 
ATOM      9  O   UNL A   1      28.295  27.607  23.434  1.00  0.00    -0.252 OA
BRANCH   8  10
ATOM     10  O   UNL A   1      28.069  29.622  22.365  1.00  0.00    -0.469 OA
ATOM     11  C   UNL A   1      28.835  30.528  21.572  1.00  0.00     0.282 C 
ENDBRANCH   8  10
ENDBRANCH   7   8
ENDBRANCH   6   7
BRANCH   6  12
ATOM     12  N   UNL A   1      30.604  26.510  23.612  1.00  0.00    -0.324 N 
ATOM     13  C   UNL A   1      31.053  25.263  23.374  1.00  0.00     0.318 C 
ATOM     14  H   UNL A   1      29.695  26.500  23.991  1.00  0.00     0.166 HD
ATOM     15  O   UNL A   1      30.173  24.398  23.387  1.00  0.00    -0.249 OA
BRANCH  13  16
ATOM     16  N   UNL A   1      32.359  24.959  23.109  1.00  0.00    -0.322 N 
ATOM     17  C   UNL A   1      32.978  24.826  21.803  1.00  0.00     0.149 C 
BRANCH  16  18
ATOM     18  C   UNL A   1      33.248  24.649  24.252  1.00  0.00     0.185 C 
BRANCH  18  19
ATOM     19  C   UNL A   1      33.196  23.221  24.890  1.00  0.00     0.203 C 
ATOM     20  C   UNL A   1      33.897  22.139  24.046  1.00  0.00     0.073 C 
ATOM     21  N   UNL A   1      31.873  22.654  25.221  1.00  0.00    -0.333 N 
ATOM     22  C   UNL A   1      32.928  20.972  23.985  1.00  0.00     0.068 C 
ATOM     23  C   UNL A   1      32.039  21.191  25.192  1.00  0.00     0.262 C 
ATOM     24  C   UNL A   1      31.338  23.083  26.504  1.00  0.00     0.333 C 
ATOM     25  H   UNL A   1      31.191  22.989  24.541  1.00  0.00     0.348 HD
ENDBRANCH  18  19
ENDBRANCH  16  18
ENDBRANCH  13  16
ENDBRANCH   6  12
ENDBRANCH   4   6
ENDBRANCH   3   4
ENDBRANCH   2   3
ENDBRANCH   1   2
BRANCH   1  26
ATOM     26  O   UNL A   1      34.221  29.631  26.607  1.00  0.00    -0.374 OA
BRANCH  26  27
ATOM     27  C   UNL A   1      33.969  30.684  27.532  1.00  0.00     0.202 C 
BRANCH  27  28
ATOM     28  C   UNL A   1      34.957  30.892  28.676  1.00  0.00     0.261 C 
BRANCH  28  29
ATOM     29  O   UNL A   1      35.839  29.790  28.904  1.00  0.00    -0.460 OA
BRANCH  29  30
ATOM     30  C   UNL A   1      36.563  29.889  30.040  1.00  0.00     0.338 C 
ATOM     31  O   UNL A   1      36.157  29.922  31.193  1.00  0.00    -0.246 OA
BRANCH  30  32
ATOM     32  C   UNL A   1      37.987  29.830  29.708  1.00  0.00     0.060 A 
ATOM     33  C   UNL A   1      38.349  29.855  28.358  1.00  0.00     0.016 A 
ATOM     34  C   UNL A   1      38.939  29.634  30.711  1.00  0.00     0.016 A 
ATOM     35  C   UNL A   1      39.676  29.637  28.000  1.00  0.00     0.010 A 
ATOM     36  C   UNL A   1      40.268  29.413  30.348  1.00  0.00     0.010 A 
ATOM     37  C   UNL A   1      40.633  29.379  28.991  1.00  0.00    -0.014 A 
BRANCH  37  38
ATOM     38  C   UNL A   1      41.994  28.953  28.593  1.00  0.00     0.031 A 
ATOM     39  C   UNL A   1      43.106  29.964  28.579  1.00  0.00     0.074 A 
ATOM     40  C   UNL A   1      42.234  27.667  28.280  1.00  0.00     0.049 A 
ATOM     41  N   UNL A   1      44.367  29.800  28.274  1.00  0.00    -0.248 NA
ATOM     42  C   UNL A   1      42.751  31.341  28.960  1.00  0.00     0.031 C 
ATOM     43  C   UNL A   1      41.237  26.597  28.288  1.00  0.00     0.029 A 
ATOM     44  N   UNL A   1      43.393  27.047  27.893  1.00  0.00    -0.354 N 
ATOM     45  C   UNL A   1      44.957  31.049  28.425  1.00  0.00     0.074 A 
ATOM     46  C   UNL A   1      43.910  31.968  28.820  1.00  0.00     0.031 C 
ATOM     47  C   UNL A   1      41.828  25.448  27.918  1.00  0.00     0.029 A 
ATOM     48  C   UNL A   1      43.236  25.710  27.623  1.00  0.00     0.049 A 
ATOM     49  H   UNL A   1      44.256  27.514  27.817  1.00  0.00     0.167 HD
ATOM     50  C   UNL A   1      46.254  31.399  28.257  1.00  0.00     0.031 A 
ATOM     51  C   UNL A   1      44.124  24.802  27.174  1.00  0.00     0.031 A 
ATOM     52  C   UNL A   1      47.286  30.485  27.843  1.00  0.00     0.049 A 
ATOM     53  C   UNL A   1      45.548  25.225  26.936  1.00  0.00     0.074 A 
ATOM     54  C   UNL A   1      48.632  30.736  27.648  1.00  0.00     0.029 A 
ATOM     55  N   UNL A   1      47.081  29.145  27.549  1.00  0.00    -0.354 N 
ATOM     56  N   UNL A   1      46.096  26.404  27.110  1.00  0.00    -0.248 NA
ATOM     57  C   UNL A   1      46.474  24.194  26.451  1.00  0.00     0.031 C 
ATOM     58  C   UNL A   1      49.234  29.557  27.193  1.00  0.00     0.029 A 
ATOM     59  C   UNL A   1      48.271  28.559  27.154  1.00  0.00     0.049 A 
ATOM     60  H   UNL A   1      46.217  28.678  27.613  1.00  0.00     0.167 HD
ATOM     61  C   UNL A   1      47.437  26.252  26.775  1.00  0.00     0.074 A 
ATOM     62  C   UNL A   1      47.619  24.864  26.402  1.00  0.00     0.031 C 
ATOM     63  C   UNL A   1      48.430  27.176  26.780  1.00  0.00     0.031 A 
BRANCH  50  64
ATOM     64  C   UNL A   1      46.619  32.840  28.492  1.00  0.00    -0.014 A 
ATOM     65  C   UNL A   1      46.549  33.785  27.453  1.00  0.00     0.010 A 
ATOM     66  C   UNL A   1      47.018  33.260  29.773  1.00  0.00     0.010 A 
ATOM     67  C   UNL A   1      46.912  35.116  27.680  1.00  0.00     0.020 A 
ATOM     68  C   UNL A   1      47.359  34.594  30.012  1.00  0.00     0.020 A 
ATOM     69  C   UNL A   1      47.322  35.511  28.958  1.00  0.00     0.054 A 
BRANCH  69  70
ATOM     70  S   UNL A   1      47.781  37.244  29.230  1.00  0.00     0.124 S 
ATOM     71  O   UNL A   1      49.000  37.362  28.433  1.00  0.00    -0.237 OA
ATOM     72  O   UNL A   1      46.622  37.970  28.715  1.00  0.00    -0.237 OA
ATOM     73  O   UNL A   1      47.972  37.329  30.676  1.00  0.00    -0.744 OA
ENDBRANCH  69  70
ENDBRANCH  50  64
BRANCH  51  74
ATOM     74  C   UNL A   1      43.681  23.407  26.911  1.00  0.00    -0.014 A 
ATOM     75  C   UNL A   1      43.260  22.576  27.963  1.00  0.00     0.010 A 
ATOM     76  C   UNL A   1      43.655  22.912  25.595  1.00  0.00     0.010 A 
ATOM     77  C   UNL A   1      42.826  21.273  27.703  1.00  0.00     0.020 A 
ATOM     78  C   UNL A   1      43.200  21.619  25.328  1.00  0.00     0.020 A 
ATOM     79  C   UNL A   1      42.796  20.803  26.386  1.00  0.00     0.054 A 
BRANCH  79  80
ATOM     80  S   UNL A   1      42.163  19.133  26.064  1.00  0.00     0.124 S 
ATOM     81  O   UNL A   1      40.734  19.378  25.896  1.00  0.00    -0.237 OA
ATOM     82  O   UNL A   1      42.886  18.747  24.855  1.00  0.00    -0.237 OA
ATOM     83  O   UNL A   1      42.536  18.390  27.266  1.00  0.00    -0.744 OA
ENDBRANCH  79  80
ENDBRANCH  51  74
BRANCH  63  84
ATOM     84  C   UNL A   1      49.806  26.711  26.391  1.00  0.00    -0.014 A 
ATOM     85  C   UNL A   1      50.638  26.051  27.312  1.00  0.00     0.010 A 
ATOM     86  C   UNL A   1      50.250  26.888  25.067  1.00  0.00     0.010 A 
ATOM     87  C   UNL A   1      51.904  25.602  26.925  1.00  0.00     0.020 A 
ATOM     88  C   UNL A   1      51.505  26.419  24.670  1.00  0.00     0.020 A 
ATOM     89  C   UNL A   1      52.329  25.791  25.606  1.00  0.00     0.054 A 
BRANCH  89  90
ATOM     90  S   UNL A   1      53.959  25.163  25.115  1.00  0.00     0.124 S 
ATOM     91  O   UNL A   1      53.688  23.743  24.910  1.00  0.00    -0.237 OA
ATOM     92  O   UNL A   1      54.248  25.928  23.905  1.00  0.00    -0.237 OA
ATOM     93  O   UNL A   1      54.810  25.477  26.261  1.00  0.00    -0.744 OA
ENDBRANCH  89  90
ENDBRANCH  63  84
ENDBRANCH  37  38
ENDBRANCH  30  32
ENDBRANCH  29  30
ENDBRANCH  28  29
ENDBRANCH  27  28
ENDBRANCH  26  27
ENDBRANCH   1  26
TORSDOF 24
ENDMDL
MODEL 2
REMARK VINA RESULT:      -9.0      2.215      8.852
REMARK SMILES COC(=O)C[C@H](NC(=O)N(C)C[C@@H]1CCC[N@H+]1C)C(=O)OCCOCCOC(=O)c1ccc(-c2c3nc(c(-c4ccc(S(=O)(=O)[O-])cc4)c4ccc([nH]4)c(-c4ccc(S(=O)(=O)[O-])cc4)c4nc(c(-c5ccc(S(=O)(=O)[O-])cc5)c5ccc2[nH]5)C=C4)C=C3)cc1
REMARK SMILES IDX 23 1 22 2 21 3 19 4 20 5 6 6 5 7 3 8 4 9 2 10 1 11 7 12 8 13
REMARK SMILES IDX 9 15 10 16 11 17 12 18 13 19 14 20 17 21 15 22 16 23 18 24
REMARK SMILES IDX 24 26 25 27 26 28 27 29 28 30 29 31 30 32 31 33 89 34 32 35
REMARK SMILES IDX 88 36 33 37 34 38 35 39 82 40 36 41 87 42 81 43 83 44 37 45
REMARK SMILES IDX 86 46 80 47 79 48 38 50 68 51 49 52 67 53 50 54 53 55 66 56
REMARK SMILES IDX 84 57 51 58 52 59 65 61 85 62 54 63 39 64 40 65 48 66 41 67
REMARK SMILES IDX 47 68 42 69 43 70 44 71 45 72 46 73 69 74 70 75 78 76 71 77
REMARK SMILES IDX 77 78 72 79 73 80 74 81 75 82 76 83 55 84 56 85 64 86 57 87
REMARK SMILES IDX 63 88 58 89 59 90 60 91 61 92 62 93
REMARK H PARENT 7 14 17 25 83 49 53 60
REMARK Flexibility Score: inf
ROOT
ATOM      1  C   UNL A   1      38.722  22.639  26.182  1.00  0.00     0.202 C 
ENDROOT
BRANCH   1   2
ATOM      2  C   UNL A   1      37.714  22.352  25.060  1.00  0.00     0.261 C 
BRANCH   2   3
ATOM      3  O   UNL A   1      36.739  23.396  24.879  1.00  0.00    -0.462 OA
BRANCH   3   4
ATOM      4  C   UNL A   1      36.009  23.335  23.729  1.00  0.00     0.329 C 
ATOM      5  O   UNL A   1      36.468  23.094  22.618  1.00  0.00    -0.250 OA
BRANCH   4   6
ATOM      6  C   UNL A   1      34.529  23.690  23.938  1.00  0.00     0.204 C 
BRANCH   6   7
ATOM      7  C   UNL A   1      33.773  22.361  24.043  1.00  0.00     0.159 C 
BRANCH   7   8
ATOM      8  C   UNL A   1      33.350  22.064  25.453  1.00  0.00     0.308 C 
ATOM      9  O   UNL A   1      32.465  22.670  26.042  1.00  0.00    -0.252 OA
BRANCH   8  10
ATOM     10  O   UNL A   1      34.020  20.989  25.953  1.00  0.00    -0.469 OA
ATOM     11  C   UNL A   1      34.502  20.090  24.955  1.00  0.00     0.282 C 
ENDBRANCH   8  10
ENDBRANCH   7   8
ENDBRANCH   6   7
BRANCH   6  12
ATOM     12  N   UNL A   1      33.936  24.543  22.897  1.00  0.00    -0.324 N 
ATOM     13  C   UNL A   1      32.708  24.991  22.572  1.00  0.00     0.318 C 
ATOM     14  H   UNL A   1      34.619  24.876  22.270  1.00  0.00     0.166 HD
ATOM     15  O   UNL A   1      32.627  25.460  21.433  1.00  0.00    -0.249 OA
BRANCH  13  16
ATOM     16  N   UNL A   1      31.624  24.917  23.401  1.00  0.00    -0.322 N 
ATOM     17  C   UNL A   1      30.543  23.951  23.343  1.00  0.00     0.149 C 
BRANCH  16  18
ATOM     18  C   UNL A   1      31.463  25.967  24.433  1.00  0.00     0.185 C 
BRANCH  18  19
ATOM     19  C   UNL A   1      32.418  27.207  24.412  1.00  0.00     0.203 C 
ATOM     20  C   UNL A   1      33.500  27.174  25.508  1.00  0.00     0.073 C 
ATOM     21  N   UNL A   1      31.815  28.552  24.507  1.00  0.00    -0.333 N 
ATOM     22  C   UNL A   1      33.483  28.552  26.146  1.00  0.00     0.068 C 
ATOM     23  C   UNL A   1      32.854  29.424  25.080  1.00  0.00     0.262 C 
ATOM     24  C   UNL A   1      31.337  29.088  23.242  1.00  0.00     0.333 C 
ATOM     25  H   UNL A   1      30.978  28.499  25.088  1.00  0.00     0.348 HD
ENDBRANCH  18  19
ENDBRANCH  16  18
ENDBRANCH  13  16
ENDBRANCH   6  12
ENDBRANCH   4   6
ENDBRANCH   3   4
ENDBRANCH   2   3
ENDBRANCH   1   2
BRANCH   1  26
ATOM     26  O   UNL A   1      39.539  21.556  26.623  1.00  0.00    -0.374 OA
BRANCH  26  27
ATOM     27  C   UNL A   1      39.453  20.337  25.892  1.00  0.00     0.202 C 
BRANCH  27  28
ATOM     28  C   UNL A   1      40.439  19.222  26.228  1.00  0.00     0.261 C 
BRANCH  28  29
ATOM     29  O   UNL A   1      41.593  19.178  25.384  1.00  0.00    -0.460 OA
BRANCH  29  30
ATOM     30  C   UNL A   1      42.759  19.384  26.033  1.00  0.00     0.338 C 
ATOM     31  O   UNL A   1      43.626  18.567  26.308  1.00  0.00    -0.246 OA
BRANCH  30  32
ATOM     32  C   UNL A   1      42.922  20.818  26.281  1.00  0.00     0.060 A 
ATOM     33  C   UNL A   1      43.123  21.657  25.180  1.00  0.00     0.016 A 
ATOM     34  C   UNL A   1      42.992  21.306  27.587  1.00  0.00     0.016 A 
ATOM     35  C   UNL A   1      43.443  22.995  25.389  1.00  0.00     0.010 A 
ATOM     36  C   UNL A   1      43.316  22.647  27.792  1.00  0.00     0.010 A 
ATOM     37  C   UNL A   1      43.577  23.486  26.695  1.00  0.00    -0.014 A 
BRANCH  37  38
ATOM     38  C   UNL A   1      44.110  24.851  26.907  1.00  0.00     0.031 A 
ATOM     39  C   UNL A   1      43.177  25.944  27.347  1.00  0.00     0.074 A 
ATOM     40  C   UNL A   1      45.422  25.097  26.736  1.00  0.00     0.049 A 
ATOM     41  N   UNL A   1      43.439  27.200  27.598  1.00  0.00    -0.248 NA
ATOM     42  C   UNL A   1      41.765  25.573  27.529  1.00  0.00     0.031 C 
ATOM     43  C   UNL A   1      46.421  24.106  26.339  1.00  0.00     0.029 A 
ATOM     44  N   UNL A   1      46.134  26.259  26.876  1.00  0.00    -0.354 N 
ATOM     45  C   UNL A   1      42.227  27.771  27.968  1.00  0.00     0.074 A 
ATOM     46  C   UNL A   1      41.224  26.731  27.879  1.00  0.00     0.031 C 
ATOM     47  C   UNL A   1      47.621  24.705  26.262  1.00  0.00     0.029 A 
ATOM     48  C   UNL A   1      47.468  26.123  26.579  1.00  0.00     0.049 A 
ATOM     49  H   UNL A   1      45.730  27.110  27.162  1.00  0.00     0.167 HD
ATOM     50  C   UNL A   1      41.973  29.044  28.354  1.00  0.00     0.031 A 
ATOM     51  C   UNL A   1      48.452  27.043  26.552  1.00  0.00     0.031 A 
ATOM     52  C   UNL A   1      42.970  30.078  28.418  1.00  0.00     0.049 A 
ATOM     53  C   UNL A   1      48.136  28.466  26.926  1.00  0.00     0.074 A 
ATOM     54  C   UNL A   1      42.819  31.400  28.801  1.00  0.00     0.029 A 
ATOM     55  N   UNL A   1      44.305  29.910  28.081  1.00  0.00    -0.354 N 
ATOM     56  N   UNL A   1      46.990  28.983  27.300  1.00  0.00    -0.248 NA
ATOM     57  C   UNL A   1      49.247  29.425  26.884  1.00  0.00     0.031 C 
ATOM     58  C   UNL A   1      44.055  32.041  28.652  1.00  0.00     0.029 A 
ATOM     59  C   UNL A   1      44.986  31.106  28.225  1.00  0.00     0.049 A 
ATOM     60  H   UNL A   1      44.710  29.063  27.783  1.00  0.00     0.167 HD
ATOM     61  C   UNL A   1      47.246  30.325  27.558  1.00  0.00     0.074 A 
ATOM     62  C   UNL A   1      48.658  30.536  27.310  1.00  0.00     0.031 C 
ATOM     63  C   UNL A   1      46.391  31.296  27.966  1.00  0.00     0.031 A 
BRANCH  50  64
ATOM     64  C   UNL A   1      40.550  29.390  28.704  1.00  0.00    -0.014 A 
ATOM     65  C   UNL A   1      40.153  29.559  30.043  1.00  0.00     0.010 A 
ATOM     66  C   UNL A   1      39.602  29.567  27.681  1.00  0.00     0.010 A 
ATOM     67  C   UNL A   1      38.823  29.859  30.354  1.00  0.00     0.020 A 
ATOM     68  C   UNL A   1      38.277  29.890  27.985  1.00  0.00     0.020 A 
ATOM     69  C   UNL A   1      37.891  30.015  29.323  1.00  0.00     0.054 A 
BRANCH  69  70
ATOM     70  S   UNL A   1      36.173  30.410  29.751  1.00  0.00     0.124 S 
ATOM     71  O   UNL A   1      35.445  29.871  28.605  1.00  0.00    -0.237 OA
ATOM     72  O   UNL A   1      35.982  29.692  31.010  1.00  0.00    -0.237 OA
ATOM     73  O   UNL A   1      36.170  31.866  29.862  1.00  0.00    -0.744 OA
ENDBRANCH  69  70
ENDBRANCH  50  64
BRANCH  51  74
ATOM     74  C   UNL A   1      49.824  26.641  26.143  1.00  0.00    -0.014 A 
ATOM     75  C   UNL A   1      50.253  26.796  24.815  1.00  0.00     0.010 A 
ATOM     76  C   UNL A   1      50.720  26.126  27.097  1.00  0.00     0.010 A 
ATOM     77  C   UNL A   1      51.552  26.435  24.445  1.00  0.00     0.020 A 
ATOM     78  C   UNL A   1      52.027  25.786  26.737  1.00  0.00     0.020 A 
ATOM     79  C   UNL A   1      52.432  25.935  25.409  1.00  0.00     0.054 A 
BRANCH  79  80
ATOM     80  S   UNL A   1      54.135  25.539  24.923  1.00  0.00     0.124 S 
ATOM     81  O   UNL A   1      54.272  26.279  23.673  1.00  0.00    -0.237 OA
ATOM     82  O   UNL A   1      54.913  26.048  26.049  1.00  0.00    -0.237 OA
ATOM     83  O   UNL A   1      54.122  24.083  24.794  1.00  0.00    -0.744 OA
ENDBRANCH  79  80
ENDBRANCH  51  74
BRANCH  63  84
ATOM     84  C   UNL A   1      46.964  32.668  28.193  1.00  0.00    -0.014 A 
ATOM     85  C   UNL A   1      46.988  33.625  27.164  1.00  0.00     0.010 A 
ATOM     86  C   UNL A   1      47.436  33.021  29.471  1.00  0.00     0.010 A 
ATOM     87  C   UNL A   1      47.501  34.904  27.401  1.00  0.00     0.020 A 
ATOM     88  C   UNL A   1      47.926  34.305  29.718  1.00  0.00     0.020 A 
ATOM     89  C   UNL A   1      47.968  35.234  28.677  1.00  0.00     0.054 A 
BRANCH  89  90
ATOM     90  S   UNL A   1      48.589  36.913  28.973  1.00  0.00     0.124 S 
ATOM     91  O   UNL A   1      49.403  36.729  30.171  1.00  0.00    -0.237 OA
ATOM     92  O   UNL A   1      49.330  37.203  27.748  1.00  0.00    -0.237 OA
ATOM     93  O   UNL A   1      47.374  37.703  29.160  1.00  0.00    -0.744 OA
ENDBRANCH  89  90
ENDBRANCH  63  84
ENDBRANCH  37  38
ENDBRANCH  30  32
ENDBRANCH  29  30
ENDBRANCH  28  29
ENDBRANCH  27  28
ENDBRANCH  26  27
ENDBRANCH   1  26
TORSDOF 24
ENDMDL
MODEL 3
REMARK VINA RESULT:      -8.8      6.402     11.922
REMARK SMILES COC(=O)C[C@H](NC(=O)N(C)C[C@@H]1CCC[N@H+]1C)C(=O)OCCOCCOC(=O)c1ccc(-c2c3nc(c(-c4ccc(S(=O)(=O)[O-])cc4)c4ccc([nH]4)c(-c4ccc(S(=O)(=O)[O-])cc4)c4nc(c(-c5ccc(S(=O)(=O)[O-])cc5)c5ccc2[nH]5)C=C4)C=C3)cc1
REMARK SMILES IDX 23 1 22 2 21 3 19 4 20 5 6 6 5 7 3 8 4 9 2 10 1 11 7 12 8 13
REMARK SMILES IDX 9 15 10 16 11 17 12 18 13 19 14 20 17 21 15 22 16 23 18 24
REMARK SMILES IDX 24 26 25 27 26 28 27 29 28 30 29 31 30 32 31 33 89 34 32 35
REMARK SMILES IDX 88 36 33 37 34 38 35 39 82 40 36 41 87 42 81 43 83 44 37 45
REMARK SMILES IDX 86 46 80 47 79 48 38 50 68 51 49 52 67 53 50 54 53 55 66 56
REMARK SMILES IDX 84 57 51 58 52 59 65 61 85 62 54 63 39 64 40 65 48 66 41 67
REMARK SMILES IDX 47 68 42 69 43 70 44 71 45 72 46 73 69 74 70 75 78 76 71 77
REMARK SMILES IDX 77 78 72 79 73 80 74 81 75 82 76 83 55 84 56 85 64 86 57 87
REMARK SMILES IDX 63 88 58 89 59 90 60 91 61 92 62 93
REMARK H PARENT 7 14 17 25 83 49 53 60
REMARK Flexibility Score: inf
ROOT
ATOM      1  C   UNL A   1      38.047  23.970  26.605  1.00  0.00     0.202 C 
ENDROOT
BRANCH   1   2
ATOM      2  C   UNL A   1      37.605  23.503  25.211  1.00  0.00     0.261 C 
BRANCH   2   3
ATOM      3  O   UNL A   1      36.262  23.896  24.871  1.00  0.00    -0.462 OA
BRANCH   3   4
ATOM      4  C   UNL A   1      35.797  23.445  23.670  1.00  0.00     0.329 C 
ATOM      5  O   UNL A   1      36.494  22.964  22.783  1.00  0.00    -0.250 OA
BRANCH   4   6
ATOM      6  C   UNL A   1      34.290  23.678  23.484  1.00  0.00     0.204 C 
BRANCH   6   7
ATOM      7  C   UNL A   1      33.634  22.293  23.476  1.00  0.00     0.159 C 
BRANCH   7   8
ATOM      8  C   UNL A   1      33.602  21.678  24.845  1.00  0.00     0.308 C 
ATOM      9  O   UNL A   1      33.081  22.205  25.819  1.00  0.00    -0.252 OA
BRANCH   8  10
ATOM     10  O   UNL A   1      34.154  20.433  24.840  1.00  0.00    -0.469 OA
ATOM     11  C   UNL A   1      33.266  19.407  24.398  1.00  0.00     0.282 C 
ENDBRANCH   8  10
ENDBRANCH   7   8
ENDBRANCH   6   7
BRANCH   6  12
ATOM     12  N   UNL A   1      33.917  24.437  22.280  1.00  0.00    -0.324 N 
ATOM     13  C   UNL A   1      33.316  25.609  22.002  1.00  0.00     0.318 C 
ATOM     14  H   UNL A   1      34.176  23.960  21.458  1.00  0.00     0.166 HD
ATOM     15  O   UNL A   1      32.945  25.721  20.830  1.00  0.00    -0.249 OA
BRANCH  13  16
ATOM     16  N   UNL A   1      33.097  26.592  22.925  1.00  0.00    -0.322 N 
ATOM     17  C   UNL A   1      33.874  27.803  23.114  1.00  0.00     0.149 C 
BRANCH  16  18
ATOM     18  C   UNL A   1      32.005  26.396  23.907  1.00  0.00     0.185 C 
BRANCH  18  19
ATOM     19  C   UNL A   1      30.922  27.513  24.074  1.00  0.00     0.203 C 
ATOM     20  C   UNL A   1      30.033  27.705  22.831  1.00  0.00     0.073 C 
ATOM     21  N   UNL A   1      31.375  28.871  24.437  1.00  0.00    -0.333 N 
ATOM     22  C   UNL A   1      29.990  29.203  22.583  1.00  0.00     0.068 C 
ATOM     23  C   UNL A   1      30.342  29.792  23.932  1.00  0.00     0.262 C 
ATOM     24  C   UNL A   1      31.587  29.074  25.863  1.00  0.00     0.333 C 
ATOM     25  H   UNL A   1      32.291  29.037  24.022  1.00  0.00     0.348 HD
ENDBRANCH  18  19
ENDBRANCH  16  18
ENDBRANCH  13  16
ENDBRANCH   6  12
ENDBRANCH   4   6
ENDBRANCH   3   4
ENDBRANCH   2   3
ENDBRANCH   1   2
BRANCH   1  26
ATOM     26  O   UNL A   1      39.195  23.341  27.174  1.00  0.00    -0.374 OA
BRANCH  26  27
ATOM     27  C   UNL A   1      40.015  22.573  26.300  1.00  0.00     0.202 C 
BRANCH  27  28
ATOM     28  C   UNL A   1      41.507  22.890  26.246  1.00  0.00     0.261 C 
BRANCH  28  29
ATOM     29  O   UNL A   1      41.813  24.283  26.132  1.00  0.00    -0.460 OA
BRANCH  29  30
ATOM     30  C   UNL A   1      42.799  24.700  26.955  1.00  0.00     0.338 C 
ATOM     31  O   UNL A   1      43.971  24.355  26.966  1.00  0.00    -0.246 OA
BRANCH  30  32
ATOM     32  C   UNL A   1      42.285  25.770  27.813  1.00  0.00     0.060 A 
ATOM     33  C   UNL A   1      43.042  26.940  27.930  1.00  0.00     0.016 A 
ATOM     34  C   UNL A   1      41.135  25.571  28.578  1.00  0.00     0.016 A 
ATOM     35  C   UNL A   1      42.670  27.907  28.858  1.00  0.00     0.010 A 
ATOM     36  C   UNL A   1      40.766  26.542  29.510  1.00  0.00     0.010 A 
ATOM     37  C   UNL A   1      41.552  27.695  29.677  1.00  0.00    -0.014 A 
BRANCH  37  38
ATOM     38  C   UNL A   1      41.281  28.631  30.792  1.00  0.00     0.031 A 
ATOM     39  C   UNL A   1      42.124  28.557  32.034  1.00  0.00     0.074 A 
ATOM     40  C   UNL A   1      40.311  29.555  30.677  1.00  0.00     0.049 A 
ATOM     41  N   UNL A   1      42.062  29.286  33.118  1.00  0.00    -0.248 NA
ATOM     42  C   UNL A   1      43.176  27.528  32.058  1.00  0.00     0.031 C 
ATOM     43  C   UNL A   1      39.452  29.734  29.506  1.00  0.00     0.029 A 
ATOM     44  N   UNL A   1      39.887  30.514  31.558  1.00  0.00    -0.354 N 
ATOM     45  C   UNL A   1      43.064  28.806  33.953  1.00  0.00     0.074 A 
ATOM     46  C   UNL A   1      43.699  27.704  33.263  1.00  0.00     0.031 C 
ATOM     47  C   UNL A   1      38.597  30.743  29.745  1.00  0.00     0.029 A 
ATOM     48  C   UNL A   1      38.833  31.261  31.091  1.00  0.00     0.049 A 
ATOM     49  H   UNL A   1      40.298  30.656  32.442  1.00  0.00     0.167 HD
ATOM     50  C   UNL A   1      43.426  29.248  35.181  1.00  0.00     0.031 A 
ATOM     51  C   UNL A   1      38.128  32.241  31.688  1.00  0.00     0.031 A 
ATOM     52  C   UNL A   1      42.775  30.330  35.871  1.00  0.00     0.049 A 
ATOM     53  C   UNL A   1      38.510  32.676  33.077  1.00  0.00     0.074 A 
ATOM     54  C   UNL A   1      43.068  30.859  37.115  1.00  0.00     0.029 A 
ATOM     55  N   UNL A   1      41.692  31.042  35.378  1.00  0.00    -0.354 N 
ATOM     56  N   UNL A   1      39.477  32.231  33.842  1.00  0.00    -0.248 NA
ATOM     57  C   UNL A   1      37.710  33.752  33.678  1.00  0.00     0.031 C 
ATOM     58  C   UNL A   1      42.132  31.862  37.393  1.00  0.00     0.029 A 
ATOM     59  C   UNL A   1      41.289  31.992  36.300  1.00  0.00     0.049 A 
ATOM     60  H   UNL A   1      41.271  30.894  34.500  1.00  0.00     0.167 HD
ATOM     61  C   UNL A   1      39.417  32.987  35.008  1.00  0.00     0.074 A 
ATOM     62  C   UNL A   1      38.326  33.925  34.841  1.00  0.00     0.031 C 
ATOM     63  C   UNL A   1      40.195  32.913  36.116  1.00  0.00     0.031 A 
BRANCH  50  64
ATOM     64  C   UNL A   1      44.561  28.534  35.866  1.00  0.00    -0.014 A 
ATOM     65  C   UNL A   1      44.331  27.387  36.646  1.00  0.00     0.010 A 
ATOM     66  C   UNL A   1      45.877  29.005  35.711  1.00  0.00     0.010 A 
ATOM     67  C   UNL A   1      45.392  26.747  37.294  1.00  0.00     0.020 A 
ATOM     68  C   UNL A   1      46.944  28.356  36.338  1.00  0.00     0.020 A 
ATOM     69  C   UNL A   1      46.692  27.241  37.142  1.00  0.00     0.054 A 
BRANCH  69  70
ATOM     70  S   UNL A   1      48.053  26.390  37.987  1.00  0.00     0.124 S 
ATOM     71  O   UNL A   1      47.446  25.102  38.315  1.00  0.00    -0.237 OA
ATOM     72  O   UNL A   1      49.095  26.350  36.962  1.00  0.00    -0.237 OA
ATOM     73  O   UNL A   1      48.343  27.251  39.131  1.00  0.00    -0.744 OA
ENDBRANCH  69  70
ENDBRANCH  50  64
BRANCH  51  74
ATOM     74  C   UNL A   1      36.983  32.865  30.973  1.00  0.00    -0.014 A 
ATOM     75  C   UNL A   1      37.196  33.874  30.019  1.00  0.00     0.010 A 
ATOM     76  C   UNL A   1      35.671  32.429  31.228  1.00  0.00     0.010 A 
ATOM     77  C   UNL A   1      36.115  34.440  29.337  1.00  0.00     0.020 A 
ATOM     78  C   UNL A   1      34.590  32.975  30.532  1.00  0.00     0.020 A 
ATOM     79  C   UNL A   1      34.818  33.985  29.596  1.00  0.00     0.054 A 
BRANCH  79  80
ATOM     80  S   UNL A   1      33.437  34.684  28.648  1.00  0.00     0.124 S 
ATOM     81  O   UNL A   1      33.046  33.557  27.807  1.00  0.00    -0.237 OA
ATOM     82  O   UNL A   1      32.488  35.052  29.696  1.00  0.00    -0.237 OA
ATOM     83  O   UNL A   1      34.043  35.813  27.945  1.00  0.00    -0.744 OA
ENDBRANCH  79  80
ENDBRANCH  51  74
BRANCH  63  84
ATOM     84  C   UNL A   1      39.911  33.889  37.225  1.00  0.00    -0.014 A 
ATOM     85  C   UNL A   1      38.974  33.593  38.230  1.00  0.00     0.010 A 
ATOM     86  C   UNL A   1      40.632  35.095  37.290  1.00  0.00     0.010 A 
ATOM     87  C   UNL A   1      38.742  34.502  39.267  1.00  0.00     0.020 A 
ATOM     88  C   UNL A   1      40.421  35.994  38.338  1.00  0.00     0.020 A 
ATOM     89  C   UNL A   1      39.466  35.697  39.313  1.00  0.00     0.054 A 
BRANCH  89  90
ATOM     90  S   UNL A   1      39.179  36.842  40.691  1.00  0.00     0.124 S 
ATOM     91  O   UNL A   1      38.262  37.810  40.096  1.00  0.00    -0.237 OA
ATOM     92  O   UNL A   1      38.601  35.976  41.715  1.00  0.00    -0.237 OA
ATOM     93  O   UNL A   1      40.513  37.353  40.998  1.00  0.00    -0.744 OA
ENDBRANCH  89  90
ENDBRANCH  63  84
ENDBRANCH  37  38
ENDBRANCH  30  32
ENDBRANCH  29  30
ENDBRANCH  28  29
ENDBRANCH  27  28
ENDBRANCH  26  27
ENDBRANCH   1  26
TORSDOF 24
ENDMDL
