MODEL 1
REMARK VINA RESULT:     -11.2      0.000      0.000
REMARK SMILES O=C(OCCOCCOC(=O)c1cc(F)c(F)cc1NS(=O)(=O)c1ccc2c(c1)CCC2)c1ccc(-c2c3nc(c(-c4ccc(S(=O)(=O)[O-])cc4)c4ccc([nH]4)c(-c4ccc(S(=O)(=O)[O-])cc4)c4nc(c(-c5ccc(S(=O)(=O)[O-])cc5)c5ccc2[nH]5)C=C4)C=C3)cc1
REMARK SMILES IDX 6 1 5 2 4 3 3 4 2 5 1 6 33 7 34 8 92 9 35 10 91 11 36 12
REMARK SMILES IDX 37 13 38 14 85 15 39 16 90 17 84 18 86 19 40 20 89 21 83 22
REMARK SMILES IDX 82 23 41 25 71 26 52 27 70 28 53 29 56 30 69 31 87 32 54 33
REMARK SMILES IDX 55 34 68 36 88 37 57 38 42 39 43 40 51 41 44 42 50 43 45 44
REMARK SMILES IDX 46 45 47 46 48 47 49 48 72 49 73 50 81 51 74 52 80 53 75 54
REMARK SMILES IDX 76 55 77 56 78 57 79 58 58 59 59 60 67 61 60 62 66 63 61 64
REMARK SMILES IDX 62 65 63 66 64 67 65 68 7 69 8 70 9 71 10 72 11 73 12 74
REMARK SMILES IDX 13 75 19 76 14 77 18 78 15 79 16 80 17 81 20 82 21 84 22 85
REMARK SMILES IDX 23 86 24 87 25 88 29 89 26 90 28 91 27 92 30 93 32 94 31 95
REMARK H PARENT 86 24 56 35 20 83
REMARK Flexibility Score: inf
ROOT
ATOM      1  O   UNL A   1      33.941  28.571  25.751  1.00  0.00    -0.374 OA
ENDROOT
BRANCH   1   2
ATOM      2  C   UNL A   1      33.668  29.116  27.038  1.00  0.00     0.202 C 
BRANCH   2   3
ATOM      3  C   UNL A   1      34.760  29.998  27.638  1.00  0.00     0.261 C 
BRANCH   3   4
ATOM      4  O   UNL A   1      36.003  29.278  27.654  1.00  0.00    -0.460 OA
BRANCH   4   5
ATOM      5  C   UNL A   1      36.939  29.283  28.630  1.00  0.00     0.338 C 
ATOM      6  O   UNL A   1      36.581  29.448  29.795  1.00  0.00    -0.246 OA
BRANCH   5   7
ATOM      7  C   UNL A   1      38.394  29.102  28.357  1.00  0.00     0.060 A 
ATOM      8  C   UNL A   1      39.000  29.353  27.124  1.00  0.00     0.016 A 
ATOM      9  C   UNL A   1      39.213  28.757  29.441  1.00  0.00     0.016 A 
ATOM     10  C   UNL A   1      40.365  29.204  26.941  1.00  0.00     0.010 A 
ATOM     11  C   UNL A   1      40.596  28.648  29.279  1.00  0.00     0.010 A 
ATOM     12  C   UNL A   1      41.170  28.861  28.021  1.00  0.00    -0.014 A 
BRANCH  12  13
ATOM     13  C   UNL A   1      42.604  28.652  27.779  1.00  0.00     0.031 A 
ATOM     14  C   UNL A   1      43.552  29.746  28.150  1.00  0.00     0.074 A 
ATOM     15  C   UNL A   1      43.032  27.459  27.331  1.00  0.00     0.049 A 
ATOM     16  N   UNL A   1      44.836  29.829  27.943  1.00  0.00    -0.248 NA
ATOM     17  C   UNL A   1      42.974  30.902  28.858  1.00  0.00     0.031 C 
ATOM     18  C   UNL A   1      42.176  26.296  27.078  1.00  0.00     0.029 A 
ATOM     19  N   UNL A   1      44.291  27.019  27.028  1.00  0.00    -0.354 N 
ATOM     20  C   UNL A   1      45.216  31.061  28.458  1.00  0.00     0.074 A 
ATOM     21  C   UNL A   1      44.030  31.687  28.999  1.00  0.00     0.031 C 
ATOM     22  C   UNL A   1      42.941  25.270  26.672  1.00  0.00     0.029 A 
ATOM     23  C   UNL A   1      44.322  25.725  26.565  1.00  0.00     0.049 A 
ATOM     24  H   UNL A   1      45.097  27.574  27.132  1.00  0.00     0.167 HD
ATOM     25  C   UNL A   1      46.447  31.621  28.453  1.00  0.00     0.031 A 
ATOM     26  C   UNL A   1      45.350  25.011  26.072  1.00  0.00     0.031 A 
ATOM     27  C   UNL A   1      47.594  30.973  27.879  1.00  0.00     0.049 A 
ATOM     28  C   UNL A   1      46.694  25.682  25.996  1.00  0.00     0.074 A 
ATOM     29  C   UNL A   1      48.877  31.460  27.719  1.00  0.00     0.029 A 
ATOM     30  N   UNL A   1      47.583  29.681  27.367  1.00  0.00    -0.354 N 
ATOM     31  N   UNL A   1      47.031  26.888  26.396  1.00  0.00    -0.248 NA
ATOM     32  C   UNL A   1      47.789  24.914  25.394  1.00  0.00     0.031 C 
ATOM     33  C   UNL A   1      49.632  30.472  27.074  1.00  0.00     0.029 A 
ATOM     34  C   UNL A   1      48.835  29.353  26.881  1.00  0.00     0.049 A 
ATOM     35  H   UNL A   1      46.799  29.086  27.353  1.00  0.00     0.167 HD
ATOM     36  C   UNL A   1      48.380  27.023  26.102  1.00  0.00     0.074 A 
ATOM     37  C   UNL A   1      48.800  25.767  25.505  1.00  0.00     0.031 C 
ATOM     38  C   UNL A   1      49.202  28.084  26.300  1.00  0.00     0.031 A 
BRANCH  25  39
ATOM     39  C   UNL A   1      46.555  33.022  28.985  1.00  0.00    -0.014 A 
ATOM     40  C   UNL A   1      46.839  33.278  30.340  1.00  0.00     0.010 A 
ATOM     41  C   UNL A   1      46.288  34.105  28.127  1.00  0.00     0.010 A 
ATOM     42  C   UNL A   1      46.792  34.585  30.837  1.00  0.00     0.020 A 
ATOM     43  C   UNL A   1      46.263  35.413  28.614  1.00  0.00     0.020 A 
ATOM     44  C   UNL A   1      46.487  35.642  29.974  1.00  0.00     0.054 A 
BRANCH  44  45
ATOM     45  S   UNL A   1      46.379  37.324  30.647  1.00  0.00     0.124 S 
ATOM     46  O   UNL A   1      45.658  38.025  29.588  1.00  0.00    -0.237 OA
ATOM     47  O   UNL A   1      45.636  37.128  31.889  1.00  0.00    -0.237 OA
ATOM     48  O   UNL A   1      47.775  37.720  30.816  1.00  0.00    -0.744 OA
ENDBRANCH  44  45
ENDBRANCH  25  39
BRANCH  26  49
ATOM     49  C   UNL A   1      45.122  23.629  25.566  1.00  0.00    -0.014 A 
ATOM     50  C   UNL A   1      44.898  23.384  24.201  1.00  0.00     0.010 A 
ATOM     51  C   UNL A   1      45.179  22.535  26.451  1.00  0.00     0.010 A 
ATOM     52  C   UNL A   1      44.739  22.074  23.731  1.00  0.00     0.020 A 
ATOM     53  C   UNL A   1      45.047  21.224  25.984  1.00  0.00     0.020 A 
ATOM     54  C   UNL A   1      44.820  21.001  24.626  1.00  0.00     0.054 A 
BRANCH  54  55
ATOM     55  S   UNL A   1      44.690  19.307  23.987  1.00  0.00     0.124 S 
ATOM     56  O   UNL A   1      45.987  18.746  24.349  1.00  0.00    -0.237 OA
ATOM     57  O   UNL A   1      43.544  18.778  24.724  1.00  0.00    -0.237 OA
ATOM     58  O   UNL A   1      44.465  19.498  22.556  1.00  0.00    -0.744 OA
ENDBRANCH  54  55
ENDBRANCH  26  49
BRANCH  38  59
ATOM     59  C   UNL A   1      50.638  27.917  25.898  1.00  0.00    -0.014 A 
ATOM     60  C   UNL A   1      51.602  27.482  26.822  1.00  0.00     0.010 A 
ATOM     61  C   UNL A   1      51.001  28.113  24.554  1.00  0.00     0.010 A 
ATOM     62  C   UNL A   1      52.915  27.257  26.409  1.00  0.00     0.020 A 
ATOM     63  C   UNL A   1      52.308  27.869  24.133  1.00  0.00     0.020 A 
ATOM     64  C   UNL A   1      53.259  27.449  25.066  1.00  0.00     0.054 A 
BRANCH  64  65
ATOM     65  S   UNL A   1      54.952  27.077  24.536  1.00  0.00     0.124 S 
ATOM     66  O   UNL A   1      54.942  25.617  24.495  1.00  0.00    -0.237 OA
ATOM     67  O   UNL A   1      55.037  27.741  23.238  1.00  0.00    -0.237 OA
ATOM     68  O   UNL A   1      55.780  27.666  25.585  1.00  0.00    -0.744 OA
ENDBRANCH  64  65
ENDBRANCH  38  59
ENDBRANCH  12  13
ENDBRANCH   5   7
ENDBRANCH   4   5
ENDBRANCH   3   4
ENDBRANCH   2   3
ENDBRANCH   1   2
BRANCH   1  69
ATOM     69  C   UNL A   1      33.335  29.227  24.636  1.00  0.00     0.202 C 
BRANCH  69  70
ATOM     70  C   UNL A   1      33.918  28.620  23.353  1.00  0.00     0.261 C 
BRANCH  70  71
ATOM     71  O   UNL A   1      33.596  27.217  23.328  1.00  0.00    -0.460 OA
BRANCH  71  72
ATOM     72  C   UNL A   1      33.000  26.746  22.197  1.00  0.00     0.340 C 
ATOM     73  O   UNL A   1      33.514  26.299  21.199  1.00  0.00    -0.246 OA
BRANCH  72  74
ATOM     74  C   UNL A   1      31.561  26.612  22.537  1.00  0.00     0.087 A 
ATOM     75  C   UNL A   1      30.762  27.764  22.540  1.00  0.00     0.060 A 
ATOM     76  C   UNL A   1      31.071  25.382  23.028  1.00  0.00     0.066 A 
ATOM     77  C   UNL A   1      29.502  27.711  23.112  1.00  0.00     0.159 A 
ATOM     78  C   UNL A   1      29.844  25.391  23.698  1.00  0.00     0.070 A 
ATOM     79  F   UNL A   1      28.728  28.803  23.098  1.00  0.00    -0.204 F 
ATOM     80  C   UNL A   1      29.065  26.546  23.724  1.00  0.00     0.160 A 
ATOM     81  F   UNL A   1      27.866  26.512  24.320  1.00  0.00    -0.204 F 
BRANCH  76  82
ATOM     82  N   UNL A   1      31.756  24.163  22.698  1.00  0.00    -0.279 N 
ATOM     83  H   UNL A   1      32.186  24.127  21.813  1.00  0.00     0.180 HD
BRANCH  82  84
ATOM     84  S   UNL A   1      31.905  22.794  23.655  1.00  0.00     0.261 S 
ATOM     85  O   UNL A   1      30.843  22.847  24.633  1.00  0.00    -0.201 OA
ATOM     86  O   UNL A   1      32.067  21.661  22.766  1.00  0.00    -0.201 OA
BRANCH  84  87
ATOM     87  C   UNL A   1      33.437  22.973  24.549  1.00  0.00     0.088 A 
ATOM     88  C   UNL A   1      33.802  24.211  25.106  1.00  0.00     0.022 A 
ATOM     89  C   UNL A   1      34.360  21.922  24.448  1.00  0.00     0.026 A 
ATOM     90  C   UNL A   1      35.140  24.471  25.404  1.00  0.00     0.005 A 
ATOM     91  C   UNL A   1      35.665  22.171  24.830  1.00  0.00    -0.043 A 
ATOM     92  C   UNL A   1      36.059  23.451  25.236  1.00  0.00    -0.045 A 
ATOM     93  C   UNL A   1      36.835  21.238  24.788  1.00  0.00     0.036 C 
ATOM     94  C   UNL A   1      37.550  23.526  25.346  1.00  0.00     0.036 C 
ATOM     95  C   UNL A   1      37.891  22.047  25.560  1.00  0.00     0.010 C 
ENDBRANCH  84  87
ENDBRANCH  82  84
ENDBRANCH  76  82
ENDBRANCH  72  74
ENDBRANCH  71  72
ENDBRANCH  70  71
ENDBRANCH  69  70
ENDBRANCH   1  69
TORSDOF 20
ENDMDL
MODEL 2
REMARK VINA RESULT:     -11.2      1.895      2.559
REMARK SMILES O=C(OCCOCCOC(=O)c1cc(F)c(F)cc1NS(=O)(=O)c1ccc2c(c1)CCC2)c1ccc(-c2c3nc(c(-c4ccc(S(=O)(=O)[O-])cc4)c4ccc([nH]4)c(-c4ccc(S(=O)(=O)[O-])cc4)c4nc(c(-c5ccc(S(=O)(=O)[O-])cc5)c5ccc2[nH]5)C=C4)C=C3)cc1
REMARK SMILES IDX 6 1 5 2 4 3 3 4 2 5 1 6 33 7 34 8 92 9 35 10 91 11 36 12
REMARK SMILES IDX 37 13 38 14 85 15 39 16 90 17 84 18 86 19 40 20 89 21 83 22
REMARK SMILES IDX 82 23 41 25 71 26 52 27 70 28 53 29 56 30 69 31 87 32 54 33
REMARK SMILES IDX 55 34 68 36 88 37 57 38 42 39 43 40 51 41 44 42 50 43 45 44
REMARK SMILES IDX 46 45 47 46 48 47 49 48 72 49 73 50 81 51 74 52 80 53 75 54
REMARK SMILES IDX 76 55 77 56 78 57 79 58 58 59 59 60 67 61 60 62 66 63 61 64
REMARK SMILES IDX 62 65 63 66 64 67 65 68 7 69 8 70 9 71 10 72 11 73 12 74
REMARK SMILES IDX 13 75 19 76 14 77 18 78 15 79 16 80 17 81 20 82 21 84 22 85
REMARK SMILES IDX 23 86 24 87 25 88 29 89 26 90 28 91 27 92 30 93 32 94 31 95
REMARK H PARENT 86 24 56 35 20 83
REMARK Flexibility Score: inf
ROOT
ATOM      1  O   UNL A   1      33.516  31.132  27.811  1.00  0.00    -0.374 OA
ENDROOT
BRANCH   1   2
ATOM      2  C   UNL A   1      34.527  32.120  27.989  1.00  0.00     0.202 C 
BRANCH   2   3
ATOM      3  C   UNL A   1      34.706  32.647  29.410  1.00  0.00     0.261 C 
BRANCH   3   4
ATOM      4  O   UNL A   1      36.054  32.404  29.846  1.00  0.00    -0.460 OA
BRANCH   4   5
ATOM      5  C   UNL A   1      36.550  31.260  30.368  1.00  0.00     0.338 C 
ATOM      6  O   UNL A   1      35.846  30.600  31.130  1.00  0.00    -0.246 OA
BRANCH   5   7
ATOM      7  C   UNL A   1      37.922  30.761  30.064  1.00  0.00     0.060 A 
ATOM      8  C   UNL A   1      38.853  30.381  31.033  1.00  0.00     0.016 A 
ATOM      9  C   UNL A   1      38.251  30.565  28.715  1.00  0.00     0.016 A 
ATOM     10  C   UNL A   1      40.100  29.887  30.690  1.00  0.00     0.010 A 
ATOM     11  C   UNL A   1      39.488  30.024  28.358  1.00  0.00     0.010 A 
ATOM     12  C   UNL A   1      40.419  29.697  29.350  1.00  0.00    -0.014 A 
BRANCH  12  13
ATOM     13  C   UNL A   1      41.771  29.227  29.017  1.00  0.00     0.031 A 
ATOM     14  C   UNL A   1      42.913  30.178  29.182  1.00  0.00     0.074 A 
ATOM     15  C   UNL A   1      41.958  27.941  28.673  1.00  0.00     0.049 A 
ATOM     16  N   UNL A   1      44.166  30.023  28.863  1.00  0.00    -0.248 NA
ATOM     17  C   UNL A   1      42.597  31.478  29.799  1.00  0.00     0.031 C 
ATOM     18  C   UNL A   1      40.908  26.919  28.626  1.00  0.00     0.029 A 
ATOM     19  N   UNL A   1      43.095  27.268  28.321  1.00  0.00    -0.354 N 
ATOM     20  C   UNL A   1      44.786  31.218  29.202  1.00  0.00     0.074 A 
ATOM     21  C   UNL A   1      43.774  32.084  29.763  1.00  0.00     0.031 C 
ATOM     22  C   UNL A   1      41.456  25.744  28.277  1.00  0.00     0.029 A 
ATOM     23  C   UNL A   1      42.874  25.948  28.007  1.00  0.00     0.049 A 
ATOM     24  H   UNL A   1      43.985  27.687  28.294  1.00  0.00     0.167 HD
ATOM     25  C   UNL A   1      46.083  31.560  29.032  1.00  0.00     0.031 A 
ATOM     26  C   UNL A   1      43.723  25.026  27.516  1.00  0.00     0.031 A 
ATOM     27  C   UNL A   1      47.050  30.675  28.444  1.00  0.00     0.049 A 
ATOM     28  C   UNL A   1      45.142  25.451  27.255  1.00  0.00     0.074 A 
ATOM     29  C   UNL A   1      48.372  30.921  28.125  1.00  0.00     0.029 A 
ATOM     30  N   UNL A   1      46.785  29.360  28.084  1.00  0.00    -0.354 N 
ATOM     31  N   UNL A   1      45.703  26.617  27.486  1.00  0.00    -0.248 NA
ATOM     32  C   UNL A   1      46.036  24.455  26.656  1.00  0.00     0.031 C 
ATOM     33  C   UNL A   1      48.894  29.762  27.538  1.00  0.00     0.029 A 
ATOM     34  C   UNL A   1      47.914  28.779  27.539  1.00  0.00     0.049 A 
ATOM     35  H   UNL A   1      45.918  28.906  28.203  1.00  0.00     0.167 HD
ATOM     36  C   UNL A   1      47.021  26.493  27.069  1.00  0.00     0.074 A 
ATOM     37  C   UNL A   1      47.175  25.132  26.587  1.00  0.00     0.031 C 
ATOM     38  C   UNL A   1      48.016  27.416  27.077  1.00  0.00     0.031 A 
BRANCH  25  39
ATOM     39  C   UNL A   1      46.464  32.969  29.392  1.00  0.00    -0.014 A 
ATOM     40  C   UNL A   1      46.908  33.308  30.683  1.00  0.00     0.010 A 
ATOM     41  C   UNL A   1      46.298  33.989  28.437  1.00  0.00     0.010 A 
ATOM     42  C   UNL A   1      47.118  34.646  31.030  1.00  0.00     0.020 A 
ATOM     43  C   UNL A   1      46.528  35.325  28.772  1.00  0.00     0.020 A 
ATOM     44  C   UNL A   1      46.910  35.648  30.076  1.00  0.00     0.054 A 
BRANCH  44  45
ATOM     45  S   UNL A   1      47.137  37.383  30.559  1.00  0.00     0.124 S 
ATOM     46  O   UNL A   1      46.658  38.089  29.373  1.00  0.00    -0.237 OA
ATOM     47  O   UNL A   1      46.291  37.502  31.744  1.00  0.00    -0.237 OA
ATOM     48  O   UNL A   1      48.572  37.488  30.809  1.00  0.00    -0.744 OA
ENDBRANCH  44  45
ENDBRANCH  25  39
BRANCH  26  49
ATOM     49  C   UNL A   1      43.229  23.659  27.190  1.00  0.00    -0.014 A 
ATOM     50  C   UNL A   1      42.809  23.330  25.891  1.00  0.00     0.010 A 
ATOM     51  C   UNL A   1      43.228  22.655  28.179  1.00  0.00     0.010 A 
ATOM     52  C   UNL A   1      42.398  22.026  25.587  1.00  0.00     0.020 A 
ATOM     53  C   UNL A   1      42.844  21.347  27.874  1.00  0.00     0.020 A 
ATOM     54  C   UNL A   1      42.425  21.040  26.579  1.00  0.00     0.054 A 
BRANCH  54  55
ATOM     55  S   UNL A   1      41.964  19.339  26.147  1.00  0.00     0.124 S 
ATOM     56  O   UNL A   1      42.821  19.075  24.996  1.00  0.00    -0.237 OA
ATOM     57  O   UNL A   1      42.296  18.601  27.364  1.00  0.00    -0.237 OA
ATOM     58  O   UNL A   1      40.535  19.434  25.857  1.00  0.00    -0.744 OA
ENDBRANCH  54  55
ENDBRANCH  26  49
BRANCH  38  59
ATOM     59  C   UNL A   1      49.360  26.971  26.580  1.00  0.00    -0.014 A 
ATOM     60  C   UNL A   1      50.318  26.443  27.462  1.00  0.00     0.010 A 
ATOM     61  C   UNL A   1      49.626  27.002  25.200  1.00  0.00     0.010 A 
ATOM     62  C   UNL A   1      51.531  25.962  26.969  1.00  0.00     0.020 A 
ATOM     63  C   UNL A   1      50.830  26.503  24.702  1.00  0.00     0.020 A 
ATOM     64  C   UNL A   1      51.778  25.992  25.592  1.00  0.00     0.054 A 
BRANCH  64  65
ATOM     65  S   UNL A   1      53.328  25.291  24.965  1.00  0.00     0.124 S 
ATOM     66  O   UNL A   1      53.263  25.632  23.547  1.00  0.00    -0.237 OA
ATOM     67  O   UNL A   1      54.341  26.006  25.738  1.00  0.00    -0.237 OA
ATOM     68  O   UNL A   1      53.211  23.867  25.271  1.00  0.00    -0.744 OA
ENDBRANCH  64  65
ENDBRANCH  38  59
ENDBRANCH  12  13
ENDBRANCH   5   7
ENDBRANCH   4   5
ENDBRANCH   3   4
ENDBRANCH   2   3
ENDBRANCH   1   2
BRANCH   1  69
ATOM     69  C   UNL A   1      33.799  30.087  26.878  1.00  0.00     0.202 C 
BRANCH  69  70
ATOM     70  C   UNL A   1      33.402  28.753  27.524  1.00  0.00     0.261 C 
BRANCH  70  71
ATOM     71  O   UNL A   1      33.302  27.758  26.487  1.00  0.00    -0.460 OA
BRANCH  71  72
ATOM     72  C   UNL A   1      32.082  27.181  26.309  1.00  0.00     0.340 C 
ATOM     73  O   UNL A   1      31.103  27.245  27.014  1.00  0.00    -0.246 OA
BRANCH  72  74
ATOM     74  C   UNL A   1      32.082  26.680  24.911  1.00  0.00     0.087 A 
ATOM     75  C   UNL A   1      32.933  27.293  23.980  1.00  0.00     0.060 A 
ATOM     76  C   UNL A   1      31.110  25.740  24.505  1.00  0.00     0.066 A 
ATOM     77  C   UNL A   1      32.756  27.035  22.632  1.00  0.00     0.159 A 
ATOM     78  C   UNL A   1      30.884  25.590  23.133  1.00  0.00     0.070 A 
ATOM     79  F   UNL A   1      33.578  27.602  21.740  1.00  0.00    -0.204 F 
ATOM     80  C   UNL A   1      31.713  26.224  22.209  1.00  0.00     0.160 A 
ATOM     81  F   UNL A   1      31.513  26.016  20.901  1.00  0.00    -0.204 F 
BRANCH  76  82
ATOM     82  N   UNL A   1      30.505  24.878  25.481  1.00  0.00    -0.279 N 
ATOM     83  H   UNL A   1      29.587  25.104  25.756  1.00  0.00     0.180 HD
BRANCH  82  84
ATOM     84  S   UNL A   1      31.189  23.529  26.203  1.00  0.00     0.261 S 
ATOM     85  O   UNL A   1      31.513  23.898  27.562  1.00  0.00    -0.201 OA
ATOM     86  O   UNL A   1      30.334  22.398  25.905  1.00  0.00    -0.201 OA
BRANCH  84  87
ATOM     87  C   UNL A   1      32.736  23.243  25.364  1.00  0.00     0.088 A 
ATOM     88  C   UNL A   1      32.827  22.288  24.336  1.00  0.00     0.022 A 
ATOM     89  C   UNL A   1      33.885  23.807  25.936  1.00  0.00     0.026 A 
ATOM     90  C   UNL A   1      34.070  21.755  23.993  1.00  0.00     0.005 A 
ATOM     91  C   UNL A   1      35.113  23.328  25.520  1.00  0.00    -0.043 A 
ATOM     92  C   UNL A   1      35.196  22.267  24.612  1.00  0.00    -0.045 A 
ATOM     93  C   UNL A   1      36.474  23.734  25.995  1.00  0.00     0.036 C 
ATOM     94  C   UNL A   1      36.605  21.768  24.523  1.00  0.00     0.036 C 
ATOM     95  C   UNL A   1      37.374  23.012  24.980  1.00  0.00     0.010 C 
ENDBRANCH  84  87
ENDBRANCH  82  84
ENDBRANCH  76  82
ENDBRANCH  72  74
ENDBRANCH  71  72
ENDBRANCH  70  71
ENDBRANCH  69  70
ENDBRANCH   1  69
TORSDOF 20
ENDMDL
MODEL 3
REMARK VINA RESULT:     -11.1      6.543     11.632
REMARK SMILES O=C(OCCOCCOC(=O)c1cc(F)c(F)cc1NS(=O)(=O)c1ccc2c(c1)CCC2)c1ccc(-c2c3nc(c(-c4ccc(S(=O)(=O)[O-])cc4)c4ccc([nH]4)c(-c4ccc(S(=O)(=O)[O-])cc4)c4nc(c(-c5ccc(S(=O)(=O)[O-])cc5)c5ccc2[nH]5)C=C4)C=C3)cc1
REMARK SMILES IDX 6 1 5 2 4 3 3 4 2 5 1 6 33 7 34 8 92 9 35 10 91 11 36 12
REMARK SMILES IDX 37 13 38 14 85 15 39 16 90 17 84 18 86 19 40 20 89 21 83 22
REMARK SMILES IDX 82 23 41 25 71 26 52 27 70 28 53 29 56 30 69 31 87 32 54 33
REMARK SMILES IDX 55 34 68 36 88 37 57 38 42 39 43 40 51 41 44 42 50 43 45 44
REMARK SMILES IDX 46 45 47 46 48 47 49 48 72 49 73 50 81 51 74 52 80 53 75 54
REMARK SMILES IDX 76 55 77 56 78 57 79 58 58 59 59 60 67 61 60 62 66 63 61 64
REMARK SMILES IDX 62 65 63 66 64 67 65 68 7 69 8 70 9 71 10 72 11 73 12 74
REMARK SMILES IDX 13 75 19 76 14 77 18 78 15 79 16 80 17 81 20 82 21 84 22 85
REMARK SMILES IDX 23 86 24 87 25 88 29 89 26 90 28 91 27 92 30 93 32 94 31 95
REMARK H PARENT 86 24 56 35 20 83
REMARK Flexibility Score: inf
ROOT
ATOM      1  O   UNL A   1      40.330  22.008  26.720  1.00  0.00    -0.374 OA
ENDROOT
BRANCH   1   2
ATOM      2  C   UNL A   1      41.595  22.361  26.169  1.00  0.00     0.202 C 
BRANCH   2   3
ATOM      3  C   UNL A   1      42.450  23.309  27.006  1.00  0.00     0.261 C 
BRANCH   3   4
ATOM      4  O   UNL A   1      42.688  24.518  26.269  1.00  0.00    -0.460 OA
BRANCH   4   5
ATOM      5  C   UNL A   1      41.917  25.628  26.248  1.00  0.00     0.338 C 
ATOM      6  O   UNL A   1      41.355  25.942  25.200  1.00  0.00    -0.246 OA
BRANCH   5   7
ATOM      7  C   UNL A   1      41.718  26.498  27.443  1.00  0.00     0.060 A 
ATOM      8  C   UNL A   1      42.452  27.657  27.703  1.00  0.00     0.016 A 
ATOM      9  C   UNL A   1      40.654  26.180  28.299  1.00  0.00     0.016 A 
ATOM     10  C   UNL A   1      42.195  28.447  28.812  1.00  0.00     0.010 A 
ATOM     11  C   UNL A   1      40.357  26.994  29.394  1.00  0.00     0.010 A 
ATOM     12  C   UNL A   1      41.139  28.124  29.656  1.00  0.00    -0.014 A 
BRANCH  12  13
ATOM     13  C   UNL A   1      40.932  28.948  30.855  1.00  0.00     0.031 A 
ATOM     14  C   UNL A   1      39.808  29.934  30.852  1.00  0.00     0.074 A 
ATOM     15  C   UNL A   1      41.684  28.727  31.947  1.00  0.00     0.049 A 
ATOM     16  N   UNL A   1      39.495  30.828  31.747  1.00  0.00    -0.248 NA
ATOM     17  C   UNL A   1      38.912  29.901  29.683  1.00  0.00     0.031 C 
ATOM     18  C   UNL A   1      42.708  27.685  32.070  1.00  0.00     0.029 A 
ATOM     19  N   UNL A   1      41.691  29.347  33.166  1.00  0.00    -0.354 N 
ATOM     20  C   UNL A   1      38.389  31.493  31.234  1.00  0.00     0.074 A 
ATOM     21  C   UNL A   1      38.078  30.892  29.957  1.00  0.00     0.031 C 
ATOM     22  C   UNL A   1      43.234  27.731  33.305  1.00  0.00     0.029 A 
ATOM     23  C   UNL A   1      42.638  28.847  34.029  1.00  0.00     0.049 A 
ATOM     24  H   UNL A   1      41.077  30.079  33.404  1.00  0.00     0.167 HD
ATOM     25  C   UNL A   1      37.716  32.530  31.781  1.00  0.00     0.031 A 
ATOM     26  C   UNL A   1      43.004  29.280  35.249  1.00  0.00     0.031 A 
ATOM     27  C   UNL A   1      38.078  33.115  33.042  1.00  0.00     0.049 A 
ATOM     28  C   UNL A   1      42.300  30.488  35.803  1.00  0.00     0.074 A 
ATOM     29  C   UNL A   1      37.546  34.225  33.670  1.00  0.00     0.029 A 
ATOM     30  N   UNL A   1      39.079  32.622  33.870  1.00  0.00    -0.354 N 
ATOM     31  N   UNL A   1      41.316  31.178  35.271  1.00  0.00    -0.248 NA
ATOM     32  C   UNL A   1      42.757  30.987  37.105  1.00  0.00     0.031 C 
ATOM     33  C   UNL A   1      38.255  34.423  34.862  1.00  0.00     0.029 A 
ATOM     34  C   UNL A   1      39.190  33.408  35.002  1.00  0.00     0.049 A 
ATOM     35  H   UNL A   1      39.629  31.827  33.680  1.00  0.00     0.167 HD
ATOM     36  C   UNL A   1      41.028  32.190  36.176  1.00  0.00     0.074 A 
ATOM     37  C   UNL A   1      41.933  32.009  37.298  1.00  0.00     0.031 C 
ATOM     38  C   UNL A   1      40.106  33.181  36.093  1.00  0.00     0.031 A 
BRANCH  25  39
ATOM     39  C   UNL A   1      36.615  33.134  30.954  1.00  0.00    -0.014 A 
ATOM     40  C   UNL A   1      36.889  33.956  29.845  1.00  0.00     0.010 A 
ATOM     41  C   UNL A   1      35.277  32.936  31.344  1.00  0.00     0.010 A 
ATOM     42  C   UNL A   1      35.850  34.618  29.183  1.00  0.00     0.020 A 
ATOM     43  C   UNL A   1      34.236  33.578  30.671  1.00  0.00     0.020 A 
ATOM     44  C   UNL A   1      34.531  34.438  29.611  1.00  0.00     0.054 A 
BRANCH  44  45
ATOM     45  S   UNL A   1      33.202  35.346  28.772  1.00  0.00     0.124 S 
ATOM     46  O   UNL A   1      32.515  34.276  28.054  1.00  0.00    -0.237 OA
ATOM     47  O   UNL A   1      32.460  35.933  29.885  1.00  0.00    -0.237 OA
ATOM     48  O   UNL A   1      33.915  36.303  27.930  1.00  0.00    -0.744 OA
ENDBRANCH  44  45
ENDBRANCH  25  39
BRANCH  26  49
ATOM     49  C   UNL A   1      44.117  28.606  35.975  1.00  0.00    -0.014 A 
ATOM     50  C   UNL A   1      45.442  29.052  35.846  1.00  0.00     0.010 A 
ATOM     51  C   UNL A   1      43.842  27.534  36.847  1.00  0.00     0.010 A 
ATOM     52  C   UNL A   1      46.470  28.443  36.576  1.00  0.00     0.020 A 
ATOM     53  C   UNL A   1      44.860  26.940  37.597  1.00  0.00     0.020 A 
ATOM     54  C   UNL A   1      46.172  27.393  37.453  1.00  0.00     0.054 A 
BRANCH  54  55
ATOM     55  S   UNL A   1      47.505  26.669  38.449  1.00  0.00     0.124 S 
ATOM     56  O   UNL A   1      48.075  27.845  39.096  1.00  0.00    -0.237 OA
ATOM     57  O   UNL A   1      46.782  25.751  39.327  1.00  0.00    -0.237 OA
ATOM     58  O   UNL A   1      48.360  26.022  37.456  1.00  0.00    -0.744 OA
ENDBRANCH  54  55
ENDBRANCH  26  49
BRANCH  38  59
ATOM     59  C   UNL A   1      40.012  34.122  37.258  1.00  0.00    -0.014 A 
ATOM     60  C   UNL A   1      40.740  35.323  37.279  1.00  0.00     0.010 A 
ATOM     61  C   UNL A   1      39.112  33.835  38.300  1.00  0.00     0.010 A 
ATOM     62  C   UNL A   1      40.577  36.221  38.335  1.00  0.00     0.020 A 
ATOM     63  C   UNL A   1      38.932  34.740  39.346  1.00  0.00     0.020 A 
ATOM     64  C   UNL A   1      39.672  35.925  39.360  1.00  0.00     0.054 A 
BRANCH  64  65
ATOM     65  S   UNL A   1      39.420  37.140  40.681  1.00  0.00     0.124 S 
ATOM     66  O   UNL A   1      38.682  36.361  41.672  1.00  0.00    -0.237 OA
ATOM     67  O   UNL A   1      40.785  37.500  41.054  1.00  0.00    -0.237 OA
ATOM     68  O   UNL A   1      38.658  38.204  40.030  1.00  0.00    -0.744 OA
ENDBRANCH  64  65
ENDBRANCH  38  59
ENDBRANCH  12  13
ENDBRANCH   5   7
ENDBRANCH   4   5
ENDBRANCH   3   4
ENDBRANCH   2   3
ENDBRANCH   1   2
BRANCH   1  69
ATOM     69  C   UNL A   1      39.274  22.958  26.559  1.00  0.00     0.202 C 
BRANCH  69  70
ATOM     70  C   UNL A   1      38.127  22.272  25.808  1.00  0.00     0.261 C 
BRANCH  70  71
ATOM     71  O   UNL A   1      37.028  23.198  25.711  1.00  0.00    -0.460 OA
BRANCH  71  72
ATOM     72  C   UNL A   1      36.073  22.917  24.783  1.00  0.00     0.340 C 
ATOM     73  O   UNL A   1      36.184  22.328  23.734  1.00  0.00    -0.246 OA
BRANCH  72  74
ATOM     74  C   UNL A   1      34.779  23.221  25.445  1.00  0.00     0.087 A 
ATOM     75  C   UNL A   1      34.554  22.725  26.737  1.00  0.00     0.060 A 
ATOM     76  C   UNL A   1      33.742  23.831  24.706  1.00  0.00     0.066 A 
ATOM     77  C   UNL A   1      33.273  22.759  27.260  1.00  0.00     0.159 A 
ATOM     78  C   UNL A   1      32.442  23.746  25.216  1.00  0.00     0.070 A 
ATOM     79  F   UNL A   1      33.057  22.305  28.501  1.00  0.00    -0.204 F 
ATOM     80  C   UNL A   1      32.219  23.226  26.489  1.00  0.00     0.160 A 
ATOM     81  F   UNL A   1      30.972  23.211  26.979  1.00  0.00    -0.204 F 
BRANCH  76  82
ATOM     82  N   UNL A   1      34.065  24.634  23.559  1.00  0.00    -0.279 N 
ATOM     83  H   UNL A   1      34.979  24.545  23.206  1.00  0.00     0.180 HD
BRANCH  82  84
ATOM     84  S   UNL A   1      33.056  25.704  22.755  1.00  0.00     0.261 S 
ATOM     85  O   UNL A   1      33.878  26.432  21.816  1.00  0.00    -0.201 OA
ATOM     86  O   UNL A   1      31.888  24.960  22.328  1.00  0.00    -0.201 OA
BRANCH  84  87
ATOM     87  C   UNL A   1      32.502  26.880  23.975  1.00  0.00     0.088 A 
ATOM     88  C   UNL A   1      31.242  27.493  23.859  1.00  0.00     0.022 A 
ATOM     89  C   UNL A   1      33.458  27.352  24.886  1.00  0.00     0.026 A 
ATOM     90  C   UNL A   1      30.990  28.693  24.524  1.00  0.00     0.005 A 
ATOM     91  C   UNL A   1      33.156  28.495  25.602  1.00  0.00    -0.043 A 
ATOM     92  C   UNL A   1      31.965  29.192  25.369  1.00  0.00    -0.045 A 
ATOM     93  C   UNL A   1      34.010  29.213  26.601  1.00  0.00     0.036 C 
ATOM     94  C   UNL A   1      31.991  30.514  26.069  1.00  0.00     0.036 C 
ATOM     95  C   UNL A   1      33.008  30.226  27.179  1.00  0.00     0.010 C 
ENDBRANCH  84  87
ENDBRANCH  82  84
ENDBRANCH  76  82
ENDBRANCH  72  74
ENDBRANCH  71  72
ENDBRANCH  70  71
ENDBRANCH  69  70
ENDBRANCH   1  69
TORSDOF 20
ENDMDL
