MODEL 1
REMARK VINA RESULT:     -12.3      0.000      0.000
REMARK SMILES Cc1c(NC(=O)c2cccc(-c3cc4ccccc4oc3=O)c2)cccc1C(=O)OCCOCCOC(=O)c1ccc(-c2c3nc(c(-c4ccc(S(=O)(=O)[O-])cc4)c4ccc([nH]4)c(-c4ccc(S(=O)(=O)[O-])cc4)c4nc(c(-c5ccc(S(=O)(=O)[O-])cc5)c5ccc2[nH]5)C=C4)C=C3)cc1
REMARK SMILES IDX 33 1 32 2 31 3 30 4 28 5 29 6 27 7 1 8 2 9 3 10 24 11 26 12
REMARK SMILES IDX 25 13 4 14 5 15 6 17 7 18 8 19 23 20 9 21 11 22 10 23 12 24
REMARK SMILES IDX 13 25 21 26 14 27 20 28 22 29 15 30 19 31 16 32 18 33 17 34
REMARK SMILES IDX 34 35 35 36 36 37 37 38 38 39 39 40 40 41 98 42 41 43 97 44
REMARK SMILES IDX 42 45 43 46 44 47 91 48 45 49 96 50 90 51 92 52 46 53 95 54
REMARK SMILES IDX 89 55 88 56 47 58 77 59 58 60 76 61 59 62 62 63 75 64 93 65
REMARK SMILES IDX 60 66 61 67 74 69 94 70 63 71 48 72 49 73 57 74 50 75 56 76
REMARK SMILES IDX 51 77 52 78 53 79 54 80 55 81 78 82 79 83 87 84 80 85 86 86
REMARK SMILES IDX 81 87 82 88 83 89 84 90 85 91 64 92 65 93 73 94 66 95 72 96
REMARK SMILES IDX 67 97 68 98 69 99 70 100 71 101
REMARK H PARENT 4 16 92 57 62 68
REMARK Flexibility Score: inf
ROOT
ATOM      1  O   UNL A   1      33.714  27.476  26.024  1.00  0.00    -0.374 OA
ENDROOT
BRANCH   1   2
ATOM      2  C   UNL A   1      33.230  26.148  25.894  1.00  0.00     0.202 C 
BRANCH   2   3
ATOM      3  C   UNL A   1      34.434  25.269  26.013  1.00  0.00     0.261 C 
BRANCH   3   4
ATOM      4  O   UNL A   1      34.226  23.971  26.634  1.00  0.00    -0.460 OA
BRANCH   4   5
ATOM      5  C   UNL A   1      34.197  22.767  26.007  1.00  0.00     0.338 C 
ATOM      6  O   UNL A   1      34.706  21.730  26.361  1.00  0.00    -0.246 OA
BRANCH   5   7
ATOM      7  C   UNL A   1      33.231  22.857  24.854  1.00  0.00     0.065 A 
ATOM      8  C   UNL A   1      34.980  23.220  22.980  1.00  0.00     0.047 C 
ATOM      9  C   UNL A   1      33.566  23.190  23.516  1.00  0.00    -0.013 A 
ATOM     10  C   UNL A   1      32.519  23.584  22.643  1.00  0.00     0.045 A 
ATOM     11  C   UNL A   1      31.182  23.493  23.046  1.00  0.00     0.026 A 
ATOM     12  C   UNL A   1      31.876  22.767  25.229  1.00  0.00     0.016 A 
ATOM     13  C   UNL A   1      30.859  23.072  24.330  1.00  0.00     0.003 A 
BRANCH  10  14
ATOM     14  N   UNL A   1      32.862  24.079  21.369  1.00  0.00    -0.322 N 
ATOM     15  C   UNL A   1      32.758  25.322  20.795  1.00  0.00     0.255 C 
ATOM     16  H   UNL A   1      33.251  23.399  20.772  1.00  0.00     0.170 HD
ATOM     17  O   UNL A   1      32.951  25.425  19.580  1.00  0.00    -0.269 OA
BRANCH  15  18
ATOM     18  C   UNL A   1      32.542  26.572  21.575  1.00  0.00     0.040 A 
ATOM     19  C   UNL A   1      33.618  27.452  21.701  1.00  0.00     0.014 A 
ATOM     20  C   UNL A   1      31.372  26.822  22.305  1.00  0.00     0.022 A 
ATOM     21  C   UNL A   1      33.504  28.596  22.490  1.00  0.00     0.001 A 
ATOM     22  C   UNL A   1      31.248  27.959  23.130  1.00  0.00    -0.010 A 
ATOM     23  C   UNL A   1      32.325  28.851  23.190  1.00  0.00     0.009 A 
BRANCH  22  24
ATOM     24  C   UNL A   1      30.119  28.228  24.072  1.00  0.00     0.068 A 
ATOM     25  C   UNL A   1      29.766  29.451  24.519  1.00  0.00     0.028 A 
ATOM     26  C   UNL A   1      28.844  27.509  23.718  1.00  0.00     0.344 A 
ATOM     27  C   UNL A   1      29.138  30.205  23.426  1.00  0.00     0.018 A 
ATOM     28  O   UNL A   1      28.131  28.123  22.683  1.00  0.00    -0.422 OA
ATOM     29  O   UNL A   1      28.503  26.462  24.251  1.00  0.00    -0.246 OA
ATOM     30  C   UNL A   1      29.417  31.532  23.247  1.00  0.00     0.012 A 
ATOM     31  C   UNL A   1      28.414  29.485  22.450  1.00  0.00     0.138 A 
ATOM     32  C   UNL A   1      29.043  32.080  22.038  1.00  0.00     0.001 A 
ATOM     33  C   UNL A   1      28.044  30.055  21.239  1.00  0.00     0.048 A 
ATOM     34  C   UNL A   1      28.387  31.377  21.023  1.00  0.00     0.004 A 
ENDBRANCH  22  24
ENDBRANCH  15  18
ENDBRANCH  10  14
ENDBRANCH   5   7
ENDBRANCH   4   5
ENDBRANCH   3   4
ENDBRANCH   2   3
ENDBRANCH   1   2
BRANCH   1  35
ATOM     35  C   UNL A   1      33.015  28.332  26.894  1.00  0.00     0.202 C 
BRANCH  35  36
ATOM     36  C   UNL A   1      33.164  29.822  26.575  1.00  0.00     0.261 C 
BRANCH  36  37
ATOM     37  O   UNL A   1      33.564  30.619  27.723  1.00  0.00    -0.460 OA
BRANCH  37  38
ATOM     38  C   UNL A   1      34.783  31.247  27.726  1.00  0.00     0.338 C 
ATOM     39  O   UNL A   1      34.920  32.442  27.522  1.00  0.00    -0.246 OA
BRANCH  38  40
ATOM     40  C   UNL A   1      35.870  30.365  28.244  1.00  0.00     0.060 A 
ATOM     41  C   UNL A   1      35.943  29.956  29.591  1.00  0.00     0.016 A 
ATOM     42  C   UNL A   1      36.918  30.070  27.386  1.00  0.00     0.016 A 
ATOM     43  C   UNL A   1      37.131  29.391  30.101  1.00  0.00     0.010 A 
ATOM     44  C   UNL A   1      38.118  29.662  27.920  1.00  0.00     0.010 A 
ATOM     45  C   UNL A   1      38.251  29.318  29.278  1.00  0.00    -0.014 A 
BRANCH  45  46
ATOM     46  C   UNL A   1      39.628  28.958  29.648  1.00  0.00     0.031 A 
ATOM     47  C   UNL A   1      40.101  27.624  29.194  1.00  0.00     0.074 A 
ATOM     48  C   UNL A   1      40.529  29.886  30.070  1.00  0.00     0.049 A 
ATOM     49  N   UNL A   1      41.269  27.162  29.446  1.00  0.00    -0.248 NA
ATOM     50  C   UNL A   1      39.290  26.672  28.426  1.00  0.00     0.031 C 
ATOM     51  C   UNL A   1      41.988  29.889  29.912  1.00  0.00     0.029 A 
ATOM     52  N   UNL A   1      40.311  31.089  30.737  1.00  0.00    -0.354 N 
ATOM     53  C   UNL A   1      41.484  26.075  28.636  1.00  0.00     0.074 A 
ATOM     54  C   UNL A   1      40.194  25.745  28.093  1.00  0.00     0.031 C 
ATOM     55  C   UNL A   1      42.533  30.865  30.664  1.00  0.00     0.029 A 
ATOM     56  C   UNL A   1      41.459  31.472  31.433  1.00  0.00     0.049 A 
ATOM     57  H   UNL A   1      39.467  31.597  30.720  1.00  0.00     0.167 HD
ATOM     58  C   UNL A   1      42.769  25.673  28.447  1.00  0.00     0.031 A 
ATOM     59  C   UNL A   1      41.379  31.677  32.774  1.00  0.00     0.031 A 
ATOM     60  C   UNL A   1      43.666  26.406  29.352  1.00  0.00     0.049 A 
ATOM     61  C   UNL A   1      42.120  30.525  33.389  1.00  0.00     0.074 A 
ATOM     62  C   UNL A   1      44.587  27.422  29.168  1.00  0.00     0.029 A 
ATOM     63  N   UNL A   1      43.401  26.365  30.723  1.00  0.00    -0.354 N 
ATOM     64  N   UNL A   1      42.266  29.381  32.771  1.00  0.00    -0.248 NA
ATOM     65  C   UNL A   1      42.919  30.619  34.604  1.00  0.00     0.031 C 
ATOM     66  C   UNL A   1      44.770  28.069  30.431  1.00  0.00     0.029 A 
ATOM     67  C   UNL A   1      43.988  27.428  31.385  1.00  0.00     0.049 A 
ATOM     68  H   UNL A   1      42.863  25.666  31.162  1.00  0.00     0.167 HD
ATOM     69  C   UNL A   1      43.274  28.688  33.357  1.00  0.00     0.074 A 
ATOM     70  C   UNL A   1      43.598  29.459  34.551  1.00  0.00     0.031 C 
ATOM     71  C   UNL A   1      43.837  27.565  32.832  1.00  0.00     0.031 A 
BRANCH  58  72
ATOM     72  C   UNL A   1      43.240  24.746  27.350  1.00  0.00    -0.014 A 
ATOM     73  C   UNL A   1      43.833  23.518  27.705  1.00  0.00     0.010 A 
ATOM     74  C   UNL A   1      43.201  25.036  25.969  1.00  0.00     0.010 A 
ATOM     75  C   UNL A   1      44.346  22.630  26.745  1.00  0.00     0.020 A 
ATOM     76  C   UNL A   1      43.688  24.148  24.994  1.00  0.00     0.020 A 
ATOM     77  C   UNL A   1      44.263  22.947  25.390  1.00  0.00     0.054 A 
BRANCH  77  78
ATOM     78  S   UNL A   1      44.915  21.782  24.166  1.00  0.00     0.124 S 
ATOM     79  O   UNL A   1      46.356  21.870  24.388  1.00  0.00    -0.237 OA
ATOM     80  O   UNL A   1      44.291  20.523  24.564  1.00  0.00    -0.237 OA
ATOM     81  O   UNL A   1      44.454  22.323  22.889  1.00  0.00    -0.744 OA
ENDBRANCH  77  78
ENDBRANCH  58  72
BRANCH  59  82
ATOM     82  C   UNL A   1      40.088  32.357  33.158  1.00  0.00    -0.014 A 
ATOM     83  C   UNL A   1      39.870  33.639  32.588  1.00  0.00     0.010 A 
ATOM     84  C   UNL A   1      38.951  31.617  33.539  1.00  0.00     0.010 A 
ATOM     85  C   UNL A   1      38.581  34.080  32.240  1.00  0.00     0.020 A 
ATOM     86  C   UNL A   1      37.655  32.051  33.178  1.00  0.00     0.020 A 
ATOM     87  C   UNL A   1      37.484  33.254  32.483  1.00  0.00     0.054 A 
BRANCH  87  88
ATOM     88  S   UNL A   1      35.911  33.609  31.604  1.00  0.00     0.124 S 
ATOM     89  O   UNL A   1      35.562  34.933  32.103  1.00  0.00    -0.237 OA
ATOM     90  O   UNL A   1      36.302  33.553  30.193  1.00  0.00    -0.237 OA
ATOM     91  O   UNL A   1      35.043  32.514  32.022  1.00  0.00    -0.744 OA
ENDBRANCH  87  88
ENDBRANCH  59  82
BRANCH  71  92
ATOM     92  C   UNL A   1      44.321  26.478  33.739  1.00  0.00    -0.014 A 
ATOM     93  C   UNL A   1      43.452  25.791  34.604  1.00  0.00     0.010 A 
ATOM     94  C   UNL A   1      45.636  25.988  33.603  1.00  0.00     0.010 A 
ATOM     95  C   UNL A   1      43.904  24.741  35.393  1.00  0.00     0.020 A 
ATOM     96  C   UNL A   1      46.077  24.889  34.334  1.00  0.00     0.020 A 
ATOM     97  C   UNL A   1      45.220  24.307  35.260  1.00  0.00     0.054 A 
BRANCH  97  98
ATOM     98  S   UNL A   1      45.792  22.965  36.316  1.00  0.00     0.124 S 
ATOM     99  O   UNL A   1      45.324  23.408  37.627  1.00  0.00    -0.237 OA
ATOM    100  O   UNL A   1      45.100  21.802  35.762  1.00  0.00    -0.237 OA
ATOM    101  O   UNL A   1      47.239  22.972  36.128  1.00  0.00    -0.744 OA
ENDBRANCH  97  98
ENDBRANCH  71  92
ENDBRANCH  45  46
ENDBRANCH  38  40
ENDBRANCH  37  38
ENDBRANCH  36  37
ENDBRANCH  35  36
ENDBRANCH   1  35
TORSDOF 20
ENDMDL
MODEL 2
REMARK VINA RESULT:     -11.9      2.489      5.163
REMARK SMILES Cc1c(NC(=O)c2cccc(-c3cc4ccccc4oc3=O)c2)cccc1C(=O)OCCOCCOC(=O)c1ccc(-c2c3nc(c(-c4ccc(S(=O)(=O)[O-])cc4)c4ccc([nH]4)c(-c4ccc(S(=O)(=O)[O-])cc4)c4nc(c(-c5ccc(S(=O)(=O)[O-])cc5)c5ccc2[nH]5)C=C4)C=C3)cc1
REMARK SMILES IDX 33 1 32 2 31 3 30 4 28 5 29 6 27 7 1 8 2 9 3 10 24 11 26 12
REMARK SMILES IDX 25 13 4 14 5 15 6 17 7 18 8 19 23 20 9 21 11 22 10 23 12 24
REMARK SMILES IDX 13 25 21 26 14 27 20 28 22 29 15 30 19 31 16 32 18 33 17 34
REMARK SMILES IDX 34 35 35 36 36 37 37 38 38 39 39 40 40 41 98 42 41 43 97 44
REMARK SMILES IDX 42 45 43 46 44 47 91 48 45 49 96 50 90 51 92 52 46 53 95 54
REMARK SMILES IDX 89 55 88 56 47 58 77 59 58 60 76 61 59 62 62 63 75 64 93 65
REMARK SMILES IDX 60 66 61 67 74 69 94 70 63 71 48 72 49 73 57 74 50 75 56 76
REMARK SMILES IDX 51 77 52 78 53 79 54 80 55 81 78 82 79 83 87 84 80 85 86 86
REMARK SMILES IDX 81 87 82 88 83 89 84 90 85 91 64 92 65 93 73 94 66 95 72 96
REMARK SMILES IDX 67 97 68 98 69 99 70 100 71 101
REMARK H PARENT 4 16 92 57 62 68
REMARK Flexibility Score: inf
ROOT
ATOM      1  O   UNL A   1      33.130  30.820  27.674  1.00  0.00    -0.374 OA
ENDROOT
BRANCH   1   2
ATOM      2  C   UNL A   1      32.066  30.821  26.735  1.00  0.00     0.202 C 
BRANCH   2   3
ATOM      3  C   UNL A   1      32.624  30.194  25.498  1.00  0.00     0.261 C 
BRANCH   3   4
ATOM      4  O   UNL A   1      32.943  28.778  25.580  1.00  0.00    -0.460 OA
BRANCH   4   5
ATOM      5  C   UNL A   1      33.221  27.947  24.542  1.00  0.00     0.338 C 
ATOM      6  O   UNL A   1      34.258  27.842  23.929  1.00  0.00    -0.246 OA
BRANCH   5   7
ATOM      7  C   UNL A   1      32.069  26.991  24.380  1.00  0.00     0.065 A 
ATOM      8  C   UNL A   1      31.245  27.038  26.833  1.00  0.00     0.047 C 
ATOM      9  C   UNL A   1      31.262  26.479  25.428  1.00  0.00    -0.013 A 
ATOM     10  C   UNL A   1      30.470  25.331  25.164  1.00  0.00     0.045 A 
ATOM     11  C   UNL A   1      30.369  24.818  23.866  1.00  0.00     0.026 A 
ATOM     12  C   UNL A   1      31.941  26.458  23.081  1.00  0.00     0.016 A 
ATOM     13  C   UNL A   1      31.091  25.387  22.823  1.00  0.00     0.003 A 
BRANCH  10  14
ATOM     14  N   UNL A   1      29.801  24.718  26.241  1.00  0.00    -0.322 N 
ATOM     15  C   UNL A   1      30.007  23.538  26.914  1.00  0.00     0.255 C 
ATOM     16  H   UNL A   1      29.034  25.236  26.578  1.00  0.00     0.170 HD
ATOM     17  O   UNL A   1      29.134  23.149  27.695  1.00  0.00    -0.269 OA
BRANCH  15  18
ATOM     18  C   UNL A   1      31.275  22.761  26.842  1.00  0.00     0.040 A 
ATOM     19  C   UNL A   1      32.122  22.799  27.951  1.00  0.00     0.014 A 
ATOM     20  C   UNL A   1      31.719  22.133  25.670  1.00  0.00     0.022 A 
ATOM     21  C   UNL A   1      33.363  22.164  27.912  1.00  0.00     0.001 A 
ATOM     22  C   UNL A   1      32.982  21.509  25.603  1.00  0.00    -0.010 A 
ATOM     23  C   UNL A   1      33.783  21.516  26.751  1.00  0.00     0.009 A 
BRANCH  22  24
ATOM     24  C   UNL A   1      33.613  20.963  24.363  1.00  0.00     0.068 A 
ATOM     25  C   UNL A   1      34.286  21.701  23.455  1.00  0.00     0.028 A 
ATOM     26  C   UNL A   1      34.417  19.710  24.586  1.00  0.00     0.344 A 
ATOM     27  C   UNL A   1      35.574  22.115  24.025  1.00  0.00     0.018 A 
ATOM     28  O   UNL A   1      35.684  19.954  25.128  1.00  0.00    -0.422 OA
ATOM     29  O   UNL A   1      33.976  18.591  24.366  1.00  0.00    -0.246 OA
ATOM     30  C   UNL A   1      36.053  23.379  23.815  1.00  0.00     0.012 A 
ATOM     31  C   UNL A   1      36.198  21.257  24.957  1.00  0.00     0.138 A 
ATOM     32  C   UNL A   1      37.093  23.784  24.626  1.00  0.00     0.001 A 
ATOM     33  C   UNL A   1      37.245  21.681  25.762  1.00  0.00     0.048 A 
ATOM     34  C   UNL A   1      37.686  22.982  25.606  1.00  0.00     0.004 A 
ENDBRANCH  22  24
ENDBRANCH  15  18
ENDBRANCH  10  14
ENDBRANCH   5   7
ENDBRANCH   4   5
ENDBRANCH   3   4
ENDBRANCH   2   3
ENDBRANCH   1   2
BRANCH   1  35
ATOM     35  C   UNL A   1      33.916  31.985  27.757  1.00  0.00     0.202 C 
BRANCH  35  36
ATOM     36  C   UNL A   1      35.399  31.733  28.039  1.00  0.00     0.261 C 
BRANCH  36  37
ATOM     37  O   UNL A   1      35.650  30.467  28.708  1.00  0.00    -0.460 OA
BRANCH  37  38
ATOM     38  C   UNL A   1      36.247  29.440  28.024  1.00  0.00     0.338 C 
ATOM     39  O   UNL A   1      35.689  28.815  27.136  1.00  0.00    -0.246 OA
BRANCH  38  40
ATOM     40  C   UNL A   1      37.708  29.343  28.312  1.00  0.00     0.060 A 
ATOM     41  C   UNL A   1      38.690  29.402  27.304  1.00  0.00     0.016 A 
ATOM     42  C   UNL A   1      38.085  29.037  29.611  1.00  0.00     0.016 A 
ATOM     43  C   UNL A   1      40.015  29.002  27.574  1.00  0.00     0.010 A 
ATOM     44  C   UNL A   1      39.335  28.506  29.831  1.00  0.00     0.010 A 
ATOM     45  C   UNL A   1      40.319  28.476  28.827  1.00  0.00    -0.014 A 
BRANCH  45  46
ATOM     46  C   UNL A   1      41.564  27.823  29.260  1.00  0.00     0.031 A 
ATOM     47  C   UNL A   1      41.742  26.409  28.838  1.00  0.00     0.074 A 
ATOM     48  C   UNL A   1      42.632  28.533  29.712  1.00  0.00     0.049 A 
ATOM     49  N   UNL A   1      42.765  25.702  29.145  1.00  0.00    -0.248 NA
ATOM     50  C   UNL A   1      40.770  25.649  28.045  1.00  0.00     0.031 C 
ATOM     51  C   UNL A   1      44.060  28.206  29.618  1.00  0.00     0.029 A 
ATOM     52  N   UNL A   1      42.664  29.767  30.358  1.00  0.00    -0.354 N 
ATOM     53  C   UNL A   1      42.762  24.579  28.355  1.00  0.00     0.074 A 
ATOM     54  C   UNL A   1      41.454  24.537  27.760  1.00  0.00     0.031 C 
ATOM     55  C   UNL A   1      44.779  29.048  30.385  1.00  0.00     0.029 A 
ATOM     56  C   UNL A   1      43.839  29.895  31.100  1.00  0.00     0.049 A 
ATOM     57  H   UNL A   1      41.958  30.451  30.300  1.00  0.00     0.167 HD
ATOM     58  C   UNL A   1      43.930  23.896  28.226  1.00  0.00     0.031 A 
ATOM     59  C   UNL A   1      43.753  30.137  32.435  1.00  0.00     0.031 A 
ATOM     60  C   UNL A   1      44.933  24.425  29.163  1.00  0.00     0.049 A 
ATOM     61  C   UNL A   1      44.191  28.860  33.092  1.00  0.00     0.074 A 
ATOM     62  C   UNL A   1      46.065  25.205  29.009  1.00  0.00     0.029 A 
ATOM     63  N   UNL A   1      44.610  24.470  30.520  1.00  0.00    -0.354 N 
ATOM     64  N   UNL A   1      44.101  27.701  32.490  1.00  0.00    -0.248 NA
ATOM     65  C   UNL A   1      44.941  28.794  34.339  1.00  0.00     0.031 C 
ATOM     66  C   UNL A   1      46.338  25.818  30.274  1.00  0.00     0.029 A 
ATOM     67  C   UNL A   1      45.394  25.386  31.198  1.00  0.00     0.049 A 
ATOM     68  H   UNL A   1      43.911  23.918  30.942  1.00  0.00     0.167 HD
ATOM     69  C   UNL A   1      44.902  26.810  33.126  1.00  0.00     0.074 A 
ATOM     70  C   UNL A   1      45.343  27.510  34.326  1.00  0.00     0.031 C 
ATOM     71  C   UNL A   1      45.219  25.580  32.637  1.00  0.00     0.031 A 
BRANCH  58  72
ATOM     72  C   UNL A   1      44.225  22.866  27.159  1.00  0.00    -0.014 A 
ATOM     73  C   UNL A   1      43.250  21.893  26.864  1.00  0.00     0.010 A 
ATOM     74  C   UNL A   1      45.446  22.747  26.460  1.00  0.00     0.010 A 
ATOM     75  C   UNL A   1      43.473  20.870  25.927  1.00  0.00     0.020 A 
ATOM     76  C   UNL A   1      45.676  21.745  25.502  1.00  0.00     0.020 A 
ATOM     77  C   UNL A   1      44.685  20.807  25.243  1.00  0.00     0.054 A 
BRANCH  77  78
ATOM     78  S   UNL A   1      44.948  19.491  24.026  1.00  0.00     0.124 S 
ATOM     79  O   UNL A   1      44.456  20.103  22.794  1.00  0.00    -0.237 OA
ATOM     80  O   UNL A   1      46.391  19.282  24.094  1.00  0.00    -0.237 OA
ATOM     81  O   UNL A   1      44.139  18.383  24.530  1.00  0.00    -0.744 OA
ENDBRANCH  77  78
ENDBRANCH  58  72
BRANCH  59  82
ATOM     82  C   UNL A   1      42.635  31.096  32.757  1.00  0.00    -0.014 A 
ATOM     83  C   UNL A   1      42.834  32.441  32.344  1.00  0.00     0.010 A 
ATOM     84  C   UNL A   1      41.304  30.654  32.900  1.00  0.00     0.010 A 
ATOM     85  C   UNL A   1      41.763  33.244  31.913  1.00  0.00     0.020 A 
ATOM     86  C   UNL A   1      40.228  31.455  32.453  1.00  0.00     0.020 A 
ATOM     87  C   UNL A   1      40.470  32.723  31.913  1.00  0.00     0.054 A 
BRANCH  87  88
ATOM     88  S   UNL A   1      39.185  33.574  30.916  1.00  0.00     0.124 S 
ATOM     89  O   UNL A   1      38.499  32.464  30.269  1.00  0.00    -0.237 OA
ATOM     90  O   UNL A   1      38.404  34.291  31.927  1.00  0.00    -0.237 OA
ATOM     91  O   UNL A   1      39.965  34.445  30.043  1.00  0.00    -0.744 OA
ENDBRANCH  87  88
ENDBRANCH  59  82
BRANCH  71  92
ATOM     92  C   UNL A   1      45.409  24.429  33.573  1.00  0.00    -0.014 A 
ATOM     93  C   UNL A   1      44.348  23.578  33.927  1.00  0.00     0.010 A 
ATOM     94  C   UNL A   1      46.710  24.058  33.971  1.00  0.00     0.010 A 
ATOM     95  C   UNL A   1      44.553  22.476  34.747  1.00  0.00     0.020 A 
ATOM     96  C   UNL A   1      46.935  22.914  34.730  1.00  0.00     0.020 A 
ATOM     97  C   UNL A   1      45.847  22.160  35.154  1.00  0.00     0.054 A 
BRANCH  97  98
ATOM     98  S   UNL A   1      46.084  20.745  36.241  1.00  0.00     0.124 S 
ATOM     99  O   UNL A   1      45.260  19.734  35.584  1.00  0.00    -0.237 OA
ATOM    100  O   UNL A   1      47.527  20.521  36.169  1.00  0.00    -0.237 OA
ATOM    101  O   UNL A   1      45.594  21.217  37.532  1.00  0.00    -0.744 OA
ENDBRANCH  97  98
ENDBRANCH  71  92
ENDBRANCH  45  46
ENDBRANCH  38  40
ENDBRANCH  37  38
ENDBRANCH  36  37
ENDBRANCH  35  36
ENDBRANCH   1  35
TORSDOF 20
ENDMDL
MODEL 3
REMARK VINA RESULT:     -11.8      3.630      9.039
REMARK SMILES Cc1c(NC(=O)c2cccc(-c3cc4ccccc4oc3=O)c2)cccc1C(=O)OCCOCCOC(=O)c1ccc(-c2c3nc(c(-c4ccc(S(=O)(=O)[O-])cc4)c4ccc([nH]4)c(-c4ccc(S(=O)(=O)[O-])cc4)c4nc(c(-c5ccc(S(=O)(=O)[O-])cc5)c5ccc2[nH]5)C=C4)C=C3)cc1
REMARK SMILES IDX 33 1 32 2 31 3 30 4 28 5 29 6 27 7 1 8 2 9 3 10 24 11 26 12
REMARK SMILES IDX 25 13 4 14 5 15 6 17 7 18 8 19 23 20 9 21 11 22 10 23 12 24
REMARK SMILES IDX 13 25 21 26 14 27 20 28 22 29 15 30 19 31 16 32 18 33 17 34
REMARK SMILES IDX 34 35 35 36 36 37 37 38 38 39 39 40 40 41 98 42 41 43 97 44
REMARK SMILES IDX 42 45 43 46 44 47 91 48 45 49 96 50 90 51 92 52 46 53 95 54
REMARK SMILES IDX 89 55 88 56 47 58 77 59 58 60 76 61 59 62 62 63 75 64 93 65
REMARK SMILES IDX 60 66 61 67 74 69 94 70 63 71 48 72 49 73 57 74 50 75 56 76
REMARK SMILES IDX 51 77 52 78 53 79 54 80 55 81 78 82 79 83 87 84 80 85 86 86
REMARK SMILES IDX 81 87 82 88 83 89 84 90 85 91 64 92 65 93 73 94 66 95 72 96
REMARK SMILES IDX 67 97 68 98 69 99 70 100 71 101
REMARK H PARENT 4 16 92 57 62 68
REMARK Flexibility Score: inf
ROOT
ATOM      1  O   UNL A   1      39.917  24.624  26.658  1.00  0.00    -0.374 OA
ENDROOT
BRANCH   1   2
ATOM      2  C   UNL A   1      39.177  23.631  27.352  1.00  0.00     0.202 C 
BRANCH   2   3
ATOM      3  C   UNL A   1      39.268  22.401  26.507  1.00  0.00     0.261 C 
BRANCH   3   4
ATOM      4  O   UNL A   1      38.031  21.947  25.892  1.00  0.00    -0.460 OA
BRANCH   4   5
ATOM      5  C   UNL A   1      37.128  22.712  25.227  1.00  0.00     0.338 C 
ATOM      6  O   UNL A   1      37.333  23.702  24.564  1.00  0.00    -0.246 OA
BRANCH   5   7
ATOM      7  C   UNL A   1      35.794  22.013  25.268  1.00  0.00     0.065 A 
ATOM      8  C   UNL A   1      34.475  23.878  26.486  1.00  0.00     0.047 C 
ATOM      9  C   UNL A   1      34.636  22.474  25.946  1.00  0.00    -0.013 A 
ATOM     10  C   UNL A   1      33.590  21.547  26.191  1.00  0.00     0.045 A 
ATOM     11  C   UNL A   1      33.635  20.260  25.642  1.00  0.00     0.026 A 
ATOM     12  C   UNL A   1      35.808  20.714  24.721  1.00  0.00     0.016 A 
ATOM     13  C   UNL A   1      34.733  19.848  24.897  1.00  0.00     0.003 A 
BRANCH  10  14
ATOM     14  N   UNL A   1      32.517  21.951  27.010  1.00  0.00    -0.322 N 
ATOM     15  C   UNL A   1      31.527  22.890  26.851  1.00  0.00     0.255 C 
ATOM     16  H   UNL A   1      32.468  21.465  27.865  1.00  0.00     0.170 HD
ATOM     17  O   UNL A   1      30.831  23.178  27.828  1.00  0.00    -0.269 OA
BRANCH  15  18
ATOM     18  C   UNL A   1      31.172  23.495  25.537  1.00  0.00     0.040 A 
ATOM     19  C   UNL A   1      31.428  22.745  24.388  1.00  0.00     0.014 A 
ATOM     20  C   UNL A   1      30.744  24.823  25.400  1.00  0.00     0.022 A 
ATOM     21  C   UNL A   1      31.198  23.290  23.126  1.00  0.00     0.001 A 
ATOM     22  C   UNL A   1      30.532  25.400  24.131  1.00  0.00    -0.010 A 
ATOM     23  C   UNL A   1      30.744  24.602  23.000  1.00  0.00     0.009 A 
BRANCH  22  24
ATOM     24  C   UNL A   1      30.243  26.843  23.873  1.00  0.00     0.068 A 
ATOM     25  C   UNL A   1      30.125  27.786  24.832  1.00  0.00     0.028 A 
ATOM     26  C   UNL A   1      31.070  27.446  22.769  1.00  0.00     0.344 A 
ATOM     27  C   UNL A   1      31.450  28.071  25.397  1.00  0.00     0.018 A 
ATOM     28  O   UNL A   1      32.370  27.775  23.169  1.00  0.00    -0.422 OA
ATOM     29  O   UNL A   1      30.656  27.579  21.626  1.00  0.00    -0.246 OA
ATOM     30  C   UNL A   1      31.607  28.254  26.744  1.00  0.00     0.012 A 
ATOM     31  C   UNL A   1      32.576  27.943  24.554  1.00  0.00     0.138 A 
ATOM     32  C   UNL A   1      32.899  28.204  27.224  1.00  0.00     0.001 A 
ATOM     33  C   UNL A   1      33.870  27.898  25.055  1.00  0.00     0.048 A 
ATOM     34  C   UNL A   1      34.029  28.009  26.424  1.00  0.00     0.004 A 
ENDBRANCH  22  24
ENDBRANCH  15  18
ENDBRANCH  10  14
ENDBRANCH   5   7
ENDBRANCH   4   5
ENDBRANCH   3   4
ENDBRANCH   2   3
ENDBRANCH   1   2
BRANCH   1  35
ATOM     35  C   UNL A   1      41.211  24.278  26.228  1.00  0.00     0.202 C 
BRANCH  35  36
ATOM     36  C   UNL A   1      41.984  25.417  25.558  1.00  0.00     0.261 C 
BRANCH  36  37
ATOM     37  O   UNL A   1      41.305  26.700  25.643  1.00  0.00    -0.460 OA
BRANCH  37  38
ATOM     38  C   UNL A   1      42.031  27.862  25.574  1.00  0.00     0.338 C 
ATOM     39  O   UNL A   1      42.655  28.203  24.583  1.00  0.00    -0.246 OA
BRANCH  38  40
ATOM     40  C   UNL A   1      41.769  28.759  26.738  1.00  0.00     0.060 A 
ATOM     41  C   UNL A   1      42.802  29.378  27.470  1.00  0.00     0.016 A 
ATOM     42  C   UNL A   1      40.463  28.857  27.190  1.00  0.00     0.016 A 
ATOM     43  C   UNL A   1      42.536  29.957  28.728  1.00  0.00     0.010 A 
ATOM     44  C   UNL A   1      40.236  29.285  28.478  1.00  0.00     0.010 A 
ATOM     45  C   UNL A   1      41.259  29.838  29.269  1.00  0.00    -0.014 A 
BRANCH  45  46
ATOM     46  C   UNL A   1      40.812  30.183  30.628  1.00  0.00     0.031 A 
ATOM     47  C   UNL A   1      39.986  31.412  30.753  1.00  0.00     0.074 A 
ATOM     48  C   UNL A   1      40.846  29.285  31.649  1.00  0.00     0.049 A 
ATOM     49  N   UNL A   1      39.531  31.850  31.868  1.00  0.00    -0.248 NA
ATOM     50  C   UNL A   1      39.611  32.279  29.631  1.00  0.00     0.031 C 
ATOM     51  C   UNL A   1      39.965  29.189  32.819  1.00  0.00     0.029 A 
ATOM     52  N   UNL A   1      41.702  28.204  31.847  1.00  0.00    -0.354 N 
ATOM     53  C   UNL A   1      38.574  32.796  31.598  1.00  0.00     0.074 A 
ATOM     54  C   UNL A   1      38.727  33.104  30.202  1.00  0.00     0.031 C 
ATOM     55  C   UNL A   1      40.468  28.310  33.706  1.00  0.00     0.029 A 
ATOM     56  C   UNL A   1      41.759  27.873  33.202  1.00  0.00     0.049 A 
ATOM     57  H   UNL A   1      42.195  27.739  31.132  1.00  0.00     0.167 HD
ATOM     58  C   UNL A   1      37.696  33.104  32.589  1.00  0.00     0.031 A 
ATOM     59  C   UNL A   1      42.965  27.870  33.829  1.00  0.00     0.031 A 
ATOM     60  C   UNL A   1      38.110  32.471  33.849  1.00  0.00     0.049 A 
ATOM     61  C   UNL A   1      42.933  29.063  34.740  1.00  0.00     0.074 A 
ATOM     62  C   UNL A   1      37.634  31.396  34.579  1.00  0.00     0.029 A 
ATOM     63  N   UNL A   1      39.399  32.724  34.324  1.00  0.00    -0.354 N 
ATOM     64  N   UNL A   1      42.164  30.096  34.508  1.00  0.00    -0.248 NA
ATOM     65  C   UNL A   1      43.564  29.110  36.053  1.00  0.00     0.031 C 
ATOM     66  C   UNL A   1      38.706  30.932  35.407  1.00  0.00     0.029 A 
ATOM     67  C   UNL A   1      39.817  31.742  35.204  1.00  0.00     0.049 A 
ATOM     68  H   UNL A   1      39.942  33.504  34.064  1.00  0.00     0.167 HD
ATOM     69  C   UNL A   1      42.039  30.819  35.649  1.00  0.00     0.074 A 
ATOM     70  C   UNL A   1      42.997  30.217  36.567  1.00  0.00     0.031 C 
ATOM     71  C   UNL A   1      41.139  31.826  35.823  1.00  0.00     0.031 A 
BRANCH  58  72
ATOM     72  C   UNL A   1      36.388  33.838  32.397  1.00  0.00    -0.014 A 
ATOM     73  C   UNL A   1      36.005  34.806  33.346  1.00  0.00     0.010 A 
ATOM     74  C   UNL A   1      35.460  33.588  31.363  1.00  0.00     0.010 A 
ATOM     75  C   UNL A   1      34.779  35.488  33.267  1.00  0.00     0.020 A 
ATOM     76  C   UNL A   1      34.241  34.278  31.255  1.00  0.00     0.020 A 
ATOM     77  C   UNL A   1      33.905  35.226  32.214  1.00  0.00     0.054 A 
BRANCH  77  78
ATOM     78  S   UNL A   1      32.336  36.127  32.119  1.00  0.00     0.124 S 
ATOM     79  O   UNL A   1      31.365  35.104  32.501  1.00  0.00    -0.237 OA
ATOM     80  O   UNL A   1      32.532  37.204  33.085  1.00  0.00    -0.237 OA
ATOM     81  O   UNL A   1      32.263  36.555  30.723  1.00  0.00    -0.744 OA
ENDBRANCH  77  78
ENDBRANCH  58  72
BRANCH  59  82
ATOM     82  C   UNL A   1      44.053  27.315  32.944  1.00  0.00    -0.014 A 
ATOM     83  C   UNL A   1      44.103  25.900  32.837  1.00  0.00     0.010 A 
ATOM     84  C   UNL A   1      44.585  28.064  31.875  1.00  0.00     0.010 A 
ATOM     85  C   UNL A   1      44.489  25.266  31.643  1.00  0.00     0.020 A 
ATOM     86  C   UNL A   1      44.961  27.429  30.669  1.00  0.00     0.020 A 
ATOM     87  C   UNL A   1      44.859  26.038  30.543  1.00  0.00     0.054 A 
BRANCH  87  88
ATOM     88  S   UNL A   1      44.885  25.246  28.887  1.00  0.00     0.124 S 
ATOM     89  O   UNL A   1      44.538  23.864  29.192  1.00  0.00    -0.237 OA
ATOM     90  O   UNL A   1      43.869  25.998  28.146  1.00  0.00    -0.237 OA
ATOM     91  O   UNL A   1      46.249  25.481  28.428  1.00  0.00    -0.744 OA
ENDBRANCH  87  88
ENDBRANCH  59  82
BRANCH  71  92
ATOM     92  C   UNL A   1      41.495  33.010  36.665  1.00  0.00    -0.014 A 
ATOM     93  C   UNL A   1      41.145  33.085  38.024  1.00  0.00     0.010 A 
ATOM     94  C   UNL A   1      42.362  33.996  36.154  1.00  0.00     0.010 A 
ATOM     95  C   UNL A   1      41.538  34.162  38.809  1.00  0.00     0.020 A 
ATOM     96  C   UNL A   1      42.822  35.039  36.952  1.00  0.00     0.020 A 
ATOM     97  C   UNL A   1      42.364  35.140  38.261  1.00  0.00     0.054 A 
BRANCH  97  98
ATOM     98  S   UNL A   1      42.834  36.541  39.288  1.00  0.00     0.124 S 
ATOM     99  O   UNL A   1      44.140  36.112  39.784  1.00  0.00    -0.237 OA
ATOM    100  O   UNL A   1      42.859  37.647  38.333  1.00  0.00    -0.237 OA
ATOM    101  O   UNL A   1      41.773  36.608  40.286  1.00  0.00    -0.744 OA
ENDBRANCH  97  98
ENDBRANCH  71  92
ENDBRANCH  45  46
ENDBRANCH  38  40
ENDBRANCH  37  38
ENDBRANCH  36  37
ENDBRANCH  35  36
ENDBRANCH   1  35
TORSDOF 20
ENDMDL
