MODEL 1
REMARK VINA RESULT:      -9.5      0.000      0.000
REMARK SMILES C[N@H+](C[C@H]1CCC[N@@H+]1C)C[C@]([NH3+])(C(=O)OCCOCCOC(=O)c1ccc(-c2c3nc(c(-c4ccc(S(=O)(=O)[O-])cc4)c4ccc([nH]4)c(-c4ccc(S(=O)(=O)[O-])cc4)c4nc(c(-c5ccc(S(=O)(=O)[O-])cc5)c5ccc2[nH]5)C=C4)C=C3)cc1)c1ccccc1
REMARK SMILES IDX 17 1 16 2 15 3 13 4 14 5 11 6 10 7 2 8 1 9 3 11 4 12 5 13
REMARK SMILES IDX 8 14 6 15 7 16 9 17 84 19 85 20 89 21 86 22 88 23 87 24
REMARK SMILES IDX 12 25 18 29 19 30 20 31 21 32 22 33 23 34 24 35 25 36 83 37
REMARK SMILES IDX 26 38 82 39 27 40 28 41 29 42 76 43 30 44 81 45 75 46 77 47
REMARK SMILES IDX 31 48 80 49 74 50 73 51 32 53 62 54 43 55 61 56 44 57 47 58
REMARK SMILES IDX 60 59 78 60 45 61 46 62 59 64 79 65 48 66 33 67 34 68 42 69
REMARK SMILES IDX 35 70 41 71 36 72 37 73 38 74 39 75 40 76 63 77 64 78 72 79
REMARK SMILES IDX 65 80 71 81 66 82 67 83 68 84 69 85 70 86 49 87 50 88 58 89
REMARK SMILES IDX 51 90 57 91 52 92 53 93 54 94 55 95 56 96
REMARK H PARENT 2 10 8 18 12 26 12 27 12 28 77 52 47 63
REMARK Flexibility Score: inf
ROOT
ATOM      1  C   UNL A   1      34.653  29.754  27.587  1.00  0.00     0.202 C 
ENDROOT
BRANCH   1   2
ATOM      2  C   UNL A   1      34.407  28.483  26.756  1.00  0.00     0.261 C 
BRANCH   2   3
ATOM      3  O   UNL A   1      33.057  28.497  26.262  1.00  0.00    -0.458 OA
BRANCH   3   4
ATOM      4  C   UNL A   1      32.863  28.341  24.907  1.00  0.00     0.379 C 
ATOM      5  O   UNL A   1      33.299  29.120  24.070  1.00  0.00    -0.244 OA
BRANCH   4   6
ATOM      6  C   UNL A   1      32.039  27.015  24.648  1.00  0.00     0.267 C 
BRANCH   6   7
ATOM      7  C   UNL A   1      31.200  27.099  23.325  1.00  0.00     0.349 C 
BRANCH   7   8
ATOM      8  N   UNL A   1      30.120  28.113  23.384  1.00  0.00    -0.326 N 
ATOM      9  C   UNL A   1      28.768  27.603  23.433  1.00  0.00     0.333 C 
ATOM     10  H   UNL A   1      30.320  28.411  24.338  1.00  0.00     0.348 HD
BRANCH   8  11
ATOM     11  C   UNL A   1      30.340  29.509  22.988  1.00  0.00     0.327 C 
BRANCH  11  12
ATOM     12  C   UNL A   1      29.123  30.525  22.985  1.00  0.00     0.239 C 
ATOM     13  C   UNL A   1      29.202  31.642  24.027  1.00  0.00     0.077 C 
ATOM     14  N   UNL A   1      28.939  31.212  21.701  1.00  0.00    -0.330 N 
ATOM     15  C   UNL A   1      28.934  32.955  23.307  1.00  0.00     0.068 C 
ATOM     16  C   UNL A   1      28.507  32.591  21.903  1.00  0.00     0.262 C 
ATOM     17  C   UNL A   1      28.087  30.512  20.745  1.00  0.00     0.333 C 
ATOM     18  H   UNL A   1      29.862  31.217  21.265  1.00  0.00     0.348 HD
ENDBRANCH  11  12
ENDBRANCH   8  11
ENDBRANCH   7   8
ENDBRANCH   6   7
BRANCH   6  19
ATOM     19  C   UNL A   1      32.888  25.723  24.723  1.00  0.00     0.030 A 
ATOM     20  C   UNL A   1      33.782  25.341  23.714  1.00  0.00     0.011 A 
ATOM     21  C   UNL A   1      32.738  24.828  25.808  1.00  0.00     0.011 A 
ATOM     22  C   UNL A   1      34.501  24.140  23.804  1.00  0.00     0.001 A 
ATOM     23  C   UNL A   1      33.427  23.621  25.888  1.00  0.00     0.001 A 
ATOM     24  C   UNL A   1      34.318  23.279  24.885  1.00  0.00     0.000 A 
ENDBRANCH   6  19
BRANCH   6  25
ATOM     25  N   UNL A   1      31.042  26.984  25.735  1.00  0.00    -0.335 N 
ATOM     26  H   UNL A   1      31.438  26.508  26.546  1.00  0.00     0.345 HD
ATOM     27  H   UNL A   1      30.210  26.485  25.419  1.00  0.00     0.345 HD
ATOM     28  H   UNL A   1      30.789  27.938  25.990  1.00  0.00     0.345 HD
ENDBRANCH   6  25
ENDBRANCH   4   6
ENDBRANCH   3   4
ENDBRANCH   2   3
ENDBRANCH   1   2
BRANCH   1  29
ATOM     29  O   UNL A   1      33.956  30.924  27.136  1.00  0.00    -0.374 OA
BRANCH  29  30
ATOM     30  C   UNL A   1      33.807  31.955  28.116  1.00  0.00     0.202 C 
BRANCH  30  31
ATOM     31  C   UNL A   1      33.268  33.305  27.625  1.00  0.00     0.261 C 
BRANCH  31  32
ATOM     32  O   UNL A   1      32.491  33.970  28.640  1.00  0.00    -0.460 OA
BRANCH  32  33
ATOM     33  C   UNL A   1      33.087  35.060  29.172  1.00  0.00     0.338 C 
ATOM     34  O   UNL A   1      32.685  36.215  29.115  1.00  0.00    -0.246 OA
BRANCH  33  35
ATOM     35  C   UNL A   1      34.233  34.667  30.016  1.00  0.00     0.060 A 
ATOM     36  C   UNL A   1      35.496  34.700  29.411  1.00  0.00     0.016 A 
ATOM     37  C   UNL A   1      34.095  34.214  31.332  1.00  0.00     0.016 A 
ATOM     38  C   UNL A   1      36.609  34.209  30.086  1.00  0.00     0.010 A 
ATOM     39  C   UNL A   1      35.221  33.722  32.011  1.00  0.00     0.010 A 
ATOM     40  C   UNL A   1      36.476  33.673  31.373  1.00  0.00    -0.014 A 
BRANCH  40  41
ATOM     41  C   UNL A   1      37.622  32.930  31.963  1.00  0.00     0.031 A 
ATOM     42  C   UNL A   1      38.204  33.393  33.275  1.00  0.00     0.074 A 
ATOM     43  C   UNL A   1      38.087  31.805  31.388  1.00  0.00     0.049 A 
ATOM     44  N   UNL A   1      39.175  32.872  33.981  1.00  0.00    -0.248 NA
ATOM     45  C   UNL A   1      37.611  34.601  33.871  1.00  0.00     0.031 C 
ATOM     46  C   UNL A   1      37.580  31.217  30.148  1.00  0.00     0.029 A 
ATOM     47  N   UNL A   1      39.088  30.949  31.781  1.00  0.00    -0.354 N 
ATOM     48  C   UNL A   1      39.312  33.685  35.100  1.00  0.00     0.074 A 
ATOM     49  C   UNL A   1      38.351  34.758  34.959  1.00  0.00     0.031 C 
ATOM     50  C   UNL A   1      38.271  30.094  29.885  1.00  0.00     0.029 A 
ATOM     51  C   UNL A   1      39.291  29.902  30.914  1.00  0.00     0.049 A 
ATOM     52  H   UNL A   1      39.610  31.075  32.606  1.00  0.00     0.167 HD
ATOM     53  C   UNL A   1      40.150  33.549  36.155  1.00  0.00     0.031 A 
ATOM     54  C   UNL A   1      40.205  28.911  30.934  1.00  0.00     0.031 A 
ATOM     55  C   UNL A   1      41.114  32.488  36.294  1.00  0.00     0.049 A 
ATOM     56  C   UNL A   1      41.186  28.826  32.076  1.00  0.00     0.074 A 
ATOM     57  C   UNL A   1      42.001  32.263  37.333  1.00  0.00     0.029 A 
ATOM     58  N   UNL A   1      41.324  31.480  35.366  1.00  0.00    -0.354 N 
ATOM     59  N   UNL A   1      41.286  29.594  33.135  1.00  0.00    -0.248 NA
ATOM     60  C   UNL A   1      42.168  27.734  32.031  1.00  0.00     0.031 C 
ATOM     61  C   UNL A   1      42.793  31.160  37.002  1.00  0.00     0.029 A 
ATOM     62  C   UNL A   1      42.348  30.650  35.792  1.00  0.00     0.049 A 
ATOM     63  H   UNL A   1      40.821  31.370  34.527  1.00  0.00     0.167 HD
ATOM     64  C   UNL A   1      42.323  29.059  33.895  1.00  0.00     0.074 A 
ATOM     65  C   UNL A   1      42.806  27.895  33.182  1.00  0.00     0.031 C 
ATOM     66  C   UNL A   1      42.827  29.493  35.077  1.00  0.00     0.031 A 
BRANCH  53  67
ATOM     67  C   UNL A   1      40.087  34.599  37.237  1.00  0.00    -0.014 A 
ATOM     68  C   UNL A   1      40.829  35.792  37.145  1.00  0.00     0.010 A 
ATOM     69  C   UNL A   1      39.237  34.407  38.342  1.00  0.00     0.010 A 
ATOM     70  C   UNL A   1      40.751  36.753  38.157  1.00  0.00     0.020 A 
ATOM     71  C   UNL A   1      39.133  35.380  39.340  1.00  0.00     0.020 A 
ATOM     72  C   UNL A   1      39.904  36.539  39.249  1.00  0.00     0.054 A 
BRANCH  72  73
ATOM     73  S   UNL A   1      39.807  37.815  40.536  1.00  0.00     0.124 S 
ATOM     74  O   UNL A   1      40.055  37.037  41.749  1.00  0.00    -0.237 OA
ATOM     75  O   UNL A   1      40.874  38.737  40.153  1.00  0.00    -0.237 OA
ATOM     76  O   UNL A   1      38.452  38.341  40.403  1.00  0.00    -0.744 OA
ENDBRANCH  72  73
ENDBRANCH  53  67
BRANCH  54  77
ATOM     77  C   UNL A   1      40.258  27.928  29.814  1.00  0.00    -0.014 A 
ATOM     78  C   UNL A   1      39.379  26.833  29.765  1.00  0.00     0.010 A 
ATOM     79  C   UNL A   1      41.206  28.087  28.785  1.00  0.00     0.010 A 
ATOM     80  C   UNL A   1      39.456  25.907  28.719  1.00  0.00     0.020 A 
ATOM     81  C   UNL A   1      41.264  27.184  27.721  1.00  0.00     0.020 A 
ATOM     82  C   UNL A   1      40.396  26.092  27.701  1.00  0.00     0.054 A 
BRANCH  82  83
ATOM     83  S   UNL A   1      40.443  24.911  26.326  1.00  0.00     0.124 S 
ATOM     84  O   UNL A   1      41.119  25.679  25.286  1.00  0.00    -0.237 OA
ATOM     85  O   UNL A   1      41.205  23.800  26.891  1.00  0.00    -0.237 OA
ATOM     86  O   UNL A   1      39.032  24.623  26.074  1.00  0.00    -0.744 OA
ENDBRANCH  82  83
ENDBRANCH  54  77
BRANCH  66  87
ATOM     87  C   UNL A   1      43.937  28.687  35.705  1.00  0.00    -0.014 A 
ATOM     88  C   UNL A   1      45.289  29.020  35.508  1.00  0.00     0.010 A 
ATOM     89  C   UNL A   1      43.616  27.612  36.556  1.00  0.00     0.010 A 
ATOM     90  C   UNL A   1      46.300  28.272  36.121  1.00  0.00     0.020 A 
ATOM     91  C   UNL A   1      44.622  26.883  37.197  1.00  0.00     0.020 A 
ATOM     92  C   UNL A   1      45.959  27.209  36.964  1.00  0.00     0.054 A 
BRANCH  92  93
ATOM     93  S   UNL A   1      47.287  26.282  37.781  1.00  0.00     0.124 S 
ATOM     94  O   UNL A   1      47.833  27.277  38.700  1.00  0.00    -0.237 OA
ATOM     95  O   UNL A   1      46.566  25.177  38.408  1.00  0.00    -0.237 OA
ATOM     96  O   UNL A   1      48.170  25.899  36.682  1.00  0.00    -0.744 OA
ENDBRANCH  92  93
ENDBRANCH  66  87
ENDBRANCH  40  41
ENDBRANCH  33  35
ENDBRANCH  32  33
ENDBRANCH  31  32
ENDBRANCH  30  31
ENDBRANCH  29  30
ENDBRANCH   1  29
TORSDOF 23
ENDMDL
MODEL 2
REMARK VINA RESULT:      -9.5      6.390     11.250
REMARK SMILES C[N@H+](C[C@H]1CCC[N@@H+]1C)C[C@]([NH3+])(C(=O)OCCOCCOC(=O)c1ccc(-c2c3nc(c(-c4ccc(S(=O)(=O)[O-])cc4)c4ccc([nH]4)c(-c4ccc(S(=O)(=O)[O-])cc4)c4nc(c(-c5ccc(S(=O)(=O)[O-])cc5)c5ccc2[nH]5)C=C4)C=C3)cc1)c1ccccc1
REMARK SMILES IDX 17 1 16 2 15 3 13 4 14 5 11 6 10 7 2 8 1 9 3 11 4 12 5 13
REMARK SMILES IDX 8 14 6 15 7 16 9 17 84 19 85 20 89 21 86 22 88 23 87 24
REMARK SMILES IDX 12 25 18 29 19 30 20 31 21 32 22 33 23 34 24 35 25 36 83 37
REMARK SMILES IDX 26 38 82 39 27 40 28 41 29 42 76 43 30 44 81 45 75 46 77 47
REMARK SMILES IDX 31 48 80 49 74 50 73 51 32 53 62 54 43 55 61 56 44 57 47 58
REMARK SMILES IDX 60 59 78 60 45 61 46 62 59 64 79 65 48 66 33 67 34 68 42 69
REMARK SMILES IDX 35 70 41 71 36 72 37 73 38 74 39 75 40 76 63 77 64 78 72 79
REMARK SMILES IDX 65 80 71 81 66 82 67 83 68 84 69 85 70 86 49 87 50 88 58 89
REMARK SMILES IDX 51 90 57 91 52 92 53 93 54 94 55 95 56 96
REMARK H PARENT 2 10 8 18 12 26 12 27 12 28 77 52 47 63
REMARK Flexibility Score: inf
ROOT
ATOM      1  C   UNL A   1      33.807  30.086  26.726  1.00  0.00     0.202 C 
ENDROOT
BRANCH   1   2
ATOM      2  C   UNL A   1      32.377  29.923  26.184  1.00  0.00     0.261 C 
BRANCH   2   3
ATOM      3  O   UNL A   1      32.436  29.362  24.861  1.00  0.00    -0.458 OA
BRANCH   3   4
ATOM      4  C   UNL A   1      31.487  28.426  24.514  1.00  0.00     0.379 C 
ATOM      5  O   UNL A   1      30.965  27.665  25.317  1.00  0.00    -0.244 OA
BRANCH   4   6
ATOM      6  C   UNL A   1      31.192  28.534  22.963  1.00  0.00     0.267 C 
BRANCH   6   7
ATOM      7  C   UNL A   1      31.255  27.133  22.258  1.00  0.00     0.349 C 
BRANCH   7   8
ATOM      8  N   UNL A   1      32.032  26.129  23.025  1.00  0.00    -0.326 N 
ATOM      9  C   UNL A   1      33.469  26.186  22.876  1.00  0.00     0.333 C 
ATOM     10  H   UNL A   1      31.849  26.545  23.938  1.00  0.00     0.348 HD
BRANCH   8  11
ATOM     11  C   UNL A   1      31.418  24.904  23.549  1.00  0.00     0.327 C 
BRANCH  11  12
ATOM     12  C   UNL A   1      31.914  24.306  24.931  1.00  0.00     0.239 C 
ATOM     13  C   UNL A   1      30.862  24.269  26.042  1.00  0.00     0.077 C 
ATOM     14  N   UNL A   1      32.410  22.930  24.828  1.00  0.00    -0.330 N 
ATOM     15  C   UNL A   1      30.876  22.868  26.634  1.00  0.00     0.068 C 
ATOM     16  C   UNL A   1      32.059  22.156  26.014  1.00  0.00     0.262 C 
ATOM     17  C   UNL A   1      33.829  22.810  24.506  1.00  0.00     0.333 C 
ATOM     18  H   UNL A   1      31.930  22.531  24.021  1.00  0.00     0.348 HD
ENDBRANCH  11  12
ENDBRANCH   8  11
ENDBRANCH   7   8
ENDBRANCH   6   7
BRANCH   6  19
ATOM     19  C   UNL A   1      29.894  29.303  22.623  1.00  0.00     0.030 A 
ATOM     20  C   UNL A   1      28.651  28.985  23.187  1.00  0.00     0.011 A 
ATOM     21  C   UNL A   1      29.904  30.336  21.657  1.00  0.00     0.011 A 
ATOM     22  C   UNL A   1      27.491  29.683  22.818  1.00  0.00     0.001 A 
ATOM     23  C   UNL A   1      28.751  31.013  21.266  1.00  0.00     0.001 A 
ATOM     24  C   UNL A   1      27.540  30.689  21.855  1.00  0.00     0.000 A 
ENDBRANCH   6  19
BRANCH   6  25
ATOM     25  N   UNL A   1      32.339  29.288  22.422  1.00  0.00    -0.335 N 
ATOM     26  H   UNL A   1      32.030  29.862  21.637  1.00  0.00     0.345 HD
ATOM     27  H   UNL A   1      33.057  28.636  22.105  1.00  0.00     0.345 HD
ATOM     28  H   UNL A   1      32.724  29.888  23.151  1.00  0.00     0.345 HD
ENDBRANCH   6  25
ENDBRANCH   4   6
ENDBRANCH   3   4
ENDBRANCH   2   3
ENDBRANCH   1   2
BRANCH   1  29
ATOM     29  O   UNL A   1      33.969  31.099  27.729  1.00  0.00    -0.374 OA
BRANCH  29  30
ATOM     30  C   UNL A   1      35.213  31.060  28.434  1.00  0.00     0.202 C 
BRANCH  30  31
ATOM     31  C   UNL A   1      35.295  31.862  29.740  1.00  0.00     0.261 C 
BRANCH  31  32
ATOM     32  O   UNL A   1      36.110  31.196  30.724  1.00  0.00    -0.460 OA
BRANCH  32  33
ATOM     33  C   UNL A   1      37.268  31.830  31.010  1.00  0.00     0.338 C 
ATOM     34  O   UNL A   1      37.406  32.817  31.721  1.00  0.00    -0.246 OA
BRANCH  33  35
ATOM     35  C   UNL A   1      38.422  31.067  30.491  1.00  0.00     0.060 A 
ATOM     36  C   UNL A   1      39.511  30.916  31.358  1.00  0.00     0.016 A 
ATOM     37  C   UNL A   1      38.486  30.569  29.186  1.00  0.00     0.016 A 
ATOM     38  C   UNL A   1      40.694  30.339  30.903  1.00  0.00     0.010 A 
ATOM     39  C   UNL A   1      39.679  29.985  28.732  1.00  0.00     0.010 A 
ATOM     40  C   UNL A   1      40.805  29.910  29.574  1.00  0.00    -0.014 A 
BRANCH  40  41
ATOM     41  C   UNL A   1      42.147  29.537  29.052  1.00  0.00     0.031 A 
ATOM     42  C   UNL A   1      42.382  28.132  28.559  1.00  0.00     0.074 A 
ATOM     43  C   UNL A   1      43.124  30.456  28.934  1.00  0.00     0.049 A 
ATOM     44  N   UNL A   1      43.458  27.608  28.031  1.00  0.00    -0.248 NA
ATOM     45  C   UNL A   1      41.252  27.195  28.671  1.00  0.00     0.031 C 
ATOM     46  C   UNL A   1      43.014  31.862  29.323  1.00  0.00     0.029 A 
ATOM     47  N   UNL A   1      44.402  30.343  28.441  1.00  0.00    -0.354 N 
ATOM     48  C   UNL A   1      43.139  26.283  27.751  1.00  0.00     0.074 A 
ATOM     49  C   UNL A   1      41.781  26.073  28.205  1.00  0.00     0.031 C 
ATOM     50  C   UNL A   1      44.176  32.482  29.050  1.00  0.00     0.029 A 
ATOM     51  C   UNL A   1      45.123  31.512  28.502  1.00  0.00     0.049 A 
ATOM     52  H   UNL A   1      44.766  29.503  28.079  1.00  0.00     0.167 HD
ATOM     53  C   UNL A   1      43.899  25.330  27.161  1.00  0.00     0.031 A 
ATOM     54  C   UNL A   1      46.404  31.771  28.172  1.00  0.00     0.031 A 
ATOM     55  C   UNL A   1      45.255  25.532  26.717  1.00  0.00     0.049 A 
ATOM     56  C   UNL A   1      47.260  30.672  27.594  1.00  0.00     0.074 A 
ATOM     57  C   UNL A   1      46.101  24.627  26.100  1.00  0.00     0.029 A 
ATOM     58  N   UNL A   1      45.964  26.716  26.848  1.00  0.00    -0.354 N 
ATOM     59  N   UNL A   1      46.934  29.431  27.319  1.00  0.00    -0.248 NA
ATOM     60  C   UNL A   1      48.653  31.013  27.271  1.00  0.00     0.031 C 
ATOM     61  C   UNL A   1      47.344  25.243  25.920  1.00  0.00     0.029 A 
ATOM     62  C   UNL A   1      47.249  26.555  26.354  1.00  0.00     0.049 A 
ATOM     63  H   UNL A   1      45.609  27.548  27.236  1.00  0.00     0.167 HD
ATOM     64  C   UNL A   1      48.073  28.854  26.764  1.00  0.00     0.074 A 
ATOM     65  C   UNL A   1      49.089  29.885  26.729  1.00  0.00     0.031 C 
ATOM     66  C   UNL A   1      48.258  27.584  26.323  1.00  0.00     0.031 A 
BRANCH  53  67
ATOM     67  C   UNL A   1      43.292  23.960  26.989  1.00  0.00    -0.014 A 
ATOM     68  C   UNL A   1      43.278  23.027  28.043  1.00  0.00     0.010 A 
ATOM     69  C   UNL A   1      42.686  23.617  25.766  1.00  0.00     0.010 A 
ATOM     70  C   UNL A   1      42.705  21.764  27.862  1.00  0.00     0.020 A 
ATOM     71  C   UNL A   1      42.084  22.368  25.593  1.00  0.00     0.020 A 
ATOM     72  C   UNL A   1      42.113  21.443  26.637  1.00  0.00     0.054 A 
BRANCH  72  73
ATOM     73  S   UNL A   1      41.358  19.805  26.440  1.00  0.00     0.124 S 
ATOM     74  O   UNL A   1      41.538  19.229  27.771  1.00  0.00    -0.237 OA
ATOM     75  O   UNL A   1      39.980  20.130  26.078  1.00  0.00    -0.237 OA
ATOM     76  O   UNL A   1      42.149  19.183  25.381  1.00  0.00    -0.744 OA
ENDBRANCH  72  73
ENDBRANCH  53  67
BRANCH  54  77
ATOM     77  C   UNL A   1      46.971  33.129  28.409  1.00  0.00    -0.014 A 
ATOM     78  C   UNL A   1      47.662  33.432  29.594  1.00  0.00     0.010 A 
ATOM     79  C   UNL A   1      46.812  34.135  27.437  1.00  0.00     0.010 A 
ATOM     80  C   UNL A   1      48.170  34.718  29.811  1.00  0.00     0.020 A 
ATOM     81  C   UNL A   1      47.346  35.412  27.634  1.00  0.00     0.020 A 
ATOM     82  C   UNL A   1      48.011  35.698  28.826  1.00  0.00     0.054 A 
BRANCH  82  83
ATOM     83  S   UNL A   1      48.724  37.342  29.104  1.00  0.00     0.124 S 
ATOM     84  O   UNL A   1      49.535  37.529  27.906  1.00  0.00    -0.237 OA
ATOM     85  O   UNL A   1      47.536  38.187  29.205  1.00  0.00    -0.237 OA
ATOM     86  O   UNL A   1      49.473  37.185  30.349  1.00  0.00    -0.744 OA
ENDBRANCH  82  83
ENDBRANCH  54  77
BRANCH  66  87
ATOM     87  C   UNL A   1      49.598  27.238  25.723  1.00  0.00    -0.014 A 
ATOM     88  C   UNL A   1      49.898  27.530  24.380  1.00  0.00     0.010 A 
ATOM     89  C   UNL A   1      50.594  26.664  26.535  1.00  0.00     0.010 A 
ATOM     90  C   UNL A   1      51.157  27.222  23.853  1.00  0.00     0.020 A 
ATOM     91  C   UNL A   1      51.864  26.385  26.022  1.00  0.00     0.020 A 
ATOM     92  C   UNL A   1      52.133  26.653  24.679  1.00  0.00     0.054 A 
BRANCH  92  93
ATOM     93  S   UNL A   1      53.770  26.304  23.981  1.00  0.00     0.124 S 
ATOM     94  O   UNL A   1      53.444  25.925  22.609  1.00  0.00    -0.237 OA
ATOM     95  O   UNL A   1      54.462  27.582  24.132  1.00  0.00    -0.237 OA
ATOM     96  O   UNL A   1      54.282  25.223  24.820  1.00  0.00    -0.744 OA
ENDBRANCH  92  93
ENDBRANCH  66  87
ENDBRANCH  40  41
ENDBRANCH  33  35
ENDBRANCH  32  33
ENDBRANCH  31  32
ENDBRANCH  30  31
ENDBRANCH  29  30
ENDBRANCH   1  29
TORSDOF 23
ENDMDL
MODEL 3
REMARK VINA RESULT:      -9.5      1.062      3.748
REMARK SMILES C[N@H+](C[C@H]1CCC[N@@H+]1C)C[C@]([NH3+])(C(=O)OCCOCCOC(=O)c1ccc(-c2c3nc(c(-c4ccc(S(=O)(=O)[O-])cc4)c4ccc([nH]4)c(-c4ccc(S(=O)(=O)[O-])cc4)c4nc(c(-c5ccc(S(=O)(=O)[O-])cc5)c5ccc2[nH]5)C=C4)C=C3)cc1)c1ccccc1
REMARK SMILES IDX 17 1 16 2 15 3 13 4 14 5 11 6 10 7 2 8 1 9 3 11 4 12 5 13
REMARK SMILES IDX 8 14 6 15 7 16 9 17 84 19 85 20 89 21 86 22 88 23 87 24
REMARK SMILES IDX 12 25 18 29 19 30 20 31 21 32 22 33 23 34 24 35 25 36 83 37
REMARK SMILES IDX 26 38 82 39 27 40 28 41 29 42 76 43 30 44 81 45 75 46 77 47
REMARK SMILES IDX 31 48 80 49 74 50 73 51 32 53 62 54 43 55 61 56 44 57 47 58
REMARK SMILES IDX 60 59 78 60 45 61 46 62 59 64 79 65 48 66 33 67 34 68 42 69
REMARK SMILES IDX 35 70 41 71 36 72 37 73 38 74 39 75 40 76 63 77 64 78 72 79
REMARK SMILES IDX 65 80 71 81 66 82 67 83 68 84 69 85 70 86 49 87 50 88 58 89
REMARK SMILES IDX 51 90 57 91 52 92 53 93 54 94 55 95 56 96
REMARK H PARENT 2 10 8 18 12 26 12 27 12 28 77 52 47 63
REMARK Flexibility Score: inf
ROOT
ATOM      1  C   UNL A   1      32.783  29.283  27.244  1.00  0.00     0.202 C 
ENDROOT
BRANCH   1   2
ATOM      2  C   UNL A   1      31.881  28.243  26.559  1.00  0.00     0.261 C 
BRANCH   2   3
ATOM      3  O   UNL A   1      31.577  28.688  25.225  1.00  0.00    -0.458 OA
BRANCH   3   4
ATOM      4  C   UNL A   1      32.313  28.162  24.186  1.00  0.00     0.379 C 
ATOM      5  O   UNL A   1      33.535  28.208  24.134  1.00  0.00    -0.244 OA
BRANCH   4   6
ATOM      6  C   UNL A   1      31.332  27.495  23.139  1.00  0.00     0.267 C 
BRANCH   6   7
ATOM      7  C   UNL A   1      31.199  25.948  23.368  1.00  0.00     0.349 C 
BRANCH   7   8
ATOM      8  N   UNL A   1      32.484  25.299  23.724  1.00  0.00    -0.326 N 
ATOM      9  C   UNL A   1      33.338  24.928  22.618  1.00  0.00     0.333 C 
ATOM     10  H   UNL A   1      32.912  26.141  24.110  1.00  0.00     0.348 HD
BRANCH   8  11
ATOM     11  C   UNL A   1      32.707  24.680  25.036  1.00  0.00     0.327 C 
BRANCH  11  12
ATOM     12  C   UNL A   1      33.470  23.294  25.130  1.00  0.00     0.239 C 
ATOM     13  C   UNL A   1      34.909  23.373  25.642  1.00  0.00     0.077 C 
ATOM     14  N   UNL A   1      32.806  22.320  26.004  1.00  0.00    -0.330 N 
ATOM     15  C   UNL A   1      35.059  22.331  26.740  1.00  0.00     0.068 C 
ATOM     16  C   UNL A   1      33.783  21.517  26.731  1.00  0.00     0.262 C 
ATOM     17  C   UNL A   1      31.802  21.487  25.347  1.00  0.00     0.333 C 
ATOM     18  H   UNL A   1      32.275  22.878  26.673  1.00  0.00     0.348 HD
ENDBRANCH  11  12
ENDBRANCH   8  11
ENDBRANCH   7   8
ENDBRANCH   6   7
BRANCH   6  19
ATOM     19  C   UNL A   1      29.955  28.192  23.035  1.00  0.00     0.030 A 
ATOM     20  C   UNL A   1      28.765  27.596  23.471  1.00  0.00     0.011 A 
ATOM     21  C   UNL A   1      29.838  29.460  22.420  1.00  0.00     0.011 A 
ATOM     22  C   UNL A   1      27.532  28.248  23.319  1.00  0.00     0.001 A 
ATOM     23  C   UNL A   1      28.613  30.100  22.241  1.00  0.00     0.001 A 
ATOM     24  C   UNL A   1      27.456  29.493  22.699  1.00  0.00     0.000 A 
ENDBRANCH   6  19
BRANCH   6  25
ATOM     25  N   UNL A   1      32.027  27.634  21.845  1.00  0.00    -0.335 N 
ATOM     26  H   UNL A   1      32.979  27.963  22.004  1.00  0.00     0.345 HD
ATOM     27  H   UNL A   1      31.527  28.306  21.261  1.00  0.00     0.345 HD
ATOM     28  H   UNL A   1      32.053  26.730  21.375  1.00  0.00     0.345 HD
ENDBRANCH   6  25
ENDBRANCH   4   6
ENDBRANCH   3   4
ENDBRANCH   2   3
ENDBRANCH   1   2
BRANCH   1  29
ATOM     29  O   UNL A   1      32.324  30.640  27.162  1.00  0.00    -0.374 OA
BRANCH  29  30
ATOM     30  C   UNL A   1      33.285  31.629  27.544  1.00  0.00     0.202 C 
BRANCH  30  31
ATOM     31  C   UNL A   1      32.885  33.097  27.349  1.00  0.00     0.261 C 
BRANCH  31  32
ATOM     32  O   UNL A   1      32.514  33.719  28.594  1.00  0.00    -0.460 OA
BRANCH  32  33
ATOM     33  C   UNL A   1      33.252  34.804  28.915  1.00  0.00     0.338 C 
ATOM     34  O   UNL A   1      32.991  35.971  28.655  1.00  0.00    -0.246 OA
BRANCH  33  35
ATOM     35  C   UNL A   1      34.369  34.429  29.807  1.00  0.00     0.060 A 
ATOM     36  C   UNL A   1      35.659  34.539  29.273  1.00  0.00     0.016 A 
ATOM     37  C   UNL A   1      34.182  33.920  31.096  1.00  0.00     0.016 A 
ATOM     38  C   UNL A   1      36.756  34.071  29.990  1.00  0.00     0.010 A 
ATOM     39  C   UNL A   1      35.291  33.452  31.817  1.00  0.00     0.010 A 
ATOM     40  C   UNL A   1      36.579  33.481  31.248  1.00  0.00    -0.014 A 
BRANCH  40  41
ATOM     41  C   UNL A   1      37.724  32.766  31.873  1.00  0.00     0.031 A 
ATOM     42  C   UNL A   1      38.239  33.227  33.213  1.00  0.00     0.074 A 
ATOM     43  C   UNL A   1      38.248  31.666  31.301  1.00  0.00     0.049 A 
ATOM     44  N   UNL A   1      39.197  32.726  33.950  1.00  0.00    -0.248 NA
ATOM     45  C   UNL A   1      37.584  34.406  33.803  1.00  0.00     0.031 C 
ATOM     46  C   UNL A   1      37.811  31.081  30.033  1.00  0.00     0.029 A 
ATOM     47  N   UNL A   1      39.260  30.836  31.722  1.00  0.00    -0.354 N 
ATOM     48  C   UNL A   1      39.263  33.526  35.085  1.00  0.00     0.074 A 
ATOM     49  C   UNL A   1      38.274  34.570  34.921  1.00  0.00     0.031 C 
ATOM     50  C   UNL A   1      38.547  29.985  29.782  1.00  0.00     0.029 A 
ATOM     51  C   UNL A   1      39.532  29.810  30.848  1.00  0.00     0.049 A 
ATOM     52  H   UNL A   1      39.745  30.966  32.568  1.00  0.00     0.167 HD
ATOM     53  C   UNL A   1      40.062  33.401  36.171  1.00  0.00     0.031 A 
ATOM     54  C   UNL A   1      40.476  28.848  30.891  1.00  0.00     0.031 A 
ATOM     55  C   UNL A   1      41.054  32.369  36.334  1.00  0.00     0.049 A 
ATOM     56  C   UNL A   1      41.413  28.777  32.070  1.00  0.00     0.074 A 
ATOM     57  C   UNL A   1      41.906  32.157  37.404  1.00  0.00     0.029 A 
ATOM     58  N   UNL A   1      41.334  31.383  35.400  1.00  0.00    -0.354 N 
ATOM     59  N   UNL A   1      41.446  29.532  33.143  1.00  0.00    -0.248 NA
ATOM     60  C   UNL A   1      42.431  27.718  32.049  1.00  0.00     0.031 C 
ATOM     61  C   UNL A   1      42.746  31.084  37.089  1.00  0.00     0.029 A 
ATOM     62  C   UNL A   1      42.367  30.580  35.855  1.00  0.00     0.049 A 
ATOM     63  H   UNL A   1      40.868  31.270  34.540  1.00  0.00     0.167 HD
ATOM     64  C   UNL A   1      42.469  29.018  33.936  1.00  0.00     0.074 A 
ATOM     65  C   UNL A   1      43.017  27.881  33.227  1.00  0.00     0.031 C 
ATOM     66  C   UNL A   1      42.912  29.450  35.144  1.00  0.00     0.031 A 
BRANCH  53  67
ATOM     67  C   UNL A   1      39.923  34.431  37.265  1.00  0.00    -0.014 A 
ATOM     68  C   UNL A   1      39.185  34.164  38.433  1.00  0.00     0.010 A 
ATOM     69  C   UNL A   1      40.579  35.669  37.140  1.00  0.00     0.010 A 
ATOM     70  C   UNL A   1      39.074  35.131  39.436  1.00  0.00     0.020 A 
ATOM     71  C   UNL A   1      40.497  36.626  38.155  1.00  0.00     0.020 A 
ATOM     72  C   UNL A   1      39.730  36.357  39.289  1.00  0.00     0.054 A 
BRANCH  72  73
ATOM     73  S   UNL A   1      39.585  37.585  40.617  1.00  0.00     0.124 S 
ATOM     74  O   UNL A   1      38.672  36.919  41.544  1.00  0.00    -0.237 OA
ATOM     75  O   UNL A   1      40.965  37.717  41.082  1.00  0.00    -0.237 OA
ATOM     76  O   UNL A   1      39.040  38.762  39.946  1.00  0.00    -0.744 OA
ENDBRANCH  72  73
ENDBRANCH  53  67
BRANCH  54  77
ATOM     77  C   UNL A   1      40.605  27.885  29.760  1.00  0.00    -0.014 A 
ATOM     78  C   UNL A   1      39.662  26.862  29.565  1.00  0.00     0.010 A 
ATOM     79  C   UNL A   1      41.691  27.990  28.870  1.00  0.00     0.010 A 
ATOM     80  C   UNL A   1      39.810  25.953  28.512  1.00  0.00     0.020 A 
ATOM     81  C   UNL A   1      41.825  27.104  27.797  1.00  0.00     0.020 A 
ATOM     82  C   UNL A   1      40.889  26.084  27.632  1.00  0.00     0.054 A 
BRANCH  82  83
ATOM     83  S   UNL A   1      41.031  24.927  26.242  1.00  0.00     0.124 S 
ATOM     84  O   UNL A   1      42.090  24.033  26.697  1.00  0.00    -0.237 OA
ATOM     85  O   UNL A   1      39.693  24.347  26.178  1.00  0.00    -0.237 OA
ATOM     86  O   UNL A   1      41.382  25.789  25.115  1.00  0.00    -0.744 OA
ENDBRANCH  82  83
ENDBRANCH  54  77
BRANCH  66  87
ATOM     87  C   UNL A   1      44.021  28.670  35.805  1.00  0.00    -0.014 A 
ATOM     88  C   UNL A   1      45.373  28.921  35.508  1.00  0.00     0.010 A 
ATOM     89  C   UNL A   1      43.704  27.709  36.783  1.00  0.00     0.010 A 
ATOM     90  C   UNL A   1      46.385  28.202  36.152  1.00  0.00     0.020 A 
ATOM     91  C   UNL A   1      44.714  27.011  37.453  1.00  0.00     0.020 A 
ATOM     92  C   UNL A   1      46.048  27.252  37.123  1.00  0.00     0.054 A 
BRANCH  92  93
ATOM     93  S   UNL A   1      47.381  26.364  37.974  1.00  0.00     0.124 S 
ATOM     94  O   UNL A   1      46.648  25.322  38.686  1.00  0.00    -0.237 OA
ATOM     95  O   UNL A   1      48.214  25.900  36.866  1.00  0.00    -0.237 OA
ATOM     96  O   UNL A   1      47.994  27.384  38.821  1.00  0.00    -0.744 OA
ENDBRANCH  92  93
ENDBRANCH  66  87
ENDBRANCH  40  41
ENDBRANCH  33  35
ENDBRANCH  32  33
ENDBRANCH  31  32
ENDBRANCH  30  31
ENDBRANCH  29  30
ENDBRANCH   1  29
TORSDOF 23
ENDMDL
