MODEL 1
REMARK VINA RESULT:     -10.5      0.000      0.000
REMARK SMILES Nc1ncccc1C[N@@H+]1CC2(CC[NH2+]CC2)C[C@H]1C(=O)OCCOCCOC(=O)c1ccc(-c2c3nc(c(-c4ccc(S(=O)(=O)[O-])cc4)c4ccc([nH]4)c(-c4ccc(S(=O)(=O)[O-])cc4)c4nc(c(-c5ccc(S(=O)(=O)[O-])cc5)c5ccc2[nH]5)C=C4)C=C3)cc1
REMARK SMILES IDX 24 1 23 2 22 3 21 4 19 5 20 6 18 7 9 8 10 9 11 11 17 12
REMARK SMILES IDX 12 13 16 14 13 15 15 16 14 17 8 20 7 21 2 22 3 23 4 24 6 25
REMARK SMILES IDX 5 26 1 27 25 30 26 31 27 32 28 33 29 34 30 35 31 36 89 37
REMARK SMILES IDX 32 38 88 39 33 40 34 41 35 42 82 43 36 44 87 45 81 46 83 47
REMARK SMILES IDX 37 48 86 49 80 50 79 51 38 53 68 54 49 55 67 56 50 57 53 58
REMARK SMILES IDX 66 59 84 60 51 61 52 62 65 64 85 65 54 66 39 67 40 68 48 69
REMARK SMILES IDX 41 70 47 71 42 72 43 73 44 74 45 75 46 76 69 77 70 78 78 79
REMARK SMILES IDX 71 80 77 81 72 82 73 83 74 84 75 85 76 86 55 87 56 88 64 89
REMARK SMILES IDX 57 90 63 91 58 92 59 93 60 94 61 95 62 96
REMARK H PARENT 9 10 14 18 14 19 1 28 1 29 83 52 53 63
REMARK Flexibility Score: inf
ROOT
ATOM      1  O   UNL A   1      35.594  21.806  24.365  1.00  0.00    -0.374 OA
ENDROOT
BRANCH   1   2
ATOM      2  C   UNL A   1      34.188  21.627  24.517  1.00  0.00     0.202 C 
BRANCH   2   3
ATOM      3  C   UNL A   1      33.393  22.827  25.034  1.00  0.00     0.261 C 
BRANCH   3   4
ATOM      4  O   UNL A   1      33.163  23.813  24.015  1.00  0.00    -0.459 OA
BRANCH   4   5
ATOM      5  C   UNL A   1      33.798  25.001  24.202  1.00  0.00     0.365 C 
ATOM      6  O   UNL A   1      34.832  25.140  24.854  1.00  0.00    -0.245 OA
BRANCH   5   7
ATOM      7  C   UNL A   1      33.077  26.203  23.585  1.00  0.00     0.296 C 
ATOM      8  N   UNL A   1      31.648  26.338  23.950  1.00  0.00    -0.319 N 
ATOM      9  C   UNL A   1      31.544  27.329  25.030  1.00  0.00     0.270 C 
ATOM     10  H   UNL A   1      31.311  25.440  24.298  1.00  0.00     0.349 HD
ATOM     11  C   UNL A   1      32.896  28.069  25.159  1.00  0.00     0.036 C 
ATOM     12  C   UNL A   1      33.747  27.501  24.009  1.00  0.00     0.091 C 
ATOM     13  C   UNL A   1      33.563  27.806  26.531  1.00  0.00     0.074 C 
ATOM     14  C   UNL A   1      32.760  29.600  25.011  1.00  0.00     0.074 C 
ATOM     15  C   UNL A   1      32.847  28.528  27.681  1.00  0.00     0.261 C 
ATOM     16  C   UNL A   1      32.034  30.242  26.188  1.00  0.00     0.261 C 
ATOM     17  N   UNL A   1      32.722  29.965  27.442  1.00  0.00    -0.346 N 
ATOM     18  H   UNL A   1      33.654  30.378  27.406  1.00  0.00     0.346 HD
ATOM     19  H   UNL A   1      32.174  30.369  28.202  1.00  0.00     0.346 HD
BRANCH   8  20
ATOM     20  C   UNL A   1      30.732  26.558  22.807  1.00  0.00     0.303 C 
BRANCH  20  21
ATOM     21  C   UNL A   1      29.792  27.744  22.890  1.00  0.00     0.048 A 
ATOM     22  C   UNL A   1      28.462  27.625  23.305  1.00  0.00     0.132 A 
ATOM     23  N   UNL A   1      27.549  28.601  23.129  1.00  0.00    -0.239 NA
ATOM     24  C   UNL A   1      27.966  29.760  22.580  1.00  0.00     0.113 A 
ATOM     25  C   UNL A   1      30.209  29.004  22.448  1.00  0.00     0.015 A 
ATOM     26  C   UNL A   1      29.282  30.023  22.263  1.00  0.00     0.021 A 
BRANCH  22  27
ATOM     27  N   UNL A   1      27.962  26.475  23.885  1.00  0.00    -0.383 N 
ATOM     28  H   UNL A   1      28.577  25.820  24.289  1.00  0.00     0.158 HD
ATOM     29  H   UNL A   1      26.992  26.311  23.894  1.00  0.00     0.158 HD
ENDBRANCH  22  27
ENDBRANCH  20  21
ENDBRANCH   8  20
ENDBRANCH   5   7
ENDBRANCH   4   5
ENDBRANCH   3   4
ENDBRANCH   2   3
ENDBRANCH   1   2
BRANCH   1  30
ATOM     30  C   UNL A   1      36.448  21.043  25.220  1.00  0.00     0.202 C 
BRANCH  30  31
ATOM     31  C   UNL A   1      37.944  21.378  25.185  1.00  0.00     0.261 C 
BRANCH  31  32
ATOM     32  O   UNL A   1      38.232  22.713  25.641  1.00  0.00    -0.460 OA
BRANCH  32  33
ATOM     33  C   UNL A   1      39.386  22.838  26.347  1.00  0.00     0.338 C 
ATOM     34  O   UNL A   1      40.292  22.026  26.422  1.00  0.00    -0.246 OA
BRANCH  33  35
ATOM     35  C   UNL A   1      39.496  24.197  26.911  1.00  0.00     0.060 A 
ATOM     36  C   UNL A   1      40.156  25.166  26.143  1.00  0.00     0.016 A 
ATOM     37  C   UNL A   1      39.053  24.496  28.200  1.00  0.00     0.016 A 
ATOM     38  C   UNL A   1      40.424  26.422  26.683  1.00  0.00     0.010 A 
ATOM     39  C   UNL A   1      39.331  25.756  28.744  1.00  0.00     0.010 A 
ATOM     40  C   UNL A   1      40.048  26.712  28.002  1.00  0.00    -0.014 A 
BRANCH  40  41
ATOM     41  C   UNL A   1      40.533  27.957  28.646  1.00  0.00     0.031 A 
ATOM     42  C   UNL A   1      41.972  28.046  29.080  1.00  0.00     0.074 A 
ATOM     43  C   UNL A   1      39.712  29.010  28.812  1.00  0.00     0.049 A 
ATOM     44  N   UNL A   1      42.599  29.030  29.672  1.00  0.00    -0.248 NA
ATOM     45  C   UNL A   1      42.815  26.871  28.806  1.00  0.00     0.031 C 
ATOM     46  C   UNL A   1      38.312  29.067  28.392  1.00  0.00     0.029 A 
ATOM     47  N   UNL A   1      39.944  30.238  29.382  1.00  0.00    -0.354 N 
ATOM     48  C   UNL A   1      43.908  28.594  29.845  1.00  0.00     0.074 A 
ATOM     49  C   UNL A   1      43.978  27.247  29.320  1.00  0.00     0.031 C 
ATOM     50  C   UNL A   1      37.807  30.269  28.724  1.00  0.00     0.029 A 
ATOM     51  C   UNL A   1      38.837  31.052  29.403  1.00  0.00     0.049 A 
ATOM     52  H   UNL A   1      40.819  30.508  29.741  1.00  0.00     0.167 HD
ATOM     53  C   UNL A   1      44.959  29.256  30.386  1.00  0.00     0.031 A 
ATOM     54  C   UNL A   1      38.668  32.283  29.928  1.00  0.00     0.031 A 
ATOM     55  C   UNL A   1      44.886  30.588  30.923  1.00  0.00     0.049 A 
ATOM     56  C   UNL A   1      39.831  32.967  30.597  1.00  0.00     0.074 A 
ATOM     57  C   UNL A   1      45.897  31.344  31.492  1.00  0.00     0.029 A 
ATOM     58  N   UNL A   1      43.736  31.362  30.966  1.00  0.00    -0.354 N 
ATOM     59  N   UNL A   1      41.065  32.546  30.740  1.00  0.00    -0.248 NA
ATOM     60  C   UNL A   1      39.578  34.297  31.170  1.00  0.00     0.031 C 
ATOM     61  C   UNL A   1      45.347  32.557  31.921  1.00  0.00     0.029 A 
ATOM     62  C   UNL A   1      44.006  32.578  31.571  1.00  0.00     0.049 A 
ATOM     63  H   UNL A   1      42.857  31.087  30.617  1.00  0.00     0.167 HD
ATOM     64  C   UNL A   1      41.742  33.572  31.395  1.00  0.00     0.074 A 
ATOM     65  C   UNL A   1      40.783  34.635  31.611  1.00  0.00     0.031 C 
ATOM     66  C   UNL A   1      43.041  33.627  31.779  1.00  0.00     0.031 A 
BRANCH  53  67
ATOM     67  C   UNL A   1      46.276  28.530  30.448  1.00  0.00    -0.014 A 
ATOM     68  C   UNL A   1      47.234  28.674  29.428  1.00  0.00     0.010 A 
ATOM     69  C   UNL A   1      46.572  27.715  31.556  1.00  0.00     0.010 A 
ATOM     70  C   UNL A   1      48.449  27.987  29.496  1.00  0.00     0.020 A 
ATOM     71  C   UNL A   1      47.796  27.045  31.639  1.00  0.00     0.020 A 
ATOM     72  C   UNL A   1      48.719  27.172  30.600  1.00  0.00     0.054 A 
BRANCH  72  73
ATOM     73  S   UNL A   1      50.308  26.299  30.671  1.00  0.00     0.124 S 
ATOM     74  O   UNL A   1      51.132  27.102  29.769  1.00  0.00    -0.237 OA
ATOM     75  O   UNL A   1      50.660  26.386  32.086  1.00  0.00    -0.237 OA
ATOM     76  O   UNL A   1      49.988  24.957  30.191  1.00  0.00    -0.744 OA
ENDBRANCH  72  73
ENDBRANCH  53  67
BRANCH  54  77
ATOM     77  C   UNL A   1      37.337  32.945  29.857  1.00  0.00    -0.014 A 
ATOM     78  C   UNL A   1      36.955  33.667  28.714  1.00  0.00     0.010 A 
ATOM     79  C   UNL A   1      36.446  32.859  30.943  1.00  0.00     0.010 A 
ATOM     80  C   UNL A   1      35.712  34.305  28.662  1.00  0.00     0.020 A 
ATOM     81  C   UNL A   1      35.193  33.475  30.885  1.00  0.00     0.020 A 
ATOM     82  C   UNL A   1      34.839  34.205  29.749  1.00  0.00     0.054 A 
BRANCH  82  83
ATOM     83  S   UNL A   1      33.210  34.998  29.643  1.00  0.00     0.124 S 
ATOM     84  O   UNL A   1      32.523  34.150  28.675  1.00  0.00    -0.237 OA
ATOM     85  O   UNL A   1      32.726  34.912  31.019  1.00  0.00    -0.237 OA
ATOM     86  O   UNL A   1      33.520  36.351  29.186  1.00  0.00    -0.744 OA
ENDBRANCH  82  83
ENDBRANCH  54  77
BRANCH  66  87
ATOM     87  C   UNL A   1      43.515  34.893  32.441  1.00  0.00    -0.014 A 
ATOM     88  C   UNL A   1      43.411  35.074  33.831  1.00  0.00     0.010 A 
ATOM     89  C   UNL A   1      44.126  35.896  31.663  1.00  0.00     0.010 A 
ATOM     90  C   UNL A   1      43.882  36.247  34.429  1.00  0.00     0.020 A 
ATOM     91  C   UNL A   1      44.620  37.059  32.260  1.00  0.00     0.020 A 
ATOM     92  C   UNL A   1      44.482  37.232  33.639  1.00  0.00     0.054 A 
BRANCH  92  93
ATOM     93  S   UNL A   1      45.127  38.725  34.442  1.00  0.00     0.124 S 
ATOM     94  O   UNL A   1      43.945  39.232  35.134  1.00  0.00    -0.237 OA
ATOM     95  O   UNL A   1      46.183  38.198  35.304  1.00  0.00    -0.237 OA
ATOM     96  O   UNL A   1      45.595  39.544  33.325  1.00  0.00    -0.744 OA
ENDBRANCH  92  93
ENDBRANCH  66  87
ENDBRANCH  40  41
ENDBRANCH  33  35
ENDBRANCH  32  33
ENDBRANCH  31  32
ENDBRANCH  30  31
ENDBRANCH   1  30
TORSDOF 20
ENDMDL
MODEL 2
REMARK VINA RESULT:     -10.3      4.100      5.811
REMARK SMILES Nc1ncccc1C[N@@H+]1CC2(CC[NH2+]CC2)C[C@H]1C(=O)OCCOCCOC(=O)c1ccc(-c2c3nc(c(-c4ccc(S(=O)(=O)[O-])cc4)c4ccc([nH]4)c(-c4ccc(S(=O)(=O)[O-])cc4)c4nc(c(-c5ccc(S(=O)(=O)[O-])cc5)c5ccc2[nH]5)C=C4)C=C3)cc1
REMARK SMILES IDX 24 1 23 2 22 3 21 4 19 5 20 6 18 7 9 8 10 9 11 11 17 12
REMARK SMILES IDX 12 13 16 14 13 15 15 16 14 17 8 20 7 21 2 22 3 23 4 24 6 25
REMARK SMILES IDX 5 26 1 27 25 30 26 31 27 32 28 33 29 34 30 35 31 36 89 37
REMARK SMILES IDX 32 38 88 39 33 40 34 41 35 42 82 43 36 44 87 45 81 46 83 47
REMARK SMILES IDX 37 48 86 49 80 50 79 51 38 53 68 54 49 55 67 56 50 57 53 58
REMARK SMILES IDX 66 59 84 60 51 61 52 62 65 64 85 65 54 66 39 67 40 68 48 69
REMARK SMILES IDX 41 70 47 71 42 72 43 73 44 74 45 75 46 76 69 77 70 78 78 79
REMARK SMILES IDX 71 80 77 81 72 82 73 83 74 84 75 85 76 86 55 87 56 88 64 89
REMARK SMILES IDX 57 90 63 91 58 92 59 93 60 94 61 95 62 96
REMARK H PARENT 9 10 14 18 14 19 1 28 1 29 83 52 53 63
REMARK Flexibility Score: inf
ROOT
ATOM      1  O   UNL A   1      38.903  23.428  26.878  1.00  0.00    -0.374 OA
ENDROOT
BRANCH   1   2
ATOM      2  C   UNL A   1      37.920  23.927  25.975  1.00  0.00     0.202 C 
BRANCH   2   3
ATOM      3  C   UNL A   1      36.517  23.331  26.085  1.00  0.00     0.261 C 
BRANCH   3   4
ATOM      4  O   UNL A   1      36.034  22.827  24.829  1.00  0.00    -0.459 OA
BRANCH   4   5
ATOM      5  C   UNL A   1      35.413  21.619  24.887  1.00  0.00     0.365 C 
ATOM      6  O   UNL A   1      35.851  20.643  25.493  1.00  0.00    -0.245 OA
BRANCH   5   7
ATOM      7  C   UNL A   1      34.125  21.534  24.063  1.00  0.00     0.296 C 
ATOM      8  N   UNL A   1      32.938  21.034  24.796  1.00  0.00    -0.319 N 
ATOM      9  C   UNL A   1      32.133  22.193  25.205  1.00  0.00     0.270 C 
ATOM     10  H   UNL A   1      33.251  20.542  25.632  1.00  0.00     0.349 HD
ATOM     11  C   UNL A   1      32.652  23.447  24.465  1.00  0.00     0.036 C 
ATOM     12  C   UNL A   1      33.745  22.905  23.526  1.00  0.00     0.091 C 
ATOM     13  C   UNL A   1      33.229  24.494  25.448  1.00  0.00     0.074 C 
ATOM     14  C   UNL A   1      31.555  24.159  23.644  1.00  0.00     0.074 C 
ATOM     15  C   UNL A   1      32.138  25.200  26.264  1.00  0.00     0.261 C 
ATOM     16  C   UNL A   1      30.505  24.830  24.525  1.00  0.00     0.261 C 
ATOM     17  N   UNL A   1      31.116  25.809  25.414  1.00  0.00    -0.346 N 
ATOM     18  H   UNL A   1      31.546  26.543  24.851  1.00  0.00     0.346 HD
ATOM     19  H   UNL A   1      30.387  26.192  26.015  1.00  0.00     0.346 HD
BRANCH   8  20
ATOM     20  C   UNL A   1      32.186  19.962  24.104  1.00  0.00     0.303 C 
BRANCH  20  21
ATOM     21  C   UNL A   1      32.780  18.568  24.132  1.00  0.00     0.048 A 
ATOM     22  C   UNL A   1      33.084  17.902  25.324  1.00  0.00     0.132 A 
ATOM     23  N   UNL A   1      33.851  16.794  25.369  1.00  0.00    -0.239 NA
ATOM     24  C   UNL A   1      34.287  16.284  24.200  1.00  0.00     0.113 A 
ATOM     25  C   UNL A   1      33.142  17.933  22.939  1.00  0.00     0.015 A 
ATOM     26  C   UNL A   1      33.930  16.789  22.967  1.00  0.00     0.021 A 
BRANCH  22  27
ATOM     27  N   UNL A   1      32.665  18.355  26.559  1.00  0.00    -0.383 N 
ATOM     28  H   UNL A   1      31.706  18.498  26.732  1.00  0.00     0.158 HD
ATOM     29  H   UNL A   1      33.324  18.535  27.267  1.00  0.00     0.158 HD
ENDBRANCH  22  27
ENDBRANCH  20  21
ENDBRANCH   8  20
ENDBRANCH   5   7
ENDBRANCH   4   5
ENDBRANCH   3   4
ENDBRANCH   2   3
ENDBRANCH   1   2
BRANCH   1  30
ATOM     30  C   UNL A   1      39.756  22.383  26.406  1.00  0.00     0.202 C 
BRANCH  30  31
ATOM     31  C   UNL A   1      41.266  22.657  26.429  1.00  0.00     0.261 C 
BRANCH  31  32
ATOM     32  O   UNL A   1      41.629  23.739  27.306  1.00  0.00    -0.460 OA
BRANCH  32  33
ATOM     33  C   UNL A   1      41.772  24.944  26.695  1.00  0.00     0.338 C 
ATOM     34  O   UNL A   1      42.100  25.147  25.539  1.00  0.00    -0.246 OA
BRANCH  33  35
ATOM     35  C   UNL A   1      41.309  26.027  27.584  1.00  0.00     0.060 A 
ATOM     36  C   UNL A   1      42.080  27.195  27.640  1.00  0.00     0.016 A 
ATOM     37  C   UNL A   1      40.202  25.868  28.421  1.00  0.00     0.016 A 
ATOM     38  C   UNL A   1      41.779  28.188  28.570  1.00  0.00     0.010 A 
ATOM     39  C   UNL A   1      39.907  26.863  29.361  1.00  0.00     0.010 A 
ATOM     40  C   UNL A   1      40.714  28.010  29.464  1.00  0.00    -0.014 A 
BRANCH  40  41
ATOM     41  C   UNL A   1      40.539  28.956  30.593  1.00  0.00     0.031 A 
ATOM     42  C   UNL A   1      41.430  28.828  31.801  1.00  0.00     0.074 A 
ATOM     43  C   UNL A   1      39.623  29.939  30.532  1.00  0.00     0.049 A 
ATOM     44  N   UNL A   1      41.439  29.536  32.901  1.00  0.00    -0.248 NA
ATOM     45  C   UNL A   1      42.446  27.763  31.759  1.00  0.00     0.031 C 
ATOM     46  C   UNL A   1      38.733  30.197  29.400  1.00  0.00     0.029 A 
ATOM     47  N   UNL A   1      39.290  30.904  31.450  1.00  0.00    -0.354 N 
ATOM     48  C   UNL A   1      42.457  29.003  33.684  1.00  0.00     0.074 A 
ATOM     49  C   UNL A   1      43.024  27.895  32.945  1.00  0.00     0.031 C 
ATOM     50  C   UNL A   1      37.951  31.252  29.694  1.00  0.00     0.029 A 
ATOM     51  C   UNL A   1      38.264  31.722  31.042  1.00  0.00     0.049 A 
ATOM     52  H   UNL A   1      39.744  31.000  32.318  1.00  0.00     0.167 HD
ATOM     53  C   UNL A   1      42.886  29.401  34.906  1.00  0.00     0.031 A 
ATOM     54  C   UNL A   1      37.636  32.724  31.689  1.00  0.00     0.031 A 
ATOM     55  C   UNL A   1      42.312  30.492  35.648  1.00  0.00     0.049 A 
ATOM     56  C   UNL A   1      38.078  33.098  33.079  1.00  0.00     0.074 A 
ATOM     57  C   UNL A   1      42.678  30.972  36.894  1.00  0.00     0.029 A 
ATOM     58  N   UNL A   1      41.246  31.266  35.219  1.00  0.00    -0.354 N 
ATOM     59  N   UNL A   1      39.051  32.592  33.800  1.00  0.00    -0.248 NA
ATOM     60  C   UNL A   1      37.339  34.183  33.741  1.00  0.00     0.031 C 
ATOM     61  C   UNL A   1      41.802  32.008  37.237  1.00  0.00     0.029 A 
ATOM     62  C   UNL A   1      40.925  32.208  36.183  1.00  0.00     0.049 A 
ATOM     63  H   UNL A   1      40.784  31.163  34.355  1.00  0.00     0.167 HD
ATOM     64  C   UNL A   1      39.057  33.317  34.989  1.00  0.00     0.074 A 
ATOM     65  C   UNL A   1      37.999  34.300  34.886  1.00  0.00     0.031 C 
ATOM     66  C   UNL A   1      39.870  33.181  36.066  1.00  0.00     0.031 A 
BRANCH  53  67
ATOM     67  C   UNL A   1      44.019  28.630  35.527  1.00  0.00    -0.014 A 
ATOM     68  C   UNL A   1      45.326  29.150  35.551  1.00  0.00     0.010 A 
ATOM     69  C   UNL A   1      43.768  27.380  36.122  1.00  0.00     0.010 A 
ATOM     70  C   UNL A   1      46.368  28.417  36.124  1.00  0.00     0.020 A 
ATOM     71  C   UNL A   1      44.804  26.655  36.718  1.00  0.00     0.020 A 
ATOM     72  C   UNL A   1      46.101  27.171  36.699  1.00  0.00     0.054 A 
BRANCH  72  73
ATOM     73  S   UNL A   1      47.469  26.244  37.448  1.00  0.00     0.124 S 
ATOM     74  O   UNL A   1      48.097  27.262  38.288  1.00  0.00    -0.237 OA
ATOM     75  O   UNL A   1      46.780  25.176  38.167  1.00  0.00    -0.237 OA
ATOM     76  O   UNL A   1      48.262  25.809  36.301  1.00  0.00    -0.744 OA
ENDBRANCH  72  73
ENDBRANCH  53  67
BRANCH  54  77
ATOM     77  C   UNL A   1      36.508  33.439  31.034  1.00  0.00    -0.014 A 
ATOM     78  C   UNL A   1      36.621  33.900  29.712  1.00  0.00     0.010 A 
ATOM     79  C   UNL A   1      35.311  33.668  31.739  1.00  0.00     0.010 A 
ATOM     80  C   UNL A   1      35.565  34.591  29.110  1.00  0.00     0.020 A 
ATOM     81  C   UNL A   1      34.244  34.336  31.132  1.00  0.00     0.020 A 
ATOM     82  C   UNL A   1      34.383  34.804  29.825  1.00  0.00     0.054 A 
BRANCH  82  83
ATOM     83  S   UNL A   1      33.005  35.658  29.009  1.00  0.00     0.124 S 
ATOM     84  O   UNL A   1      32.428  34.593  28.195  1.00  0.00    -0.237 OA
ATOM     85  O   UNL A   1      32.193  36.102  30.140  1.00  0.00    -0.237 OA
ATOM     86  O   UNL A   1      33.661  36.732  28.266  1.00  0.00    -0.744 OA
ENDBRANCH  82  83
ENDBRANCH  54  77
BRANCH  66  87
ATOM     87  C   UNL A   1      39.673  34.140  37.209  1.00  0.00    -0.014 A 
ATOM     88  C   UNL A   1      39.026  33.744  38.393  1.00  0.00     0.010 A 
ATOM     89  C   UNL A   1      40.194  35.446  37.116  1.00  0.00     0.010 A 
ATOM     90  C   UNL A   1      38.877  34.644  39.452  1.00  0.00     0.020 A 
ATOM     91  C   UNL A   1      40.069  36.340  38.183  1.00  0.00     0.020 A 
ATOM     92  C   UNL A   1      39.399  35.936  39.340  1.00  0.00     0.054 A 
BRANCH  92  93
ATOM     93  S   UNL A   1      39.234  37.073  40.744  1.00  0.00     0.124 S 
ATOM     94  O   UNL A   1      38.555  36.238  41.732  1.00  0.00    -0.237 OA
ATOM     95  O   UNL A   1      40.623  37.408  41.053  1.00  0.00    -0.237 OA
ATOM     96  O   UNL A   1      38.439  38.175  40.207  1.00  0.00    -0.744 OA
ENDBRANCH  92  93
ENDBRANCH  66  87
ENDBRANCH  40  41
ENDBRANCH  33  35
ENDBRANCH  32  33
ENDBRANCH  31  32
ENDBRANCH  30  31
ENDBRANCH   1  30
TORSDOF 20
ENDMDL
MODEL 3
REMARK VINA RESULT:     -10.3      3.673      4.339
REMARK SMILES Nc1ncccc1C[N@@H+]1CC2(CC[NH2+]CC2)C[C@H]1C(=O)OCCOCCOC(=O)c1ccc(-c2c3nc(c(-c4ccc(S(=O)(=O)[O-])cc4)c4ccc([nH]4)c(-c4ccc(S(=O)(=O)[O-])cc4)c4nc(c(-c5ccc(S(=O)(=O)[O-])cc5)c5ccc2[nH]5)C=C4)C=C3)cc1
REMARK SMILES IDX 24 1 23 2 22 3 21 4 19 5 20 6 18 7 9 8 10 9 11 11 17 12
REMARK SMILES IDX 12 13 16 14 13 15 15 16 14 17 8 20 7 21 2 22 3 23 4 24 6 25
REMARK SMILES IDX 5 26 1 27 25 30 26 31 27 32 28 33 29 34 30 35 31 36 89 37
REMARK SMILES IDX 32 38 88 39 33 40 34 41 35 42 82 43 36 44 87 45 81 46 83 47
REMARK SMILES IDX 37 48 86 49 80 50 79 51 38 53 68 54 49 55 67 56 50 57 53 58
REMARK SMILES IDX 66 59 84 60 51 61 52 62 65 64 85 65 54 66 39 67 40 68 48 69
REMARK SMILES IDX 41 70 47 71 42 72 43 73 44 74 45 75 46 76 69 77 70 78 78 79
REMARK SMILES IDX 71 80 77 81 72 82 73 83 74 84 75 85 76 86 55 87 56 88 64 89
REMARK SMILES IDX 57 90 63 91 58 92 59 93 60 94 61 95 62 96
REMARK H PARENT 9 10 14 18 14 19 1 28 1 29 83 52 53 63
REMARK Flexibility Score: inf
ROOT
ATOM      1  O   UNL A   1      37.365  21.913  25.023  1.00  0.00    -0.374 OA
ENDROOT
BRANCH   1   2
ATOM      2  C   UNL A   1      36.632  22.977  24.421  1.00  0.00     0.202 C 
BRANCH   2   3
ATOM      3  C   UNL A   1      35.107  22.875  24.466  1.00  0.00     0.261 C 
BRANCH   3   4
ATOM      4  O   UNL A   1      34.464  23.979  23.809  1.00  0.00    -0.459 OA
BRANCH   4   5
ATOM      5  C   UNL A   1      33.608  24.697  24.584  1.00  0.00     0.365 C 
ATOM      6  O   UNL A   1      33.350  24.437  25.758  1.00  0.00    -0.245 OA
BRANCH   5   7
ATOM      7  C   UNL A   1      32.911  25.847  23.851  1.00  0.00     0.296 C 
ATOM      8  N   UNL A   1      31.516  26.111  24.271  1.00  0.00    -0.319 N 
ATOM      9  C   UNL A   1      31.528  27.240  25.212  1.00  0.00     0.270 C 
ATOM     10  H   UNL A   1      31.156  25.288  24.754  1.00  0.00     0.349 HD
ATOM     11  C   UNL A   1      32.920  27.911  25.167  1.00  0.00     0.036 C 
ATOM     12  C   UNL A   1      33.670  27.149  24.060  1.00  0.00     0.091 C 
ATOM     13  C   UNL A   1      33.656  27.793  26.524  1.00  0.00     0.074 C 
ATOM     14  C   UNL A   1      32.852  29.415  24.822  1.00  0.00     0.074 C 
ATOM     15  C   UNL A   1      33.049  28.699  27.604  1.00  0.00     0.261 C 
ATOM     16  C   UNL A   1      32.232  30.246  25.941  1.00  0.00     0.261 C 
ATOM     17  N   UNL A   1      32.981  30.097  27.182  1.00  0.00    -0.346 N 
ATOM     18  H   UNL A   1      33.928  30.447  27.040  1.00  0.00     0.346 HD
ATOM     19  H   UNL A   1      32.502  30.628  27.909  1.00  0.00     0.346 HD
BRANCH   8  20
ATOM     20  C   UNL A   1      30.544  26.232  23.160  1.00  0.00     0.303 C 
BRANCH  20  21
ATOM     21  C   UNL A   1      29.673  27.472  23.131  1.00  0.00     0.048 A 
ATOM     22  C   UNL A   1      28.323  27.454  23.493  1.00  0.00     0.132 A 
ATOM     23  N   UNL A   1      27.477  28.468  23.220  1.00  0.00    -0.239 NA
ATOM     24  C   UNL A   1      27.985  29.566  22.624  1.00  0.00     0.113 A 
ATOM     25  C   UNL A   1      30.183  28.678  22.636  1.00  0.00     0.015 A 
ATOM     26  C   UNL A   1      29.326  29.734  22.351  1.00  0.00     0.021 A 
BRANCH  22  27
ATOM     27  N   UNL A   1      27.731  26.373  24.116  1.00  0.00    -0.383 N 
ATOM     28  H   UNL A   1      27.452  26.439  25.058  1.00  0.00     0.158 HD
ATOM     29  H   UNL A   1      27.590  25.536  23.618  1.00  0.00     0.158 HD
ENDBRANCH  22  27
ENDBRANCH  20  21
ENDBRANCH   8  20
ENDBRANCH   5   7
ENDBRANCH   4   5
ENDBRANCH   3   4
ENDBRANCH   2   3
ENDBRANCH   1   2
BRANCH   1  30
ATOM     30  C   UNL A   1      38.444  22.270  25.891  1.00  0.00     0.202 C 
BRANCH  30  31
ATOM     31  C   UNL A   1      38.648  23.766  26.164  1.00  0.00     0.261 C 
BRANCH  31  32
ATOM     32  O   UNL A   1      39.959  24.071  26.674  1.00  0.00    -0.460 OA
BRANCH  32  33
ATOM     33  C   UNL A   1      40.395  25.329  26.408  1.00  0.00     0.338 C 
ATOM     34  O   UNL A   1      40.543  25.839  25.311  1.00  0.00    -0.246 OA
BRANCH  33  35
ATOM     35  C   UNL A   1      40.522  26.101  27.660  1.00  0.00     0.060 A 
ATOM     36  C   UNL A   1      39.473  26.014  28.585  1.00  0.00     0.016 A 
ATOM     37  C   UNL A   1      41.593  26.969  27.883  1.00  0.00     0.016 A 
ATOM     38  C   UNL A   1      39.464  26.833  29.712  1.00  0.00     0.010 A 
ATOM     39  C   UNL A   1      41.578  27.798  29.012  1.00  0.00     0.010 A 
ATOM     40  C   UNL A   1      40.497  27.759  29.911  1.00  0.00    -0.014 A 
BRANCH  40  41
ATOM     41  C   UNL A   1      40.370  28.780  30.981  1.00  0.00     0.031 A 
ATOM     42  C   UNL A   1      41.273  28.697  32.184  1.00  0.00     0.074 A 
ATOM     43  C   UNL A   1      39.487  29.788  30.869  1.00  0.00     0.049 A 
ATOM     44  N   UNL A   1      41.321  29.471  33.237  1.00  0.00    -0.248 NA
ATOM     45  C   UNL A   1      42.251  27.596  32.197  1.00  0.00     0.031 C 
ATOM     46  C   UNL A   1      38.591  30.007  29.733  1.00  0.00     0.029 A 
ATOM     47  N   UNL A   1      39.201  30.820  31.728  1.00  0.00    -0.354 N 
ATOM     48  C   UNL A   1      42.331  28.953  34.040  1.00  0.00     0.074 A 
ATOM     49  C   UNL A   1      42.850  27.782  33.365  1.00  0.00     0.031 C 
ATOM     50  C   UNL A   1      37.850  31.104  29.969  1.00  0.00     0.029 A 
ATOM     51  C   UNL A   1      38.198  31.646  31.281  1.00  0.00     0.049 A 
ATOM     52  H   UNL A   1      39.669  30.954  32.583  1.00  0.00     0.167 HD
ATOM     53  C   UNL A   1      42.791  29.412  35.229  1.00  0.00     0.031 A 
ATOM     54  C   UNL A   1      37.613  32.708  31.871  1.00  0.00     0.031 A 
ATOM     55  C   UNL A   1      42.264  30.565  35.908  1.00  0.00     0.049 A 
ATOM     56  C   UNL A   1      38.087  33.152  33.230  1.00  0.00     0.074 A 
ATOM     57  C   UNL A   1      42.664  31.110  37.117  1.00  0.00     0.029 A 
ATOM     58  N   UNL A   1      41.219  31.348  35.444  1.00  0.00    -0.354 N 
ATOM     59  N   UNL A   1      39.052  32.659  33.970  1.00  0.00    -0.248 NA
ATOM     60  C   UNL A   1      37.394  34.302  33.831  1.00  0.00     0.031 C 
ATOM     61  C   UNL A   1      41.829  32.195  37.405  1.00  0.00     0.029 A 
ATOM     62  C   UNL A   1      40.945  32.359  36.350  1.00  0.00     0.049 A 
ATOM     63  H   UNL A   1      40.742  31.208  34.594  1.00  0.00     0.167 HD
ATOM     64  C   UNL A   1      39.099  33.456  35.111  1.00  0.00     0.074 A 
ATOM     65  C   UNL A   1      38.074  34.467  34.959  1.00  0.00     0.031 C 
ATOM     66  C   UNL A   1      39.922  33.359  36.185  1.00  0.00     0.031 A 
BRANCH  53  67
ATOM     67  C   UNL A   1      43.905  28.641  35.885  1.00  0.00    -0.014 A 
ATOM     68  C   UNL A   1      43.647  27.744  36.936  1.00  0.00     0.010 A 
ATOM     69  C   UNL A   1      45.225  28.795  35.423  1.00  0.00     0.010 A 
ATOM     70  C   UNL A   1      44.694  27.042  37.540  1.00  0.00     0.020 A 
ATOM     71  C   UNL A   1      46.271  28.077  36.009  1.00  0.00     0.020 A 
ATOM     72  C   UNL A   1      46.001  27.218  37.076  1.00  0.00     0.054 A 
BRANCH  72  73
ATOM     73  S   UNL A   1      47.341  26.287  37.868  1.00  0.00     0.124 S 
ATOM     74  O   UNL A   1      48.370  27.313  38.024  1.00  0.00    -0.237 OA
ATOM     75  O   UNL A   1      46.723  25.825  39.109  1.00  0.00    -0.237 OA
ATOM     76  O   UNL A   1      47.652  25.237  36.901  1.00  0.00    -0.744 OA
ENDBRANCH  72  73
ENDBRANCH  53  67
BRANCH  54  77
ATOM     77  C   UNL A   1      36.501  33.420  31.187  1.00  0.00    -0.014 A 
ATOM     78  C   UNL A   1      35.277  33.639  31.843  1.00  0.00     0.010 A 
ATOM     79  C   UNL A   1      36.660  33.878  29.866  1.00  0.00     0.010 A 
ATOM     80  C   UNL A   1      34.228  34.289  31.187  1.00  0.00     0.020 A 
ATOM     81  C   UNL A   1      35.621  34.550  29.215  1.00  0.00     0.020 A 
ATOM     82  C   UNL A   1      34.407  34.740  29.876  1.00  0.00     0.054 A 
BRANCH  82  83
ATOM     83  S   UNL A   1      33.051  35.626  29.059  1.00  0.00     0.124 S 
ATOM     84  O   UNL A   1      32.525  34.607  28.155  1.00  0.00    -0.237 OA
ATOM     85  O   UNL A   1      32.186  35.985  30.180  1.00  0.00    -0.237 OA
ATOM     86  O   UNL A   1      33.720  36.754  28.414  1.00  0.00    -0.744 OA
ENDBRANCH  82  83
ENDBRANCH  54  77
BRANCH  66  87
ATOM     87  C   UNL A   1      39.773  34.394  37.267  1.00  0.00    -0.014 A 
ATOM     88  C   UNL A   1      38.969  34.161  38.396  1.00  0.00     0.010 A 
ATOM     89  C   UNL A   1      40.496  35.600  37.178  1.00  0.00     0.010 A 
ATOM     90  C   UNL A   1      38.867  35.126  39.403  1.00  0.00     0.020 A 
ATOM     91  C   UNL A   1      40.415  36.556  38.194  1.00  0.00     0.020 A 
ATOM     92  C   UNL A   1      39.590  36.318  39.294  1.00  0.00     0.054 A 
BRANCH  92  93
ATOM     93  S   UNL A   1      39.477  37.536  40.634  1.00  0.00     0.124 S 
ATOM     94  O   UNL A   1      38.436  38.434  40.140  1.00  0.00    -0.237 OA
ATOM     95  O   UNL A   1      39.105  36.716  41.785  1.00  0.00    -0.237 OA
ATOM     96  O   UNL A   1      40.819  38.110  40.693  1.00  0.00    -0.744 OA
ENDBRANCH  92  93
ENDBRANCH  66  87
ENDBRANCH  40  41
ENDBRANCH  33  35
ENDBRANCH  32  33
ENDBRANCH  31  32
ENDBRANCH  30  31
ENDBRANCH   1  30
TORSDOF 20
ENDMDL
