MODEL 1
REMARK VINA RESULT:      -9.8      0.000      0.000
REMARK SMILES CC(C)n1cc(C(=O)OCCOCCOC(=O)c2ccc(-c3c4nc(c(-c5ccc(S(=O)(=O)[O-])cc5)c5ccc([nH]5)c(-c5ccc(S(=O)(=O)[O-])cc5)c5nc(c(-c6ccc(S(=O)(=O)[O-])cc6)c6ccc3[nH]6)C=C5)C=C4)cc2)c2ccccc2c1=O
REMARK SMILES IDX 13 1 12 2 11 3 10 4 9 5 7 6 8 7 6 8 4 9 5 10 84 11 83 12
REMARK SMILES IDX 85 13 78 14 82 15 79 16 81 17 80 18 2 19 1 20 3 21 14 22
REMARK SMILES IDX 15 23 16 24 17 25 18 26 19 27 77 28 20 29 76 30 21 31 22 32
REMARK SMILES IDX 23 33 70 34 24 35 75 36 69 37 71 38 25 39 74 40 68 41 67 42
REMARK SMILES IDX 26 44 56 45 37 46 55 47 38 48 41 49 54 50 72 51 39 52 40 53
REMARK SMILES IDX 53 55 73 56 42 57 27 58 28 59 36 60 29 61 35 62 30 63 31 64
REMARK SMILES IDX 32 65 33 66 34 67 57 68 58 69 66 70 59 71 65 72 60 73 61 74
REMARK SMILES IDX 62 75 63 76 64 77 43 78 44 79 52 80 45 81 51 82 46 83 47 84
REMARK SMILES IDX 48 85 49 86 50 87
REMARK H PARENT 71 43 41 54
REMARK Flexibility Score: inf
ROOT
ATOM      1  C   UNL A   1      35.996  21.944  24.478  1.00  0.00     0.202 C 
ENDROOT
BRANCH   1   2
ATOM      2  O   UNL A   1      35.682  22.844  23.414  1.00  0.00    -0.374 OA
BRANCH   2   3
ATOM      3  C   UNL A   1      34.686  23.836  23.655  1.00  0.00     0.202 C 
BRANCH   3   4
ATOM      4  C   UNL A   1      34.845  24.700  24.911  1.00  0.00     0.261 C 
BRANCH   4   5
ATOM      5  O   UNL A   1      34.188  25.968  24.766  1.00  0.00    -0.460 OA
BRANCH   5   6
ATOM      6  C   UNL A   1      33.008  26.083  25.430  1.00  0.00     0.340 C 
ATOM      7  O   UNL A   1      32.498  25.234  26.145  1.00  0.00    -0.246 OA
BRANCH   6   8
ATOM      8  C   UNL A   1      32.485  27.473  25.312  1.00  0.00     0.084 A 
ATOM      9  N   UNL A   1      30.883  28.963  24.316  1.00  0.00    -0.312 N 
ATOM     10  C   UNL A   1      31.474  27.713  24.459  1.00  0.00     0.105 A 
ATOM     11  C   UNL A   1      31.250  30.045  25.135  1.00  0.00     0.258 A 
ATOM     12  C   UNL A   1      32.373  29.825  26.083  1.00  0.00     0.048 A 
ATOM     13  O   UNL A   1      30.712  31.150  25.095  1.00  0.00    -0.269 OA
ATOM     14  C   UNL A   1      33.015  28.582  26.125  1.00  0.00     0.003 A 
ATOM     15  C   UNL A   1      32.807  30.884  26.895  1.00  0.00     0.014 A 
ATOM     16  C   UNL A   1      34.162  28.455  26.926  1.00  0.00     0.010 A 
ATOM     17  C   UNL A   1      33.925  30.727  27.712  1.00  0.00     0.001 A 
ATOM     18  C   UNL A   1      34.617  29.520  27.708  1.00  0.00     0.001 A 
BRANCH   9  19
ATOM     19  C   UNL A   1      29.771  29.191  23.366  1.00  0.00     0.084 C 
ATOM     20  C   UNL A   1      30.172  29.727  21.987  1.00  0.00     0.031 C 
ATOM     21  C   UNL A   1      28.923  27.924  23.213  1.00  0.00     0.031 C 
ENDBRANCH   9  19
ENDBRANCH   6   8
ENDBRANCH   5   6
ENDBRANCH   4   5
ENDBRANCH   3   4
ENDBRANCH   2   3
ENDBRANCH   1   2
BRANCH   1  22
ATOM     22  C   UNL A   1      37.471  21.761  24.860  1.00  0.00     0.261 C 
BRANCH  22  23
ATOM     23  O   UNL A   1      38.084  22.988  25.287  1.00  0.00    -0.460 OA
BRANCH  23  24
ATOM     24  C   UNL A   1      39.141  22.842  26.124  1.00  0.00     0.338 C 
ATOM     25  O   UNL A   1      39.895  21.885  26.199  1.00  0.00    -0.246 OA
BRANCH  24  26
ATOM     26  C   UNL A   1      39.392  24.127  26.805  1.00  0.00     0.060 A 
ATOM     27  C   UNL A   1      38.931  24.368  28.100  1.00  0.00     0.016 A 
ATOM     28  C   UNL A   1      40.124  25.104  26.116  1.00  0.00     0.016 A 
ATOM     29  C   UNL A   1      39.225  25.588  28.714  1.00  0.00     0.010 A 
ATOM     30  C   UNL A   1      40.415  26.321  26.731  1.00  0.00     0.010 A 
ATOM     31  C   UNL A   1      39.982  26.566  28.042  1.00  0.00    -0.014 A 
BRANCH  31  32
ATOM     32  C   UNL A   1      40.428  27.787  28.757  1.00  0.00     0.031 A 
ATOM     33  C   UNL A   1      39.529  28.977  28.914  1.00  0.00     0.074 A 
ATOM     34  C   UNL A   1      41.679  27.813  29.256  1.00  0.00     0.049 A 
ATOM     35  N   UNL A   1      39.747  30.081  29.581  1.00  0.00    -0.248 NA
ATOM     36  C   UNL A   1      38.223  28.929  28.240  1.00  0.00     0.031 C 
ATOM     37  C   UNL A   1      42.648  26.722  29.136  1.00  0.00     0.029 A 
ATOM     38  N   UNL A   1      42.347  28.774  29.975  1.00  0.00    -0.354 N 
ATOM     39  C   UNL A   1      38.603  30.852  29.426  1.00  0.00     0.074 A 
ATOM     40  C   UNL A   1      37.712  30.112  28.558  1.00  0.00     0.031 C 
ATOM     41  C   UNL A   1      43.766  27.054  29.797  1.00  0.00     0.029 A 
ATOM     42  C   UNL A   1      43.614  28.396  30.353  1.00  0.00     0.049 A 
ATOM     43  H   UNL A   1      41.956  29.649  30.198  1.00  0.00     0.167 HD
ATOM     44  C   UNL A   1      38.320  32.056  29.977  1.00  0.00     0.031 A 
ATOM     45  C   UNL A   1      44.550  29.046  31.075  1.00  0.00     0.031 A 
ATOM     46  C   UNL A   1      39.227  32.787  30.828  1.00  0.00     0.049 A 
ATOM     47  C   UNL A   1      44.228  30.402  31.638  1.00  0.00     0.074 A 
ATOM     48  C   UNL A   1      39.009  33.995  31.469  1.00  0.00     0.029 A 
ATOM     49  N   UNL A   1      40.518  32.393  31.151  1.00  0.00    -0.354 N 
ATOM     50  N   UNL A   1      43.108  31.079  31.553  1.00  0.00    -0.248 NA
ATOM     51  C   UNL A   1      45.283  31.076  32.405  1.00  0.00     0.031 C 
ATOM     52  C   UNL A   1      40.193  34.373  32.104  1.00  0.00     0.029 A 
ATOM     53  C   UNL A   1      41.122  33.356  31.945  1.00  0.00     0.049 A 
ATOM     54  H   UNL A   1      40.943  31.554  30.860  1.00  0.00     0.167 HD
ATOM     55  C   UNL A   1      43.315  32.249  32.276  1.00  0.00     0.074 A 
ATOM     56  C   UNL A   1      44.661  32.178  32.807  1.00  0.00     0.031 C 
ATOM     57  C   UNL A   1      42.464  33.285  32.475  1.00  0.00     0.031 A 
BRANCH  44  58
ATOM     58  C   UNL A   1      36.969  32.674  29.711  1.00  0.00    -0.014 A 
ATOM     59  C   UNL A   1      36.769  33.462  28.562  1.00  0.00     0.010 A 
ATOM     60  C   UNL A   1      35.944  32.601  30.673  1.00  0.00     0.010 A 
ATOM     61  C   UNL A   1      35.592  34.200  28.400  1.00  0.00     0.020 A 
ATOM     62  C   UNL A   1      34.752  33.312  30.499  1.00  0.00     0.020 A 
ATOM     63  C   UNL A   1      34.596  34.129  29.377  1.00  0.00     0.054 A 
BRANCH  63  64
ATOM     64  S   UNL A   1      33.098  35.132  29.174  1.00  0.00     0.124 S 
ATOM     65  O   UNL A   1      33.643  36.419  28.756  1.00  0.00    -0.237 OA
ATOM     66  O   UNL A   1      32.359  34.395  28.151  1.00  0.00    -0.237 OA
ATOM     67  O   UNL A   1      32.491  35.112  30.503  1.00  0.00    -0.744 OA
ENDBRANCH  63  64
ENDBRANCH  44  58
BRANCH  45  68
ATOM     68  C   UNL A   1      45.851  28.371  31.348  1.00  0.00    -0.014 A 
ATOM     69  C   UNL A   1      46.031  27.613  32.521  1.00  0.00     0.010 A 
ATOM     70  C   UNL A   1      46.947  28.568  30.491  1.00  0.00     0.010 A 
ATOM     71  C   UNL A   1      47.294  27.127  32.867  1.00  0.00     0.020 A 
ATOM     72  C   UNL A   1      48.206  28.051  30.814  1.00  0.00     0.020 A 
ATOM     73  C   UNL A   1      48.378  27.364  32.018  1.00  0.00     0.054 A 
BRANCH  73  74
ATOM     74  S   UNL A   1      50.021  26.793  32.530  1.00  0.00     0.124 S 
ATOM     75  O   UNL A   1      50.415  25.961  31.395  1.00  0.00    -0.237 OA
ATOM     76  O   UNL A   1      50.759  28.043  32.681  1.00  0.00    -0.237 OA
ATOM     77  O   UNL A   1      49.761  26.070  33.772  1.00  0.00    -0.744 OA
ENDBRANCH  73  74
ENDBRANCH  45  68
BRANCH  57  78
ATOM     78  C   UNL A   1      42.935  34.455  33.304  1.00  0.00    -0.014 A 
ATOM     79  C   UNL A   1      43.623  35.517  32.686  1.00  0.00     0.010 A 
ATOM     80  C   UNL A   1      42.838  34.432  34.707  1.00  0.00     0.010 A 
ATOM     81  C   UNL A   1      44.251  36.502  33.452  1.00  0.00     0.020 A 
ATOM     82  C   UNL A   1      43.433  35.437  35.477  1.00  0.00     0.020 A 
ATOM     83  C   UNL A   1      44.164  36.447  34.845  1.00  0.00     0.054 A 
BRANCH  83  84
ATOM     84  S   UNL A   1      45.042  37.696  35.824  1.00  0.00     0.124 S 
ATOM     85  O   UNL A   1      46.341  37.750  35.161  1.00  0.00    -0.237 OA
ATOM     86  O   UNL A   1      44.201  38.880  35.660  1.00  0.00    -0.237 OA
ATOM     87  O   UNL A   1      45.054  37.132  37.172  1.00  0.00    -0.744 OA
ENDBRANCH  83  84
ENDBRANCH  57  78
ENDBRANCH  31  32
ENDBRANCH  24  26
ENDBRANCH  23  24
ENDBRANCH  22  23
ENDBRANCH   1  22
TORSDOF 18
ENDMDL
MODEL 2
REMARK VINA RESULT:      -9.6      3.359      9.123
REMARK SMILES CC(C)n1cc(C(=O)OCCOCCOC(=O)c2ccc(-c3c4nc(c(-c5ccc(S(=O)(=O)[O-])cc5)c5ccc([nH]5)c(-c5ccc(S(=O)(=O)[O-])cc5)c5nc(c(-c6ccc(S(=O)(=O)[O-])cc6)c6ccc3[nH]6)C=C5)C=C4)cc2)c2ccccc2c1=O
REMARK SMILES IDX 13 1 12 2 11 3 10 4 9 5 7 6 8 7 6 8 4 9 5 10 84 11 83 12
REMARK SMILES IDX 85 13 78 14 82 15 79 16 81 17 80 18 2 19 1 20 3 21 14 22
REMARK SMILES IDX 15 23 16 24 17 25 18 26 19 27 77 28 20 29 76 30 21 31 22 32
REMARK SMILES IDX 23 33 70 34 24 35 75 36 69 37 71 38 25 39 74 40 68 41 67 42
REMARK SMILES IDX 26 44 56 45 37 46 55 47 38 48 41 49 54 50 72 51 39 52 40 53
REMARK SMILES IDX 53 55 73 56 42 57 27 58 28 59 36 60 29 61 35 62 30 63 31 64
REMARK SMILES IDX 32 65 33 66 34 67 57 68 58 69 66 70 59 71 65 72 60 73 61 74
REMARK SMILES IDX 62 75 63 76 64 77 43 78 44 79 52 80 45 81 51 82 46 83 47 84
REMARK SMILES IDX 48 85 49 86 50 87
REMARK H PARENT 71 43 41 54
REMARK Flexibility Score: inf
ROOT
ATOM      1  C   UNL A   1      37.192  23.350  25.821  1.00  0.00     0.202 C 
ENDROOT
BRANCH   1   2
ATOM      2  O   UNL A   1      36.598  23.083  24.551  1.00  0.00    -0.374 OA
BRANCH   2   3
ATOM      3  C   UNL A   1      35.448  23.844  24.182  1.00  0.00     0.202 C 
BRANCH   3   4
ATOM      4  C   UNL A   1      34.994  24.944  25.148  1.00  0.00     0.261 C 
BRANCH   4   5
ATOM      5  O   UNL A   1      33.955  25.752  24.576  1.00  0.00    -0.460 OA
BRANCH   5   6
ATOM      6  C   UNL A   1      32.875  25.950  25.376  1.00  0.00     0.340 C 
ATOM      7  O   UNL A   1      32.419  25.153  26.182  1.00  0.00    -0.246 OA
BRANCH   6   8
ATOM      8  C   UNL A   1      32.406  27.360  25.267  1.00  0.00     0.084 A 
ATOM      9  N   UNL A   1      30.835  28.911  24.318  1.00  0.00    -0.312 N 
ATOM     10  C   UNL A   1      31.378  27.639  24.448  1.00  0.00     0.105 A 
ATOM     11  C   UNL A   1      31.275  29.981  25.118  1.00  0.00     0.258 A 
ATOM     12  C   UNL A   1      32.419  29.717  26.029  1.00  0.00     0.048 A 
ATOM     13  O   UNL A   1      30.783  31.107  25.090  1.00  0.00    -0.269 OA
ATOM     14  C   UNL A   1      33.010  28.449  26.056  1.00  0.00     0.003 A 
ATOM     15  C   UNL A   1      32.924  30.761  26.820  1.00  0.00     0.014 A 
ATOM     16  C   UNL A   1      34.177  28.278  26.819  1.00  0.00     0.010 A 
ATOM     17  C   UNL A   1      34.062  30.561  27.600  1.00  0.00     0.001 A 
ATOM     18  C   UNL A   1      34.702  29.326  27.579  1.00  0.00     0.001 A 
BRANCH   9  19
ATOM     19  C   UNL A   1      29.702  29.182  23.405  1.00  0.00     0.084 C 
ATOM     20  C   UNL A   1      30.077  29.732  22.024  1.00  0.00     0.031 C 
ATOM     21  C   UNL A   1      28.820  27.939  23.256  1.00  0.00     0.031 C 
ENDBRANCH   9  19
ENDBRANCH   6   8
ENDBRANCH   5   6
ENDBRANCH   4   5
ENDBRANCH   3   4
ENDBRANCH   2   3
ENDBRANCH   1   2
BRANCH   1  22
ATOM     22  C   UNL A   1      38.561  24.042  25.850  1.00  0.00     0.261 C 
BRANCH  22  23
ATOM     23  O   UNL A   1      38.790  24.757  27.074  1.00  0.00    -0.460 OA
BRANCH  23  24
ATOM     24  C   UNL A   1      39.794  25.669  27.029  1.00  0.00     0.338 C 
ATOM     25  O   UNL A   1      40.557  25.878  26.101  1.00  0.00    -0.246 OA
BRANCH  24  26
ATOM     26  C   UNL A   1      39.696  26.546  28.211  1.00  0.00     0.060 A 
ATOM     27  C   UNL A   1      38.940  26.183  29.327  1.00  0.00     0.016 A 
ATOM     28  C   UNL A   1      40.398  27.759  28.190  1.00  0.00     0.016 A 
ATOM     29  C   UNL A   1      38.907  27.033  30.436  1.00  0.00     0.010 A 
ATOM     30  C   UNL A   1      40.363  28.605  29.298  1.00  0.00     0.010 A 
ATOM     31  C   UNL A   1      39.631  28.241  30.437  1.00  0.00    -0.014 A 
BRANCH  31  32
ATOM     32  C   UNL A   1      39.723  29.055  31.674  1.00  0.00     0.031 A 
ATOM     33  C   UNL A   1      40.829  28.853  32.666  1.00  0.00     0.074 A 
ATOM     34  C   UNL A   1      38.773  29.983  31.899  1.00  0.00     0.049 A 
ATOM     35  N   UNL A   1      41.088  29.539  33.748  1.00  0.00    -0.248 NA
ATOM     36  C   UNL A   1      41.761  27.742  32.419  1.00  0.00     0.031 C 
ATOM     37  C   UNL A   1      37.636  30.244  31.013  1.00  0.00     0.029 A 
ATOM     38  N   UNL A   1      38.614  30.886  32.920  1.00  0.00    -0.354 N 
ATOM     39  C   UNL A   1      42.222  28.961  34.304  1.00  0.00     0.074 A 
ATOM     40  C   UNL A   1      42.571  27.833  33.467  1.00  0.00     0.031 C 
ATOM     41  C   UNL A   1      36.925  31.269  31.504  1.00  0.00     0.029 A 
ATOM     42  C   UNL A   1      37.526  31.713  32.759  1.00  0.00     0.049 A 
ATOM     43  H   UNL A   1      39.221  30.937  33.693  1.00  0.00     0.167 HD
ATOM     44  C   UNL A   1      42.914  29.353  35.400  1.00  0.00     0.031 A 
ATOM     45  C   UNL A   1      37.065  32.723  33.525  1.00  0.00     0.031 A 
ATOM     46  C   UNL A   1      42.541  30.471  36.232  1.00  0.00     0.049 A 
ATOM     47  C   UNL A   1      37.826  33.109  34.762  1.00  0.00     0.074 A 
ATOM     48  C   UNL A   1      43.208  30.970  37.339  1.00  0.00     0.029 A 
ATOM     49  N   UNL A   1      41.409  31.255  36.064  1.00  0.00    -0.354 N 
ATOM     50  N   UNL A   1      38.946  32.606  35.226  1.00  0.00    -0.248 NA
ATOM     51  C   UNL A   1      37.278  34.205  35.572  1.00  0.00     0.031 C 
ATOM     52  C   UNL A   1      42.436  31.994  37.888  1.00  0.00     0.029 A 
ATOM     53  C   UNL A   1      41.337  32.205  37.071  1.00  0.00     0.049 A 
ATOM     54  H   UNL A   1      40.753  31.153  35.336  1.00  0.00     0.167 HD
ATOM     55  C   UNL A   1      39.248  33.340  36.368  1.00  0.00     0.074 A 
ATOM     56  C   UNL A   1      38.204  34.334  36.514  1.00  0.00     0.031 C 
ATOM     57  C   UNL A   1      40.296  33.196  37.216  1.00  0.00     0.031 A 
BRANCH  44  58
ATOM     58  C   UNL A   1      44.166  28.597  35.773  1.00  0.00    -0.014 A 
ATOM     59  C   UNL A   1      45.392  28.920  35.161  1.00  0.00     0.010 A 
ATOM     60  C   UNL A   1      44.101  27.469  36.612  1.00  0.00     0.010 A 
ATOM     61  C   UNL A   1      46.516  28.108  35.344  1.00  0.00     0.020 A 
ATOM     62  C   UNL A   1      45.231  26.672  36.824  1.00  0.00     0.020 A 
ATOM     63  C   UNL A   1      46.423  26.982  36.166  1.00  0.00     0.054 A 
BRANCH  63  64
ATOM     64  S   UNL A   1      47.877  25.912  36.350  1.00  0.00     0.124 S 
ATOM     65  O   UNL A   1      48.717  26.339  35.236  1.00  0.00    -0.237 OA
ATOM     66  O   UNL A   1      48.364  26.266  37.681  1.00  0.00    -0.237 OA
ATOM     67  O   UNL A   1      47.326  24.564  36.237  1.00  0.00    -0.744 OA
ENDBRANCH  63  64
ENDBRANCH  44  58
BRANCH  45  68
ATOM     68  C   UNL A   1      35.851  33.467  33.086  1.00  0.00    -0.014 A 
ATOM     69  C   UNL A   1      35.972  34.697  32.411  1.00  0.00     0.010 A 
ATOM     70  C   UNL A   1      34.570  33.005  33.432  1.00  0.00     0.010 A 
ATOM     71  C   UNL A   1      34.844  35.482  32.154  1.00  0.00     0.020 A 
ATOM     72  C   UNL A   1      33.434  33.769  33.143  1.00  0.00     0.020 A 
ATOM     73  C   UNL A   1      33.583  35.019  32.537  1.00  0.00     0.054 A 
BRANCH  73  74
ATOM     74  S   UNL A   1      32.147  36.091  32.265  1.00  0.00     0.124 S 
ATOM     75  O   UNL A   1      31.040  35.198  32.597  1.00  0.00    -0.237 OA
ATOM     76  O   UNL A   1      32.381  37.181  33.208  1.00  0.00    -0.237 OA
ATOM     77  O   UNL A   1      32.254  36.456  30.854  1.00  0.00    -0.744 OA
ENDBRANCH  73  74
ENDBRANCH  45  68
BRANCH  57  78
ATOM     78  C   UNL A   1      40.397  34.127  38.401  1.00  0.00    -0.014 A 
ATOM     79  C   UNL A   1      39.753  33.792  39.608  1.00  0.00     0.010 A 
ATOM     80  C   UNL A   1      40.991  35.395  38.274  1.00  0.00     0.010 A 
ATOM     81  C   UNL A   1      39.653  34.725  40.644  1.00  0.00     0.020 A 
ATOM     82  C   UNL A   1      40.926  36.318  39.322  1.00  0.00     0.020 A 
ATOM     83  C   UNL A   1      40.228  35.988  40.488  1.00  0.00     0.054 A 
BRANCH  83  84
ATOM     84  S   UNL A   1      40.029  37.207  41.816  1.00  0.00     0.124 S 
ATOM     85  O   UNL A   1      41.414  37.533  42.145  1.00  0.00    -0.237 OA
ATOM     86  O   UNL A   1      39.270  38.271  41.163  1.00  0.00    -0.237 OA
ATOM     87  O   UNL A   1      39.300  36.475  42.849  1.00  0.00    -0.744 OA
ENDBRANCH  83  84
ENDBRANCH  57  78
ENDBRANCH  31  32
ENDBRANCH  24  26
ENDBRANCH  23  24
ENDBRANCH  22  23
ENDBRANCH   1  22
TORSDOF 18
ENDMDL
MODEL 3
REMARK VINA RESULT:      -9.4      3.719      5.424
REMARK SMILES CC(C)n1cc(C(=O)OCCOCCOC(=O)c2ccc(-c3c4nc(c(-c5ccc(S(=O)(=O)[O-])cc5)c5ccc([nH]5)c(-c5ccc(S(=O)(=O)[O-])cc5)c5nc(c(-c6ccc(S(=O)(=O)[O-])cc6)c6ccc3[nH]6)C=C5)C=C4)cc2)c2ccccc2c1=O
REMARK SMILES IDX 13 1 12 2 11 3 10 4 9 5 7 6 8 7 6 8 4 9 5 10 84 11 83 12
REMARK SMILES IDX 85 13 78 14 82 15 79 16 81 17 80 18 2 19 1 20 3 21 14 22
REMARK SMILES IDX 15 23 16 24 17 25 18 26 19 27 77 28 20 29 76 30 21 31 22 32
REMARK SMILES IDX 23 33 70 34 24 35 75 36 69 37 71 38 25 39 74 40 68 41 67 42
REMARK SMILES IDX 26 44 56 45 37 46 55 47 38 48 41 49 54 50 72 51 39 52 40 53
REMARK SMILES IDX 53 55 73 56 42 57 27 58 28 59 36 60 29 61 35 62 30 63 31 64
REMARK SMILES IDX 32 65 33 66 34 67 57 68 58 69 66 70 59 71 65 72 60 73 61 74
REMARK SMILES IDX 62 75 63 76 64 77 43 78 44 79 52 80 45 81 51 82 46 83 47 84
REMARK SMILES IDX 48 85 49 86 50 87
REMARK H PARENT 71 43 41 54
REMARK Flexibility Score: inf
ROOT
ATOM      1  C   UNL A   1      42.037  22.188  25.930  1.00  0.00     0.202 C 
ENDROOT
BRANCH   1   2
ATOM      2  O   UNL A   1      40.845  22.217  26.717  1.00  0.00    -0.374 OA
BRANCH   2   3
ATOM      3  C   UNL A   1      39.674  21.611  26.170  1.00  0.00     0.202 C 
BRANCH   3   4
ATOM      4  C   UNL A   1      38.412  22.476  26.082  1.00  0.00     0.261 C 
BRANCH   4   5
ATOM      5  O   UNL A   1      37.252  21.686  25.780  1.00  0.00    -0.460 OA
BRANCH   5   6
ATOM      6  C   UNL A   1      36.624  22.007  24.619  1.00  0.00     0.340 C 
ATOM      7  O   UNL A   1      37.158  22.160  23.530  1.00  0.00    -0.246 OA
BRANCH   6   8
ATOM      8  C   UNL A   1      35.147  21.981  24.808  1.00  0.00     0.084 A 
ATOM      9  N   UNL A   1      33.128  20.678  24.859  1.00  0.00    -0.312 N 
ATOM     10  C   UNL A   1      34.495  20.817  24.653  1.00  0.00     0.105 A 
ATOM     11  C   UNL A   1      32.348  21.744  25.342  1.00  0.00     0.258 A 
ATOM     12  C   UNL A   1      33.029  23.054  25.516  1.00  0.00     0.048 A 
ATOM     13  O   UNL A   1      31.151  21.656  25.605  1.00  0.00    -0.269 OA
ATOM     14  C   UNL A   1      34.386  23.182  25.196  1.00  0.00     0.003 A 
ATOM     15  C   UNL A   1      32.288  24.162  25.956  1.00  0.00     0.014 A 
ATOM     16  C   UNL A   1      34.957  24.465  25.235  1.00  0.00     0.010 A 
ATOM     17  C   UNL A   1      32.884  25.420  26.023  1.00  0.00     0.001 A 
ATOM     18  C   UNL A   1      34.212  25.575  25.639  1.00  0.00     0.001 A 
BRANCH   9  19
ATOM     19  C   UNL A   1      32.443  19.379  24.678  1.00  0.00     0.084 C 
ATOM     20  C   UNL A   1      32.594  18.734  23.295  1.00  0.00     0.031 C 
ATOM     21  C   UNL A   1      32.862  18.390  25.769  1.00  0.00     0.031 C 
ENDBRANCH   9  19
ENDBRANCH   6   8
ENDBRANCH   5   6
ENDBRANCH   4   5
ENDBRANCH   3   4
ENDBRANCH   2   3
ENDBRANCH   1   2
BRANCH   1  22
ATOM     22  C   UNL A   1      42.524  23.501  25.304  1.00  0.00     0.261 C 
BRANCH  22  23
ATOM     23  O   UNL A   1      42.824  24.502  26.290  1.00  0.00    -0.460 OA
BRANCH  23  24
ATOM     24  C   UNL A   1      42.529  25.775  25.925  1.00  0.00     0.338 C 
ATOM     25  O   UNL A   1      42.264  26.177  24.804  1.00  0.00    -0.246 OA
BRANCH  24  26
ATOM     26  C   UNL A   1      42.359  26.592  27.141  1.00  0.00     0.060 A 
ATOM     27  C   UNL A   1      43.068  27.780  27.327  1.00  0.00     0.016 A 
ATOM     28  C   UNL A   1      41.447  26.148  28.109  1.00  0.00     0.016 A 
ATOM     29  C   UNL A   1      42.845  28.536  28.481  1.00  0.00     0.010 A 
ATOM     30  C   UNL A   1      41.226  26.905  29.260  1.00  0.00     0.010 A 
ATOM     31  C   UNL A   1      41.911  28.114  29.447  1.00  0.00    -0.014 A 
BRANCH  31  32
ATOM     32  C   UNL A   1      41.561  29.000  30.584  1.00  0.00     0.031 A 
ATOM     33  C   UNL A   1      40.405  29.952  30.510  1.00  0.00     0.074 A 
ATOM     34  C   UNL A   1      42.321  28.943  31.695  1.00  0.00     0.049 A 
ATOM     35  N   UNL A   1      39.927  30.729  31.447  1.00  0.00    -0.248 NA
ATOM     36  C   UNL A   1      39.694  30.051  29.226  1.00  0.00     0.031 C 
ATOM     37  C   UNL A   1      43.487  28.074  31.863  1.00  0.00     0.029 A 
ATOM     38  N   UNL A   1      42.225  29.609  32.891  1.00  0.00    -0.354 N 
ATOM     39  C   UNL A   1      38.850  31.395  30.878  1.00  0.00     0.074 A 
ATOM     40  C   UNL A   1      38.775  30.970  29.496  1.00  0.00     0.031 C 
ATOM     41  C   UNL A   1      43.969  28.224  33.106  1.00  0.00     0.029 A 
ATOM     42  C   UNL A   1      43.177  29.229  33.810  1.00  0.00     0.049 A 
ATOM     43  H   UNL A   1      41.541  30.292  33.075  1.00  0.00     0.167 HD
ATOM     44  C   UNL A   1      37.993  32.264  31.466  1.00  0.00     0.031 A 
ATOM     45  C   UNL A   1      43.388  29.631  35.080  1.00  0.00     0.031 A 
ATOM     46  C   UNL A   1      38.092  32.688  32.841  1.00  0.00     0.049 A 
ATOM     47  C   UNL A   1      42.449  30.632  35.695  1.00  0.00     0.074 A 
ATOM     48  C   UNL A   1      37.243  33.532  33.537  1.00  0.00     0.029 A 
ATOM     49  N   UNL A   1      39.095  32.317  33.726  1.00  0.00    -0.354 N 
ATOM     50  N   UNL A   1      41.383  31.186  35.169  1.00  0.00    -0.248 NA
ATOM     51  C   UNL A   1      42.727  31.050  37.075  1.00  0.00     0.031 C 
ATOM     52  C   UNL A   1      37.778  33.740  34.809  1.00  0.00     0.029 A 
ATOM     53  C   UNL A   1      38.908  32.950  34.946  1.00  0.00     0.049 A 
ATOM     54  H   UNL A   1      39.831  31.696  33.519  1.00  0.00     0.167 HD
ATOM     55  C   UNL A   1      40.849  32.001  36.161  1.00  0.00     0.074 A 
ATOM     56  C   UNL A   1      41.699  31.852  37.325  1.00  0.00     0.031 C 
ATOM     57  C   UNL A   1      39.756  32.800  36.106  1.00  0.00     0.031 A 
BRANCH  44  58
ATOM     58  C   UNL A   1      36.847  32.812  30.652  1.00  0.00    -0.014 A 
ATOM     59  C   UNL A   1      36.951  34.086  30.061  1.00  0.00     0.010 A 
ATOM     60  C   UNL A   1      35.615  32.136  30.599  1.00  0.00     0.010 A 
ATOM     61  C   UNL A   1      35.835  34.691  29.473  1.00  0.00     0.020 A 
ATOM     62  C   UNL A   1      34.505  32.724  29.984  1.00  0.00     0.020 A 
ATOM     63  C   UNL A   1      34.616  34.010  29.449  1.00  0.00     0.054 A 
BRANCH  63  64
ATOM     64  S   UNL A   1      33.168  34.832  28.728  1.00  0.00     0.124 S 
ATOM     65  O   UNL A   1      33.781  35.867  27.902  1.00  0.00    -0.237 OA
ATOM     66  O   UNL A   1      32.515  33.745  28.003  1.00  0.00    -0.237 OA
ATOM     67  O   UNL A   1      32.435  35.317  29.896  1.00  0.00    -0.744 OA
ENDBRANCH  63  64
ENDBRANCH  44  58
BRANCH  45  68
ATOM     68  C   UNL A   1      44.505  29.022  35.855  1.00  0.00    -0.014 A 
ATOM     69  C   UNL A   1      44.282  27.890  36.662  1.00  0.00     0.010 A 
ATOM     70  C   UNL A   1      45.771  29.632  35.874  1.00  0.00     0.010 A 
ATOM     71  C   UNL A   1      45.278  27.423  37.524  1.00  0.00     0.020 A 
ATOM     72  C   UNL A   1      46.784  29.145  36.708  1.00  0.00     0.020 A 
ATOM     73  C   UNL A   1      46.518  28.065  37.553  1.00  0.00     0.054 A 
BRANCH  73  74
ATOM     74  S   UNL A   1      47.765  27.490  38.737  1.00  0.00     0.124 S 
ATOM     75  O   UNL A   1      47.291  26.141  39.038  1.00  0.00    -0.237 OA
ATOM     76  O   UNL A   1      48.999  27.566  37.961  1.00  0.00    -0.237 OA
ATOM     77  O   UNL A   1      47.661  28.447  39.836  1.00  0.00    -0.744 OA
ENDBRANCH  73  74
ENDBRANCH  45  68
BRANCH  57  78
ATOM     78  C   UNL A   1      39.383  33.598  37.333  1.00  0.00    -0.014 A 
ATOM     79  C   UNL A   1      39.996  34.844  37.567  1.00  0.00     0.010 A 
ATOM     80  C   UNL A   1      38.552  33.050  38.326  1.00  0.00     0.010 A 
ATOM     81  C   UNL A   1      39.830  35.501  38.789  1.00  0.00     0.020 A 
ATOM     82  C   UNL A   1      38.354  33.721  39.536  1.00  0.00     0.020 A 
ATOM     83  C   UNL A   1      39.021  34.927  39.772  1.00  0.00     0.054 A 
BRANCH  83  84
ATOM     84  S   UNL A   1      38.872  35.760  41.376  1.00  0.00     0.124 S 
ATOM     85  O   UNL A   1      38.831  37.168  40.989  1.00  0.00    -0.237 OA
ATOM     86  O   UNL A   1      37.624  35.216  41.906  1.00  0.00    -0.237 OA
ATOM     87  O   UNL A   1      40.077  35.347  42.093  1.00  0.00    -0.744 OA
ENDBRANCH  83  84
ENDBRANCH  57  78
ENDBRANCH  31  32
ENDBRANCH  24  26
ENDBRANCH  23  24
ENDBRANCH  22  23
ENDBRANCH   1  22
TORSDOF 18
ENDMDL
