MODEL 1
REMARK VINA RESULT:      -9.9      0.000      0.000
REMARK SMILES CC(C)C[C@H](NC(=O)c1cc(Cl)nnc1Cl)C(=O)OCCOCCOC(=O)c1ccc(-c2c3nc(c(-c4ccc(S(=O)(=O)[O-])cc4)c4ccc([nH]4)c(-c4ccc(S(=O)(=O)[O-])cc4)c4nc(c(-c5ccc(S(=O)(=O)[O-])cc5)c5ccc2[nH]5)C=C4)C=C3)cc1
REMARK SMILES IDX 23 1 22 2 21 3 20 4 19 5 17 6 18 7 5 8 4 9 2 10 1 11 3 12
REMARK SMILES IDX 6 13 7 14 8 16 9 17 10 18 15 19 11 20 14 21 16 22 12 23
REMARK SMILES IDX 13 24 24 25 25 26 26 27 27 28 28 29 29 30 87 31 30 32 86 33
REMARK SMILES IDX 31 34 32 35 33 36 80 37 34 38 85 39 79 40 81 41 35 42 84 43
REMARK SMILES IDX 78 44 77 45 36 47 66 48 47 49 65 50 48 51 51 52 64 53 82 54
REMARK SMILES IDX 49 55 50 56 63 58 83 59 52 60 37 61 38 62 46 63 39 64 45 65
REMARK SMILES IDX 40 66 41 67 42 68 43 69 44 70 67 71 68 72 76 73 69 74 75 75
REMARK SMILES IDX 70 76 71 77 72 78 73 79 74 80 53 81 54 82 62 83 55 84 61 85
REMARK SMILES IDX 56 86 57 87 58 88 59 89 60 90
REMARK H PARENT 6 15 81 46 51 57
REMARK Flexibility Score: inf
ROOT
ATOM      1  C   UNL A   1      32.939  29.219  26.105  1.00  0.00     0.202 C 
ENDROOT
BRANCH   1   2
ATOM      2  O   UNL A   1      33.521  27.940  26.363  1.00  0.00    -0.374 OA
BRANCH   2   3
ATOM      3  C   UNL A   1      32.700  26.783  26.265  1.00  0.00     0.202 C 
BRANCH   3   4
ATOM      4  C   UNL A   1      33.387  25.413  26.169  1.00  0.00     0.261 C 
BRANCH   4   5
ATOM      5  O   UNL A   1      34.629  25.407  25.456  1.00  0.00    -0.462 OA
BRANCH   5   6
ATOM      6  C   UNL A   1      35.003  24.162  25.040  1.00  0.00     0.328 C 
ATOM      7  O   UNL A   1      36.163  23.809  24.861  1.00  0.00    -0.250 OA
BRANCH   6   8
ATOM      8  C   UNL A   1      33.793  23.283  24.675  1.00  0.00     0.192 C 
BRANCH   8   9
ATOM      9  C   UNL A   1      33.828  21.970  25.478  1.00  0.00     0.040 C 
BRANCH   9  10
ATOM     10  C   UNL A   1      34.244  20.703  24.705  1.00  0.00    -0.015 C 
ATOM     11  C   UNL A   1      35.700  20.302  24.952  1.00  0.00     0.007 C 
ATOM     12  C   UNL A   1      33.324  19.542  25.087  1.00  0.00     0.007 C 
ENDBRANCH   9  10
ENDBRANCH   8   9
BRANCH   8  13
ATOM     13  N   UNL A   1      33.723  23.020  23.222  1.00  0.00    -0.338 N 
ATOM     14  C   UNL A   1      33.349  23.847  22.195  1.00  0.00     0.255 C 
ATOM     15  H   UNL A   1      33.983  22.111  22.951  1.00  0.00     0.164 HD
ATOM     16  O   UNL A   1      33.442  23.499  21.023  1.00  0.00    -0.269 OA
BRANCH  14  17
ATOM     17  C   UNL A   1      32.722  25.135  22.488  1.00  0.00     0.082 A 
ATOM     18  C   UNL A   1      33.508  26.280  22.354  1.00  0.00     0.060 A 
ATOM     19  C   UNL A   1      31.408  25.254  22.893  1.00  0.00     0.164 A 
ATOM     20  C   UNL A   1      32.896  27.494  22.567  1.00  0.00     0.152 A 
ATOM     21  N   UNL A   1      30.843  26.464  23.088  1.00  0.00    -0.136 NA
ATOM     22  Cl  UNL A   1      30.359  23.934  23.198  1.00  0.00    -0.059 Cl
ATOM     23  Cl  UNL A   1      33.736  28.971  22.383  1.00  0.00    -0.060 Cl
ATOM     24  N   UNL A   1      31.596  27.601  22.907  1.00  0.00    -0.137 NA
ENDBRANCH  14  17
ENDBRANCH   8  13
ENDBRANCH   6   8
ENDBRANCH   5   6
ENDBRANCH   4   5
ENDBRANCH   3   4
ENDBRANCH   2   3
ENDBRANCH   1   2
BRANCH   1  25
ATOM     25  C   UNL A   1      33.013  30.280  27.207  1.00  0.00     0.261 C 
BRANCH  25  26
ATOM     26  O   UNL A   1      34.239  31.035  27.147  1.00  0.00    -0.460 OA
BRANCH  26  27
ATOM     27  C   UNL A   1      34.842  31.218  28.345  1.00  0.00     0.338 C 
ATOM     28  O   UNL A   1      34.444  31.902  29.279  1.00  0.00    -0.246 OA
BRANCH  27  29
ATOM     29  C   UNL A   1      36.013  30.341  28.468  1.00  0.00     0.060 A 
ATOM     30  C   UNL A   1      36.274  29.751  29.712  1.00  0.00     0.016 A 
ATOM     31  C   UNL A   1      36.932  30.248  27.423  1.00  0.00     0.016 A 
ATOM     32  C   UNL A   1      37.485  29.097  29.927  1.00  0.00     0.010 A 
ATOM     33  C   UNL A   1      38.154  29.609  27.648  1.00  0.00     0.010 A 
ATOM     34  C   UNL A   1      38.449  29.069  28.912  1.00  0.00    -0.014 A 
BRANCH  34  35
ATOM     35  C   UNL A   1      39.829  28.643  29.234  1.00  0.00     0.031 A 
ATOM     36  C   UNL A   1      40.720  29.589  29.990  1.00  0.00     0.074 A 
ATOM     37  C   UNL A   1      40.270  27.421  28.888  1.00  0.00     0.049 A 
ATOM     38  N   UNL A   1      41.963  29.431  30.360  1.00  0.00    -0.248 NA
ATOM     39  C   UNL A   1      40.132  30.880  30.387  1.00  0.00     0.031 C 
ATOM     40  C   UNL A   1      39.478  26.400  28.205  1.00  0.00     0.029 A 
ATOM     41  N   UNL A   1      41.497  26.837  29.066  1.00  0.00    -0.354 N 
ATOM     42  C   UNL A   1      42.307  30.598  31.032  1.00  0.00     0.074 A 
ATOM     43  C   UNL A   1      41.149  31.464  31.005  1.00  0.00     0.031 C 
ATOM     44  C   UNL A   1      40.245  25.312  28.013  1.00  0.00     0.029 A 
ATOM     45  C   UNL A   1      41.586  25.573  28.537  1.00  0.00     0.049 A 
ATOM     46  H   UNL A   1      42.244  27.280  29.530  1.00  0.00     0.167 HD
ATOM     47  C   UNL A   1      43.483  30.919  31.618  1.00  0.00     0.031 A 
ATOM     48  C   UNL A   1      42.634  24.728  28.465  1.00  0.00     0.031 A 
ATOM     49  C   UNL A   1      44.637  30.064  31.629  1.00  0.00     0.049 A 
ATOM     50  C   UNL A   1      43.957  25.138  29.051  1.00  0.00     0.074 A 
ATOM     51  C   UNL A   1      45.874  30.300  32.204  1.00  0.00     0.029 A 
ATOM     52  N   UNL A   1      44.703  28.817  31.032  1.00  0.00    -0.354 N 
ATOM     53  N   UNL A   1      44.265  26.245  29.682  1.00  0.00    -0.248 NA
ATOM     54  C   UNL A   1      45.071  24.189  28.914  1.00  0.00     0.031 C 
ATOM     55  C   UNL A   1      46.702  29.212  31.913  1.00  0.00     0.029 A 
ATOM     56  C   UNL A   1      45.966  28.279  31.200  1.00  0.00     0.049 A 
ATOM     57  H   UNL A   1      43.960  28.377  30.556  1.00  0.00     0.167 HD
ATOM     58  C   UNL A   1      45.605  26.121  30.033  1.00  0.00     0.074 A 
ATOM     59  C   UNL A   1      46.047  24.830  29.547  1.00  0.00     0.031 C 
ATOM     60  C   UNL A   1      46.392  26.997  30.704  1.00  0.00     0.031 A 
BRANCH  47  61
ATOM     61  C   UNL A   1      43.593  32.265  32.277  1.00  0.00    -0.014 A 
ATOM     62  C   UNL A   1      43.333  32.420  33.649  1.00  0.00     0.010 A 
ATOM     63  C   UNL A   1      44.030  33.372  31.528  1.00  0.00     0.010 A 
ATOM     64  C   UNL A   1      43.496  33.667  34.260  1.00  0.00     0.020 A 
ATOM     65  C   UNL A   1      44.212  34.616  32.139  1.00  0.00     0.020 A 
ATOM     66  C   UNL A   1      43.941  34.755  33.502  1.00  0.00     0.054 A 
BRANCH  66  67
ATOM     67  S   UNL A   1      44.177  36.348  34.333  1.00  0.00     0.124 S 
ATOM     68  O   UNL A   1      43.676  36.069  35.677  1.00  0.00    -0.237 OA
ATOM     69  O   UNL A   1      45.619  36.546  34.231  1.00  0.00    -0.237 OA
ATOM     70  O   UNL A   1      43.363  37.275  33.550  1.00  0.00    -0.744 OA
ENDBRANCH  66  67
ENDBRANCH  47  61
BRANCH  48  71
ATOM     71  C   UNL A   1      42.461  23.415  27.795  1.00  0.00    -0.014 A 
ATOM     72  C   UNL A   1      43.310  23.032  26.743  1.00  0.00     0.010 A 
ATOM     73  C   UNL A   1      41.483  22.512  28.252  1.00  0.00     0.010 A 
ATOM     74  C   UNL A   1      43.195  21.762  26.171  1.00  0.00     0.020 A 
ATOM     75  C   UNL A   1      41.377  21.235  27.695  1.00  0.00     0.020 A 
ATOM     76  C   UNL A   1      42.240  20.867  26.660  1.00  0.00     0.054 A 
BRANCH  76  77
ATOM     77  S   UNL A   1      42.175  19.195  25.958  1.00  0.00     0.124 S 
ATOM     78  O   UNL A   1      40.745  19.007  25.738  1.00  0.00    -0.237 OA
ATOM     79  O   UNL A   1      42.989  19.338  24.752  1.00  0.00    -0.237 OA
ATOM     80  O   UNL A   1      42.763  18.359  27.002  1.00  0.00    -0.744 OA
ENDBRANCH  76  77
ENDBRANCH  48  71
BRANCH  60  81
ATOM     81  C   UNL A   1      47.818  26.601  30.973  1.00  0.00    -0.014 A 
ATOM     82  C   UNL A   1      48.848  26.982  30.096  1.00  0.00     0.010 A 
ATOM     83  C   UNL A   1      48.141  25.953  32.179  1.00  0.00     0.010 A 
ATOM     84  C   UNL A   1      50.180  26.722  30.424  1.00  0.00     0.020 A 
ATOM     85  C   UNL A   1      49.473  25.708  32.518  1.00  0.00     0.020 A 
ATOM     86  C   UNL A   1      50.486  26.097  31.638  1.00  0.00     0.054 A 
BRANCH  86  87
ATOM     87  S   UNL A   1      52.230  25.839  32.065  1.00  0.00     0.124 S 
ATOM     88  O   UNL A   1      52.418  26.778  33.167  1.00  0.00    -0.237 OA
ATOM     89  O   UNL A   1      52.258  24.426  32.430  1.00  0.00    -0.237 OA
ATOM     90  O   UNL A   1      52.944  26.177  30.835  1.00  0.00    -0.744 OA
ENDBRANCH  86  87
ENDBRANCH  60  81
ENDBRANCH  34  35
ENDBRANCH  27  29
ENDBRANCH  26  27
ENDBRANCH  25  26
ENDBRANCH   1  25
TORSDOF 21
ENDMDL
MODEL 2
REMARK VINA RESULT:      -9.5      3.557      9.262
REMARK SMILES CC(C)C[C@H](NC(=O)c1cc(Cl)nnc1Cl)C(=O)OCCOCCOC(=O)c1ccc(-c2c3nc(c(-c4ccc(S(=O)(=O)[O-])cc4)c4ccc([nH]4)c(-c4ccc(S(=O)(=O)[O-])cc4)c4nc(c(-c5ccc(S(=O)(=O)[O-])cc5)c5ccc2[nH]5)C=C4)C=C3)cc1
REMARK SMILES IDX 23 1 22 2 21 3 20 4 19 5 17 6 18 7 5 8 4 9 2 10 1 11 3 12
REMARK SMILES IDX 6 13 7 14 8 16 9 17 10 18 15 19 11 20 14 21 16 22 12 23
REMARK SMILES IDX 13 24 24 25 25 26 26 27 27 28 28 29 29 30 87 31 30 32 86 33
REMARK SMILES IDX 31 34 32 35 33 36 80 37 34 38 85 39 79 40 81 41 35 42 84 43
REMARK SMILES IDX 78 44 77 45 36 47 66 48 47 49 65 50 48 51 51 52 64 53 82 54
REMARK SMILES IDX 49 55 50 56 63 58 83 59 52 60 37 61 38 62 46 63 39 64 45 65
REMARK SMILES IDX 40 66 41 67 42 68 43 69 44 70 67 71 68 72 76 73 69 74 75 75
REMARK SMILES IDX 70 76 71 77 72 78 73 79 74 80 53 81 54 82 62 83 55 84 61 85
REMARK SMILES IDX 56 86 57 87 58 88 59 89 60 90
REMARK H PARENT 6 15 81 46 51 57
REMARK Flexibility Score: inf
ROOT
ATOM      1  C   UNL A   1      35.758  22.281  25.764  1.00  0.00     0.202 C 
ENDROOT
BRANCH   1   2
ATOM      2  O   UNL A   1      34.516  21.668  25.414  1.00  0.00    -0.374 OA
BRANCH   2   3
ATOM      3  C   UNL A   1      33.319  22.420  25.557  1.00  0.00     0.202 C 
BRANCH   3   4
ATOM      4  C   UNL A   1      33.250  23.805  24.896  1.00  0.00     0.261 C 
BRANCH   4   5
ATOM      5  O   UNL A   1      32.377  24.740  25.540  1.00  0.00    -0.462 OA
BRANCH   5   6
ATOM      6  C   UNL A   1      32.786  26.036  25.407  1.00  0.00     0.328 C 
ATOM      7  O   UNL A   1      33.958  26.395  25.398  1.00  0.00    -0.250 OA
BRANCH   6   8
ATOM      8  C   UNL A   1      31.605  27.022  25.419  1.00  0.00     0.192 C 
BRANCH   8   9
ATOM      9  C   UNL A   1      31.539  27.757  26.770  1.00  0.00     0.040 C 
BRANCH   9  10
ATOM     10  C   UNL A   1      31.904  29.254  26.756  1.00  0.00    -0.015 C 
ATOM     11  C   UNL A   1      33.306  29.534  27.304  1.00  0.00     0.007 C 
ATOM     12  C   UNL A   1      31.796  29.798  25.331  1.00  0.00     0.007 C 
ENDBRANCH   9  10
ENDBRANCH   8   9
BRANCH   8  13
ATOM     13  N   UNL A   1      30.325  26.352  25.111  1.00  0.00    -0.338 N 
ATOM     14  C   UNL A   1      29.406  26.618  24.129  1.00  0.00     0.255 C 
ATOM     15  H   UNL A   1      30.096  25.599  25.702  1.00  0.00     0.164 HD
ATOM     16  O   UNL A   1      28.432  25.896  23.947  1.00  0.00    -0.269 OA
BRANCH  14  17
ATOM     17  C   UNL A   1      29.515  27.845  23.342  1.00  0.00     0.082 A 
ATOM     18  C   UNL A   1      28.595  28.862  23.602  1.00  0.00     0.060 A 
ATOM     19  C   UNL A   1      30.471  28.026  22.364  1.00  0.00     0.164 A 
ATOM     20  C   UNL A   1      28.742  30.040  22.906  1.00  0.00     0.152 A 
ATOM     21  N   UNL A   1      30.586  29.198  21.705  1.00  0.00    -0.136 NA
ATOM     22  Cl  UNL A   1      31.594  26.831  21.867  1.00  0.00    -0.059 Cl
ATOM     23  Cl  UNL A   1      27.713  31.379  23.172  1.00  0.00    -0.060 Cl
ATOM     24  N   UNL A   1      29.716  30.225  21.993  1.00  0.00    -0.137 NA
ENDBRANCH  14  17
ENDBRANCH   8  13
ENDBRANCH   6   8
ENDBRANCH   5   6
ENDBRANCH   4   5
ENDBRANCH   3   4
ENDBRANCH   2   3
ENDBRANCH   1   2
BRANCH   1  25
ATOM     25  C   UNL A   1      37.040  21.459  25.602  1.00  0.00     0.261 C 
BRANCH  25  26
ATOM     26  O   UNL A   1      38.193  22.295  25.380  1.00  0.00    -0.460 OA
BRANCH  26  27
ATOM     27  C   UNL A   1      39.208  22.091  26.251  1.00  0.00     0.338 C 
ATOM     28  O   UNL A   1      39.894  21.084  26.368  1.00  0.00    -0.246 OA
BRANCH  27  29
ATOM     29  C   UNL A   1      39.517  23.330  26.977  1.00  0.00     0.060 A 
ATOM     30  C   UNL A   1      38.795  24.487  26.654  1.00  0.00     0.016 A 
ATOM     31  C   UNL A   1      40.618  23.385  27.831  1.00  0.00     0.016 A 
ATOM     32  C   UNL A   1      39.204  25.720  27.157  1.00  0.00     0.010 A 
ATOM     33  C   UNL A   1      41.038  24.626  28.317  1.00  0.00     0.010 A 
ATOM     34  C   UNL A   1      40.357  25.799  27.947  1.00  0.00    -0.014 A 
BRANCH  34  35
ATOM     35  C   UNL A   1      40.952  27.124  28.229  1.00  0.00     0.031 A 
ATOM     36  C   UNL A   1      42.370  27.385  27.803  1.00  0.00     0.074 A 
ATOM     37  C   UNL A   1      40.232  28.089  28.827  1.00  0.00     0.049 A 
ATOM     38  N   UNL A   1      43.094  28.461  27.964  1.00  0.00    -0.248 NA
ATOM     39  C   UNL A   1      43.062  26.294  27.095  1.00  0.00     0.031 C 
ATOM     40  C   UNL A   1      38.833  27.969  29.232  1.00  0.00     0.029 A 
ATOM     41  N   UNL A   1      40.585  29.362  29.194  1.00  0.00    -0.354 N 
ATOM     42  C   UNL A   1      44.323  28.179  27.381  1.00  0.00     0.074 A 
ATOM     43  C   UNL A   1      44.257  26.825  26.876  1.00  0.00     0.031 C 
ATOM     44  C   UNL A   1      38.446  29.124  29.803  1.00  0.00     0.029 A 
ATOM     45  C   UNL A   1      39.578  30.050  29.825  1.00  0.00     0.049 A 
ATOM     46  H   UNL A   1      41.475  29.746  29.023  1.00  0.00     0.167 HD
ATOM     47  C   UNL A   1      45.411  28.977  27.276  1.00  0.00     0.031 A 
ATOM     48  C   UNL A   1      39.574  31.281  30.375  1.00  0.00     0.031 A 
ATOM     49  C   UNL A   1      45.481  30.315  27.793  1.00  0.00     0.049 A 
ATOM     50  C   UNL A   1      40.820  32.121  30.320  1.00  0.00     0.074 A 
ATOM     51  C   UNL A   1      46.539  31.205  27.729  1.00  0.00     0.029 A 
ATOM     52  N   UNL A   1      44.458  30.953  28.474  1.00  0.00    -0.354 N 
ATOM     53  N   UNL A   1      41.974  31.839  29.765  1.00  0.00    -0.248 NA
ATOM     54  C   UNL A   1      40.765  33.441  30.965  1.00  0.00     0.031 C 
ATOM     55  C   UNL A   1      46.171  32.366  28.414  1.00  0.00     0.029 A 
ATOM     56  C   UNL A   1      44.867  32.217  28.861  1.00  0.00     0.049 A 
ATOM     57  H   UNL A   1      43.572  30.565  28.658  1.00  0.00     0.167 HD
ATOM     58  C   UNL A   1      42.779  32.952  29.978  1.00  0.00     0.074 A 
ATOM     59  C   UNL A   1      41.980  33.914  30.710  1.00  0.00     0.031 C 
ATOM     60  C   UNL A   1      44.063  33.158  29.595  1.00  0.00     0.031 A 
BRANCH  47  61
ATOM     61  C   UNL A   1      46.628  28.415  26.597  1.00  0.00    -0.014 A 
ATOM     62  C   UNL A   1      46.711  28.359  25.195  1.00  0.00     0.010 A 
ATOM     63  C   UNL A   1      47.728  28.006  27.370  1.00  0.00     0.010 A 
ATOM     64  C   UNL A   1      47.874  27.889  24.577  1.00  0.00     0.020 A 
ATOM     65  C   UNL A   1      48.899  27.553  26.757  1.00  0.00     0.020 A 
ATOM     66  C   UNL A   1      48.962  27.495  25.363  1.00  0.00     0.054 A 
BRANCH  66  67
ATOM     67  S   UNL A   1      50.468  26.925  24.528  1.00  0.00     0.124 S 
ATOM     68  O   UNL A   1      50.814  25.735  25.302  1.00  0.00    -0.237 OA
ATOM     69  O   UNL A   1      49.998  26.675  23.169  1.00  0.00    -0.237 OA
ATOM     70  O   UNL A   1      51.392  28.047  24.672  1.00  0.00    -0.744 OA
ENDBRANCH  66  67
ENDBRANCH  47  61
BRANCH  48  71
ATOM     71  C   UNL A   1      38.340  31.775  31.037  1.00  0.00    -0.014 A 
ATOM     72  C   UNL A   1      38.101  31.507  32.395  1.00  0.00     0.010 A 
ATOM     73  C   UNL A   1      37.426  32.573  30.322  1.00  0.00     0.010 A 
ATOM     74  C   UNL A   1      36.979  32.043  33.032  1.00  0.00     0.020 A 
ATOM     75  C   UNL A   1      36.313  33.125  30.961  1.00  0.00     0.020 A 
ATOM     76  C   UNL A   1      36.100  32.861  32.315  1.00  0.00     0.054 A 
BRANCH  76  77
ATOM     77  S   UNL A   1      34.702  33.614  33.193  1.00  0.00     0.124 S 
ATOM     78  O   UNL A   1      35.081  33.434  34.590  1.00  0.00    -0.237 OA
ATOM     79  O   UNL A   1      34.735  34.989  32.697  1.00  0.00    -0.237 OA
ATOM     80  O   UNL A   1      33.553  32.827  32.750  1.00  0.00    -0.744 OA
ENDBRANCH  76  77
ENDBRANCH  48  71
BRANCH  60  81
ATOM     81  C   UNL A   1      44.700  34.476  29.941  1.00  0.00    -0.014 A 
ATOM     82  C   UNL A   1      45.394  34.643  31.151  1.00  0.00     0.010 A 
ATOM     83  C   UNL A   1      44.709  35.511  28.989  1.00  0.00     0.010 A 
ATOM     84  C   UNL A   1      46.091  35.827  31.402  1.00  0.00     0.020 A 
ATOM     85  C   UNL A   1      45.421  36.689  29.229  1.00  0.00     0.020 A 
ATOM     86  C   UNL A   1      46.110  36.838  30.435  1.00  0.00     0.054 A 
BRANCH  86  87
ATOM     87  S   UNL A   1      47.084  38.333  30.763  1.00  0.00     0.124 S 
ATOM     88  O   UNL A   1      47.189  38.318  32.220  1.00  0.00    -0.237 OA
ATOM     89  O   UNL A   1      48.324  38.065  30.040  1.00  0.00    -0.237 OA
ATOM     90  O   UNL A   1      46.265  39.411  30.213  1.00  0.00    -0.744 OA
ENDBRANCH  86  87
ENDBRANCH  60  81
ENDBRANCH  34  35
ENDBRANCH  27  29
ENDBRANCH  26  27
ENDBRANCH  25  26
ENDBRANCH   1  25
TORSDOF 21
ENDMDL
MODEL 3
REMARK VINA RESULT:      -9.4      3.939      9.994
REMARK SMILES CC(C)C[C@H](NC(=O)c1cc(Cl)nnc1Cl)C(=O)OCCOCCOC(=O)c1ccc(-c2c3nc(c(-c4ccc(S(=O)(=O)[O-])cc4)c4ccc([nH]4)c(-c4ccc(S(=O)(=O)[O-])cc4)c4nc(c(-c5ccc(S(=O)(=O)[O-])cc5)c5ccc2[nH]5)C=C4)C=C3)cc1
REMARK SMILES IDX 23 1 22 2 21 3 20 4 19 5 17 6 18 7 5 8 4 9 2 10 1 11 3 12
REMARK SMILES IDX 6 13 7 14 8 16 9 17 10 18 15 19 11 20 14 21 16 22 12 23
REMARK SMILES IDX 13 24 24 25 25 26 26 27 27 28 28 29 29 30 87 31 30 32 86 33
REMARK SMILES IDX 31 34 32 35 33 36 80 37 34 38 85 39 79 40 81 41 35 42 84 43
REMARK SMILES IDX 78 44 77 45 36 47 66 48 47 49 65 50 48 51 51 52 64 53 82 54
REMARK SMILES IDX 49 55 50 56 63 58 83 59 52 60 37 61 38 62 46 63 39 64 45 65
REMARK SMILES IDX 40 66 41 67 42 68 43 69 44 70 67 71 68 72 76 73 69 74 75 75
REMARK SMILES IDX 70 76 71 77 72 78 73 79 74 80 53 81 54 82 62 83 55 84 61 85
REMARK SMILES IDX 56 86 57 87 58 88 59 89 60 90
REMARK H PARENT 6 15 81 46 51 57
REMARK Flexibility Score: inf
ROOT
ATOM      1  C   UNL A   1      39.678  21.185  26.316  1.00  0.00     0.202 C 
ENDROOT
BRANCH   1   2
ATOM      2  O   UNL A   1      38.596  21.532  25.449  1.00  0.00    -0.374 OA
BRANCH   2   3
ATOM      3  C   UNL A   1      37.828  22.690  25.745  1.00  0.00     0.202 C 
BRANCH   3   4
ATOM      4  C   UNL A   1      36.305  22.617  25.558  1.00  0.00     0.261 C 
BRANCH   4   5
ATOM      5  O   UNL A   1      35.611  23.855  25.753  1.00  0.00    -0.462 OA
BRANCH   5   6
ATOM      6  C   UNL A   1      34.458  23.716  26.471  1.00  0.00     0.328 C 
ATOM      7  O   UNL A   1      34.321  22.955  27.422  1.00  0.00    -0.250 OA
BRANCH   6   8
ATOM      8  C   UNL A   1      33.294  24.517  25.862  1.00  0.00     0.192 C 
BRANCH   8   9
ATOM      9  C   UNL A   1      33.495  26.022  26.113  1.00  0.00     0.040 C 
BRANCH   9  10
ATOM     10  C   UNL A   1      33.218  26.960  24.921  1.00  0.00    -0.015 C 
ATOM     11  C   UNL A   1      33.903  28.322  25.059  1.00  0.00     0.007 C 
ATOM     12  C   UNL A   1      33.670  26.291  23.623  1.00  0.00     0.007 C 
ENDBRANCH   9  10
ENDBRANCH   8   9
BRANCH   8  13
ATOM     13  N   UNL A   1      31.985  24.060  26.373  1.00  0.00    -0.338 N 
ATOM     14  C   UNL A   1      31.248  22.953  26.040  1.00  0.00     0.255 C 
ATOM     15  H   UNL A   1      31.579  24.640  27.056  1.00  0.00     0.164 HD
ATOM     16  O   UNL A   1      30.216  22.664  26.636  1.00  0.00    -0.269 OA
BRANCH  14  17
ATOM     17  C   UNL A   1      31.627  22.146  24.882  1.00  0.00     0.082 A 
ATOM     18  C   UNL A   1      32.211  20.902  25.124  1.00  0.00     0.060 A 
ATOM     19  C   UNL A   1      31.440  22.568  23.581  1.00  0.00     0.164 A 
ATOM     20  C   UNL A   1      32.506  20.119  24.032  1.00  0.00     0.152 A 
ATOM     21  N   UNL A   1      31.739  21.768  22.536  1.00  0.00    -0.136 NA
ATOM     22  Cl  UNL A   1      30.833  24.108  23.134  1.00  0.00    -0.059 Cl
ATOM     23  Cl  UNL A   1      33.174  18.554  24.199  1.00  0.00    -0.060 Cl
ATOM     24  N   UNL A   1      32.266  20.519  22.767  1.00  0.00    -0.137 NA
ENDBRANCH  14  17
ENDBRANCH   8  13
ENDBRANCH   6   8
ENDBRANCH   5   6
ENDBRANCH   4   5
ENDBRANCH   3   4
ENDBRANCH   2   3
ENDBRANCH   1   2
BRANCH   1  25
ATOM     25  C   UNL A   1      41.006  21.930  26.145  1.00  0.00     0.261 C 
BRANCH  25  26
ATOM     26  O   UNL A   1      41.190  22.941  27.155  1.00  0.00    -0.460 OA
BRANCH  26  27
ATOM     27  C   UNL A   1      41.918  24.009  26.752  1.00  0.00     0.338 C 
ATOM     28  O   UNL A   1      42.732  24.049  25.839  1.00  0.00    -0.246 OA
BRANCH  27  29
ATOM     29  C   UNL A   1      41.492  25.218  27.467  1.00  0.00     0.060 A 
ATOM     30  C   UNL A   1      42.390  26.290  27.555  1.00  0.00     0.016 A 
ATOM     31  C   UNL A   1      40.297  25.222  28.186  1.00  0.00     0.016 A 
ATOM     32  C   UNL A   1      42.112  27.358  28.405  1.00  0.00     0.010 A 
ATOM     33  C   UNL A   1      40.030  26.285  29.053  1.00  0.00     0.010 A 
ATOM     34  C   UNL A   1      40.956  27.334  29.194  1.00  0.00    -0.014 A 
BRANCH  34  35
ATOM     35  C   UNL A   1      40.812  28.308  30.299  1.00  0.00     0.031 A 
ATOM     36  C   UNL A   1      41.745  28.212  31.473  1.00  0.00     0.074 A 
ATOM     37  C   UNL A   1      39.887  29.281  30.241  1.00  0.00     0.049 A 
ATOM     38  N   UNL A   1      41.786  28.946  32.555  1.00  0.00    -0.248 NA
ATOM     39  C   UNL A   1      42.771  27.156  31.422  1.00  0.00     0.031 C 
ATOM     40  C   UNL A   1      38.967  29.506  29.128  1.00  0.00     0.029 A 
ATOM     41  N   UNL A   1      39.572  30.262  31.146  1.00  0.00    -0.354 N 
ATOM     42  C   UNL A   1      42.838  28.442  33.311  1.00  0.00     0.074 A 
ATOM     43  C   UNL A   1      43.400  27.331  32.576  1.00  0.00     0.031 C 
ATOM     44  C   UNL A   1      38.182  30.558  29.419  1.00  0.00     0.029 A 
ATOM     45  C   UNL A   1      38.528  31.060  30.749  1.00  0.00     0.049 A 
ATOM     46  H   UNL A   1      40.049  30.383  31.998  1.00  0.00     0.167 HD
ATOM     47  C   UNL A   1      43.294  28.869  34.511  1.00  0.00     0.031 A 
ATOM     48  C   UNL A   1      37.908  32.070  31.393  1.00  0.00     0.031 A 
ATOM     49  C   UNL A   1      42.724  29.963  35.246  1.00  0.00     0.049 A 
ATOM     50  C   UNL A   1      38.378  32.475  32.762  1.00  0.00     0.074 A 
ATOM     51  C   UNL A   1      43.123  30.474  36.470  1.00  0.00     0.029 A 
ATOM     52  N   UNL A   1      41.632  30.708  34.836  1.00  0.00    -0.354 N 
ATOM     53  N   UNL A   1      39.374  31.989  33.463  1.00  0.00    -0.248 NA
ATOM     54  C   UNL A   1      37.643  33.561  33.428  1.00  0.00     0.031 C 
ATOM     55  C   UNL A   1      42.240  31.499  36.820  1.00  0.00     0.029 A 
ATOM     56  C   UNL A   1      41.323  31.658  35.792  1.00  0.00     0.049 A 
ATOM     57  H   UNL A   1      41.146  30.579  33.989  1.00  0.00     0.167 HD
ATOM     58  C   UNL A   1      39.397  32.720  34.646  1.00  0.00     0.074 A 
ATOM     59  C   UNL A   1      38.318  33.682  34.565  1.00  0.00     0.031 C 
ATOM     60  C   UNL A   1      40.242  32.604  35.700  1.00  0.00     0.031 A 
BRANCH  47  61
ATOM     61  C   UNL A   1      44.455  28.135  35.119  1.00  0.00    -0.014 A 
ATOM     62  C   UNL A   1      44.251  27.011  35.937  1.00  0.00     0.010 A 
ATOM     63  C   UNL A   1      45.768  28.533  34.810  1.00  0.00     0.010 A 
ATOM     64  C   UNL A   1      45.343  26.303  36.447  1.00  0.00     0.020 A 
ATOM     65  C   UNL A   1      46.863  27.818  35.303  1.00  0.00     0.020 A 
ATOM     66  C   UNL A   1      46.642  26.708  36.121  1.00  0.00     0.054 A 
BRANCH  66  67
ATOM     67  S   UNL A   1      48.035  25.746  36.771  1.00  0.00     0.124 S 
ATOM     68  O   UNL A   1      49.163  26.645  36.537  1.00  0.00    -0.237 OA
ATOM     69  O   UNL A   1      47.662  25.557  38.169  1.00  0.00    -0.237 OA
ATOM     70  O   UNL A   1      48.032  24.534  35.955  1.00  0.00    -0.744 OA
ENDBRANCH  66  67
ENDBRANCH  47  61
BRANCH  48  71
ATOM     71  C   UNL A   1      36.762  32.751  30.738  1.00  0.00    -0.014 A 
ATOM     72  C   UNL A   1      35.441  32.412  31.076  1.00  0.00     0.010 A 
ATOM     73  C   UNL A   1      36.992  33.791  29.817  1.00  0.00     0.010 A 
ATOM     74  C   UNL A   1      34.369  33.113  30.517  1.00  0.00     0.020 A 
ATOM     75  C   UNL A   1      35.922  34.505  29.270  1.00  0.00     0.020 A 
ATOM     76  C   UNL A   1      34.617  34.165  29.630  1.00  0.00     0.054 A 
BRANCH  76  77
ATOM     77  S   UNL A   1      33.208  35.113  28.990  1.00  0.00     0.124 S 
ATOM     78  O   UNL A   1      32.463  35.417  30.207  1.00  0.00    -0.237 OA
ATOM     79  O   UNL A   1      33.869  36.248  28.349  1.00  0.00    -0.237 OA
ATOM     80  O   UNL A   1      32.554  34.182  28.073  1.00  0.00    -0.744 OA
ENDBRANCH  76  77
ENDBRANCH  48  71
BRANCH  60  81
ATOM     81  C   UNL A   1      40.057  33.544  36.858  1.00  0.00    -0.014 A 
ATOM     82  C   UNL A   1      39.302  33.163  37.980  1.00  0.00     0.010 A 
ATOM     83  C   UNL A   1      40.751  34.767  36.876  1.00  0.00     0.010 A 
ATOM     84  C   UNL A   1      39.246  33.991  39.104  1.00  0.00     0.020 A 
ATOM     85  C   UNL A   1      40.713  35.589  38.004  1.00  0.00     0.020 A 
ATOM     86  C   UNL A   1      39.961  35.193  39.114  1.00  0.00     0.054 A 
BRANCH  86  87
ATOM     87  S   UNL A   1      39.925  36.211  40.615  1.00  0.00     0.124 S 
ATOM     88  O   UNL A   1      40.467  35.298  41.618  1.00  0.00    -0.237 OA
ATOM     89  O   UNL A   1      40.787  37.333  40.254  1.00  0.00    -0.237 OA
ATOM     90  O   UNL A   1      38.511  36.541  40.779  1.00  0.00    -0.744 OA
ENDBRANCH  86  87
ENDBRANCH  60  81
ENDBRANCH  34  35
ENDBRANCH  27  29
ENDBRANCH  26  27
ENDBRANCH  25  26
ENDBRANCH   1  25
TORSDOF 21
ENDMDL
