MODEL 1
REMARK VINA RESULT:     -10.8      0.000      0.000
REMARK SMILES CCC[C@H](Cc1ccn(-c2ccccc2)n1)C(=O)OCCOCCOC(=O)c1ccc(-c2c3nc(c(-c4ccc(S(=O)(=O)[O-])cc4)c4ccc([nH]4)c(-c4ccc(S(=O)(=O)[O-])cc4)c4nc(c(-c5ccc(S(=O)(=O)[O-])cc5)c5ccc2[nH]5)C=C4)C=C3)cc1
REMARK SMILES IDX 22 1 21 2 20 3 19 4 17 5 18 6 4 7 3 8 2 9 1 10 5 11 6 12
REMARK SMILES IDX 7 13 16 14 8 15 9 16 10 17 11 18 15 19 12 20 14 21 13 22
REMARK SMILES IDX 23 23 24 24 25 25 26 26 27 27 28 28 29 29 87 30 30 31 86 32
REMARK SMILES IDX 31 33 32 34 33 35 80 36 34 37 85 38 79 39 81 40 35 41 84 42
REMARK SMILES IDX 78 43 77 44 36 46 66 47 47 48 65 49 48 50 51 51 64 52 82 53
REMARK SMILES IDX 49 54 50 55 63 57 83 58 52 59 37 60 38 61 46 62 39 63 45 64
REMARK SMILES IDX 40 65 41 66 42 67 43 68 44 69 67 70 68 71 76 72 69 73 75 74
REMARK SMILES IDX 70 75 71 76 72 77 73 78 74 79 53 80 54 81 62 82 55 83 61 84
REMARK SMILES IDX 56 85 57 86 58 87 59 88 60 89
REMARK H PARENT 81 45 51 56
REMARK Flexibility Score: inf
ROOT
ATOM      1  O   UNL A   1      36.594  22.155  24.731  1.00  0.00    -0.374 OA
ENDROOT
BRANCH   1   2
ATOM      2  C   UNL A   1      35.191  21.997  24.563  1.00  0.00     0.202 C 
BRANCH   2   3
ATOM      3  C   UNL A   1      34.459  22.804  23.494  1.00  0.00     0.261 C 
BRANCH   3   4
ATOM      4  O   UNL A   1      34.611  24.229  23.587  1.00  0.00    -0.463 OA
BRANCH   4   5
ATOM      5  C   UNL A   1      33.455  24.902  23.839  1.00  0.00     0.309 C 
ATOM      6  O   UNL A   1      32.535  24.477  24.530  1.00  0.00    -0.252 OA
BRANCH   5   7
ATOM      7  C   UNL A   1      33.342  26.197  23.073  1.00  0.00     0.105 C 
BRANCH   7   8
ATOM      8  C   UNL A   1      33.189  27.355  24.085  1.00  0.00     0.015 C 
BRANCH   8   9
ATOM      9  C   UNL A   1      33.793  27.119  25.476  1.00  0.00    -0.003 C 
ATOM     10  C   UNL A   1      32.848  27.480  26.617  1.00  0.00     0.004 C 
ENDBRANCH   8   9
ENDBRANCH   7   8
BRANCH   7  11
ATOM     11  C   UNL A   1      32.313  26.185  21.923  1.00  0.00     0.073 C 
BRANCH  11  12
ATOM     12  C   UNL A   1      31.003  26.774  22.365  1.00  0.00     0.064 A 
ATOM     13  C   UNL A   1      30.151  26.295  23.383  1.00  0.00     0.046 A 
ATOM     14  N   UNL A   1      30.563  27.935  21.857  1.00  0.00    -0.173 NA
ATOM     15  C   UNL A   1      29.266  27.319  23.606  1.00  0.00     0.115 A 
ATOM     16  N   UNL A   1      29.559  28.307  22.694  1.00  0.00    -0.241 N 
BRANCH  16  17
ATOM     17  C   UNL A   1      28.991  29.602  22.651  1.00  0.00     0.065 A 
ATOM     18  C   UNL A   1      29.439  30.525  21.694  1.00  0.00     0.028 A 
ATOM     19  C   UNL A   1      27.992  29.960  23.561  1.00  0.00     0.028 A 
ATOM     20  C   UNL A   1      28.885  31.805  21.651  1.00  0.00     0.002 A 
ATOM     21  C   UNL A   1      27.486  31.262  23.549  1.00  0.00     0.002 A 
ATOM     22  C   UNL A   1      27.925  32.179  22.591  1.00  0.00     0.000 A 
ENDBRANCH  16  17
ENDBRANCH  11  12
ENDBRANCH   7  11
ENDBRANCH   5   7
ENDBRANCH   4   5
ENDBRANCH   3   4
ENDBRANCH   2   3
ENDBRANCH   1   2
BRANCH   1  23
ATOM     23  C   UNL A   1      37.416  21.056  25.104  1.00  0.00     0.202 C 
BRANCH  23  24
ATOM     24  C   UNL A   1      38.822  21.314  25.626  1.00  0.00     0.261 C 
BRANCH  24  25
ATOM     25  O   UNL A   1      38.916  22.517  26.373  1.00  0.00    -0.460 OA
BRANCH  25  26
ATOM     26  C   UNL A   1      40.021  22.577  27.145  1.00  0.00     0.338 C 
ATOM     27  O   UNL A   1      40.418  21.718  27.930  1.00  0.00    -0.246 OA
BRANCH  26  28
ATOM     28  C   UNL A   1      40.603  23.914  27.060  1.00  0.00     0.060 A 
ATOM     29  C   UNL A   1      41.688  24.128  27.909  1.00  0.00     0.016 A 
ATOM     30  C   UNL A   1      39.841  24.966  26.530  1.00  0.00     0.016 A 
ATOM     31  C   UNL A   1      41.805  25.367  28.483  1.00  0.00     0.010 A 
ATOM     32  C   UNL A   1      39.964  26.206  27.105  1.00  0.00     0.010 A 
ATOM     33  C   UNL A   1      40.872  26.357  28.149  1.00  0.00    -0.014 A 
BRANCH  33  34
ATOM     34  C   UNL A   1      40.985  27.626  28.829  1.00  0.00     0.031 A 
ATOM     35  C   UNL A   1      42.136  28.387  28.308  1.00  0.00     0.074 A 
ATOM     36  C   UNL A   1      40.128  28.048  29.775  1.00  0.00     0.049 A 
ATOM     37  N   UNL A   1      43.290  28.517  28.869  1.00  0.00    -0.248 NA
ATOM     38  C   UNL A   1      42.097  28.808  26.898  1.00  0.00     0.031 C 
ATOM     39  C   UNL A   1      38.853  27.445  30.177  1.00  0.00     0.029 A 
ATOM     40  N   UNL A   1      40.178  29.180  30.528  1.00  0.00    -0.354 N 
ATOM     41  C   UNL A   1      44.035  29.280  27.984  1.00  0.00     0.074 A 
ATOM     42  C   UNL A   1      43.356  29.207  26.717  1.00  0.00     0.031 C 
ATOM     43  C   UNL A   1      38.147  28.339  30.911  1.00  0.00     0.029 A 
ATOM     44  C   UNL A   1      38.980  29.506  31.155  1.00  0.00     0.049 A 
ATOM     45  H   UNL A   1      40.993  29.723  30.619  1.00  0.00     0.167 HD
ATOM     46  C   UNL A   1      44.933  30.188  28.452  1.00  0.00     0.031 A 
ATOM     47  C   UNL A   1      38.697  30.672  31.791  1.00  0.00     0.031 A 
ATOM     48  C   UNL A   1      45.215  29.964  29.847  1.00  0.00     0.049 A 
ATOM     49  C   UNL A   1      39.992  31.289  32.161  1.00  0.00     0.074 A 
ATOM     50  C   UNL A   1      45.889  29.018  30.585  1.00  0.00     0.029 A 
ATOM     51  N   UNL A   1      44.366  30.626  30.700  1.00  0.00    -0.354 N 
ATOM     52  N   UNL A   1      40.797  30.761  33.038  1.00  0.00    -0.248 NA
ATOM     53  C   UNL A   1      40.597  32.277  31.277  1.00  0.00     0.031 C 
ATOM     54  C   UNL A   1      45.235  28.975  31.851  1.00  0.00     0.029 A 
ATOM     55  C   UNL A   1      44.220  29.932  31.870  1.00  0.00     0.049 A 
ATOM     56  H   UNL A   1      43.925  31.482  30.499  1.00  0.00     0.167 HD
ATOM     57  C   UNL A   1      42.064  31.003  32.538  1.00  0.00     0.074 A 
ATOM     58  C   UNL A   1      41.888  32.073  31.561  1.00  0.00     0.031 C 
ATOM     59  C   UNL A   1      43.075  30.109  32.742  1.00  0.00     0.031 A 
BRANCH  46  60
ATOM     60  C   UNL A   1      45.102  31.556  27.830  1.00  0.00    -0.014 A 
ATOM     61  C   UNL A   1      46.398  32.103  27.759  1.00  0.00     0.010 A 
ATOM     62  C   UNL A   1      44.026  32.437  27.594  1.00  0.00     0.010 A 
ATOM     63  C   UNL A   1      46.599  33.470  27.525  1.00  0.00     0.020 A 
ATOM     64  C   UNL A   1      44.214  33.793  27.326  1.00  0.00     0.020 A 
ATOM     65  C   UNL A   1      45.501  34.307  27.321  1.00  0.00     0.054 A 
BRANCH  65  66
ATOM     66  S   UNL A   1      45.760  36.082  27.106  1.00  0.00     0.124 S 
ATOM     67  O   UNL A   1      44.391  36.581  27.039  1.00  0.00    -0.237 OA
ATOM     68  O   UNL A   1      46.509  36.430  28.310  1.00  0.00    -0.237 OA
ATOM     69  O   UNL A   1      46.520  36.166  25.860  1.00  0.00    -0.744 OA
ENDBRANCH  65  66
ENDBRANCH  46  60
BRANCH  47  70
ATOM     70  C   UNL A   1      37.417  31.418  31.868  1.00  0.00    -0.014 A 
ATOM     71  C   UNL A   1      36.805  31.698  33.105  1.00  0.00     0.010 A 
ATOM     72  C   UNL A   1      36.955  32.118  30.736  1.00  0.00     0.010 A 
ATOM     73  C   UNL A   1      35.811  32.689  33.216  1.00  0.00     0.020 A 
ATOM     74  C   UNL A   1      35.967  33.107  30.838  1.00  0.00     0.020 A 
ATOM     75  C   UNL A   1      35.414  33.404  32.083  1.00  0.00     0.054 A 
BRANCH  75  76
ATOM     76  S   UNL A   1      34.264  34.804  32.260  1.00  0.00     0.124 S 
ATOM     77  O   UNL A   1      33.098  34.173  32.872  1.00  0.00    -0.237 OA
ATOM     78  O   UNL A   1      35.008  35.723  33.117  1.00  0.00    -0.237 OA
ATOM     79  O   UNL A   1      34.068  35.265  30.887  1.00  0.00    -0.744 OA
ENDBRANCH  75  76
ENDBRANCH  47  70
BRANCH  59  80
ATOM     80  C   UNL A   1      42.921  29.139  33.883  1.00  0.00    -0.014 A 
ATOM     81  C   UNL A   1      43.287  29.406  35.217  1.00  0.00     0.010 A 
ATOM     82  C   UNL A   1      42.288  27.919  33.589  1.00  0.00     0.010 A 
ATOM     83  C   UNL A   1      43.047  28.457  36.223  1.00  0.00     0.020 A 
ATOM     84  C   UNL A   1      42.031  26.981  34.587  1.00  0.00     0.020 A 
ATOM     85  C   UNL A   1      42.423  27.248  35.899  1.00  0.00     0.054 A 
BRANCH  85  86
ATOM     86  S   UNL A   1      42.092  26.028  37.200  1.00  0.00     0.124 S 
ATOM     87  O   UNL A   1      40.658  26.183  37.424  1.00  0.00    -0.237 OA
ATOM     88  O   UNL A   1      42.501  24.770  36.578  1.00  0.00    -0.237 OA
ATOM     89  O   UNL A   1      42.940  26.463  38.309  1.00  0.00    -0.744 OA
ENDBRANCH  85  86
ENDBRANCH  59  80
ENDBRANCH  33  34
ENDBRANCH  26  28
ENDBRANCH  25  26
ENDBRANCH  24  25
ENDBRANCH  23  24
ENDBRANCH   1  23
TORSDOF 22
ENDMDL
MODEL 2
REMARK VINA RESULT:     -10.7      2.889      9.547
REMARK SMILES CCC[C@H](Cc1ccn(-c2ccccc2)n1)C(=O)OCCOCCOC(=O)c1ccc(-c2c3nc(c(-c4ccc(S(=O)(=O)[O-])cc4)c4ccc([nH]4)c(-c4ccc(S(=O)(=O)[O-])cc4)c4nc(c(-c5ccc(S(=O)(=O)[O-])cc5)c5ccc2[nH]5)C=C4)C=C3)cc1
REMARK SMILES IDX 22 1 21 2 20 3 19 4 17 5 18 6 4 7 3 8 2 9 1 10 5 11 6 12
REMARK SMILES IDX 7 13 16 14 8 15 9 16 10 17 11 18 15 19 12 20 14 21 13 22
REMARK SMILES IDX 23 23 24 24 25 25 26 26 27 27 28 28 29 29 87 30 30 31 86 32
REMARK SMILES IDX 31 33 32 34 33 35 80 36 34 37 85 38 79 39 81 40 35 41 84 42
REMARK SMILES IDX 78 43 77 44 36 46 66 47 47 48 65 49 48 50 51 51 64 52 82 53
REMARK SMILES IDX 49 54 50 55 63 57 83 58 52 59 37 60 38 61 46 62 39 63 45 64
REMARK SMILES IDX 40 65 41 66 42 67 43 68 44 69 67 70 68 71 76 72 69 73 75 74
REMARK SMILES IDX 70 75 71 76 72 77 73 78 74 79 53 80 54 81 62 82 55 83 61 84
REMARK SMILES IDX 56 85 57 86 58 87 59 88 60 89
REMARK H PARENT 81 45 51 56
REMARK Flexibility Score: inf
ROOT
ATOM      1  O   UNL A   1      32.494  29.350  25.895  1.00  0.00    -0.374 OA
ENDROOT
BRANCH   1   2
ATOM      2  C   UNL A   1      33.083  28.494  24.924  1.00  0.00     0.202 C 
BRANCH   2   3
ATOM      3  C   UNL A   1      32.731  28.666  23.449  1.00  0.00     0.261 C 
BRANCH   3   4
ATOM      4  O   UNL A   1      31.329  28.792  23.163  1.00  0.00    -0.463 OA
BRANCH   4   5
ATOM      5  C   UNL A   1      30.768  27.687  22.600  1.00  0.00     0.309 C 
ATOM      6  O   UNL A   1      31.125  27.186  21.538  1.00  0.00    -0.252 OA
BRANCH   5   7
ATOM      7  C   UNL A   1      29.555  27.189  23.347  1.00  0.00     0.105 C 
BRANCH   7   8
ATOM      8  C   UNL A   1      28.580  28.372  23.544  1.00  0.00     0.015 C 
BRANCH   8   9
ATOM      9  C   UNL A   1      28.151  29.112  22.269  1.00  0.00    -0.003 C 
ATOM     10  C   UNL A   1      27.792  30.574  22.510  1.00  0.00     0.004 C 
ENDBRANCH   8   9
ENDBRANCH   7   8
BRANCH   7  11
ATOM     11  C   UNL A   1      29.865  26.370  24.616  1.00  0.00     0.073 C 
BRANCH  11  12
ATOM     12  C   UNL A   1      30.755  25.201  24.300  1.00  0.00     0.064 A 
ATOM     13  C   UNL A   1      30.541  24.204  23.325  1.00  0.00     0.046 A 
ATOM     14  N   UNL A   1      31.949  25.063  24.896  1.00  0.00    -0.173 NA
ATOM     15  C   UNL A   1      31.747  23.559  23.218  1.00  0.00     0.115 A 
ATOM     16  N   UNL A   1      32.586  24.119  24.153  1.00  0.00    -0.241 N 
BRANCH  16  17
ATOM     17  C   UNL A   1      33.969  23.860  24.302  1.00  0.00     0.065 A 
ATOM     18  C   UNL A   1      34.669  24.422  25.379  1.00  0.00     0.028 A 
ATOM     19  C   UNL A   1      34.632  23.050  23.375  1.00  0.00     0.028 A 
ATOM     20  C   UNL A   1      36.034  24.172  25.526  1.00  0.00     0.002 A 
ATOM     21  C   UNL A   1      36.011  22.854  23.498  1.00  0.00     0.002 A 
ATOM     22  C   UNL A   1      36.707  23.406  24.575  1.00  0.00     0.000 A 
ENDBRANCH  16  17
ENDBRANCH  11  12
ENDBRANCH   7  11
ENDBRANCH   5   7
ENDBRANCH   4   5
ENDBRANCH   3   4
ENDBRANCH   2   3
ENDBRANCH   1   2
BRANCH   1  23
ATOM     23  C   UNL A   1      33.233  29.791  27.028  1.00  0.00     0.202 C 
BRANCH  23  24
ATOM     24  C   UNL A   1      33.488  31.279  27.224  1.00  0.00     0.261 C 
BRANCH  24  25
ATOM     25  O   UNL A   1      34.139  31.565  28.452  1.00  0.00    -0.460 OA
BRANCH  25  26
ATOM     26  C   UNL A   1      35.407  31.997  28.292  1.00  0.00     0.338 C 
ATOM     27  O   UNL A   1      35.815  32.783  27.440  1.00  0.00    -0.246 OA
BRANCH  26  28
ATOM     28  C   UNL A   1      36.293  31.246  29.178  1.00  0.00     0.060 A 
ATOM     29  C   UNL A   1      37.357  31.983  29.695  1.00  0.00     0.016 A 
ATOM     30  C   UNL A   1      36.309  29.844  29.111  1.00  0.00     0.016 A 
ATOM     31  C   UNL A   1      38.558  31.342  29.841  1.00  0.00     0.010 A 
ATOM     32  C   UNL A   1      37.514  29.204  29.260  1.00  0.00     0.010 A 
ATOM     33  C   UNL A   1      38.640  29.981  29.517  1.00  0.00    -0.014 A 
BRANCH  33  34
ATOM     34  C   UNL A   1      39.940  29.358  29.613  1.00  0.00     0.031 A 
ATOM     35  C   UNL A   1      40.332  29.204  31.027  1.00  0.00     0.074 A 
ATOM     36  C   UNL A   1      40.656  28.950  28.551  1.00  0.00     0.049 A 
ATOM     37  N   UNL A   1      41.160  29.946  31.681  1.00  0.00    -0.248 NA
ATOM     38  C   UNL A   1      39.513  28.319  31.872  1.00  0.00     0.031 C 
ATOM     39  C   UNL A   1      40.233  28.873  27.149  1.00  0.00     0.029 A 
ATOM     40  N   UNL A   1      41.909  28.424  28.518  1.00  0.00    -0.354 N 
ATOM     41  C   UNL A   1      41.164  29.430  32.967  1.00  0.00     0.074 A 
ATOM     42  C   UNL A   1      39.976  28.626  33.084  1.00  0.00     0.031 C 
ATOM     43  C   UNL A   1      41.115  28.111  26.457  1.00  0.00     0.029 A 
ATOM     44  C   UNL A   1      42.232  27.781  27.328  1.00  0.00     0.049 A 
ATOM     45  H   UNL A   1      42.535  28.491  29.276  1.00  0.00     0.167 HD
ATOM     46  C   UNL A   1      42.313  29.416  33.694  1.00  0.00     0.031 A 
ATOM     47  C   UNL A   1      43.324  27.004  27.104  1.00  0.00     0.031 A 
ATOM     48  C   UNL A   1      43.307  30.279  33.108  1.00  0.00     0.049 A 
ATOM     49  C   UNL A   1      44.339  27.383  28.114  1.00  0.00     0.074 A 
ATOM     50  C   UNL A   1      43.489  31.637  32.972  1.00  0.00     0.029 A 
ATOM     51  N   UNL A   1      44.099  29.661  32.171  1.00  0.00    -0.354 N 
ATOM     52  N   UNL A   1      44.913  28.552  28.130  1.00  0.00    -0.248 NA
ATOM     53  C   UNL A   1      44.438  26.625  29.354  1.00  0.00     0.031 C 
ATOM     54  C   UNL A   1      44.226  31.811  31.764  1.00  0.00     0.029 A 
ATOM     55  C   UNL A   1      44.520  30.557  31.227  1.00  0.00     0.049 A 
ATOM     56  H   UNL A   1      44.332  28.704  32.178  1.00  0.00     0.167 HD
ATOM     57  C   UNL A   1      45.044  28.857  29.473  1.00  0.00     0.074 A 
ATOM     58  C   UNL A   1      44.899  27.581  30.167  1.00  0.00     0.031 C 
ATOM     59  C   UNL A   1      44.953  30.148  29.905  1.00  0.00     0.031 A 
BRANCH  46  60
ATOM     60  C   UNL A   1      42.711  28.241  34.560  1.00  0.00    -0.014 A 
ATOM     61  C   UNL A   1      43.249  28.503  35.835  1.00  0.00     0.010 A 
ATOM     62  C   UNL A   1      42.858  26.929  34.063  1.00  0.00     0.010 A 
ATOM     63  C   UNL A   1      43.949  27.518  36.545  1.00  0.00     0.020 A 
ATOM     64  C   UNL A   1      43.522  25.931  34.775  1.00  0.00     0.020 A 
ATOM     65  C   UNL A   1      44.089  26.240  36.001  1.00  0.00     0.054 A 
BRANCH  65  66
ATOM     66  S   UNL A   1      45.065  24.999  36.880  1.00  0.00     0.124 S 
ATOM     67  O   UNL A   1      44.556  25.121  38.241  1.00  0.00    -0.237 OA
ATOM     68  O   UNL A   1      44.709  23.772  36.172  1.00  0.00    -0.237 OA
ATOM     69  O   UNL A   1      46.443  25.448  36.682  1.00  0.00    -0.744 OA
ENDBRANCH  65  66
ENDBRANCH  46  60
BRANCH  47  70
ATOM     70  C   UNL A   1      43.459  25.788  26.265  1.00  0.00    -0.014 A 
ATOM     71  C   UNL A   1      44.555  25.615  25.397  1.00  0.00     0.010 A 
ATOM     72  C   UNL A   1      42.664  24.660  26.547  1.00  0.00     0.010 A 
ATOM     73  C   UNL A   1      44.881  24.346  24.882  1.00  0.00     0.020 A 
ATOM     74  C   UNL A   1      42.982  23.393  26.039  1.00  0.00     0.020 A 
ATOM     75  C   UNL A   1      44.104  23.237  25.225  1.00  0.00     0.054 A 
BRANCH  75  76
ATOM     76  S   UNL A   1      44.629  21.574  24.706  1.00  0.00     0.124 S 
ATOM     77  O   UNL A   1      44.635  21.690  23.250  1.00  0.00    -0.237 OA
ATOM     78  O   UNL A   1      45.942  21.443  25.333  1.00  0.00    -0.237 OA
ATOM     79  O   UNL A   1      43.596  20.698  25.254  1.00  0.00    -0.744 OA
ENDBRANCH  75  76
ENDBRANCH  47  70
BRANCH  59  80
ATOM     80  C   UNL A   1      45.186  31.236  28.890  1.00  0.00    -0.014 A 
ATOM     81  C   UNL A   1      46.455  31.693  28.483  1.00  0.00     0.010 A 
ATOM     82  C   UNL A   1      44.046  31.758  28.256  1.00  0.00     0.010 A 
ATOM     83  C   UNL A   1      46.571  32.672  27.484  1.00  0.00     0.020 A 
ATOM     84  C   UNL A   1      44.156  32.716  27.250  1.00  0.00     0.020 A 
ATOM     85  C   UNL A   1      45.418  33.179  26.876  1.00  0.00     0.054 A 
BRANCH  85  86
ATOM     86  S   UNL A   1      45.563  34.428  25.568  1.00  0.00     0.124 S 
ATOM     87  O   UNL A   1      45.017  35.622  26.206  1.00  0.00    -0.237 OA
ATOM     88  O   UNL A   1      47.001  34.457  25.305  1.00  0.00    -0.237 OA
ATOM     89  O   UNL A   1      44.755  33.887  24.477  1.00  0.00    -0.744 OA
ENDBRANCH  85  86
ENDBRANCH  59  80
ENDBRANCH  33  34
ENDBRANCH  26  28
ENDBRANCH  25  26
ENDBRANCH  24  25
ENDBRANCH  23  24
ENDBRANCH   1  23
TORSDOF 22
ENDMDL
MODEL 3
REMARK VINA RESULT:     -10.6      2.785      9.046
REMARK SMILES CCC[C@H](Cc1ccn(-c2ccccc2)n1)C(=O)OCCOCCOC(=O)c1ccc(-c2c3nc(c(-c4ccc(S(=O)(=O)[O-])cc4)c4ccc([nH]4)c(-c4ccc(S(=O)(=O)[O-])cc4)c4nc(c(-c5ccc(S(=O)(=O)[O-])cc5)c5ccc2[nH]5)C=C4)C=C3)cc1
REMARK SMILES IDX 22 1 21 2 20 3 19 4 17 5 18 6 4 7 3 8 2 9 1 10 5 11 6 12
REMARK SMILES IDX 7 13 16 14 8 15 9 16 10 17 11 18 15 19 12 20 14 21 13 22
REMARK SMILES IDX 23 23 24 24 25 25 26 26 27 27 28 28 29 29 87 30 30 31 86 32
REMARK SMILES IDX 31 33 32 34 33 35 80 36 34 37 85 38 79 39 81 40 35 41 84 42
REMARK SMILES IDX 78 43 77 44 36 46 66 47 47 48 65 49 48 50 51 51 64 52 82 53
REMARK SMILES IDX 49 54 50 55 63 57 83 58 52 59 37 60 38 61 46 62 39 63 45 64
REMARK SMILES IDX 40 65 41 66 42 67 43 68 44 69 67 70 68 71 76 72 69 73 75 74
REMARK SMILES IDX 70 75 71 76 72 77 73 78 74 79 53 80 54 81 62 82 55 83 61 84
REMARK SMILES IDX 56 85 57 86 58 87 59 88 60 89
REMARK H PARENT 81 45 51 56
REMARK Flexibility Score: inf
ROOT
ATOM      1  O   UNL A   1      34.139  28.633  25.633  1.00  0.00    -0.374 OA
ENDROOT
BRANCH   1   2
ATOM      2  C   UNL A   1      33.325  27.646  25.014  1.00  0.00     0.202 C 
BRANCH   2   3
ATOM      3  C   UNL A   1      33.842  26.217  24.870  1.00  0.00     0.261 C 
BRANCH   3   4
ATOM      4  O   UNL A   1      33.683  25.634  23.566  1.00  0.00    -0.463 OA
BRANCH   4   5
ATOM      5  C   UNL A   1      34.077  24.334  23.480  1.00  0.00     0.309 C 
ATOM      6  O   UNL A   1      34.895  23.905  22.672  1.00  0.00    -0.252 OA
BRANCH   5   7
ATOM      7  C   UNL A   1      33.312  23.418  24.402  1.00  0.00     0.105 C 
BRANCH   7   8
ATOM      8  C   UNL A   1      34.193  22.188  24.716  1.00  0.00     0.015 C 
BRANCH   8   9
ATOM      9  C   UNL A   1      34.611  22.015  26.183  1.00  0.00    -0.003 C 
ATOM     10  C   UNL A   1      33.945  23.012  27.124  1.00  0.00     0.004 C 
ENDBRANCH   8   9
ENDBRANCH   7   8
BRANCH   7  11
ATOM     11  C   UNL A   1      31.871  23.100  23.953  1.00  0.00     0.073 C 
BRANCH  11  12
ATOM     12  C   UNL A   1      30.920  24.181  24.385  1.00  0.00     0.064 A 
ATOM     13  C   UNL A   1      30.618  24.574  25.707  1.00  0.00     0.046 A 
ATOM     14  N   UNL A   1      30.321  24.973  23.483  1.00  0.00    -0.173 NA
ATOM     15  C   UNL A   1      29.954  25.767  25.570  1.00  0.00     0.115 A 
ATOM     16  N   UNL A   1      29.819  25.998  24.220  1.00  0.00    -0.241 N 
BRANCH  16  17
ATOM     17  C   UNL A   1      29.322  27.178  23.618  1.00  0.00     0.065 A 
ATOM     18  C   UNL A   1      27.948  27.459  23.670  1.00  0.00     0.028 A 
ATOM     19  C   UNL A   1      30.196  28.056  22.970  1.00  0.00     0.028 A 
ATOM     20  C   UNL A   1      27.454  28.619  23.073  1.00  0.00     0.002 A 
ATOM     21  C   UNL A   1      29.683  29.184  22.325  1.00  0.00     0.002 A 
ATOM     22  C   UNL A   1      28.317  29.469  22.384  1.00  0.00     0.000 A 
ENDBRANCH  16  17
ENDBRANCH  11  12
ENDBRANCH   7  11
ENDBRANCH   5   7
ENDBRANCH   4   5
ENDBRANCH   3   4
ENDBRANCH   2   3
ENDBRANCH   1   2
BRANCH   1  23
ATOM     23  C   UNL A   1      33.812  29.153  26.916  1.00  0.00     0.202 C 
BRANCH  23  24
ATOM     24  C   UNL A   1      33.698  30.659  27.108  1.00  0.00     0.261 C 
BRANCH  24  25
ATOM     25  O   UNL A   1      34.195  31.090  28.366  1.00  0.00    -0.460 OA
BRANCH  25  26
ATOM     26  C   UNL A   1      35.372  31.744  28.275  1.00  0.00     0.338 C 
ATOM     27  O   UNL A   1      35.670  32.612  27.457  1.00  0.00    -0.246 OA
BRANCH  26  28
ATOM     28  C   UNL A   1      36.338  31.138  29.187  1.00  0.00     0.060 A 
ATOM     29  C   UNL A   1      37.436  31.944  29.487  1.00  0.00     0.016 A 
ATOM     30  C   UNL A   1      36.362  29.743  29.340  1.00  0.00     0.016 A 
ATOM     31  C   UNL A   1      38.652  31.328  29.627  1.00  0.00     0.010 A 
ATOM     32  C   UNL A   1      37.582  29.130  29.483  1.00  0.00     0.010 A 
ATOM     33  C   UNL A   1      38.718  29.933  29.515  1.00  0.00    -0.014 A 
BRANCH  33  34
ATOM     34  C   UNL A   1      40.028  29.328  29.595  1.00  0.00     0.031 A 
ATOM     35  C   UNL A   1      40.444  29.188  31.003  1.00  0.00     0.074 A 
ATOM     36  C   UNL A   1      40.732  28.923  28.524  1.00  0.00     0.049 A 
ATOM     37  N   UNL A   1      41.272  29.945  31.639  1.00  0.00    -0.248 NA
ATOM     38  C   UNL A   1      39.650  28.297  31.866  1.00  0.00     0.031 C 
ATOM     39  C   UNL A   1      40.289  28.832  27.129  1.00  0.00     0.029 A 
ATOM     40  N   UNL A   1      41.992  28.413  28.475  1.00  0.00    -0.354 N 
ATOM     41  C   UNL A   1      41.303  29.437  32.929  1.00  0.00     0.074 A 
ATOM     42  C   UNL A   1      40.128  28.618  33.069  1.00  0.00     0.031 C 
ATOM     43  C   UNL A   1      41.170  28.077  26.429  1.00  0.00     0.029 A 
ATOM     44  C   UNL A   1      42.305  27.767  27.284  1.00  0.00     0.049 A 
ATOM     45  H   UNL A   1      42.629  28.493  29.222  1.00  0.00     0.167 HD
ATOM     46  C   UNL A   1      42.463  29.443  33.638  1.00  0.00     0.031 A 
ATOM     47  C   UNL A   1      43.403  27.004  27.047  1.00  0.00     0.031 A 
ATOM     48  C   UNL A   1      43.437  30.315  33.030  1.00  0.00     0.049 A 
ATOM     49  C   UNL A   1      44.429  27.402  28.038  1.00  0.00     0.074 A 
ATOM     50  C   UNL A   1      43.598  31.675  32.884  1.00  0.00     0.029 A 
ATOM     51  N   UNL A   1      44.222  29.701  32.085  1.00  0.00    -0.354 N 
ATOM     52  N   UNL A   1      44.987  28.579  28.038  1.00  0.00    -0.248 NA
ATOM     53  C   UNL A   1      44.558  26.653  29.281  1.00  0.00     0.031 C 
ATOM     54  C   UNL A   1      44.314  31.851  31.663  1.00  0.00     0.029 A 
ATOM     55  C   UNL A   1      44.616  30.597  31.130  1.00  0.00     0.049 A 
ATOM     56  H   UNL A   1      44.468  28.748  32.094  1.00  0.00     0.167 HD
ATOM     57  C   UNL A   1      45.135  28.894  29.378  1.00  0.00     0.074 A 
ATOM     58  C   UNL A   1      45.018  27.621  30.081  1.00  0.00     0.031 C 
ATOM     59  C   UNL A   1      45.033  30.187  29.803  1.00  0.00     0.031 A 
BRANCH  46  60
ATOM     60  C   UNL A   1      42.890  28.279  34.504  1.00  0.00    -0.014 A 
ATOM     61  C   UNL A   1      43.039  28.495  35.888  1.00  0.00     0.010 A 
ATOM     62  C   UNL A   1      43.435  27.086  33.984  1.00  0.00     0.010 A 
ATOM     63  C   UNL A   1      43.747  27.593  36.693  1.00  0.00     0.020 A 
ATOM     64  C   UNL A   1      44.112  26.163  34.780  1.00  0.00     0.020 A 
ATOM     65  C   UNL A   1      44.288  26.437  36.128  1.00  0.00     0.054 A 
BRANCH  65  66
ATOM     66  S   UNL A   1      45.274  25.321  37.151  1.00  0.00     0.124 S 
ATOM     67  O   UNL A   1      46.532  25.267  36.414  1.00  0.00    -0.237 OA
ATOM     68  O   UNL A   1      45.310  26.028  38.428  1.00  0.00    -0.237 OA
ATOM     69  O   UNL A   1      44.495  24.083  37.152  1.00  0.00    -0.744 OA
ENDBRANCH  65  66
ENDBRANCH  46  60
BRANCH  47  70
ATOM     70  C   UNL A   1      43.542  25.785  26.213  1.00  0.00    -0.014 A 
ATOM     71  C   UNL A   1      44.692  25.558  25.432  1.00  0.00     0.010 A 
ATOM     72  C   UNL A   1      42.671  24.698  26.426  1.00  0.00     0.010 A 
ATOM     73  C   UNL A   1      44.992  24.276  24.935  1.00  0.00     0.020 A 
ATOM     74  C   UNL A   1      42.963  23.418  25.936  1.00  0.00     0.020 A 
ATOM     75  C   UNL A   1      44.135  23.207  25.210  1.00  0.00     0.054 A 
BRANCH  75  76
ATOM     76  S   UNL A   1      44.615  21.520  24.722  1.00  0.00     0.124 S 
ATOM     77  O   UNL A   1      44.638  21.612  23.265  1.00  0.00    -0.237 OA
ATOM     78  O   UNL A   1      45.916  21.360  25.366  1.00  0.00    -0.237 OA
ATOM     79  O   UNL A   1      43.550  20.685  25.273  1.00  0.00    -0.744 OA
ENDBRANCH  75  76
ENDBRANCH  47  70
BRANCH  59  80
ATOM     80  C   UNL A   1      45.237  31.271  28.778  1.00  0.00    -0.014 A 
ATOM     81  C   UNL A   1      46.484  31.634  28.233  1.00  0.00     0.010 A 
ATOM     82  C   UNL A   1      44.078  31.893  28.284  1.00  0.00     0.010 A 
ATOM     83  C   UNL A   1      46.563  32.619  27.235  1.00  0.00     0.020 A 
ATOM     84  C   UNL A   1      44.149  32.858  27.281  1.00  0.00     0.020 A 
ATOM     85  C   UNL A   1      45.393  33.227  26.769  1.00  0.00     0.054 A 
BRANCH  85  86
ATOM     86  S   UNL A   1      45.489  34.484  25.465  1.00  0.00     0.124 S 
ATOM     87  O   UNL A   1      44.756  33.861  24.367  1.00  0.00    -0.237 OA
ATOM     88  O   UNL A   1      44.839  35.640  26.080  1.00  0.00    -0.237 OA
ATOM     89  O   UNL A   1      46.925  34.642  25.238  1.00  0.00    -0.744 OA
ENDBRANCH  85  86
ENDBRANCH  59  80
ENDBRANCH  33  34
ENDBRANCH  26  28
ENDBRANCH  25  26
ENDBRANCH  24  25
ENDBRANCH  23  24
ENDBRANCH   1  23
TORSDOF 22
ENDMDL
