MODEL 1
REMARK VINA RESULT:      -9.0      0.000      0.000
REMARK SMILES Nc1ccc([C@H]([NH3+])C(=O)OCCOCCOC(=O)c2ccc(-c3c4nc(c(-c5ccc(S(=O)(=O)[O-])cc5)c5ccc([nH]5)c(-c5ccc(S(=O)(=O)[O-])cc5)c5nc(c(-c6ccc(S(=O)(=O)[O-])cc6)c6ccc3[nH]6)C=C5)C=C4)cc2)cc1C(F)(F)F
REMARK SMILES IDX 14 1 13 2 12 3 11 4 10 5 8 6 9 7 6 8 5 9 2 10 3 11 80 12
REMARK SMILES IDX 4 13 79 14 1 15 81 18 82 19 83 20 84 21 7 22 15 26 16 27
REMARK SMILES IDX 17 28 18 29 19 30 20 31 78 32 21 33 77 34 22 35 23 36 24 37
REMARK SMILES IDX 71 38 25 39 76 40 70 41 72 42 26 43 75 44 69 45 68 46 27 48
REMARK SMILES IDX 57 49 38 50 56 51 39 52 42 53 55 54 73 55 40 56 41 57 54 59
REMARK SMILES IDX 74 60 43 61 28 62 29 63 37 64 30 65 36 66 31 67 32 68 33 69
REMARK SMILES IDX 34 70 35 71 58 72 59 73 67 74 60 75 66 76 61 77 62 78 63 79
REMARK SMILES IDX 64 80 65 81 44 82 45 83 53 84 46 85 52 86 47 87 48 88 49 89
REMARK SMILES IDX 50 90 51 91
REMARK H PARENT 1 16 1 17 7 23 7 24 7 25 72 47 42 58
REMARK Flexibility Score: inf
ROOT
ATOM      1  C   UNL A   1      33.205  34.225  28.247  1.00  0.00     0.202 C 
ENDROOT
BRANCH   1   2
ATOM      2  O   UNL A   1      32.753  34.579  29.553  1.00  0.00    -0.374 OA
BRANCH   2   3
ATOM      3  C   UNL A   1      32.863  35.950  29.940  1.00  0.00     0.202 C 
BRANCH   3   4
ATOM      4  C   UNL A   1      32.509  36.280  31.393  1.00  0.00     0.261 C 
BRANCH   4   5
ATOM      5  O   UNL A   1      32.860  35.196  32.269  1.00  0.00    -0.459 OA
BRANCH   5   6
ATOM      6  C   UNL A   1      34.118  35.242  32.802  1.00  0.00     0.369 C 
ATOM      7  O   UNL A   1      34.672  36.257  33.213  1.00  0.00    -0.245 OA
BRANCH   6   8
ATOM      8  C   UNL A   1      34.797  33.857  32.788  1.00  0.00     0.323 C 
BRANCH   8   9
ATOM      9  C   UNL A   1      36.285  34.000  32.561  1.00  0.00     0.021 A 
ATOM     10  C   UNL A   1      39.038  34.491  32.112  1.00  0.00     0.044 A 
ATOM     11  C   UNL A   1      38.482  34.574  33.397  1.00  0.00     0.026 A 
ATOM     12  C   UNL A   1      38.219  34.093  31.048  1.00  0.00     0.079 A 
ATOM     13  C   UNL A   1      37.124  34.344  33.621  1.00  0.00     0.013 A 
ATOM     14  C   UNL A   1      36.849  33.852  31.285  1.00  0.00     0.025 A 
BRANCH  10  15
ATOM     15  N   UNL A   1      40.403  34.699  31.973  1.00  0.00    -0.398 N 
ATOM     16  H   UNL A   1      40.733  35.437  31.411  1.00  0.00     0.156 HD
ATOM     17  H   UNL A   1      41.040  34.109  32.436  1.00  0.00     0.156 HD
ENDBRANCH  10  15
BRANCH  12  18
ATOM     18  C   UNL A   1      38.708  33.941  29.627  1.00  0.00     0.418 C 
ATOM     19  F   UNL A   1      37.710  33.560  28.780  1.00  0.00    -0.166 F 
ATOM     20  F   UNL A   1      39.187  35.116  29.127  1.00  0.00    -0.166 F 
ATOM     21  F   UNL A   1      39.708  33.031  29.460  1.00  0.00    -0.166 F 
ENDBRANCH  12  18
ENDBRANCH   8   9
BRANCH   8  22
ATOM     22  N   UNL A   1      34.178  32.909  31.834  1.00  0.00    -0.342 N 
ATOM     23  H   UNL A   1      33.978  32.029  32.311  1.00  0.00     0.345 HD
ATOM     24  H   UNL A   1      34.821  32.738  31.060  1.00  0.00     0.345 HD
ATOM     25  H   UNL A   1      33.311  33.306  31.475  1.00  0.00     0.345 HD
ENDBRANCH   8  22
ENDBRANCH   6   8
ENDBRANCH   5   6
ENDBRANCH   4   5
ENDBRANCH   3   4
ENDBRANCH   2   3
ENDBRANCH   1   2
BRANCH   1  26
ATOM     26  C   UNL A   1      34.465  33.355  28.152  1.00  0.00     0.261 C 
BRANCH  26  27
ATOM     27  O   UNL A   1      34.317  32.064  28.767  1.00  0.00    -0.460 OA
BRANCH  27  28
ATOM     28  C   UNL A   1      34.586  31.019  27.950  1.00  0.00     0.338 C 
ATOM     29  O   UNL A   1      33.975  30.695  26.938  1.00  0.00    -0.246 OA
BRANCH  28  30
ATOM     30  C   UNL A   1      35.852  30.372  28.341  1.00  0.00     0.060 A 
ATOM     31  C   UNL A   1      35.844  29.581  29.497  1.00  0.00     0.016 A 
ATOM     32  C   UNL A   1      37.042  30.607  27.648  1.00  0.00     0.016 A 
ATOM     33  C   UNL A   1      37.038  29.065  29.996  1.00  0.00     0.010 A 
ATOM     34  C   UNL A   1      38.241  30.093  28.157  1.00  0.00     0.010 A 
ATOM     35  C   UNL A   1      38.248  29.353  29.354  1.00  0.00    -0.014 A 
BRANCH  35  36
ATOM     36  C   UNL A   1      39.528  29.005  30.017  1.00  0.00     0.031 A 
ATOM     37  C   UNL A   1      39.933  29.749  31.260  1.00  0.00     0.074 A 
ATOM     38  C   UNL A   1      40.304  28.015  29.539  1.00  0.00     0.049 A 
ATOM     39  N   UNL A   1      41.009  29.615  31.993  1.00  0.00    -0.248 NA
ATOM     40  C   UNL A   1      39.002  30.782  31.743  1.00  0.00     0.031 C 
ATOM     41  C   UNL A   1      40.000  27.194  28.367  1.00  0.00     0.029 A 
ATOM     42  N   UNL A   1      41.511  27.537  29.982  1.00  0.00    -0.354 N 
ATOM     43  C   UNL A   1      40.889  30.548  33.016  1.00  0.00     0.074 A 
ATOM     44  C   UNL A   1      39.650  31.261  32.795  1.00  0.00     0.031 C 
ATOM     45  C   UNL A   1      40.999  26.314  28.182  1.00  0.00     0.029 A 
ATOM     46  C   UNL A   1      42.025  26.531  29.201  1.00  0.00     0.049 A 
ATOM     47  H   UNL A   1      41.965  27.881  30.786  1.00  0.00     0.167 HD
ATOM     48  C   UNL A   1      41.732  30.789  34.048  1.00  0.00     0.031 A 
ATOM     49  C   UNL A   1      43.198  25.872  29.285  1.00  0.00     0.031 A 
ATOM     50  C   UNL A   1      42.971  30.088  34.259  1.00  0.00     0.049 A 
ATOM     51  C   UNL A   1      44.151  26.201  30.404  1.00  0.00     0.074 A 
ATOM     52  C   UNL A   1      43.887  30.247  35.285  1.00  0.00     0.029 A 
ATOM     53  N   UNL A   1      43.473  29.099  33.425  1.00  0.00    -0.354 N 
ATOM     54  N   UNL A   1      44.012  27.070  31.378  1.00  0.00    -0.248 NA
ATOM     55  C   UNL A   1      45.416  25.453  30.441  1.00  0.00     0.031 C 
ATOM     56  C   UNL A   1      44.968  29.393  35.041  1.00  0.00     0.029 A 
ATOM     57  C   UNL A   1      44.697  28.658  33.897  1.00  0.00     0.049 A 
ATOM     58  H   UNL A   1      43.024  28.760  32.617  1.00  0.00     0.167 HD
ATOM     59  C   UNL A   1      45.159  26.953  32.157  1.00  0.00     0.074 A 
ATOM     60  C   UNL A   1      45.976  25.924  31.548  1.00  0.00     0.031 C 
ATOM     61  C   UNL A   1      45.501  27.633  33.280  1.00  0.00     0.031 A 
BRANCH  48  62
ATOM     62  C   UNL A   1      41.357  31.886  35.009  1.00  0.00    -0.014 A 
ATOM     63  C   UNL A   1      41.826  33.201  34.834  1.00  0.00     0.010 A 
ATOM     64  C   UNL A   1      40.501  31.603  36.088  1.00  0.00     0.010 A 
ATOM     65  C   UNL A   1      41.480  34.201  35.746  1.00  0.00     0.020 A 
ATOM     66  C   UNL A   1      40.131  32.606  36.986  1.00  0.00     0.020 A 
ATOM     67  C   UNL A   1      40.639  33.896  36.821  1.00  0.00     0.054 A 
BRANCH  67  68
ATOM     68  S   UNL A   1      40.197  35.215  37.985  1.00  0.00     0.124 S 
ATOM     69  O   UNL A   1      39.976  36.346  37.087  1.00  0.00    -0.237 OA
ATOM     70  O   UNL A   1      39.000  34.686  38.633  1.00  0.00    -0.237 OA
ATOM     71  O   UNL A   1      41.371  35.325  38.847  1.00  0.00    -0.744 OA
ENDBRANCH  67  68
ENDBRANCH  48  62
BRANCH  49  72
ATOM     72  C   UNL A   1      43.541  24.842  28.267  1.00  0.00    -0.014 A 
ATOM     73  C   UNL A   1      44.379  25.155  27.182  1.00  0.00     0.010 A 
ATOM     74  C   UNL A   1      43.040  23.534  28.387  1.00  0.00     0.010 A 
ATOM     75  C   UNL A   1      44.702  24.180  26.233  1.00  0.00     0.020 A 
ATOM     76  C   UNL A   1      43.379  22.551  27.455  1.00  0.00     0.020 A 
ATOM     77  C   UNL A   1      44.203  22.883  26.377  1.00  0.00     0.054 A 
BRANCH  77  78
ATOM     78  S   UNL A   1      44.684  21.618  25.168  1.00  0.00     0.124 S 
ATOM     79  O   UNL A   1      44.250  22.218  23.912  1.00  0.00    -0.237 OA
ATOM     80  O   UNL A   1      46.130  21.530  25.363  1.00  0.00    -0.237 OA
ATOM     81  O   UNL A   1      43.935  20.437  25.592  1.00  0.00    -0.744 OA
ENDBRANCH  77  78
ENDBRANCH  49  72
BRANCH  61  82
ATOM     82  C   UNL A   1      46.800  27.267  33.947  1.00  0.00    -0.014 A 
ATOM     83  C   UNL A   1      46.875  26.211  34.871  1.00  0.00     0.010 A 
ATOM     84  C   UNL A   1      47.977  27.953  33.591  1.00  0.00     0.010 A 
ATOM     85  C   UNL A   1      48.101  25.865  35.450  1.00  0.00     0.020 A 
ATOM     86  C   UNL A   1      49.207  27.593  34.148  1.00  0.00     0.020 A 
ATOM     87  C   UNL A   1      49.258  26.559  35.085  1.00  0.00     0.054 A 
BRANCH  87  88
ATOM     88  S   UNL A   1      50.844  26.061  35.814  1.00  0.00     0.124 S 
ATOM     89  O   UNL A   1      50.484  24.829  36.510  1.00  0.00    -0.237 OA
ATOM     90  O   UNL A   1      51.698  25.894  34.641  1.00  0.00    -0.237 OA
ATOM     91  O   UNL A   1      51.196  27.185  36.679  1.00  0.00    -0.744 OA
ENDBRANCH  87  88
ENDBRANCH  61  82
ENDBRANCH  35  36
ENDBRANCH  28  30
ENDBRANCH  27  28
ENDBRANCH  26  27
ENDBRANCH   1  26
TORSDOF 21
ENDMDL
MODEL 2
REMARK VINA RESULT:      -8.6      3.973     11.618
REMARK SMILES Nc1ccc([C@H]([NH3+])C(=O)OCCOCCOC(=O)c2ccc(-c3c4nc(c(-c5ccc(S(=O)(=O)[O-])cc5)c5ccc([nH]5)c(-c5ccc(S(=O)(=O)[O-])cc5)c5nc(c(-c6ccc(S(=O)(=O)[O-])cc6)c6ccc3[nH]6)C=C5)C=C4)cc2)cc1C(F)(F)F
REMARK SMILES IDX 14 1 13 2 12 3 11 4 10 5 8 6 9 7 6 8 5 9 2 10 3 11 80 12
REMARK SMILES IDX 4 13 79 14 1 15 81 18 82 19 83 20 84 21 7 22 15 26 16 27
REMARK SMILES IDX 17 28 18 29 19 30 20 31 78 32 21 33 77 34 22 35 23 36 24 37
REMARK SMILES IDX 71 38 25 39 76 40 70 41 72 42 26 43 75 44 69 45 68 46 27 48
REMARK SMILES IDX 57 49 38 50 56 51 39 52 42 53 55 54 73 55 40 56 41 57 54 59
REMARK SMILES IDX 74 60 43 61 28 62 29 63 37 64 30 65 36 66 31 67 32 68 33 69
REMARK SMILES IDX 34 70 35 71 58 72 59 73 67 74 60 75 66 76 61 77 62 78 63 79
REMARK SMILES IDX 64 80 65 81 44 82 45 83 53 84 46 85 52 86 47 87 48 88 49 89
REMARK SMILES IDX 50 90 51 91
REMARK H PARENT 1 16 1 17 7 23 7 24 7 25 72 47 42 58
REMARK Flexibility Score: inf
ROOT
ATOM      1  C   UNL A   1      44.555  23.302  24.734  1.00  0.00     0.202 C 
ENDROOT
BRANCH   1   2
ATOM      2  O   UNL A   1      44.845  22.225  25.624  1.00  0.00    -0.374 OA
BRANCH   2   3
ATOM      3  C   UNL A   1      45.303  21.000  25.050  1.00  0.00     0.202 C 
BRANCH   3   4
ATOM      4  C   UNL A   1      44.304  19.840  25.030  1.00  0.00     0.261 C 
BRANCH   4   5
ATOM      5  O   UNL A   1      42.963  20.309  25.246  1.00  0.00    -0.459 OA
BRANCH   5   6
ATOM      6  C   UNL A   1      42.188  19.544  26.073  1.00  0.00     0.369 C 
ATOM      7  O   UNL A   1      41.924  18.360  25.893  1.00  0.00    -0.245 OA
BRANCH   6   8
ATOM      8  C   UNL A   1      41.633  20.361  27.257  1.00  0.00     0.323 C 
BRANCH   8   9
ATOM      9  C   UNL A   1      40.510  21.263  26.799  1.00  0.00     0.021 A 
ATOM     10  C   UNL A   1      38.299  22.906  26.138  1.00  0.00     0.044 A 
ATOM     11  C   UNL A   1      39.384  23.404  26.875  1.00  0.00     0.026 A 
ATOM     12  C   UNL A   1      38.351  21.587  25.670  1.00  0.00     0.079 A 
ATOM     13  C   UNL A   1      40.470  22.595  27.212  1.00  0.00     0.013 A 
ATOM     14  C   UNL A   1      39.458  20.778  26.008  1.00  0.00     0.025 A 
BRANCH  10  15
ATOM     15  N   UNL A   1      37.272  23.780  25.811  1.00  0.00    -0.398 N 
ATOM     16  H   UNL A   1      36.643  24.080  26.505  1.00  0.00     0.156 HD
ATOM     17  H   UNL A   1      37.174  24.098  24.885  1.00  0.00     0.156 HD
ENDBRANCH  10  15
BRANCH  12  18
ATOM     18  C   UNL A   1      37.259  20.948  24.845  1.00  0.00     0.418 C 
ATOM     19  F   UNL A   1      36.065  20.929  25.503  1.00  0.00    -0.166 F 
ATOM     20  F   UNL A   1      37.031  21.631  23.688  1.00  0.00    -0.166 F 
ATOM     21  F   UNL A   1      37.502  19.659  24.474  1.00  0.00    -0.166 F 
ENDBRANCH  12  18
ENDBRANCH   8   9
BRANCH   8  22
ATOM     22  N   UNL A   1      42.677  21.107  27.997  1.00  0.00    -0.342 N 
ATOM     23  H   UNL A   1      43.290  21.582  27.333  1.00  0.00     0.345 HD
ATOM     24  H   UNL A   1      43.225  20.456  28.559  1.00  0.00     0.345 HD
ATOM     25  H   UNL A   1      42.236  21.796  28.605  1.00  0.00     0.345 HD
ENDBRANCH   8  22
ENDBRANCH   6   8
ENDBRANCH   5   6
ENDBRANCH   4   5
ENDBRANCH   3   4
ENDBRANCH   2   3
ENDBRANCH   1   2
BRANCH   1  26
ATOM     26  C   UNL A   1      44.195  24.655  25.361  1.00  0.00     0.261 C 
BRANCH  26  27
ATOM     27  O   UNL A   1      42.910  24.662  26.007  1.00  0.00    -0.460 OA
BRANCH  27  28
ATOM     28  C   UNL A   1      42.261  25.848  25.951  1.00  0.00     0.338 C 
ATOM     29  O   UNL A   1      41.608  26.290  25.012  1.00  0.00    -0.246 OA
BRANCH  28  30
ATOM     30  C   UNL A   1      42.294  26.516  27.265  1.00  0.00     0.060 A 
ATOM     31  C   UNL A   1      41.462  26.006  28.270  1.00  0.00     0.016 A 
ATOM     32  C   UNL A   1      43.048  27.671  27.485  1.00  0.00     0.016 A 
ATOM     33  C   UNL A   1      41.340  26.681  29.483  1.00  0.00     0.010 A 
ATOM     34  C   UNL A   1      42.917  28.351  28.701  1.00  0.00     0.010 A 
ATOM     35  C   UNL A   1      42.034  27.879  29.690  1.00  0.00    -0.014 A 
BRANCH  35  36
ATOM     36  C   UNL A   1      41.718  28.710  30.877  1.00  0.00     0.031 A 
ATOM     37  C   UNL A   1      40.536  29.639  30.826  1.00  0.00     0.074 A 
ATOM     38  C   UNL A   1      42.453  28.614  32.000  1.00  0.00     0.049 A 
ATOM     39  N   UNL A   1      40.086  30.459  31.741  1.00  0.00    -0.248 NA
ATOM     40  C   UNL A   1      39.756  29.645  29.577  1.00  0.00     0.031 C 
ATOM     41  C   UNL A   1      43.597  27.721  32.187  1.00  0.00     0.029 A 
ATOM     42  N   UNL A   1      42.346  29.280  33.194  1.00  0.00    -0.354 N 
ATOM     43  C   UNL A   1      38.978  31.083  31.178  1.00  0.00     0.074 A 
ATOM     44  C   UNL A   1      38.840  30.568  29.833  1.00  0.00     0.031 C 
ATOM     45  C   UNL A   1      44.089  27.899  33.425  1.00  0.00     0.029 A 
ATOM     46  C   UNL A   1      43.317  28.938  34.104  1.00  0.00     0.049 A 
ATOM     47  H   UNL A   1      41.639  29.939  33.382  1.00  0.00     0.167 HD
ATOM     48  C   UNL A   1      38.149  32.000  31.732  1.00  0.00     0.031 A 
ATOM     49  C   UNL A   1      43.567  29.421  35.338  1.00  0.00     0.031 A 
ATOM     50  C   UNL A   1      38.296  32.521  33.065  1.00  0.00     0.049 A 
ATOM     51  C   UNL A   1      42.670  30.488  35.909  1.00  0.00     0.074 A 
ATOM     52  C   UNL A   1      37.497  33.441  33.722  1.00  0.00     0.029 A 
ATOM     53  N   UNL A   1      39.312  32.175  33.942  1.00  0.00    -0.354 N 
ATOM     54  N   UNL A   1      41.613  31.051  35.373  1.00  0.00    -0.248 NA
ATOM     55  C   UNL A   1      42.997  30.979  37.256  1.00  0.00     0.031 C 
ATOM     56  C   UNL A   1      38.062  33.691  34.977  1.00  0.00     0.029 A 
ATOM     57  C   UNL A   1      39.179  32.881  35.125  1.00  0.00     0.049 A 
ATOM     58  H   UNL A   1      40.025  31.522  33.752  1.00  0.00     0.167 HD
ATOM     59  C   UNL A   1      41.132  31.941  36.328  1.00  0.00     0.074 A 
ATOM     60  C   UNL A   1      42.008  31.836  37.477  1.00  0.00     0.031 C 
ATOM     61  C   UNL A   1      40.058  32.768  36.261  1.00  0.00     0.031 A 
BRANCH  48  62
ATOM     62  C   UNL A   1      37.028  32.527  30.875  1.00  0.00    -0.014 A 
ATOM     63  C   UNL A   1      37.213  33.639  30.034  1.00  0.00     0.010 A 
ATOM     64  C   UNL A   1      35.778  31.883  30.893  1.00  0.00     0.010 A 
ATOM     65  C   UNL A   1      36.156  34.123  29.259  1.00  0.00     0.020 A 
ATOM     66  C   UNL A   1      34.725  32.347  30.100  1.00  0.00     0.020 A 
ATOM     67  C   UNL A   1      34.916  33.477  29.302  1.00  0.00     0.054 A 
BRANCH  67  68
ATOM     68  S   UNL A   1      33.562  34.119  28.280  1.00  0.00     0.124 S 
ATOM     69  O   UNL A   1      33.046  32.899  27.664  1.00  0.00    -0.237 OA
ATOM     70  O   UNL A   1      32.682  34.744  29.264  1.00  0.00    -0.237 OA
ATOM     71  O   UNL A   1      34.226  35.045  27.366  1.00  0.00    -0.744 OA
ENDBRANCH  67  68
ENDBRANCH  48  62
BRANCH  49  72
ATOM     72  C   UNL A   1      44.730  28.906  36.110  1.00  0.00    -0.014 A 
ATOM     73  C   UNL A   1      44.595  27.791  36.955  1.00  0.00     0.010 A 
ATOM     74  C   UNL A   1      45.988  29.525  35.990  1.00  0.00     0.010 A 
ATOM     75  C   UNL A   1      45.695  27.309  37.673  1.00  0.00     0.020 A 
ATOM     76  C   UNL A   1      47.095  29.031  36.686  1.00  0.00     0.020 A 
ATOM     77  C   UNL A   1      46.939  27.931  37.531  1.00  0.00     0.054 A 
BRANCH  77  78
ATOM     78  S   UNL A   1      48.366  27.251  38.423  1.00  0.00     0.124 S 
ATOM     79  O   UNL A   1      47.814  26.024  38.987  1.00  0.00    -0.237 OA
ATOM     80  O   UNL A   1      49.348  27.072  37.356  1.00  0.00    -0.237 OA
ATOM     81  O   UNL A   1      48.693  28.296  39.390  1.00  0.00    -0.744 OA
ENDBRANCH  77  78
ENDBRANCH  49  72
BRANCH  61  82
ATOM     82  C   UNL A   1      39.745  33.602  37.474  1.00  0.00    -0.014 A 
ATOM     83  C   UNL A   1      38.964  33.096  38.528  1.00  0.00     0.010 A 
ATOM     84  C   UNL A   1      40.298  34.892  37.588  1.00  0.00     0.010 A 
ATOM     85  C   UNL A   1      38.718  33.877  39.662  1.00  0.00     0.020 A 
ATOM     86  C   UNL A   1      40.075  35.664  38.731  1.00  0.00     0.020 A 
ATOM     87  C   UNL A   1      39.274  35.156  39.755  1.00  0.00     0.054 A 
BRANCH  87  88
ATOM     88  S   UNL A   1      38.979  36.131  41.257  1.00  0.00     0.124 S 
ATOM     89  O   UNL A   1      37.754  35.528  41.775  1.00  0.00    -0.237 OA
ATOM     90  O   UNL A   1      40.184  35.881  42.044  1.00  0.00    -0.237 OA
ATOM     91  O   UNL A   1      38.839  37.498  40.761  1.00  0.00    -0.744 OA
ENDBRANCH  87  88
ENDBRANCH  61  82
ENDBRANCH  35  36
ENDBRANCH  28  30
ENDBRANCH  27  28
ENDBRANCH  26  27
ENDBRANCH   1  26
TORSDOF 21
ENDMDL
MODEL 3
REMARK VINA RESULT:      -8.6      2.717      3.337
REMARK SMILES Nc1ccc([C@H]([NH3+])C(=O)OCCOCCOC(=O)c2ccc(-c3c4nc(c(-c5ccc(S(=O)(=O)[O-])cc5)c5ccc([nH]5)c(-c5ccc(S(=O)(=O)[O-])cc5)c5nc(c(-c6ccc(S(=O)(=O)[O-])cc6)c6ccc3[nH]6)C=C5)C=C4)cc2)cc1C(F)(F)F
REMARK SMILES IDX 14 1 13 2 12 3 11 4 10 5 8 6 9 7 6 8 5 9 2 10 3 11 80 12
REMARK SMILES IDX 4 13 79 14 1 15 81 18 82 19 83 20 84 21 7 22 15 26 16 27
REMARK SMILES IDX 17 28 18 29 19 30 20 31 78 32 21 33 77 34 22 35 23 36 24 37
REMARK SMILES IDX 71 38 25 39 76 40 70 41 72 42 26 43 75 44 69 45 68 46 27 48
REMARK SMILES IDX 57 49 38 50 56 51 39 52 42 53 55 54 73 55 40 56 41 57 54 59
REMARK SMILES IDX 74 60 43 61 28 62 29 63 37 64 30 65 36 66 31 67 32 68 33 69
REMARK SMILES IDX 34 70 35 71 58 72 59 73 67 74 60 75 66 76 61 77 62 78 63 79
REMARK SMILES IDX 64 80 65 81 44 82 45 83 53 84 46 85 52 86 47 87 48 88 49 89
REMARK SMILES IDX 50 90 51 91
REMARK H PARENT 1 16 1 17 7 23 7 24 7 25 72 47 42 58
REMARK Flexibility Score: inf
ROOT
ATOM      1  C   UNL A   1      33.153  33.960  28.137  1.00  0.00     0.202 C 
ENDROOT
BRANCH   1   2
ATOM      2  O   UNL A   1      32.832  34.655  29.340  1.00  0.00    -0.374 OA
BRANCH   2   3
ATOM      3  C   UNL A   1      32.929  36.080  29.325  1.00  0.00     0.202 C 
BRANCH   3   4
ATOM      4  C   UNL A   1      33.002  36.774  30.688  1.00  0.00     0.261 C 
BRANCH   4   5
ATOM      5  O   UNL A   1      33.074  35.813  31.754  1.00  0.00    -0.459 OA
BRANCH   5   6
ATOM      6  C   UNL A   1      34.252  35.775  32.447  1.00  0.00     0.369 C 
ATOM      7  O   UNL A   1      34.665  36.666  33.182  1.00  0.00    -0.245 OA
BRANCH   6   8
ATOM      8  C   UNL A   1      35.044  34.483  32.161  1.00  0.00     0.323 C 
BRANCH   8   9
ATOM      9  C   UNL A   1      36.034  34.212  33.271  1.00  0.00     0.021 A 
ATOM     10  C   UNL A   1      37.864  33.924  35.414  1.00  0.00     0.044 A 
ATOM     11  C   UNL A   1      36.484  33.762  35.607  1.00  0.00     0.026 A 
ATOM     12  C   UNL A   1      38.340  34.167  34.119  1.00  0.00     0.079 A 
ATOM     13  C   UNL A   1      35.578  33.914  34.556  1.00  0.00     0.013 A 
ATOM     14  C   UNL A   1      37.417  34.310  33.061  1.00  0.00     0.025 A 
BRANCH  10  15
ATOM     15  N   UNL A   1      38.706  33.722  36.498  1.00  0.00    -0.398 N 
ATOM     16  H   UNL A   1      38.328  33.601  37.398  1.00  0.00     0.156 HD
ATOM     17  H   UNL A   1      39.681  33.700  36.366  1.00  0.00     0.156 HD
ENDBRANCH  10  15
BRANCH  12  18
ATOM     18  C   UNL A   1      39.802  34.332  33.782  1.00  0.00     0.418 C 
ATOM     19  F   UNL A   1      40.503  33.177  33.963  1.00  0.00    -0.166 F 
ATOM     20  F   UNL A   1      39.986  34.673  32.474  1.00  0.00    -0.166 F 
ATOM     21  F   UNL A   1      40.454  35.283  34.509  1.00  0.00    -0.166 F 
ENDBRANCH  12  18
ENDBRANCH   8   9
BRANCH   8  22
ATOM     22  N   UNL A   1      35.689  34.472  30.828  1.00  0.00    -0.342 N 
ATOM     23  H   UNL A   1      35.906  33.511  30.563  1.00  0.00     0.345 HD
ATOM     24  H   UNL A   1      36.551  35.017  30.863  1.00  0.00     0.345 HD
ATOM     25  H   UNL A   1      35.056  34.879  30.141  1.00  0.00     0.345 HD
ENDBRANCH   8  22
ENDBRANCH   6   8
ENDBRANCH   5   6
ENDBRANCH   4   5
ENDBRANCH   3   4
ENDBRANCH   2   3
ENDBRANCH   1   2
BRANCH   1  26
ATOM     26  C   UNL A   1      34.499  33.225  28.087  1.00  0.00     0.261 C 
BRANCH  26  27
ATOM     27  O   UNL A   1      34.578  32.114  28.996  1.00  0.00    -0.460 OA
BRANCH  27  28
ATOM     28  C   UNL A   1      34.528  30.899  28.403  1.00  0.00     0.338 C 
ATOM     29  O   UNL A   1      33.600  30.432  27.751  1.00  0.00    -0.246 OA
BRANCH  28  30
ATOM     30  C   UNL A   1      35.835  30.225  28.495  1.00  0.00     0.060 A 
ATOM     31  C   UNL A   1      36.227  29.742  29.750  1.00  0.00     0.016 A 
ATOM     32  C   UNL A   1      36.703  30.149  27.403  1.00  0.00     0.016 A 
ATOM     33  C   UNL A   1      37.509  29.228  29.932  1.00  0.00     0.010 A 
ATOM     34  C   UNL A   1      37.993  29.640  27.590  1.00  0.00     0.010 A 
ATOM     35  C   UNL A   1      38.414  29.214  28.863  1.00  0.00    -0.014 A 
BRANCH  35  36
ATOM     36  C   UNL A   1      39.839  28.893  29.118  1.00  0.00     0.031 A 
ATOM     37  C   UNL A   1      40.723  29.935  29.747  1.00  0.00     0.074 A 
ATOM     38  C   UNL A   1      40.333  27.676  28.824  1.00  0.00     0.049 A 
ATOM     39  N   UNL A   1      41.994  29.870  30.049  1.00  0.00    -0.248 NA
ATOM     40  C   UNL A   1      40.089  31.220  30.082  1.00  0.00     0.031 C 
ATOM     41  C   UNL A   1      39.568  26.569  28.250  1.00  0.00     0.029 A 
ATOM     42  N   UNL A   1      41.601  27.171  28.967  1.00  0.00    -0.354 N 
ATOM     43  C   UNL A   1      42.315  31.106  30.600  1.00  0.00     0.074 A 
ATOM     44  C   UNL A   1      41.112  31.909  30.567  1.00  0.00     0.031 C 
ATOM     45  C   UNL A   1      40.386  25.515  28.086  1.00  0.00     0.029 A 
ATOM     46  C   UNL A   1      41.735  25.882  28.512  1.00  0.00     0.049 A 
ATOM     47  H   UNL A   1      42.344  27.684  29.360  1.00  0.00     0.167 HD
ATOM     48  C   UNL A   1      43.502  31.532  31.093  1.00  0.00     0.031 A 
ATOM     49  C   UNL A   1      42.825  25.092  28.431  1.00  0.00     0.031 A 
ATOM     50  C   UNL A   1      44.701  30.737  31.113  1.00  0.00     0.049 A 
ATOM     51  C   UNL A   1      44.150  25.611  28.926  1.00  0.00     0.074 A 
ATOM     52  C   UNL A   1      45.950  31.074  31.606  1.00  0.00     0.029 A 
ATOM     53  N   UNL A   1      44.803  29.448  30.612  1.00  0.00    -0.354 N 
ATOM     54  N   UNL A   1      44.431  26.773  29.466  1.00  0.00    -0.248 NA
ATOM     55  C   UNL A   1      45.303  24.707  28.806  1.00  0.00     0.031 C 
ATOM     56  C   UNL A   1      46.820  30.008  31.354  1.00  0.00     0.029 A 
ATOM     57  C   UNL A   1      46.099  28.984  30.758  1.00  0.00     0.049 A 
ATOM     58  H   UNL A   1      44.063  28.937  30.211  1.00  0.00     0.167 HD
ATOM     59  C   UNL A   1      45.788  26.729  29.776  1.00  0.00     0.074 A 
ATOM     60  C   UNL A   1      46.267  25.423  29.372  1.00  0.00     0.031 C 
ATOM     61  C   UNL A   1      46.564  27.682  30.350  1.00  0.00     0.031 A 
BRANCH  48  62
ATOM     62  C   UNL A   1      43.569  32.943  31.616  1.00  0.00    -0.014 A 
ATOM     63  C   UNL A   1      43.645  34.042  30.742  1.00  0.00     0.010 A 
ATOM     64  C   UNL A   1      43.529  33.173  33.003  1.00  0.00     0.010 A 
ATOM     65  C   UNL A   1      43.723  35.343  31.248  1.00  0.00     0.020 A 
ATOM     66  C   UNL A   1      43.580  34.472  33.512  1.00  0.00     0.020 A 
ATOM     67  C   UNL A   1      43.696  35.549  32.631  1.00  0.00     0.054 A 
BRANCH  67  68
ATOM     68  S   UNL A   1      43.789  37.248  33.262  1.00  0.00     0.124 S 
ATOM     69  O   UNL A   1      42.650  37.291  34.176  1.00  0.00    -0.237 OA
ATOM     70  O   UNL A   1      45.104  37.284  33.897  1.00  0.00    -0.237 OA
ATOM     71  O   UNL A   1      43.657  38.071  32.062  1.00  0.00    -0.744 OA
ENDBRANCH  67  68
ENDBRANCH  48  62
BRANCH  49  72
ATOM     72  C   UNL A   1      42.708  23.731  27.844  1.00  0.00    -0.014 A 
ATOM     73  C   UNL A   1      42.359  22.630  28.645  1.00  0.00     0.010 A 
ATOM     74  C   UNL A   1      42.933  23.532  26.470  1.00  0.00     0.010 A 
ATOM     75  C   UNL A   1      42.245  21.353  28.084  1.00  0.00     0.020 A 
ATOM     76  C   UNL A   1      42.796  22.263  25.900  1.00  0.00     0.020 A 
ATOM     77  C   UNL A   1      42.460  21.179  26.714  1.00  0.00     0.054 A 
BRANCH  77  78
ATOM     78  S   UNL A   1      42.246  19.526  25.995  1.00  0.00     0.124 S 
ATOM     79  O   UNL A   1      40.817  19.505  25.704  1.00  0.00    -0.237 OA
ATOM     80  O   UNL A   1      43.129  19.571  24.832  1.00  0.00    -0.237 OA
ATOM     81  O   UNL A   1      42.683  18.630  27.064  1.00  0.00    -0.744 OA
ENDBRANCH  77  78
ENDBRANCH  49  72
BRANCH  61  82
ATOM     82  C   UNL A   1      48.007  27.342  30.608  1.00  0.00    -0.014 A 
ATOM     83  C   UNL A   1      48.372  26.378  31.565  1.00  0.00     0.010 A 
ATOM     84  C   UNL A   1      49.011  27.952  29.832  1.00  0.00     0.010 A 
ATOM     85  C   UNL A   1      49.717  26.052  31.760  1.00  0.00     0.020 A 
ATOM     86  C   UNL A   1      50.354  27.610  30.008  1.00  0.00     0.020 A 
ATOM     87  C   UNL A   1      50.700  26.670  30.982  1.00  0.00     0.054 A 
BRANCH  87  88
ATOM     88  S   UNL A   1      52.435  26.195  31.221  1.00  0.00     0.124 S 
ATOM     89  O   UNL A   1      52.313  25.035  32.098  1.00  0.00    -0.237 OA
ATOM     90  O   UNL A   1      52.881  25.911  29.860  1.00  0.00    -0.237 OA
ATOM     91  O   UNL A   1      53.037  27.378  31.833  1.00  0.00    -0.744 OA
ENDBRANCH  87  88
ENDBRANCH  61  82
ENDBRANCH  35  36
ENDBRANCH  28  30
ENDBRANCH  27  28
ENDBRANCH  26  27
ENDBRANCH   1  26
TORSDOF 21
ENDMDL
