MODEL 1
REMARK VINA RESULT:     -11.7      0.000      0.000
REMARK SMILES CCn1ccc2cc(S(=O)(=O)N3CCC[C@@H](C(=O)OCCOCCOC(=O)c4ccc(-c5c6nc(c(-c7ccc(S(=O)(=O)[O-])cc7)c7ccc([nH]7)c(-c7ccc(S(=O)(=O)[O-])cc7)c7nc(c(-c8ccc(S(=O)(=O)[O-])cc8)c8ccc5[nH]8)C=C7)C=C6)cc4)C3)ccc21
REMARK SMILES IDX 22 1 21 2 20 3 19 4 17 5 18 6 16 7 12 8 13 9 88 10 14 11
REMARK SMILES IDX 15 12 9 13 10 14 11 15 8 16 3 17 4 18 91 19 5 20 6 21 90 22
REMARK SMILES IDX 7 23 89 24 2 25 1 26 23 27 24 28 25 29 26 30 27 31 28 32
REMARK SMILES IDX 29 33 87 34 30 35 86 36 31 37 32 38 33 39 80 40 34 41 85 42
REMARK SMILES IDX 79 43 81 44 35 45 84 46 78 47 77 48 36 50 66 51 47 52 65 53
REMARK SMILES IDX 48 54 51 55 64 56 82 57 49 58 50 59 63 61 83 62 52 63 37 64
REMARK SMILES IDX 38 65 46 66 39 67 45 68 40 69 41 70 42 71 43 72 44 73 67 74
REMARK SMILES IDX 68 75 76 76 69 77 75 78 70 79 71 80 72 81 73 82 74 83 53 84
REMARK SMILES IDX 54 85 62 86 55 87 61 88 56 89 57 90 58 91 59 92 60 93
REMARK H PARENT 81 49 51 60
REMARK Flexibility Score: inf
ROOT
ATOM      1  O   UNL A   1      39.653  21.256  26.649  1.00  0.00    -0.374 OA
ENDROOT
BRANCH   1   2
ATOM      2  C   UNL A   1      38.925  21.080  25.438  1.00  0.00     0.202 C 
BRANCH   2   3
ATOM      3  C   UNL A   1      37.390  21.176  25.411  1.00  0.00     0.261 C 
BRANCH   3   4
ATOM      4  O   UNL A   1      36.840  22.362  26.003  1.00  0.00    -0.463 OA
BRANCH   4   5
ATOM      5  C   UNL A   1      35.961  22.983  25.176  1.00  0.00     0.310 C 
ATOM      6  O   UNL A   1      36.210  24.034  24.592  1.00  0.00    -0.252 OA
BRANCH   5   7
ATOM      7  C   UNL A   1      34.646  22.240  24.979  1.00  0.00     0.114 C 
ATOM      8  N   UNL A   1      32.221  22.786  25.497  1.00  0.00    -0.197 NA
ATOM      9  C   UNL A   1      31.789  22.381  24.147  1.00  0.00     0.102 C 
ATOM     10  C   UNL A   1      33.642  23.134  25.707  1.00  0.00     0.117 C 
ATOM     11  C   UNL A   1      32.787  21.424  23.502  1.00  0.00     0.018 C 
ATOM     12  C   UNL A   1      34.199  21.996  23.535  1.00  0.00     0.018 C 
BRANCH   8  13
ATOM     13  S   UNL A   1      31.128  23.737  26.410  1.00  0.00     0.243 S 
ATOM     14  O   UNL A   1      31.777  24.053  27.672  1.00  0.00    -0.207 OA
ATOM     15  O   UNL A   1      29.842  23.086  26.375  1.00  0.00    -0.207 OA
BRANCH  13  16
ATOM     16  C   UNL A   1      30.918  25.303  25.567  1.00  0.00     0.083 A 
ATOM     17  N   UNL A   1      30.561  29.178  24.146  1.00  0.00    -0.348 N 
ATOM     18  C   UNL A   1      31.348  29.873  25.029  1.00  0.00     0.087 A 
ATOM     19  C   UNL A   1      30.593  27.830  24.447  1.00  0.00     0.048 A 
ATOM     20  C   UNL A   1      31.898  28.972  25.911  1.00  0.00     0.028 A 
ATOM     21  C   UNL A   1      31.409  27.683  25.574  1.00  0.00     0.001 A 
ATOM     22  C   UNL A   1      29.982  26.728  23.834  1.00  0.00     0.028 A 
ATOM     23  C   UNL A   1      31.592  26.401  26.127  1.00  0.00     0.032 A 
ATOM     24  C   UNL A   1      30.136  25.471  24.425  1.00  0.00     0.024 A 
BRANCH  17  25
ATOM     25  C   UNL A   1      29.847  29.793  23.037  1.00  0.00     0.119 C 
ATOM     26  C   UNL A   1      28.706  30.710  23.457  1.00  0.00     0.027 C 
ENDBRANCH  17  25
ENDBRANCH  13  16
ENDBRANCH   8  13
ENDBRANCH   5   7
ENDBRANCH   4   5
ENDBRANCH   3   4
ENDBRANCH   2   3
ENDBRANCH   1   2
BRANCH   1  27
ATOM     27  C   UNL A   1      40.930  20.635  26.753  1.00  0.00     0.202 C 
BRANCH  27  28
ATOM     28  C   UNL A   1      42.185  21.353  26.220  1.00  0.00     0.261 C 
BRANCH  28  29
ATOM     29  O   UNL A   1      41.925  22.721  25.874  1.00  0.00    -0.460 OA
BRANCH  29  30
ATOM     30  C   UNL A   1      42.984  23.393  25.339  1.00  0.00     0.338 C 
ATOM     31  O   UNL A   1      43.631  23.081  24.355  1.00  0.00    -0.246 OA
BRANCH  30  32
ATOM     32  C   UNL A   1      42.930  24.753  25.918  1.00  0.00     0.060 A 
ATOM     33  C   UNL A   1      43.444  25.011  27.190  1.00  0.00     0.016 A 
ATOM     34  C   UNL A   1      42.039  25.651  25.303  1.00  0.00     0.016 A 
ATOM     35  C   UNL A   1      42.978  26.126  27.884  1.00  0.00     0.010 A 
ATOM     36  C   UNL A   1      41.541  26.734  26.023  1.00  0.00     0.010 A 
ATOM     37  C   UNL A   1      41.974  26.946  27.332  1.00  0.00    -0.014 A 
BRANCH  37  38
ATOM     38  C   UNL A   1      41.570  28.143  28.077  1.00  0.00     0.031 A 
ATOM     39  C   UNL A   1      42.546  29.255  27.919  1.00  0.00     0.074 A 
ATOM     40  C   UNL A   1      40.426  28.363  28.763  1.00  0.00     0.049 A 
ATOM     41  N   UNL A   1      43.282  29.781  28.838  1.00  0.00    -0.248 NA
ATOM     42  C   UNL A   1      42.846  29.724  26.557  1.00  0.00     0.031 C 
ATOM     43  C   UNL A   1      39.233  27.525  28.881  1.00  0.00     0.029 A 
ATOM     44  N   UNL A   1      40.069  29.486  29.461  1.00  0.00    -0.354 N 
ATOM     45  C   UNL A   1      44.054  30.748  28.207  1.00  0.00     0.074 A 
ATOM     46  C   UNL A   1      43.833  30.587  26.791  1.00  0.00     0.031 C 
ATOM     47  C   UNL A   1      38.214  28.259  29.398  1.00  0.00     0.029 A 
ATOM     48  C   UNL A   1      38.715  29.569  29.780  1.00  0.00     0.049 A 
ATOM     49  H   UNL A   1      40.718  30.180  29.718  1.00  0.00     0.167 HD
ATOM     50  C   UNL A   1      44.724  31.708  28.898  1.00  0.00     0.031 A 
ATOM     51  C   UNL A   1      38.059  30.647  30.292  1.00  0.00     0.031 A 
ATOM     52  C   UNL A   1      44.802  31.411  30.301  1.00  0.00     0.049 A 
ATOM     53  C   UNL A   1      39.068  31.493  30.970  1.00  0.00     0.074 A 
ATOM     54  C   UNL A   1      45.401  30.410  31.039  1.00  0.00     0.029 A 
ATOM     55  N   UNL A   1      43.871  31.992  31.129  1.00  0.00    -0.354 N 
ATOM     56  N   UNL A   1      39.689  31.130  32.056  1.00  0.00    -0.248 NA
ATOM     57  C   UNL A   1      39.703  32.556  30.208  1.00  0.00     0.031 C 
ATOM     58  C   UNL A   1      44.477  30.121  32.081  1.00  0.00     0.029 A 
ATOM     59  C   UNL A   1      43.403  31.008  31.964  1.00  0.00     0.049 A 
ATOM     60  H   UNL A   1      43.593  32.936  31.123  1.00  0.00     0.167 HD
ATOM     61  C   UNL A   1      40.988  31.576  31.876  1.00  0.00     0.074 A 
ATOM     62  C   UNL A   1      40.915  32.525  30.767  1.00  0.00     0.031 C 
ATOM     63  C   UNL A   1      42.043  30.931  32.454  1.00  0.00     0.031 A 
BRANCH  50  64
ATOM     64  C   UNL A   1      45.087  33.048  28.333  1.00  0.00    -0.014 A 
ATOM     65  C   UNL A   1      44.124  33.938  27.818  1.00  0.00     0.010 A 
ATOM     66  C   UNL A   1      46.394  33.544  28.510  1.00  0.00     0.010 A 
ATOM     67  C   UNL A   1      44.448  35.243  27.452  1.00  0.00     0.020 A 
ATOM     68  C   UNL A   1      46.721  34.867  28.185  1.00  0.00     0.020 A 
ATOM     69  C   UNL A   1      45.746  35.704  27.646  1.00  0.00     0.054 A 
BRANCH  69  70
ATOM     70  S   UNL A   1      46.107  37.427  27.230  1.00  0.00     0.124 S 
ATOM     71  O   UNL A   1      46.780  37.288  25.942  1.00  0.00    -0.237 OA
ATOM     72  O   UNL A   1      44.775  38.022  27.186  1.00  0.00    -0.237 OA
ATOM     73  O   UNL A   1      46.955  37.874  28.332  1.00  0.00    -0.744 OA
ENDBRANCH  69  70
ENDBRANCH  50  64
BRANCH  51  74
ATOM     74  C   UNL A   1      36.743  31.216  29.882  1.00  0.00    -0.014 A 
ATOM     75  C   UNL A   1      36.552  31.640  28.553  1.00  0.00     0.010 A 
ATOM     76  C   UNL A   1      35.820  31.667  30.852  1.00  0.00     0.010 A 
ATOM     77  C   UNL A   1      35.552  32.564  28.222  1.00  0.00     0.020 A 
ATOM     78  C   UNL A   1      34.813  32.595  30.526  1.00  0.00     0.020 A 
ATOM     79  C   UNL A   1      34.719  33.073  29.219  1.00  0.00     0.054 A 
BRANCH  79  80
ATOM     80  S   UNL A   1      33.599  34.440  28.789  1.00  0.00     0.124 S 
ATOM     81  O   UNL A   1      33.095  34.840  30.100  1.00  0.00    -0.237 OA
ATOM     82  O   UNL A   1      34.498  35.397  28.147  1.00  0.00    -0.237 OA
ATOM     83  O   UNL A   1      32.617  33.822  27.903  1.00  0.00    -0.744 OA
ENDBRANCH  79  80
ENDBRANCH  51  74
BRANCH  63  84
ATOM     84  C   UNL A   1      41.772  29.861  33.494  1.00  0.00    -0.014 A 
ATOM     85  C   UNL A   1      42.037  30.187  34.837  1.00  0.00     0.010 A 
ATOM     86  C   UNL A   1      41.472  28.520  33.179  1.00  0.00     0.010 A 
ATOM     87  C   UNL A   1      42.051  29.205  35.827  1.00  0.00     0.020 A 
ATOM     88  C   UNL A   1      41.454  27.531  34.175  1.00  0.00     0.020 A 
ATOM     89  C   UNL A   1      41.773  27.879  35.490  1.00  0.00     0.054 A 
BRANCH  89  90
ATOM     90  S   UNL A   1      41.872  26.631  36.800  1.00  0.00     0.124 S 
ATOM     91  O   UNL A   1      42.062  25.399  36.037  1.00  0.00    -0.237 OA
ATOM     92  O   UNL A   1      43.031  27.069  37.575  1.00  0.00    -0.237 OA
ATOM     93  O   UNL A   1      40.590  26.742  37.491  1.00  0.00    -0.744 OA
ENDBRANCH  89  90
ENDBRANCH  63  84
ENDBRANCH  37  38
ENDBRANCH  30  32
ENDBRANCH  29  30
ENDBRANCH  28  29
ENDBRANCH  27  28
ENDBRANCH   1  27
TORSDOF 20
ENDMDL
MODEL 2
REMARK VINA RESULT:     -11.1      2.543      9.617
REMARK SMILES CCn1ccc2cc(S(=O)(=O)N3CCC[C@@H](C(=O)OCCOCCOC(=O)c4ccc(-c5c6nc(c(-c7ccc(S(=O)(=O)[O-])cc7)c7ccc([nH]7)c(-c7ccc(S(=O)(=O)[O-])cc7)c7nc(c(-c8ccc(S(=O)(=O)[O-])cc8)c8ccc5[nH]8)C=C7)C=C6)cc4)C3)ccc21
REMARK SMILES IDX 22 1 21 2 20 3 19 4 17 5 18 6 16 7 12 8 13 9 88 10 14 11
REMARK SMILES IDX 15 12 9 13 10 14 11 15 8 16 3 17 4 18 91 19 5 20 6 21 90 22
REMARK SMILES IDX 7 23 89 24 2 25 1 26 23 27 24 28 25 29 26 30 27 31 28 32
REMARK SMILES IDX 29 33 87 34 30 35 86 36 31 37 32 38 33 39 80 40 34 41 85 42
REMARK SMILES IDX 79 43 81 44 35 45 84 46 78 47 77 48 36 50 66 51 47 52 65 53
REMARK SMILES IDX 48 54 51 55 64 56 82 57 49 58 50 59 63 61 83 62 52 63 37 64
REMARK SMILES IDX 38 65 46 66 39 67 45 68 40 69 41 70 42 71 43 72 44 73 67 74
REMARK SMILES IDX 68 75 76 76 69 77 75 78 70 79 71 80 72 81 73 82 74 83 53 84
REMARK SMILES IDX 54 85 62 86 55 87 61 88 56 89 57 90 58 91 59 92 60 93
REMARK H PARENT 81 49 51 60
REMARK Flexibility Score: inf
ROOT
ATOM      1  O   UNL A   1      35.238  32.314  27.528  1.00  0.00    -0.374 OA
ENDROOT
BRANCH   1   2
ATOM      2  C   UNL A   1      33.860  31.975  27.643  1.00  0.00     0.202 C 
BRANCH   2   3
ATOM      3  C   UNL A   1      33.382  30.520  27.493  1.00  0.00     0.261 C 
BRANCH   3   4
ATOM      4  O   UNL A   1      32.519  30.272  26.373  1.00  0.00    -0.463 OA
BRANCH   4   5
ATOM      5  C   UNL A   1      32.952  29.231  25.619  1.00  0.00     0.310 C 
ATOM      6  O   UNL A   1      34.068  28.733  25.732  1.00  0.00    -0.252 OA
BRANCH   5   7
ATOM      7  C   UNL A   1      31.916  28.682  24.646  1.00  0.00     0.114 C 
ATOM      8  N   UNL A   1      31.956  26.867  22.870  1.00  0.00    -0.197 NA
ATOM      9  C   UNL A   1      30.701  26.279  23.372  1.00  0.00     0.102 C 
ATOM     10  C   UNL A   1      32.740  27.731  23.777  1.00  0.00     0.117 C 
ATOM     11  C   UNL A   1      29.880  27.295  24.160  1.00  0.00     0.018 C 
ATOM     12  C   UNL A   1      30.717  27.949  25.254  1.00  0.00     0.018 C 
BRANCH   8  13
ATOM     13  S   UNL A   1      32.911  25.893  21.836  1.00  0.00     0.243 S 
ATOM     14  O   UNL A   1      34.192  26.561  21.671  1.00  0.00    -0.207 OA
ATOM     15  O   UNL A   1      32.104  25.537  20.696  1.00  0.00    -0.207 OA
BRANCH  13  16
ATOM     16  C   UNL A   1      33.269  24.361  22.691  1.00  0.00     0.083 A 
ATOM     17  N   UNL A   1      34.661  21.020  24.707  1.00  0.00    -0.348 N 
ATOM     18  C   UNL A   1      35.757  21.525  25.362  1.00  0.00     0.087 A 
ATOM     19  C   UNL A   1      34.031  22.025  23.999  1.00  0.00     0.048 A 
ATOM     20  C   UNL A   1      35.841  22.868  25.078  1.00  0.00     0.028 A 
ATOM     21  C   UNL A   1      34.776  23.193  24.198  1.00  0.00     0.001 A 
ATOM     22  C   UNL A   1      32.879  22.017  23.203  1.00  0.00     0.028 A 
ATOM     23  C   UNL A   1      34.377  24.381  23.554  1.00  0.00     0.032 A 
ATOM     24  C   UNL A   1      32.526  23.193  22.535  1.00  0.00     0.024 A 
BRANCH  17  25
ATOM     25  C   UNL A   1      34.225  19.635  24.803  1.00  0.00     0.119 C 
ATOM     26  C   UNL A   1      32.831  19.455  25.388  1.00  0.00     0.027 C 
ENDBRANCH  17  25
ENDBRANCH  13  16
ENDBRANCH   8  13
ENDBRANCH   5   7
ENDBRANCH   4   5
ENDBRANCH   3   4
ENDBRANCH   2   3
ENDBRANCH   1   2
BRANCH   1  27
ATOM     27  C   UNL A   1      35.686  33.503  28.168  1.00  0.00     0.202 C 
BRANCH  27  28
ATOM     28  C   UNL A   1      34.843  34.143  29.289  1.00  0.00     0.261 C 
BRANCH  28  29
ATOM     29  O   UNL A   1      35.545  34.192  30.539  1.00  0.00    -0.460 OA
BRANCH  29  30
ATOM     30  C   UNL A   1      35.216  33.211  31.426  1.00  0.00     0.338 C 
ATOM     31  O   UNL A   1      34.097  32.900  31.796  1.00  0.00    -0.246 OA
BRANCH  30  32
ATOM     32  C   UNL A   1      36.410  32.344  31.527  1.00  0.00     0.060 A 
ATOM     33  C   UNL A   1      37.693  32.894  31.570  1.00  0.00     0.016 A 
ATOM     34  C   UNL A   1      36.216  30.986  31.215  1.00  0.00     0.016 A 
ATOM     35  C   UNL A   1      38.772  32.097  31.197  1.00  0.00     0.010 A 
ATOM     36  C   UNL A   1      37.295  30.212  30.794  1.00  0.00     0.010 A 
ATOM     37  C   UNL A   1      38.568  30.780  30.739  1.00  0.00    -0.014 A 
BRANCH  37  38
ATOM     38  C   UNL A   1      39.746  29.965  30.423  1.00  0.00     0.031 A 
ATOM     39  C   UNL A   1      40.563  29.674  31.632  1.00  0.00     0.074 A 
ATOM     40  C   UNL A   1      40.088  29.399  29.244  1.00  0.00     0.049 A 
ATOM     41  N   UNL A   1      41.766  30.071  31.872  1.00  0.00    -0.248 NA
ATOM     42  C   UNL A   1      39.910  28.996  32.763  1.00  0.00     0.031 C 
ATOM     43  C   UNL A   1      39.349  29.351  27.983  1.00  0.00     0.029 A 
ATOM     44  N   UNL A   1      41.198  28.647  28.965  1.00  0.00    -0.354 N 
ATOM     45  C   UNL A   1      42.089  29.587  33.133  1.00  0.00     0.074 A 
ATOM     46  C   UNL A   1      40.872  29.039  33.683  1.00  0.00     0.031 C 
ATOM     47  C   UNL A   1      39.912  28.425  27.164  1.00  0.00     0.029 A 
ATOM     48  C   UNL A   1      41.128  27.919  27.780  1.00  0.00     0.049 A 
ATOM     49  H   UNL A   1      41.985  28.623  29.556  1.00  0.00     0.167 HD
ATOM     50  C   UNL A   1      43.367  29.548  33.593  1.00  0.00     0.031 A 
ATOM     51  C   UNL A   1      41.992  26.955  27.358  1.00  0.00     0.031 A 
ATOM     52  C   UNL A   1      44.256  30.338  32.787  1.00  0.00     0.049 A 
ATOM     53  C   UNL A   1      43.282  27.192  28.046  1.00  0.00     0.074 A 
ATOM     54  C   UNL A   1      44.358  31.687  32.509  1.00  0.00     0.029 A 
ATOM     55  N   UNL A   1      44.981  29.691  31.816  1.00  0.00    -0.354 N 
ATOM     56  N   UNL A   1      44.038  28.224  27.809  1.00  0.00    -0.248 NA
ATOM     57  C   UNL A   1      43.528  26.508  29.305  1.00  0.00     0.031 C 
ATOM     58  C   UNL A   1      44.716  31.749  31.134  1.00  0.00     0.029 A 
ATOM     59  C   UNL A   1      44.882  30.442  30.671  1.00  0.00     0.049 A 
ATOM     60  H   UNL A   1      45.477  28.847  31.921  1.00  0.00     0.167 HD
ATOM     61  C   UNL A   1      44.520  28.593  29.054  1.00  0.00     0.074 A 
ATOM     62  C   UNL A   1      44.249  27.448  29.922  1.00  0.00     0.031 C 
ATOM     63  C   UNL A   1      44.841  29.890  29.333  1.00  0.00     0.031 A 
BRANCH  50  64
ATOM     64  C   UNL A   1      43.856  28.583  34.629  1.00  0.00    -0.014 A 
ATOM     65  C   UNL A   1      44.361  29.004  35.876  1.00  0.00     0.010 A 
ATOM     66  C   UNL A   1      43.611  27.206  34.465  1.00  0.00     0.010 A 
ATOM     67  C   UNL A   1      44.655  28.100  36.895  1.00  0.00     0.020 A 
ATOM     68  C   UNL A   1      43.862  26.293  35.498  1.00  0.00     0.020 A 
ATOM     69  C   UNL A   1      44.395  26.747  36.703  1.00  0.00     0.054 A 
BRANCH  69  70
ATOM     70  S   UNL A   1      44.716  25.616  38.077  1.00  0.00     0.124 S 
ATOM     71  O   UNL A   1      46.164  25.733  38.228  1.00  0.00    -0.237 OA
ATOM     72  O   UNL A   1      43.920  26.198  39.153  1.00  0.00    -0.237 OA
ATOM     73  O   UNL A   1      44.244  24.327  37.578  1.00  0.00    -0.744 OA
ENDBRANCH  69  70
ENDBRANCH  50  64
BRANCH  51  74
ATOM     74  C   UNL A   1      41.681  25.624  26.762  1.00  0.00    -0.014 A 
ATOM     75  C   UNL A   1      40.367  25.124  26.824  1.00  0.00     0.010 A 
ATOM     76  C   UNL A   1      42.716  24.709  26.464  1.00  0.00     0.010 A 
ATOM     77  C   UNL A   1      40.105  23.753  26.706  1.00  0.00     0.020 A 
ATOM     78  C   UNL A   1      42.460  23.330  26.343  1.00  0.00     0.020 A 
ATOM     79  C   UNL A   1      41.159  22.859  26.514  1.00  0.00     0.054 A 
BRANCH  79  80
ATOM     80  S   UNL A   1      40.802  21.078  26.604  1.00  0.00     0.124 S 
ATOM     81  O   UNL A   1      40.853  20.833  28.043  1.00  0.00    -0.237 OA
ATOM     82  O   UNL A   1      39.474  20.988  26.001  1.00  0.00    -0.237 OA
ATOM     83  O   UNL A   1      41.877  20.466  25.829  1.00  0.00    -0.744 OA
ENDBRANCH  79  80
ENDBRANCH  51  74
BRANCH  63  84
ATOM     84  C   UNL A   1      44.896  30.895  28.199  1.00  0.00    -0.014 A 
ATOM     85  C   UNL A   1      46.162  31.192  27.663  1.00  0.00     0.010 A 
ATOM     86  C   UNL A   1      43.798  31.685  27.798  1.00  0.00     0.010 A 
ATOM     87  C   UNL A   1      46.342  32.269  26.795  1.00  0.00     0.020 A 
ATOM     88  C   UNL A   1      43.966  32.751  26.900  1.00  0.00     0.020 A 
ATOM     89  C   UNL A   1      45.246  33.052  26.428  1.00  0.00     0.054 A 
BRANCH  89  90
ATOM     90  S   UNL A   1      45.544  34.480  25.352  1.00  0.00     0.124 S 
ATOM     91  O   UNL A   1      44.757  34.142  24.168  1.00  0.00    -0.237 OA
ATOM     92  O   UNL A   1      45.030  35.594  26.146  1.00  0.00    -0.237 OA
ATOM     93  O   UNL A   1      46.992  34.478  25.156  1.00  0.00    -0.744 OA
ENDBRANCH  89  90
ENDBRANCH  63  84
ENDBRANCH  37  38
ENDBRANCH  30  32
ENDBRANCH  29  30
ENDBRANCH  28  29
ENDBRANCH  27  28
ENDBRANCH   1  27
TORSDOF 20
ENDMDL
MODEL 3
REMARK VINA RESULT:     -11.1      2.807      9.703
REMARK SMILES CCn1ccc2cc(S(=O)(=O)N3CCC[C@@H](C(=O)OCCOCCOC(=O)c4ccc(-c5c6nc(c(-c7ccc(S(=O)(=O)[O-])cc7)c7ccc([nH]7)c(-c7ccc(S(=O)(=O)[O-])cc7)c7nc(c(-c8ccc(S(=O)(=O)[O-])cc8)c8ccc5[nH]8)C=C7)C=C6)cc4)C3)ccc21
REMARK SMILES IDX 22 1 21 2 20 3 19 4 17 5 18 6 16 7 12 8 13 9 88 10 14 11
REMARK SMILES IDX 15 12 9 13 10 14 11 15 8 16 3 17 4 18 91 19 5 20 6 21 90 22
REMARK SMILES IDX 7 23 89 24 2 25 1 26 23 27 24 28 25 29 26 30 27 31 28 32
REMARK SMILES IDX 29 33 87 34 30 35 86 36 31 37 32 38 33 39 80 40 34 41 85 42
REMARK SMILES IDX 79 43 81 44 35 45 84 46 78 47 77 48 36 50 66 51 47 52 65 53
REMARK SMILES IDX 48 54 51 55 64 56 82 57 49 58 50 59 63 61 83 62 52 63 37 64
REMARK SMILES IDX 38 65 46 66 39 67 45 68 40 69 41 70 42 71 43 72 44 73 67 74
REMARK SMILES IDX 68 75 76 76 69 77 75 78 70 79 71 80 72 81 73 82 74 83 53 84
REMARK SMILES IDX 54 85 62 86 55 87 61 88 56 89 57 90 58 91 59 92 60 93
REMARK H PARENT 81 49 51 60
REMARK Flexibility Score: inf
ROOT
ATOM      1  O   UNL A   1      34.741  32.103  27.690  1.00  0.00    -0.374 OA
ENDROOT
BRANCH   1   2
ATOM      2  C   UNL A   1      34.623  30.693  27.533  1.00  0.00     0.202 C 
BRANCH   2   3
ATOM      3  C   UNL A   1      33.333  30.059  26.984  1.00  0.00     0.261 C 
BRANCH   3   4
ATOM      4  O   UNL A   1      32.957  28.813  27.591  1.00  0.00    -0.463 OA
BRANCH   4   5
ATOM      5  C   UNL A   1      31.968  28.190  26.902  1.00  0.00     0.310 C 
ATOM      6  O   UNL A   1      31.081  27.533  27.439  1.00  0.00    -0.252 OA
BRANCH   5   7
ATOM      7  C   UNL A   1      32.007  28.417  25.396  1.00  0.00     0.114 C 
ATOM      8  N   UNL A   1      31.601  26.928  23.380  1.00  0.00    -0.197 NA
ATOM      9  C   UNL A   1      30.720  27.931  22.754  1.00  0.00     0.102 C 
ATOM     10  C   UNL A   1      31.830  27.005  24.838  1.00  0.00     0.117 C 
ATOM     11  C   UNL A   1      30.996  29.333  23.288  1.00  0.00     0.018 C 
ATOM     12  C   UNL A   1      30.952  29.361  24.811  1.00  0.00     0.018 C 
BRANCH   8  13
ATOM     13  S   UNL A   1      31.516  25.331  22.771  1.00  0.00     0.243 S 
ATOM     14  O   UNL A   1      31.834  25.388  21.354  1.00  0.00    -0.207 OA
ATOM     15  O   UNL A   1      30.281  24.747  23.235  1.00  0.00    -0.207 OA
BRANCH  13  16
ATOM     16  C   UNL A   1      32.831  24.378  23.525  1.00  0.00     0.083 A 
ATOM     17  N   UNL A   1      35.517  22.142  25.751  1.00  0.00    -0.348 N 
ATOM     18  C   UNL A   1      34.684  21.510  26.641  1.00  0.00     0.087 A 
ATOM     19  C   UNL A   1      34.775  22.918  24.882  1.00  0.00     0.048 A 
ATOM     20  C   UNL A   1      33.391  21.877  26.349  1.00  0.00     0.028 A 
ATOM     21  C   UNL A   1      33.434  22.786  25.260  1.00  0.00     0.001 A 
ATOM     22  C   UNL A   1      35.156  23.723  23.801  1.00  0.00     0.028 A 
ATOM     23  C   UNL A   1      32.448  23.507  24.558  1.00  0.00     0.032 A 
ATOM     24  C   UNL A   1      34.169  24.468  23.148  1.00  0.00     0.024 A 
BRANCH  17  25
ATOM     25  C   UNL A   1      36.960  21.964  25.723  1.00  0.00     0.119 C 
ATOM     26  C   UNL A   1      37.437  20.850  24.801  1.00  0.00     0.027 C 
ENDBRANCH  17  25
ENDBRANCH  13  16
ENDBRANCH   8  13
ENDBRANCH   5   7
ENDBRANCH   4   5
ENDBRANCH   3   4
ENDBRANCH   2   3
ENDBRANCH   1   2
BRANCH   1  27
ATOM     27  C   UNL A   1      35.664  32.589  28.658  1.00  0.00     0.202 C 
BRANCH  27  28
ATOM     28  C   UNL A   1      35.156  33.114  30.016  1.00  0.00     0.261 C 
BRANCH  28  29
ATOM     29  O   UNL A   1      34.909  32.055  30.951  1.00  0.00    -0.460 OA
BRANCH  29  30
ATOM     30  C   UNL A   1      35.501  32.210  32.170  1.00  0.00     0.338 C 
ATOM     31  O   UNL A   1      35.011  32.709  33.167  1.00  0.00    -0.246 OA
BRANCH  30  32
ATOM     32  C   UNL A   1      36.667  31.301  32.167  1.00  0.00     0.060 A 
ATOM     33  C   UNL A   1      37.966  31.799  32.292  1.00  0.00     0.016 A 
ATOM     34  C   UNL A   1      36.437  30.002  31.679  1.00  0.00     0.016 A 
ATOM     35  C   UNL A   1      39.026  31.025  31.828  1.00  0.00     0.010 A 
ATOM     36  C   UNL A   1      37.498  29.255  31.170  1.00  0.00     0.010 A 
ATOM     37  C   UNL A   1      38.788  29.785  31.201  1.00  0.00    -0.014 A 
BRANCH  37  38
ATOM     38  C   UNL A   1      39.945  28.982  30.791  1.00  0.00     0.031 A 
ATOM     39  C   UNL A   1      40.845  28.677  31.936  1.00  0.00     0.074 A 
ATOM     40  C   UNL A   1      40.208  28.437  29.582  1.00  0.00     0.049 A 
ATOM     41  N   UNL A   1      42.060  29.078  32.099  1.00  0.00    -0.248 NA
ATOM     42  C   UNL A   1      40.274  27.978  33.098  1.00  0.00     0.031 C 
ATOM     43  C   UNL A   1      39.383  28.404  28.375  1.00  0.00     0.029 A 
ATOM     44  N   UNL A   1      41.299  27.695  29.216  1.00  0.00    -0.354 N 
ATOM     45  C   UNL A   1      42.471  28.576  33.327  1.00  0.00     0.074 A 
ATOM     46  C   UNL A   1      41.298  28.012  33.950  1.00  0.00     0.031 C 
ATOM     47  C   UNL A   1      39.892  27.494  27.505  1.00  0.00     0.029 A 
ATOM     48  C   UNL A   1      41.150  26.985  28.027  1.00  0.00     0.049 A 
ATOM     49  H   UNL A   1      42.125  27.667  29.751  1.00  0.00     0.167 HD
ATOM     50  C   UNL A   1      43.778  28.537  33.696  1.00  0.00     0.031 A 
ATOM     51  C   UNL A   1      41.987  26.032  27.531  1.00  0.00     0.031 A 
ATOM     52  C   UNL A   1      44.606  29.344  32.844  1.00  0.00     0.049 A 
ATOM     53  C   UNL A   1      43.320  26.266  28.132  1.00  0.00     0.074 A 
ATOM     54  C   UNL A   1      44.683  30.697  32.581  1.00  0.00     0.029 A 
ATOM     55  N   UNL A   1      45.265  28.716  31.814  1.00  0.00    -0.354 N 
ATOM     56  N   UNL A   1      44.054  27.306  27.859  1.00  0.00    -0.248 NA
ATOM     57  C   UNL A   1      43.656  25.564  29.360  1.00  0.00     0.031 C 
ATOM     58  C   UNL A   1      44.944  30.783  31.185  1.00  0.00     0.029 A 
ATOM     59  C   UNL A   1      45.084  29.484  30.691  1.00  0.00     0.049 A 
ATOM     60  H   UNL A   1      45.771  27.874  31.872  1.00  0.00     0.167 HD
ATOM     61  C   UNL A   1      44.619  27.658  29.074  1.00  0.00     0.074 A 
ATOM     62  C   UNL A   1      44.414  26.498  29.940  1.00  0.00     0.031 C 
ATOM     63  C   UNL A   1      44.952  28.953  29.351  1.00  0.00     0.031 A 
BRANCH  50  64
ATOM     64  C   UNL A   1      44.342  27.558  34.681  1.00  0.00    -0.014 A 
ATOM     65  C   UNL A   1      44.830  26.294  34.296  1.00  0.00     0.010 A 
ATOM     66  C   UNL A   1      44.603  27.975  36.001  1.00  0.00     0.010 A 
ATOM     67  C   UNL A   1      45.505  25.461  35.187  1.00  0.00     0.020 A 
ATOM     68  C   UNL A   1      45.318  27.164  36.893  1.00  0.00     0.020 A 
ATOM     69  C   UNL A   1      45.753  25.906  36.482  1.00  0.00     0.054 A 
BRANCH  69  70
ATOM     70  S   UNL A   1      46.698  24.828  37.584  1.00  0.00     0.124 S 
ATOM     71  O   UNL A   1      46.834  25.663  38.775  1.00  0.00    -0.237 OA
ATOM     72  O   UNL A   1      45.817  23.672  37.721  1.00  0.00    -0.237 OA
ATOM     73  O   UNL A   1      47.935  24.586  36.848  1.00  0.00    -0.744 OA
ENDBRANCH  69  70
ENDBRANCH  50  64
BRANCH  51  74
ATOM     74  C   UNL A   1      41.642  24.710  26.937  1.00  0.00    -0.014 A 
ATOM     75  C   UNL A   1      40.711  23.876  27.586  1.00  0.00     0.010 A 
ATOM     76  C   UNL A   1      42.471  24.122  25.955  1.00  0.00     0.010 A 
ATOM     77  C   UNL A   1      40.684  22.496  27.350  1.00  0.00     0.020 A 
ATOM     78  C   UNL A   1      42.449  22.736  25.712  1.00  0.00     0.020 A 
ATOM     79  C   UNL A   1      41.585  21.927  26.450  1.00  0.00     0.054 A 
BRANCH  79  80
ATOM     80  S   UNL A   1      41.674  20.113  26.352  1.00  0.00     0.124 S 
ATOM     81  O   UNL A   1      42.076  19.757  27.711  1.00  0.00    -0.237 OA
ATOM     82  O   UNL A   1      40.307  19.746  25.989  1.00  0.00    -0.237 OA
ATOM     83  O   UNL A   1      42.677  19.867  25.320  1.00  0.00    -0.744 OA
ENDBRANCH  79  80
ENDBRANCH  51  74
BRANCH  63  84
ATOM     84  C   UNL A   1      44.924  29.975  28.231  1.00  0.00    -0.014 A 
ATOM     85  C   UNL A   1      46.162  30.470  27.780  1.00  0.00     0.010 A 
ATOM     86  C   UNL A   1      43.747  30.598  27.769  1.00  0.00     0.010 A 
ATOM     87  C   UNL A   1      46.229  31.577  26.934  1.00  0.00     0.020 A 
ATOM     88  C   UNL A   1      43.806  31.694  26.893  1.00  0.00     0.020 A 
ATOM     89  C   UNL A   1      45.052  32.193  26.506  1.00  0.00     0.054 A 
BRANCH  89  90
ATOM     90  S   UNL A   1      45.196  33.669  25.464  1.00  0.00     0.124 S 
ATOM     91  O   UNL A   1      44.407  34.648  26.209  1.00  0.00    -0.237 OA
ATOM     92  O   UNL A   1      46.637  33.912  25.449  1.00  0.00    -0.237 OA
ATOM     93  O   UNL A   1      44.627  33.255  24.184  1.00  0.00    -0.744 OA
ENDBRANCH  89  90
ENDBRANCH  63  84
ENDBRANCH  37  38
ENDBRANCH  30  32
ENDBRANCH  29  30
ENDBRANCH  28  29
ENDBRANCH  27  28
ENDBRANCH   1  27
TORSDOF 20
ENDMDL
