MODEL 1
REMARK VINA RESULT:     -10.3      0.000      0.000
REMARK SMILES Cc1c(Br)c(C)c2c(c1Br)O[C@H](C(F)(F)F)C(C(=O)OCCOCCOC(=O)c1ccc(-c3c4nc(c(-c5ccc(S(=O)(=O)[O-])cc5)c5ccc([nH]5)c(-c5ccc(S(=O)(=O)[O-])cc5)c5nc(c(-c6ccc(S(=O)(=O)[O-])cc6)c6ccc3[nH]6)C=C5)C=C4)cc1)=C2
REMARK SMILES IDX 24 1 23 2 22 3 21 4 20 5 18 6 19 7 17 8 1 9 2 10 3 11 9 12
REMARK SMILES IDX 4 13 5 14 8 15 10 16 6 17 7 18 11 19 89 20 12 21 13 22 14 23
REMARK SMILES IDX 15 24 16 25 25 26 26 27 27 28 28 29 29 30 30 31 88 32 31 33
REMARK SMILES IDX 87 34 32 35 33 36 34 37 81 38 35 39 86 40 80 41 82 42 36 43
REMARK SMILES IDX 85 44 79 45 78 46 37 48 67 49 48 50 66 51 49 52 52 53 65 54
REMARK SMILES IDX 83 55 50 56 51 57 64 59 84 60 53 61 38 62 39 63 47 64 40 65
REMARK SMILES IDX 46 66 41 67 42 68 43 69 44 70 45 71 68 72 69 73 77 74 70 75
REMARK SMILES IDX 76 76 71 77 72 78 73 79 74 80 75 81 54 82 55 83 63 84 56 85
REMARK SMILES IDX 62 86 57 87 58 88 59 89 60 90 61 91
REMARK H PARENT 82 47 52 58
REMARK Flexibility Score: inf
ROOT
ATOM      1  C   UNL A   1      36.212  21.373  25.039  1.00  0.00     0.202 C 
ENDROOT
BRANCH   1   2
ATOM      2  O   UNL A   1      35.280  21.715  26.066  1.00  0.00    -0.374 OA
BRANCH   2   3
ATOM      3  C   UNL A   1      35.122  23.096  26.387  1.00  0.00     0.202 C 
BRANCH   3   4
ATOM      4  C   UNL A   1      33.688  23.613  26.537  1.00  0.00     0.261 C 
BRANCH   4   5
ATOM      5  O   UNL A   1      32.957  23.515  25.305  1.00  0.00    -0.460 OA
BRANCH   5   6
ATOM      6  C   UNL A   1      33.496  24.207  24.275  1.00  0.00     0.338 C 
ATOM      7  O   UNL A   1      34.212  23.767  23.389  1.00  0.00    -0.246 OA
BRANCH   6   8
ATOM      8  C   UNL A   1      32.977  25.588  24.273  1.00  0.00     0.087 C 
ATOM      9  C   UNL A   1      31.096  31.551  26.080  1.00  0.00     0.047 C 
ATOM     10  C   UNL A   1      31.840  30.276  25.753  1.00  0.00    -0.019 A 
ATOM     11  C   UNL A   1      33.071  29.955  26.373  1.00  0.00     0.025 A 
ATOM     12  C   UNL A   1      31.334  29.390  24.778  1.00  0.00     0.064 A 
ATOM     13  Br  UNL A   1      33.875  31.228  27.566  1.00  0.00    -0.050 Br
ATOM     14  C   UNL A   1      33.723  28.723  26.121  1.00  0.00    -0.026 A 
ATOM     15  C   UNL A   1      31.958  28.156  24.526  1.00  0.00     0.142 A 
ATOM     16  Br  UNL A   1      29.771  29.838  23.760  1.00  0.00    -0.046 Br
ATOM     17  C   UNL A   1      35.042  28.351  26.765  1.00  0.00     0.046 C 
ATOM     18  C   UNL A   1      33.115  27.802  25.230  1.00  0.00     0.022 A 
ATOM     19  O   UNL A   1      31.404  27.356  23.560  1.00  0.00    -0.474 OA
ATOM     20  C   UNL A   1      33.640  26.450  25.055  1.00  0.00     0.027 C 
ATOM     21  C   UNL A   1      31.776  25.956  23.463  1.00  0.00     0.316 C 
BRANCH  21  22
ATOM     22  C   UNL A   1      30.548  25.095  23.792  1.00  0.00     0.430 C 
ATOM     23  F   UNL A   1      30.588  23.914  23.132  1.00  0.00    -0.167 F 
ATOM     24  F   UNL A   1      30.479  24.807  25.112  1.00  0.00    -0.167 F 
ATOM     25  F   UNL A   1      29.395  25.716  23.450  1.00  0.00    -0.167 F 
ENDBRANCH  21  22
ENDBRANCH   6   8
ENDBRANCH   5   6
ENDBRANCH   4   5
ENDBRANCH   3   4
ENDBRANCH   2   3
ENDBRANCH   1   2
BRANCH   1  26
ATOM     26  C   UNL A   1      37.705  21.435  25.383  1.00  0.00     0.261 C 
BRANCH  26  27
ATOM     27  O   UNL A   1      38.170  22.787  25.555  1.00  0.00    -0.460 OA
BRANCH  27  28
ATOM     28  C   UNL A   1      39.357  22.899  26.202  1.00  0.00     0.338 C 
ATOM     29  O   UNL A   1      40.307  22.132  26.139  1.00  0.00    -0.246 OA
BRANCH  28  30
ATOM     30  C   UNL A   1      39.441  24.208  26.872  1.00  0.00     0.060 A 
ATOM     31  C   UNL A   1      40.210  25.205  26.257  1.00  0.00     0.016 A 
ATOM     32  C   UNL A   1      38.851  24.430  28.117  1.00  0.00     0.016 A 
ATOM     33  C   UNL A   1      40.425  26.417  26.907  1.00  0.00     0.010 A 
ATOM     34  C   UNL A   1      39.081  25.643  28.774  1.00  0.00     0.010 A 
ATOM     35  C   UNL A   1      39.896  26.628  28.187  1.00  0.00    -0.014 A 
BRANCH  35  36
ATOM     36  C   UNL A   1      40.321  27.818  28.961  1.00  0.00     0.031 A 
ATOM     37  C   UNL A   1      41.702  27.843  29.557  1.00  0.00     0.074 A 
ATOM     38  C   UNL A   1      39.509  28.882  29.086  1.00  0.00     0.049 A 
ATOM     39  N   UNL A   1      42.282  28.781  30.261  1.00  0.00    -0.248 NA
ATOM     40  C   UNL A   1      42.545  26.657  29.324  1.00  0.00     0.031 C 
ATOM     41  C   UNL A   1      38.173  28.999  28.504  1.00  0.00     0.029 A 
ATOM     42  N   UNL A   1      39.698  30.075  29.739  1.00  0.00    -0.354 N 
ATOM     43  C   UNL A   1      43.554  28.303  30.549  1.00  0.00     0.074 A 
ATOM     44  C   UNL A   1      43.652  26.979  29.976  1.00  0.00     0.031 C 
ATOM     45  C   UNL A   1      37.663  30.202  28.820  1.00  0.00     0.029 A 
ATOM     46  C   UNL A   1      38.622  30.927  29.652  1.00  0.00     0.049 A 
ATOM     47  H   UNL A   1      40.524  30.299  30.223  1.00  0.00     0.167 HD
ATOM     48  C   UNL A   1      44.557  28.918  31.221  1.00  0.00     0.031 A 
ATOM     49  C   UNL A   1      38.429  32.145  30.194  1.00  0.00     0.031 A 
ATOM     50  C   UNL A   1      44.452  30.228  31.805  1.00  0.00     0.049 A 
ATOM     51  C   UNL A   1      39.521  32.766  31.025  1.00  0.00     0.074 A 
ATOM     52  C   UNL A   1      45.412  30.934  32.509  1.00  0.00     0.029 A 
ATOM     53  N   UNL A   1      43.319  31.026  31.759  1.00  0.00    -0.354 N 
ATOM     54  N   UNL A   1      40.721  32.305  31.284  1.00  0.00    -0.248 NA
ATOM     55  C   UNL A   1      39.232  34.070  31.638  1.00  0.00     0.031 C 
ATOM     56  C   UNL A   1      44.840  32.137  32.936  1.00  0.00     0.029 A 
ATOM     57  C   UNL A   1      43.546  32.205  32.449  1.00  0.00     0.049 A 
ATOM     58  H   UNL A   1      42.479  30.789  31.305  1.00  0.00     0.167 HD
ATOM     59  C   UNL A   1      41.338  33.271  32.072  1.00  0.00     0.074 A 
ATOM     60  C   UNL A   1      40.383  34.347  32.238  1.00  0.00     0.031 C 
ATOM     61  C   UNL A   1      42.582  33.266  32.610  1.00  0.00     0.031 A 
BRANCH  48  62
ATOM     62  C   UNL A   1      45.852  28.168  31.379  1.00  0.00    -0.014 A 
ATOM     63  C   UNL A   1      46.041  27.268  32.443  1.00  0.00     0.010 A 
ATOM     64  C   UNL A   1      46.873  28.325  30.424  1.00  0.00     0.010 A 
ATOM     65  C   UNL A   1      47.240  26.561  32.566  1.00  0.00     0.020 A 
ATOM     66  C   UNL A   1      48.064  27.602  30.530  1.00  0.00     0.020 A 
ATOM     67  C   UNL A   1      48.245  26.733  31.608  1.00  0.00     0.054 A 
BRANCH  67  68
ATOM     68  S   UNL A   1      49.778  25.779  31.780  1.00  0.00     0.124 S 
ATOM     69  O   UNL A   1      50.750  26.824  32.091  1.00  0.00    -0.237 OA
ATOM     70  O   UNL A   1      49.465  24.866  32.875  1.00  0.00    -0.237 OA
ATOM     71  O   UNL A   1      49.942  25.147  30.473  1.00  0.00    -0.744 OA
ENDBRANCH  67  68
ENDBRANCH  48  62
BRANCH  49  72
ATOM     72  C   UNL A   1      37.143  32.860  29.968  1.00  0.00    -0.014 A 
ATOM     73  C   UNL A   1      36.038  32.624  30.805  1.00  0.00     0.010 A 
ATOM     74  C   UNL A   1      37.022  33.794  28.922  1.00  0.00     0.010 A 
ATOM     75  C   UNL A   1      34.835  33.306  30.597  1.00  0.00     0.020 A 
ATOM     76  C   UNL A   1      35.829  34.496  28.727  1.00  0.00     0.020 A 
ATOM     77  C   UNL A   1      34.740  34.243  29.563  1.00  0.00     0.054 A 
BRANCH  77  78
ATOM     78  S   UNL A   1      33.188  35.159  29.355  1.00  0.00     0.124 S 
ATOM     79  O   UNL A   1      33.645  36.393  28.724  1.00  0.00    -0.237 OA
ATOM     80  O   UNL A   1      32.409  34.264  28.505  1.00  0.00    -0.237 OA
ATOM     81  O   UNL A   1      32.689  35.302  30.721  1.00  0.00    -0.744 OA
ENDBRANCH  77  78
ENDBRANCH  49  72
BRANCH  61  82
ATOM     82  C   UNL A   1      43.002  34.464  33.420  1.00  0.00    -0.014 A 
ATOM     83  C   UNL A   1      42.846  34.481  34.817  1.00  0.00     0.010 A 
ATOM     84  C   UNL A   1      43.646  35.543  32.788  1.00  0.00     0.010 A 
ATOM     85  C   UNL A   1      43.316  35.565  35.566  1.00  0.00     0.020 A 
ATOM     86  C   UNL A   1      44.140  36.615  33.535  1.00  0.00     0.020 A 
ATOM     87  C   UNL A   1      43.966  36.621  34.919  1.00  0.00     0.054 A 
BRANCH  87  88
ATOM     88  S   UNL A   1      44.627  37.979  35.925  1.00  0.00     0.124 S 
ATOM     89  O   UNL A   1      44.265  39.151  35.133  1.00  0.00    -0.237 OA
ATOM     90  O   UNL A   1      43.905  37.825  37.185  1.00  0.00    -0.237 OA
ATOM     91  O   UNL A   1      46.058  37.694  35.996  1.00  0.00    -0.744 OA
ENDBRANCH  87  88
ENDBRANCH  61  82
ENDBRANCH  35  36
ENDBRANCH  28  30
ENDBRANCH  27  28
ENDBRANCH  26  27
ENDBRANCH   1  26
TORSDOF 18
ENDMDL
MODEL 2
REMARK VINA RESULT:     -10.2      3.009      3.690
REMARK SMILES Cc1c(Br)c(C)c2c(c1Br)O[C@H](C(F)(F)F)C(C(=O)OCCOCCOC(=O)c1ccc(-c3c4nc(c(-c5ccc(S(=O)(=O)[O-])cc5)c5ccc([nH]5)c(-c5ccc(S(=O)(=O)[O-])cc5)c5nc(c(-c6ccc(S(=O)(=O)[O-])cc6)c6ccc3[nH]6)C=C5)C=C4)cc1)=C2
REMARK SMILES IDX 24 1 23 2 22 3 21 4 20 5 18 6 19 7 17 8 1 9 2 10 3 11 9 12
REMARK SMILES IDX 4 13 5 14 8 15 10 16 6 17 7 18 11 19 89 20 12 21 13 22 14 23
REMARK SMILES IDX 15 24 16 25 25 26 26 27 27 28 28 29 29 30 30 31 88 32 31 33
REMARK SMILES IDX 87 34 32 35 33 36 34 37 81 38 35 39 86 40 80 41 82 42 36 43
REMARK SMILES IDX 85 44 79 45 78 46 37 48 67 49 48 50 66 51 49 52 52 53 65 54
REMARK SMILES IDX 83 55 50 56 51 57 64 59 84 60 53 61 38 62 39 63 47 64 40 65
REMARK SMILES IDX 46 66 41 67 42 68 43 69 44 70 45 71 68 72 69 73 77 74 70 75
REMARK SMILES IDX 76 76 71 77 72 78 73 79 74 80 75 81 54 82 55 83 63 84 56 85
REMARK SMILES IDX 62 86 57 87 58 88 59 89 60 90 61 91
REMARK H PARENT 82 47 52 58
REMARK Flexibility Score: inf
ROOT
ATOM      1  C   UNL A   1      37.673  23.838  25.676  1.00  0.00     0.202 C 
ENDROOT
BRANCH   1   2
ATOM      2  O   UNL A   1      37.090  22.538  25.579  1.00  0.00    -0.374 OA
BRANCH   2   3
ATOM      3  C   UNL A   1      35.709  22.401  25.908  1.00  0.00     0.202 C 
BRANCH   3   4
ATOM      4  C   UNL A   1      34.928  23.694  26.163  1.00  0.00     0.261 C 
BRANCH   4   5
ATOM      5  O   UNL A   1      33.832  23.842  25.247  1.00  0.00    -0.460 OA
BRANCH   5   6
ATOM      6  C   UNL A   1      34.129  24.531  24.122  1.00  0.00     0.338 C 
ATOM      7  O   UNL A   1      34.724  24.113  23.141  1.00  0.00    -0.246 OA
BRANCH   6   8
ATOM      8  C   UNL A   1      33.499  25.864  24.168  1.00  0.00     0.087 C 
ATOM      9  C   UNL A   1      31.080  31.557  26.192  1.00  0.00     0.047 C 
ATOM     10  C   UNL A   1      31.935  30.364  25.830  1.00  0.00    -0.019 A 
ATOM     11  C   UNL A   1      33.169  30.112  26.477  1.00  0.00     0.025 A 
ATOM     12  C   UNL A   1      31.534  29.490  24.797  1.00  0.00     0.064 A 
ATOM     13  Br  UNL A   1      33.828  31.384  27.757  1.00  0.00    -0.050 Br
ATOM     14  C   UNL A   1      33.927  28.952  26.188  1.00  0.00    -0.026 A 
ATOM     15  C   UNL A   1      32.265  28.325  24.509  1.00  0.00     0.142 A 
ATOM     16  Br  UNL A   1      29.972  29.861  23.748  1.00  0.00    -0.046 Br
ATOM     17  C   UNL A   1      35.252  28.655  26.860  1.00  0.00     0.046 C 
ATOM     18  C   UNL A   1      33.425  28.031  25.234  1.00  0.00     0.022 A 
ATOM     19  O   UNL A   1      31.808  27.532  23.486  1.00  0.00    -0.474 OA
ATOM     20  C   UNL A   1      34.064  26.735  25.013  1.00  0.00     0.027 C 
ATOM     21  C   UNL A   1      32.297  26.175  23.335  1.00  0.00     0.316 C 
BRANCH  21  22
ATOM     22  C   UNL A   1      31.135  25.201  23.580  1.00  0.00     0.430 C 
ATOM     23  F   UNL A   1      31.299  24.057  22.876  1.00  0.00    -0.167 F 
ATOM     24  F   UNL A   1      31.041  24.852  24.883  1.00  0.00    -0.167 F 
ATOM     25  F   UNL A   1      29.948  25.739  23.216  1.00  0.00    -0.167 F 
ENDBRANCH  21  22
ENDBRANCH   6   8
ENDBRANCH   5   6
ENDBRANCH   4   5
ENDBRANCH   3   4
ENDBRANCH   2   3
ENDBRANCH   1   2
BRANCH   1  26
ATOM     26  C   UNL A   1      38.493  24.158  26.932  1.00  0.00     0.261 C 
BRANCH  26  27
ATOM     27  O   UNL A   1      39.909  24.158  26.676  1.00  0.00    -0.460 OA
BRANCH  27  28
ATOM     28  C   UNL A   1      40.435  25.377  26.402  1.00  0.00     0.338 C 
ATOM     29  O   UNL A   1      40.654  25.856  25.298  1.00  0.00    -0.246 OA
BRANCH  28  30
ATOM     30  C   UNL A   1      40.544  26.166  27.641  1.00  0.00     0.060 A 
ATOM     31  C   UNL A   1      39.544  26.000  28.608  1.00  0.00     0.016 A 
ATOM     32  C   UNL A   1      41.556  27.111  27.818  1.00  0.00     0.016 A 
ATOM     33  C   UNL A   1      39.529  26.809  29.740  1.00  0.00     0.010 A 
ATOM     34  C   UNL A   1      41.530  27.934  28.950  1.00  0.00     0.010 A 
ATOM     35  C   UNL A   1      40.499  27.808  29.898  1.00  0.00    -0.014 A 
BRANCH  35  36
ATOM     36  C   UNL A   1      40.341  28.809  30.979  1.00  0.00     0.031 A 
ATOM     37  C   UNL A   1      41.254  28.743  32.173  1.00  0.00     0.074 A 
ATOM     38  C   UNL A   1      39.433  29.796  30.875  1.00  0.00     0.049 A 
ATOM     39  N   UNL A   1      41.299  29.518  33.225  1.00  0.00    -0.248 NA
ATOM     40  C   UNL A   1      42.257  27.662  32.178  1.00  0.00     0.031 C 
ATOM     41  C   UNL A   1      38.533  29.999  29.740  1.00  0.00     0.029 A 
ATOM     42  N   UNL A   1      39.127  30.820  31.736  1.00  0.00    -0.354 N 
ATOM     43  C   UNL A   1      42.331  29.026  34.013  1.00  0.00     0.074 A 
ATOM     44  C   UNL A   1      42.866  27.863  33.337  1.00  0.00     0.031 C 
ATOM     45  C   UNL A   1      37.779  31.088  29.973  1.00  0.00     0.029 A 
ATOM     46  C   UNL A   1      38.119  31.638  31.284  1.00  0.00     0.049 A 
ATOM     47  H   UNL A   1      39.585  30.955  32.596  1.00  0.00     0.167 HD
ATOM     48  C   UNL A   1      42.801  29.505  35.189  1.00  0.00     0.031 A 
ATOM     49  C   UNL A   1      37.531  32.701  31.867  1.00  0.00     0.031 A 
ATOM     50  C   UNL A   1      42.256  30.650  35.868  1.00  0.00     0.049 A 
ATOM     51  C   UNL A   1      38.001  33.153  33.224  1.00  0.00     0.074 A 
ATOM     52  C   UNL A   1      42.661  31.211  37.068  1.00  0.00     0.029 A 
ATOM     53  N   UNL A   1      41.187  31.405  35.413  1.00  0.00    -0.354 N 
ATOM     54  N   UNL A   1      38.983  32.681  33.955  1.00  0.00    -0.248 NA
ATOM     55  C   UNL A   1      37.284  34.281  33.836  1.00  0.00     0.031 C 
ATOM     56  C   UNL A   1      41.800  32.272  37.364  1.00  0.00     0.029 A 
ATOM     57  C   UNL A   1      40.898  32.409  36.322  1.00  0.00     0.049 A 
ATOM     58  H   UNL A   1      40.704  31.251  34.570  1.00  0.00     0.167 HD
ATOM     59  C   UNL A   1      39.015  33.467  35.102  1.00  0.00     0.074 A 
ATOM     60  C   UNL A   1      37.962  34.452  34.964  1.00  0.00     0.031 C 
ATOM     61  C   UNL A   1      39.842  33.379  36.173  1.00  0.00     0.031 A 
BRANCH  48  62
ATOM     62  C   UNL A   1      43.951  28.776  35.829  1.00  0.00    -0.014 A 
ATOM     63  C   UNL A   1      43.730  27.666  36.663  1.00  0.00     0.010 A 
ATOM     64  C   UNL A   1      45.273  29.174  35.553  1.00  0.00     0.010 A 
ATOM     65  C   UNL A   1      44.809  26.984  37.233  1.00  0.00     0.020 A 
ATOM     66  C   UNL A   1      46.354  28.481  36.102  1.00  0.00     0.020 A 
ATOM     67  C   UNL A   1      46.115  27.396  36.948  1.00  0.00     0.054 A 
BRANCH  67  68
ATOM     68  S   UNL A   1      47.494  26.474  37.681  1.00  0.00     0.124 S 
ATOM     69  O   UNL A   1      48.168  25.948  36.496  1.00  0.00    -0.237 OA
ATOM     70  O   UNL A   1      48.220  27.510  38.410  1.00  0.00    -0.237 OA
ATOM     71  O   UNL A   1      46.836  25.472  38.517  1.00  0.00    -0.744 OA
ENDBRANCH  67  68
ENDBRANCH  48  62
BRANCH  49  72
ATOM     72  C   UNL A   1      36.424  33.410  31.168  1.00  0.00    -0.014 A 
ATOM     73  C   UNL A   1      35.226  33.704  31.841  1.00  0.00     0.010 A 
ATOM     74  C   UNL A   1      36.571  33.809  29.826  1.00  0.00     0.010 A 
ATOM     75  C   UNL A   1      34.193  34.381  31.184  1.00  0.00     0.020 A 
ATOM     76  C   UNL A   1      35.551  34.508  29.174  1.00  0.00     0.020 A 
ATOM     77  C   UNL A   1      34.365  34.784  29.857  1.00  0.00     0.054 A 
BRANCH  77  78
ATOM     78  S   UNL A   1      33.034  35.716  29.049  1.00  0.00     0.124 S 
ATOM     79  O   UNL A   1      32.452  34.711  28.166  1.00  0.00    -0.237 OA
ATOM     80  O   UNL A   1      32.205  36.121  30.180  1.00  0.00    -0.237 OA
ATOM     81  O   UNL A   1      33.738  36.807  28.378  1.00  0.00    -0.744 OA
ENDBRANCH  77  78
ENDBRANCH  49  72
BRANCH  61  82
ATOM     82  C   UNL A   1      39.661  34.380  37.283  1.00  0.00    -0.014 A 
ATOM     83  C   UNL A   1      38.970  34.037  38.459  1.00  0.00     0.010 A 
ATOM     84  C   UNL A   1      40.270  35.645  37.189  1.00  0.00     0.010 A 
ATOM     85  C   UNL A   1      38.881  34.948  39.516  1.00  0.00     0.020 A 
ATOM     86  C   UNL A   1      40.205  36.548  38.254  1.00  0.00     0.020 A 
ATOM     87  C   UNL A   1      39.506  36.195  39.408  1.00  0.00     0.054 A 
BRANCH  87  88
ATOM     88  S   UNL A   1      39.433  37.328  40.823  1.00  0.00     0.124 S 
ATOM     89  O   UNL A   1      40.830  37.731  40.965  1.00  0.00    -0.237 OA
ATOM     90  O   UNL A   1      38.523  38.370  40.353  1.00  0.00    -0.237 OA
ATOM     91  O   UNL A   1      38.913  36.498  41.907  1.00  0.00    -0.744 OA
ENDBRANCH  87  88
ENDBRANCH  61  82
ENDBRANCH  35  36
ENDBRANCH  28  30
ENDBRANCH  27  28
ENDBRANCH  26  27
ENDBRANCH   1  26
TORSDOF 18
ENDMDL
MODEL 3
REMARK VINA RESULT:     -10.1      3.114      3.685
REMARK SMILES Cc1c(Br)c(C)c2c(c1Br)O[C@H](C(F)(F)F)C(C(=O)OCCOCCOC(=O)c1ccc(-c3c4nc(c(-c5ccc(S(=O)(=O)[O-])cc5)c5ccc([nH]5)c(-c5ccc(S(=O)(=O)[O-])cc5)c5nc(c(-c6ccc(S(=O)(=O)[O-])cc6)c6ccc3[nH]6)C=C5)C=C4)cc1)=C2
REMARK SMILES IDX 24 1 23 2 22 3 21 4 20 5 18 6 19 7 17 8 1 9 2 10 3 11 9 12
REMARK SMILES IDX 4 13 5 14 8 15 10 16 6 17 7 18 11 19 89 20 12 21 13 22 14 23
REMARK SMILES IDX 15 24 16 25 25 26 26 27 27 28 28 29 29 30 30 31 88 32 31 33
REMARK SMILES IDX 87 34 32 35 33 36 34 37 81 38 35 39 86 40 80 41 82 42 36 43
REMARK SMILES IDX 85 44 79 45 78 46 37 48 67 49 48 50 66 51 49 52 52 53 65 54
REMARK SMILES IDX 83 55 50 56 51 57 64 59 84 60 53 61 38 62 39 63 47 64 40 65
REMARK SMILES IDX 46 66 41 67 42 68 43 69 44 70 45 71 68 72 69 73 77 74 70 75
REMARK SMILES IDX 76 76 71 77 72 78 73 79 74 80 75 81 54 82 55 83 63 84 56 85
REMARK SMILES IDX 62 86 57 87 58 88 59 89 60 90 61 91
REMARK H PARENT 82 47 52 58
REMARK Flexibility Score: inf
ROOT
ATOM      1  C   UNL A   1      36.487  20.716  25.087  1.00  0.00     0.202 C 
ENDROOT
BRANCH   1   2
ATOM      2  O   UNL A   1      35.433  21.672  25.207  1.00  0.00    -0.374 OA
BRANCH   2   3
ATOM      3  C   UNL A   1      34.900  22.229  24.006  1.00  0.00     0.202 C 
BRANCH   3   4
ATOM      4  C   UNL A   1      34.766  23.753  23.950  1.00  0.00     0.261 C 
BRANCH   4   5
ATOM      5  O   UNL A   1      33.412  24.176  24.175  1.00  0.00    -0.460 OA
BRANCH   5   6
ATOM      6  C   UNL A   1      33.188  24.718  25.394  1.00  0.00     0.338 C 
ATOM      7  O   UNL A   1      33.396  24.197  26.479  1.00  0.00    -0.246 OA
BRANCH   6   8
ATOM      8  C   UNL A   1      32.774  26.126  25.248  1.00  0.00     0.087 C 
ATOM      9  C   UNL A   1      31.312  32.357  26.434  1.00  0.00     0.047 C 
ATOM     10  C   UNL A   1      31.963  31.005  26.248  1.00  0.00    -0.019 A 
ATOM     11  C   UNL A   1      33.155  30.656  26.927  1.00  0.00     0.025 A 
ATOM     12  C   UNL A   1      31.411  30.069  25.348  1.00  0.00     0.064 A 
ATOM     13  Br  UNL A   1      34.029  31.976  28.016  1.00  0.00    -0.050 Br
ATOM     14  C   UNL A   1      33.717  29.362  26.810  1.00  0.00    -0.026 A 
ATOM     15  C   UNL A   1      31.946  28.774  25.231  1.00  0.00     0.142 A 
ATOM     16  Br  UNL A   1      29.906  30.529  24.252  1.00  0.00    -0.046 Br
ATOM     17  C   UNL A   1      34.992  28.958  27.521  1.00  0.00     0.046 C 
ATOM     18  C   UNL A   1      33.059  28.406  25.994  1.00  0.00     0.022 A 
ATOM     19  O   UNL A   1      31.351  27.927  24.330  1.00  0.00    -0.474 OA
ATOM     20  C   UNL A   1      33.484  27.008  25.961  1.00  0.00     0.027 C 
ATOM     21  C   UNL A   1      31.619  26.501  24.375  1.00  0.00     0.316 C 
BRANCH  21  22
ATOM     22  C   UNL A   1      30.324  25.767  24.752  1.00  0.00     0.430 C 
ATOM     23  F   UNL A   1      30.248  24.564  24.137  1.00  0.00    -0.167 F 
ATOM     24  F   UNL A   1      30.251  25.535  26.083  1.00  0.00    -0.167 F 
ATOM     25  F   UNL A   1      29.227  26.477  24.402  1.00  0.00    -0.167 F 
ENDBRANCH  21  22
ENDBRANCH   6   8
ENDBRANCH   5   6
ENDBRANCH   4   5
ENDBRANCH   3   4
ENDBRANCH   2   3
ENDBRANCH   1   2
BRANCH   1  26
ATOM     26  C   UNL A   1      37.923  21.246  24.997  1.00  0.00     0.261 C 
BRANCH  26  27
ATOM     27  O   UNL A   1      38.226  22.185  26.046  1.00  0.00    -0.460 OA
BRANCH  27  28
ATOM     28  C   UNL A   1      39.514  22.167  26.467  1.00  0.00     0.338 C 
ATOM     29  O   UNL A   1      40.342  21.289  26.272  1.00  0.00    -0.246 OA
BRANCH  28  30
ATOM     30  C   UNL A   1      39.868  23.472  27.052  1.00  0.00     0.060 A 
ATOM     31  C   UNL A   1      39.259  24.613  26.514  1.00  0.00     0.016 A 
ATOM     32  C   UNL A   1      40.839  23.585  28.048  1.00  0.00     0.016 A 
ATOM     33  C   UNL A   1      39.649  25.878  26.943  1.00  0.00     0.010 A 
ATOM     34  C   UNL A   1      41.240  24.859  28.468  1.00  0.00     0.010 A 
ATOM     35  C   UNL A   1      40.671  26.010  27.894  1.00  0.00    -0.014 A 
BRANCH  35  36
ATOM     36  C   UNL A   1      41.237  27.351  28.171  1.00  0.00     0.031 A 
ATOM     37  C   UNL A   1      42.635  27.660  27.710  1.00  0.00     0.074 A 
ATOM     38  C   UNL A   1      40.497  28.297  28.776  1.00  0.00     0.049 A 
ATOM     39  N   UNL A   1      43.322  28.766  27.836  1.00  0.00    -0.248 NA
ATOM     40  C   UNL A   1      43.353  26.583  27.006  1.00  0.00     0.031 C 
ATOM     41  C   UNL A   1      39.111  28.135  29.214  1.00  0.00     0.029 A 
ATOM     42  N   UNL A   1      40.810  29.589  29.116  1.00  0.00    -0.354 N 
ATOM     43  C   UNL A   1      44.546  28.522  27.227  1.00  0.00     0.074 A 
ATOM     44  C   UNL A   1      44.524  27.152  26.761  1.00  0.00     0.031 C 
ATOM     45  C   UNL A   1      38.690  29.289  29.760  1.00  0.00     0.029 A 
ATOM     46  C   UNL A   1      39.783  30.258  29.740  1.00  0.00     0.049 A 
ATOM     47  H   UNL A   1      41.685  29.999  28.931  1.00  0.00     0.167 HD
ATOM     48  C   UNL A   1      45.592  29.365  27.059  1.00  0.00     0.031 A 
ATOM     49  C   UNL A   1      39.737  31.506  30.247  1.00  0.00     0.031 A 
ATOM     50  C   UNL A   1      45.619  30.721  27.539  1.00  0.00     0.049 A 
ATOM     51  C   UNL A   1      40.950  32.392  30.141  1.00  0.00     0.074 A 
ATOM     52  C   UNL A   1      46.635  31.654  27.422  1.00  0.00     0.029 A 
ATOM     53  N   UNL A   1      44.587  31.336  28.232  1.00  0.00    -0.354 N 
ATOM     54  N   UNL A   1      42.098  32.150  29.556  1.00  0.00    -0.248 NA
ATOM     55  C   UNL A   1      40.860  33.721  30.764  1.00  0.00     0.031 C 
ATOM     56  C   UNL A   1      46.238  32.815  28.092  1.00  0.00     0.029 A 
ATOM     57  C   UNL A   1      44.954  32.626  28.576  1.00  0.00     0.049 A 
ATOM     58  H   UNL A   1      43.724  30.917  28.449  1.00  0.00     0.167 HD
ATOM     59  C   UNL A   1      42.861  33.301  29.722  1.00  0.00     0.074 A 
ATOM     60  C   UNL A   1      42.039  34.245  30.451  1.00  0.00     0.031 C 
ATOM     61  C   UNL A   1      44.127  33.553  29.308  1.00  0.00     0.031 A 
BRANCH  48  62
ATOM     62  C   UNL A   1      46.805  28.838  26.343  1.00  0.00    -0.014 A 
ATOM     63  C   UNL A   1      48.061  28.808  26.974  1.00  0.00     0.010 A 
ATOM     64  C   UNL A   1      46.679  28.318  25.041  1.00  0.00     0.010 A 
ATOM     65  C   UNL A   1      49.176  28.294  26.305  1.00  0.00     0.020 A 
ATOM     66  C   UNL A   1      47.786  27.782  24.378  1.00  0.00     0.020 A 
ATOM     67  C   UNL A   1      49.031  27.784  25.011  1.00  0.00     0.054 A 
BRANCH  67  68
ATOM     68  S   UNL A   1      50.491  27.099  24.181  1.00  0.00     0.124 S 
ATOM     69  O   UNL A   1      50.644  25.811  24.855  1.00  0.00    -0.237 OA
ATOM     70  O   UNL A   1      50.063  27.031  22.787  1.00  0.00    -0.237 OA
ATOM     71  O   UNL A   1      51.541  28.075  24.462  1.00  0.00    -0.744 OA
ENDBRANCH  67  68
ENDBRANCH  48  62
BRANCH  49  72
ATOM     72  C   UNL A   1      38.494  31.990  30.908  1.00  0.00    -0.014 A 
ATOM     73  C   UNL A   1      38.294  31.794  32.286  1.00  0.00     0.010 A 
ATOM     74  C   UNL A   1      37.508  32.664  30.163  1.00  0.00     0.010 A 
ATOM     75  C   UNL A   1      37.130  32.261  32.905  1.00  0.00     0.020 A 
ATOM     76  C   UNL A   1      36.356  33.155  30.784  1.00  0.00     0.020 A 
ATOM     77  C   UNL A   1      36.172  32.944  32.151  1.00  0.00     0.054 A 
BRANCH  77  78
ATOM     78  S   UNL A   1      34.701  33.594  32.992  1.00  0.00     0.124 S 
ATOM     79  O   UNL A   1      33.653  32.704  32.504  1.00  0.00    -0.237 OA
ATOM     80  O   UNL A   1      35.055  33.443  34.401  1.00  0.00    -0.237 OA
ATOM     81  O   UNL A   1      34.620  34.975  32.522  1.00  0.00    -0.744 OA
ENDBRANCH  77  78
ENDBRANCH  49  72
BRANCH  61  82
ATOM     82  C   UNL A   1      44.710  34.907  29.615  1.00  0.00    -0.014 A 
ATOM     83  C   UNL A   1      45.485  35.114  30.769  1.00  0.00     0.010 A 
ATOM     84  C   UNL A   1      44.560  35.957  28.690  1.00  0.00     0.010 A 
ATOM     85  C   UNL A   1      46.089  36.354  30.999  1.00  0.00     0.020 A 
ATOM     86  C   UNL A   1      45.184  37.189  28.905  1.00  0.00     0.020 A 
ATOM     87  C   UNL A   1      45.940  37.381  30.061  1.00  0.00     0.054 A 
BRANCH  87  88
ATOM     88  S   UNL A   1      46.794  38.954  30.353  1.00  0.00     0.124 S 
ATOM     89  O   UNL A   1      45.740  39.768  30.952  1.00  0.00    -0.237 OA
ATOM     90  O   UNL A   1      47.878  38.568  31.252  1.00  0.00    -0.237 OA
ATOM     91  O   UNL A   1      47.219  39.372  29.019  1.00  0.00    -0.744 OA
ENDBRANCH  87  88
ENDBRANCH  61  82
ENDBRANCH  35  36
ENDBRANCH  28  30
ENDBRANCH  27  28
ENDBRANCH  26  27
ENDBRANCH   1  26
TORSDOF 18
ENDMDL
