MODEL 1
REMARK VINA RESULT:     -12.1      0.000      0.000
REMARK SMILES O=C(OCCOCCOC(=O)[C@@H]1c2ccccc2C(=O)N(C2CCCC2)C12CCCCC2)c1ccc(-c2c3nc(c(-c4ccc(S(=O)(=O)[O-])cc4)c4ccc([nH]4)c(-c4ccc(S(=O)(=O)[O-])cc4)c4nc(c(-c5ccc(S(=O)(=O)[O-])cc5)c5ccc2[nH]5)C=C4)C=C3)cc1
REMARK SMILES IDX 5 1 4 2 3 3 2 4 1 5 33 6 34 7 92 8 35 9 91 10 36 11 37 12
REMARK SMILES IDX 38 13 85 14 39 15 90 16 84 17 86 18 40 19 89 20 83 21 82 22
REMARK SMILES IDX 41 24 71 25 52 26 70 27 53 28 56 29 69 30 87 31 54 32 55 33
REMARK SMILES IDX 68 35 88 36 57 37 42 38 43 39 51 40 44 41 50 42 45 43 46 44
REMARK SMILES IDX 47 45 48 46 49 47 72 48 73 49 81 50 74 51 80 52 75 53 76 54
REMARK SMILES IDX 77 55 78 56 79 57 58 58 59 59 67 60 60 61 66 62 61 63 62 64
REMARK SMILES IDX 63 65 64 66 65 67 6 68 7 69 8 70 9 71 10 72 11 73 12 74
REMARK SMILES IDX 13 75 27 76 14 77 18 78 21 79 28 80 32 81 15 82 17 83 19 84
REMARK SMILES IDX 29 85 31 86 16 87 20 88 30 89 22 90 23 91 26 92 24 93 25 94
REMARK H PARENT 86 23 56 34
REMARK Flexibility Score: inf
ROOT
ATOM      1  C   UNL A   1      35.626  21.466  24.850  1.00  0.00     0.202 C 
ENDROOT
BRANCH   1   2
ATOM      2  C   UNL A   1      37.031  21.980  24.544  1.00  0.00     0.261 C 
BRANCH   2   3
ATOM      3  O   UNL A   1      37.458  23.007  25.448  1.00  0.00    -0.460 OA
BRANCH   3   4
ATOM      4  C   UNL A   1      38.616  23.089  26.146  1.00  0.00     0.338 C 
ATOM      5  O   UNL A   1      39.241  22.044  26.329  1.00  0.00    -0.246 OA
BRANCH   4   6
ATOM      6  C   UNL A   1      39.139  24.341  26.796  1.00  0.00     0.060 A 
ATOM      7  C   UNL A   1      40.011  25.134  26.025  1.00  0.00     0.016 A 
ATOM      8  C   UNL A   1      38.902  24.742  28.112  1.00  0.00     0.016 A 
ATOM      9  C   UNL A   1      40.667  26.237  26.579  1.00  0.00     0.010 A 
ATOM     10  C   UNL A   1      39.623  25.764  28.702  1.00  0.00     0.010 A 
ATOM     11  C   UNL A   1      40.488  26.529  27.931  1.00  0.00    -0.014 A 
BRANCH  11  12
ATOM     12  C   UNL A   1      40.954  27.770  28.553  1.00  0.00     0.031 A 
ATOM     13  C   UNL A   1      42.304  27.864  29.175  1.00  0.00     0.074 A 
ATOM     14  C   UNL A   1      40.005  28.704  28.736  1.00  0.00     0.049 A 
ATOM     15  N   UNL A   1      42.873  28.902  29.721  1.00  0.00    -0.248 NA
ATOM     16  C   UNL A   1      43.113  26.635  29.221  1.00  0.00     0.031 C 
ATOM     17  C   UNL A   1      38.606  28.561  28.305  1.00  0.00     0.029 A 
ATOM     18  N   UNL A   1      40.038  29.913  29.363  1.00  0.00    -0.354 N 
ATOM     19  C   UNL A   1      44.128  28.473  30.127  1.00  0.00     0.074 A 
ATOM     20  C   UNL A   1      44.208  27.058  29.843  1.00  0.00     0.031 C 
ATOM     21  C   UNL A   1      37.916  29.639  28.688  1.00  0.00     0.029 A 
ATOM     22  C   UNL A   1      38.828  30.561  29.349  1.00  0.00     0.049 A 
ATOM     23  H   UNL A   1      40.846  30.283  29.784  1.00  0.00     0.167 HD
ATOM     24  C   UNL A   1      45.118  29.229  30.657  1.00  0.00     0.031 A 
ATOM     25  C   UNL A   1      38.507  31.795  29.771  1.00  0.00     0.031 A 
ATOM     26  C   UNL A   1      44.931  30.624  30.975  1.00  0.00     0.049 A 
ATOM     27  C   UNL A   1      39.632  32.650  30.260  1.00  0.00     0.074 A 
ATOM     28  C   UNL A   1      45.851  31.541  31.444  1.00  0.00     0.029 A 
ATOM     29  N   UNL A   1      43.718  31.299  30.860  1.00  0.00    -0.354 N 
ATOM     30  N   UNL A   1      40.879  32.300  30.485  1.00  0.00    -0.248 NA
ATOM     31  C   UNL A   1      39.342  34.065  30.493  1.00  0.00     0.031 C 
ATOM     32  C   UNL A   1      45.184  32.751  31.664  1.00  0.00     0.029 A 
ATOM     33  C   UNL A   1      43.860  32.613  31.266  1.00  0.00     0.049 A 
ATOM     34  H   UNL A   1      42.879  30.898  30.536  1.00  0.00     0.167 HD
ATOM     35  C   UNL A   1      41.533  33.455  30.879  1.00  0.00     0.074 A 
ATOM     36  C   UNL A   1      40.542  34.519  30.835  1.00  0.00     0.031 C 
ATOM     37  C   UNL A   1      42.827  33.625  31.247  1.00  0.00     0.031 A 
BRANCH  24  38
ATOM     38  C   UNL A   1      46.477  28.601  30.862  1.00  0.00    -0.014 A 
ATOM     39  C   UNL A   1      47.411  28.532  29.812  1.00  0.00     0.010 A 
ATOM     40  C   UNL A   1      46.786  27.961  32.079  1.00  0.00     0.010 A 
ATOM     41  C   UNL A   1      48.607  27.817  29.962  1.00  0.00     0.020 A 
ATOM     42  C   UNL A   1      47.991  27.270  32.246  1.00  0.00     0.020 A 
ATOM     43  C   UNL A   1      48.884  27.181  31.176  1.00  0.00     0.054 A 
BRANCH  43  44
ATOM     44  S   UNL A   1      50.418  26.226  31.345  1.00  0.00     0.124 S 
ATOM     45  O   UNL A   1      51.425  27.277  31.460  1.00  0.00    -0.237 OA
ATOM     46  O   UNL A   1      50.177  25.445  32.555  1.00  0.00    -0.237 OA
ATOM     47  O   UNL A   1      50.472  25.442  30.111  1.00  0.00    -0.744 OA
ENDBRANCH  43  44
ENDBRANCH  24  38
BRANCH  25  48
ATOM     48  C   UNL A   1      37.123  32.274  29.515  1.00  0.00    -0.014 A 
ATOM     49  C   UNL A   1      36.782  32.829  28.265  1.00  0.00     0.010 A 
ATOM     50  C   UNL A   1      36.236  32.422  30.594  1.00  0.00     0.010 A 
ATOM     51  C   UNL A   1      35.615  33.588  28.124  1.00  0.00     0.020 A 
ATOM     52  C   UNL A   1      35.059  33.163  30.452  1.00  0.00     0.020 A 
ATOM     53  C   UNL A   1      34.777  33.775  29.228  1.00  0.00     0.054 A 
BRANCH  53  54
ATOM     54  S   UNL A   1      33.349  34.882  29.065  1.00  0.00     0.124 S 
ATOM     55  O   UNL A   1      32.840  34.919  30.434  1.00  0.00    -0.237 OA
ATOM     56  O   UNL A   1      33.957  36.121  28.585  1.00  0.00    -0.237 OA
ATOM     57  O   UNL A   1      32.493  34.197  28.099  1.00  0.00    -0.744 OA
ENDBRANCH  53  54
ENDBRANCH  25  48
BRANCH  37  58
ATOM     58  C   UNL A   1      43.224  35.002  31.692  1.00  0.00    -0.014 A 
ATOM     59  C   UNL A   1      43.000  35.403  33.021  1.00  0.00     0.010 A 
ATOM     60  C   UNL A   1      43.727  35.928  30.762  1.00  0.00     0.010 A 
ATOM     61  C   UNL A   1      43.252  36.719  33.408  1.00  0.00     0.020 A 
ATOM     62  C   UNL A   1      44.008  37.236  31.153  1.00  0.00     0.020 A 
ATOM     63  C   UNL A   1      43.748  37.628  32.469  1.00  0.00     0.054 A 
BRANCH  63  64
ATOM     64  S   UNL A   1      44.062  39.336  32.985  1.00  0.00     0.124 S 
ATOM     65  O   UNL A   1      43.511  40.099  31.869  1.00  0.00    -0.237 OA
ATOM     66  O   UNL A   1      43.322  39.433  34.242  1.00  0.00    -0.237 OA
ATOM     67  O   UNL A   1      45.516  39.388  33.124  1.00  0.00    -0.744 OA
ENDBRANCH  63  64
ENDBRANCH  37  58
ENDBRANCH  11  12
ENDBRANCH   4   6
ENDBRANCH   3   4
ENDBRANCH   2   3
ENDBRANCH   1   2
BRANCH   1  68
ATOM     68  O   UNL A   1      35.319  21.267  26.222  1.00  0.00    -0.374 OA
BRANCH  68  69
ATOM     69  C   UNL A   1      34.012  21.678  26.623  1.00  0.00     0.202 C 
BRANCH  69  70
ATOM     70  C   UNL A   1      34.028  23.121  27.109  1.00  0.00     0.261 C 
BRANCH  70  71
ATOM     71  O   UNL A   1      33.382  24.006  26.180  1.00  0.00    -0.463 OA
BRANCH  71  72
ATOM     72  C   UNL A   1      32.077  24.321  26.390  1.00  0.00     0.315 C 
ATOM     73  O   UNL A   1      31.414  24.027  27.383  1.00  0.00    -0.251 OA
BRANCH  72  74
ATOM     74  C   UNL A   1      31.450  24.872  25.126  1.00  0.00     0.156 C 
ATOM     75  C   UNL A   1      31.772  23.887  24.008  1.00  0.00    -0.019 A 
ATOM     76  C   UNL A   1      31.782  26.388  24.803  1.00  0.00     0.061 C 
ATOM     77  C   UNL A   1      31.714  22.496  24.241  1.00  0.00     0.005 A 
ATOM     78  C   UNL A   1      32.191  24.343  22.761  1.00  0.00     0.044 A 
ATOM     79  N   UNL A   1      31.345  26.580  23.343  1.00  0.00    -0.329 N 
ATOM     80  C   UNL A   1      33.305  26.769  24.805  1.00  0.00     0.030 C 
ATOM     81  C   UNL A   1      30.996  27.307  25.803  1.00  0.00     0.030 C 
ATOM     82  C   UNL A   1      32.227  21.596  23.311  1.00  0.00     0.000 A 
ATOM     83  C   UNL A   1      32.728  23.439  21.835  1.00  0.00     0.014 A 
ATOM     84  C   UNL A   1      31.916  25.746  22.364  1.00  0.00     0.254 C 
ATOM     85  C   UNL A   1      33.944  27.254  26.100  1.00  0.00     0.002 C 
ATOM     86  C   UNL A   1      31.682  27.842  27.051  1.00  0.00     0.002 C 
ATOM     87  C   UNL A   1      32.775  22.074  22.125  1.00  0.00     0.001 A 
ATOM     88  O   UNL A   1      32.088  26.086  21.194  1.00  0.00    -0.269 OA
ATOM     89  C   UNL A   1      33.114  28.288  26.834  1.00  0.00     0.000 C 
BRANCH  79  90
ATOM     90  C   UNL A   1      30.498  27.673  22.842  1.00  0.00     0.086 C 
ATOM     91  C   UNL A   1      29.016  27.553  23.208  1.00  0.00     0.025 C 
ATOM     92  C   UNL A   1      30.951  29.095  23.178  1.00  0.00     0.025 C 
ATOM     93  C   UNL A   1      28.495  28.978  23.160  1.00  0.00     0.002 C 
ATOM     94  C   UNL A   1      29.679  29.883  23.482  1.00  0.00     0.002 C 
ENDBRANCH  79  90
ENDBRANCH  72  74
ENDBRANCH  71  72
ENDBRANCH  70  71
ENDBRANCH  69  70
ENDBRANCH  68  69
ENDBRANCH   1  68
TORSDOF 18
ENDMDL
MODEL 2
REMARK VINA RESULT:     -11.8      1.149      2.628
REMARK SMILES O=C(OCCOCCOC(=O)[C@@H]1c2ccccc2C(=O)N(C2CCCC2)C12CCCCC2)c1ccc(-c2c3nc(c(-c4ccc(S(=O)(=O)[O-])cc4)c4ccc([nH]4)c(-c4ccc(S(=O)(=O)[O-])cc4)c4nc(c(-c5ccc(S(=O)(=O)[O-])cc5)c5ccc2[nH]5)C=C4)C=C3)cc1
REMARK SMILES IDX 5 1 4 2 3 3 2 4 1 5 33 6 34 7 92 8 35 9 91 10 36 11 37 12
REMARK SMILES IDX 38 13 85 14 39 15 90 16 84 17 86 18 40 19 89 20 83 21 82 22
REMARK SMILES IDX 41 24 71 25 52 26 70 27 53 28 56 29 69 30 87 31 54 32 55 33
REMARK SMILES IDX 68 35 88 36 57 37 42 38 43 39 51 40 44 41 50 42 45 43 46 44
REMARK SMILES IDX 47 45 48 46 49 47 72 48 73 49 81 50 74 51 80 52 75 53 76 54
REMARK SMILES IDX 77 55 78 56 79 57 58 58 59 59 67 60 60 61 66 62 61 63 62 64
REMARK SMILES IDX 63 65 64 66 65 67 6 68 7 69 8 70 9 71 10 72 11 73 12 74
REMARK SMILES IDX 13 75 27 76 14 77 18 78 21 79 28 80 32 81 15 82 17 83 19 84
REMARK SMILES IDX 29 85 31 86 16 87 20 88 30 89 22 90 23 91 26 92 24 93 25 94
REMARK H PARENT 86 23 56 34
REMARK Flexibility Score: inf
ROOT
ATOM      1  C   UNL A   1      36.066  21.073  25.205  1.00  0.00     0.202 C 
ENDROOT
BRANCH   1   2
ATOM      2  C   UNL A   1      37.512  21.437  24.872  1.00  0.00     0.261 C 
BRANCH   2   3
ATOM      3  O   UNL A   1      37.975  22.591  25.585  1.00  0.00    -0.460 OA
BRANCH   3   4
ATOM      4  C   UNL A   1      39.145  22.761  26.247  1.00  0.00     0.338 C 
ATOM      5  O   UNL A   1      39.812  21.754  26.482  1.00  0.00    -0.246 OA
BRANCH   4   6
ATOM      6  C   UNL A   1      39.634  24.071  26.801  1.00  0.00     0.060 A 
ATOM      7  C   UNL A   1      39.287  24.359  28.136  1.00  0.00     0.016 A 
ATOM      8  C   UNL A   1      40.327  25.054  26.092  1.00  0.00     0.016 A 
ATOM      9  C   UNL A   1      39.564  25.606  28.703  1.00  0.00     0.010 A 
ATOM     10  C   UNL A   1      40.513  26.325  26.604  1.00  0.00     0.010 A 
ATOM     11  C   UNL A   1      40.154  26.597  27.918  1.00  0.00    -0.014 A 
BRANCH  11  12
ATOM     12  C   UNL A   1      40.674  27.851  28.465  1.00  0.00     0.031 A 
ATOM     13  C   UNL A   1      42.061  27.946  28.998  1.00  0.00     0.074 A 
ATOM     14  C   UNL A   1      39.750  28.805  28.673  1.00  0.00     0.049 A 
ATOM     15  N   UNL A   1      42.676  28.995  29.470  1.00  0.00    -0.248 NA
ATOM     16  C   UNL A   1      42.856  26.708  29.038  1.00  0.00     0.031 C 
ATOM     17  C   UNL A   1      38.325  28.668  28.335  1.00  0.00     0.029 A 
ATOM     18  N   UNL A   1      39.837  30.035  29.254  1.00  0.00    -0.354 N 
ATOM     19  C   UNL A   1      43.949  28.562  29.813  1.00  0.00     0.074 A 
ATOM     20  C   UNL A   1      43.992  27.136  29.575  1.00  0.00     0.031 C 
ATOM     21  C   UNL A   1      37.674  29.770  28.722  1.00  0.00     0.029 A 
ATOM     22  C   UNL A   1      38.638  30.700  29.291  1.00  0.00     0.049 A 
ATOM     23  H   UNL A   1      40.675  30.408  29.610  1.00  0.00     0.167 HD
ATOM     24  C   UNL A   1      44.980  29.320  30.253  1.00  0.00     0.031 A 
ATOM     25  C   UNL A   1      38.359  31.953  29.688  1.00  0.00     0.031 A 
ATOM     26  C   UNL A   1      44.830  30.729  30.532  1.00  0.00     0.049 A 
ATOM     27  C   UNL A   1      39.524  32.808  30.076  1.00  0.00     0.074 A 
ATOM     28  C   UNL A   1      45.790  31.648  30.910  1.00  0.00     0.029 A 
ATOM     29  N   UNL A   1      43.621  31.417  30.468  1.00  0.00    -0.354 N 
ATOM     30  N   UNL A   1      40.777  32.447  30.235  1.00  0.00    -0.248 NA
ATOM     31  C   UNL A   1      39.267  34.233  30.275  1.00  0.00     0.031 C 
ATOM     32  C   UNL A   1      45.153  32.874  31.127  1.00  0.00     0.029 A 
ATOM     33  C   UNL A   1      43.806  32.742  30.817  1.00  0.00     0.049 A 
ATOM     34  H   UNL A   1      42.759  31.018  30.211  1.00  0.00     0.167 HD
ATOM     35  C   UNL A   1      41.470  33.605  30.546  1.00  0.00     0.074 A 
ATOM     36  C   UNL A   1      40.492  34.682  30.525  1.00  0.00     0.031 C 
ATOM     37  C   UNL A   1      42.786  33.768  30.826  1.00  0.00     0.031 A 
BRANCH  24  38
ATOM     38  C   UNL A   1      46.341  28.680  30.395  1.00  0.00    -0.014 A 
ATOM     39  C   UNL A   1      47.208  28.565  29.294  1.00  0.00     0.010 A 
ATOM     40  C   UNL A   1      46.716  28.075  31.612  1.00  0.00     0.010 A 
ATOM     41  C   UNL A   1      48.402  27.837  29.394  1.00  0.00     0.020 A 
ATOM     42  C   UNL A   1      47.919  27.372  31.727  1.00  0.00     0.020 A 
ATOM     43  C   UNL A   1      48.744  27.236  30.609  1.00  0.00     0.054 A 
BRANCH  43  44
ATOM     44  S   UNL A   1      50.274  26.265  30.715  1.00  0.00     0.124 S 
ATOM     45  O   UNL A   1      51.178  27.186  31.396  1.00  0.00    -0.237 OA
ATOM     46  O   UNL A   1      49.858  25.097  31.489  1.00  0.00    -0.237 OA
ATOM     47  O   UNL A   1      50.602  25.987  29.317  1.00  0.00    -0.744 OA
ENDBRANCH  43  44
ENDBRANCH  24  38
BRANCH  25  48
ATOM     48  C   UNL A   1      36.969  32.443  29.502  1.00  0.00    -0.014 A 
ATOM     49  C   UNL A   1      36.559  32.967  28.259  1.00  0.00     0.010 A 
ATOM     50  C   UNL A   1      36.149  32.633  30.627  1.00  0.00     0.010 A 
ATOM     51  C   UNL A   1      35.395  33.738  28.166  1.00  0.00     0.020 A 
ATOM     52  C   UNL A   1      34.975  33.386  30.534  1.00  0.00     0.020 A 
ATOM     53  C   UNL A   1      34.627  33.967  29.312  1.00  0.00     0.054 A 
BRANCH  53  54
ATOM     54  S   UNL A   1      33.205  35.089  29.203  1.00  0.00     0.124 S 
ATOM     55  O   UNL A   1      32.695  35.060  30.571  1.00  0.00    -0.237 OA
ATOM     56  O   UNL A   1      33.820  36.347  28.787  1.00  0.00    -0.237 OA
ATOM     57  O   UNL A   1      32.347  34.457  28.203  1.00  0.00    -0.744 OA
ENDBRANCH  53  54
ENDBRANCH  25  48
BRANCH  37  58
ATOM     58  C   UNL A   1      43.228  35.154  31.196  1.00  0.00    -0.014 A 
ATOM     59  C   UNL A   1      43.127  35.592  32.528  1.00  0.00     0.010 A 
ATOM     60  C   UNL A   1      43.649  36.052  30.199  1.00  0.00     0.010 A 
ATOM     61  C   UNL A   1      43.418  36.916  32.855  1.00  0.00     0.020 A 
ATOM     62  C   UNL A   1      43.970  37.367  30.528  1.00  0.00     0.020 A 
ATOM     63  C   UNL A   1      43.831  37.796  31.851  1.00  0.00     0.054 A 
BRANCH  63  64
ATOM     64  S   UNL A   1      44.198  39.515  32.290  1.00  0.00     0.124 S 
ATOM     65  O   UNL A   1      43.032  39.882  33.088  1.00  0.00    -0.237 OA
ATOM     66  O   UNL A   1      45.455  39.398  33.026  1.00  0.00    -0.237 OA
ATOM     67  O   UNL A   1      44.305  40.183  30.994  1.00  0.00    -0.744 OA
ENDBRANCH  63  64
ENDBRANCH  37  58
ENDBRANCH  11  12
ENDBRANCH   4   6
ENDBRANCH   3   4
ENDBRANCH   2   3
ENDBRANCH   1   2
BRANCH   1  68
ATOM     68  O   UNL A   1      35.257  22.126  25.709  1.00  0.00    -0.374 OA
BRANCH  68  69
ATOM     69  C   UNL A   1      34.692  22.990  24.724  1.00  0.00     0.202 C 
BRANCH  69  70
ATOM     70  C   UNL A   1      35.276  24.391  24.838  1.00  0.00     0.261 C 
BRANCH  70  71
ATOM     71  O   UNL A   1      34.371  25.390  24.344  1.00  0.00    -0.463 OA
BRANCH  71  72
ATOM     72  C   UNL A   1      33.713  26.167  25.245  1.00  0.00     0.315 C 
ATOM     73  O   UNL A   1      33.516  25.892  26.427  1.00  0.00    -0.251 OA
BRANCH  72  74
ATOM     74  C   UNL A   1      33.020  27.321  24.550  1.00  0.00     0.156 C 
ATOM     75  C   UNL A   1      33.267  28.560  25.402  1.00  0.00    -0.019 A 
ATOM     76  C   UNL A   1      31.506  27.069  24.153  1.00  0.00     0.061 C 
ATOM     77  C   UNL A   1      34.532  28.786  25.988  1.00  0.00     0.005 A 
ATOM     78  C   UNL A   1      32.235  29.455  25.668  1.00  0.00     0.044 A 
ATOM     79  N   UNL A   1      30.956  28.462  23.814  1.00  0.00    -0.329 N 
ATOM     80  C   UNL A   1      30.574  26.555  25.306  1.00  0.00     0.030 C 
ATOM     81  C   UNL A   1      31.456  26.078  22.937  1.00  0.00     0.030 C 
ATOM     82  C   UNL A   1      34.705  29.778  26.949  1.00  0.00     0.000 A 
ATOM     83  C   UNL A   1      32.403  30.440  26.651  1.00  0.00     0.014 A 
ATOM     84  C   UNL A   1      31.032  29.465  24.799  1.00  0.00     0.254 C 
ATOM     85  C   UNL A   1      30.418  25.054  25.517  1.00  0.00     0.002 C 
ATOM     86  C   UNL A   1      31.221  24.594  23.170  1.00  0.00     0.002 C 
ATOM     87  C   UNL A   1      33.625  30.577  27.312  1.00  0.00     0.001 A 
ATOM     88  O   UNL A   1      30.224  30.389  24.896  1.00  0.00    -0.269 OA
ATOM     89  C   UNL A   1      30.187  24.284  24.234  1.00  0.00     0.000 C 
BRANCH  79  90
ATOM     90  C   UNL A   1      30.200  28.810  22.600  1.00  0.00     0.086 C 
ATOM     91  C   UNL A   1      28.678  28.797  22.769  1.00  0.00     0.025 C 
ATOM     92  C   UNL A   1      30.584  30.120  21.910  1.00  0.00     0.025 C 
ATOM     93  C   UNL A   1      28.167  29.731  21.687  1.00  0.00     0.002 C 
ATOM     94  C   UNL A   1      29.276  30.746  21.432  1.00  0.00     0.002 C 
ENDBRANCH  79  90
ENDBRANCH  72  74
ENDBRANCH  71  72
ENDBRANCH  70  71
ENDBRANCH  69  70
ENDBRANCH  68  69
ENDBRANCH   1  68
TORSDOF 18
ENDMDL
MODEL 3
REMARK VINA RESULT:     -11.1      1.822      2.272
REMARK SMILES O=C(OCCOCCOC(=O)[C@@H]1c2ccccc2C(=O)N(C2CCCC2)C12CCCCC2)c1ccc(-c2c3nc(c(-c4ccc(S(=O)(=O)[O-])cc4)c4ccc([nH]4)c(-c4ccc(S(=O)(=O)[O-])cc4)c4nc(c(-c5ccc(S(=O)(=O)[O-])cc5)c5ccc2[nH]5)C=C4)C=C3)cc1
REMARK SMILES IDX 5 1 4 2 3 3 2 4 1 5 33 6 34 7 92 8 35 9 91 10 36 11 37 12
REMARK SMILES IDX 38 13 85 14 39 15 90 16 84 17 86 18 40 19 89 20 83 21 82 22
REMARK SMILES IDX 41 24 71 25 52 26 70 27 53 28 56 29 69 30 87 31 54 32 55 33
REMARK SMILES IDX 68 35 88 36 57 37 42 38 43 39 51 40 44 41 50 42 45 43 46 44
REMARK SMILES IDX 47 45 48 46 49 47 72 48 73 49 81 50 74 51 80 52 75 53 76 54
REMARK SMILES IDX 77 55 78 56 79 57 58 58 59 59 67 60 60 61 66 62 61 63 62 64
REMARK SMILES IDX 63 65 64 66 65 67 6 68 7 69 8 70 9 71 10 72 11 73 12 74
REMARK SMILES IDX 13 75 27 76 14 77 18 78 21 79 28 80 32 81 15 82 17 83 19 84
REMARK SMILES IDX 29 85 31 86 16 87 20 88 30 89 22 90 23 91 26 92 24 93 25 94
REMARK H PARENT 86 23 56 34
REMARK Flexibility Score: inf
ROOT
ATOM      1  C   UNL A   1      36.528  21.022  25.201  1.00  0.00     0.202 C 
ENDROOT
BRANCH   1   2
ATOM      2  C   UNL A   1      37.731  21.958  25.111  1.00  0.00     0.261 C 
BRANCH   2   3
ATOM      3  O   UNL A   1      38.553  21.925  26.285  1.00  0.00    -0.460 OA
BRANCH   3   4
ATOM      4  C   UNL A   1      39.875  22.199  26.398  1.00  0.00     0.338 C 
ATOM      5  O   UNL A   1      40.660  21.259  26.262  1.00  0.00    -0.246 OA
BRANCH   4   6
ATOM      6  C   UNL A   1      40.445  23.538  26.775  1.00  0.00     0.060 A 
ATOM      7  C   UNL A   1      40.857  23.693  28.113  1.00  0.00     0.016 A 
ATOM      8  C   UNL A   1      40.527  24.658  25.944  1.00  0.00     0.016 A 
ATOM      9  C   UNL A   1      41.264  24.937  28.606  1.00  0.00     0.010 A 
ATOM     10  C   UNL A   1      40.825  25.913  26.443  1.00  0.00     0.010 A 
ATOM     11  C   UNL A   1      41.218  26.051  27.768  1.00  0.00    -0.014 A 
BRANCH  11  12
ATOM     12  C   UNL A   1      41.815  27.342  28.115  1.00  0.00     0.031 A 
ATOM     13  C   UNL A   1      43.292  27.534  28.122  1.00  0.00     0.074 A 
ATOM     14  C   UNL A   1      40.965  28.233  28.653  1.00  0.00     0.049 A 
ATOM     15  N   UNL A   1      43.964  28.625  28.362  1.00  0.00    -0.248 NA
ATOM     16  C   UNL A   1      44.128  26.352  27.857  1.00  0.00     0.031 C 
ATOM     17  C   UNL A   1      39.526  27.998  28.840  1.00  0.00     0.029 A 
ATOM     18  N   UNL A   1      41.172  29.471  29.184  1.00  0.00    -0.354 N 
ATOM     19  C   UNL A   1      45.301  28.281  28.224  1.00  0.00     0.074 A 
ATOM     20  C   UNL A   1      45.351  26.860  27.963  1.00  0.00     0.031 C 
ATOM     21  C   UNL A   1      38.983  29.057  29.451  1.00  0.00     0.029 A 
ATOM     22  C   UNL A   1      40.023  30.054  29.656  1.00  0.00     0.049 A 
ATOM     23  H   UNL A   1      42.056  29.902  29.226  1.00  0.00     0.167 HD
ATOM     24  C   UNL A   1      46.369  29.110  28.282  1.00  0.00     0.031 A 
ATOM     25  C   UNL A   1      39.822  31.289  30.146  1.00  0.00     0.031 A 
ATOM     26  C   UNL A   1      46.237  30.508  28.618  1.00  0.00     0.049 A 
ATOM     27  C   UNL A   1      40.990  32.223  30.109  1.00  0.00     0.074 A 
ATOM     28  C   UNL A   1      47.205  31.492  28.645  1.00  0.00     0.029 A 
ATOM     29  N   UNL A   1      45.042  31.113  28.999  1.00  0.00    -0.354 N 
ATOM     30  N   UNL A   1      42.240  31.948  29.807  1.00  0.00    -0.248 NA
ATOM     31  C   UNL A   1      40.728  33.630  30.409  1.00  0.00     0.031 C 
ATOM     32  C   UNL A   1      46.609  32.674  29.094  1.00  0.00     0.029 A 
ATOM     33  C   UNL A   1      45.251  32.450  29.281  1.00  0.00     0.049 A 
ATOM     34  H   UNL A   1      44.172  30.655  29.058  1.00  0.00     0.167 HD
ATOM     35  C   UNL A   1      42.920  33.153  29.870  1.00  0.00     0.074 A 
ATOM     36  C   UNL A   1      41.930  34.161  30.216  1.00  0.00     0.031 C 
ATOM     37  C   UNL A   1      44.236  33.406  29.667  1.00  0.00     0.031 A 
BRANCH  24  38
ATOM     38  C   UNL A   1      47.731  28.563  27.921  1.00  0.00    -0.014 A 
ATOM     39  C   UNL A   1      48.231  28.666  26.610  1.00  0.00     0.010 A 
ATOM     40  C   UNL A   1      48.473  27.830  28.868  1.00  0.00     0.010 A 
ATOM     41  C   UNL A   1      49.423  28.026  26.246  1.00  0.00     0.020 A 
ATOM     42  C   UNL A   1      49.679  27.213  28.519  1.00  0.00     0.020 A 
ATOM     43  C   UNL A   1      50.134  27.294  27.201  1.00  0.00     0.054 A 
BRANCH  43  44
ATOM     44  S   UNL A   1      51.657  26.438  26.707  1.00  0.00     0.124 S 
ATOM     45  O   UNL A   1      52.647  27.028  27.603  1.00  0.00    -0.237 OA
ATOM     46  O   UNL A   1      51.332  25.036  26.958  1.00  0.00    -0.237 OA
ATOM     47  O   UNL A   1      51.805  26.789  25.295  1.00  0.00    -0.744 OA
ENDBRANCH  43  44
ENDBRANCH  24  38
BRANCH  25  48
ATOM     48  C   UNL A   1      38.428  31.683  30.473  1.00  0.00    -0.014 A 
ATOM     49  C   UNL A   1      37.616  32.303  29.501  1.00  0.00     0.010 A 
ATOM     50  C   UNL A   1      38.010  31.686  31.815  1.00  0.00     0.010 A 
ATOM     51  C   UNL A   1      36.455  32.984  29.880  1.00  0.00     0.020 A 
ATOM     52  C   UNL A   1      36.838  32.348  32.194  1.00  0.00     0.020 A 
ATOM     53  C   UNL A   1      36.090  33.027  31.230  1.00  0.00     0.054 A 
BRANCH  53  54
ATOM     54  S   UNL A   1      34.664  34.037  31.720  1.00  0.00     0.124 S 
ATOM     55  O   UNL A   1      33.844  33.066  32.440  1.00  0.00    -0.237 OA
ATOM     56  O   UNL A   1      35.276  35.078  32.542  1.00  0.00    -0.237 OA
ATOM     57  O   UNL A   1      34.116  34.495  30.446  1.00  0.00    -0.744 OA
ENDBRANCH  53  54
ENDBRANCH  25  48
BRANCH  37  58
ATOM     58  C   UNL A   1      44.689  34.821  29.879  1.00  0.00    -0.014 A 
ATOM     59  C   UNL A   1      45.114  35.241  31.152  1.00  0.00     0.010 A 
ATOM     60  C   UNL A   1      44.595  35.757  28.834  1.00  0.00     0.010 A 
ATOM     61  C   UNL A   1      45.417  36.582  31.383  1.00  0.00     0.020 A 
ATOM     62  C   UNL A   1      44.926  37.093  29.055  1.00  0.00     0.020 A 
ATOM     63  C   UNL A   1      45.314  37.500  30.334  1.00  0.00     0.054 A 
BRANCH  63  64
ATOM     64  S   UNL A   1      45.703  39.241  30.653  1.00  0.00     0.124 S 
ATOM     65  O   UNL A   1      44.611  39.641  31.536  1.00  0.00    -0.237 OA
ATOM     66  O   UNL A   1      47.023  39.166  31.275  1.00  0.00    -0.237 OA
ATOM     67  O   UNL A   1      45.685  39.843  29.321  1.00  0.00    -0.744 OA
ENDBRANCH  63  64
ENDBRANCH  37  58
ENDBRANCH  11  12
ENDBRANCH   4   6
ENDBRANCH   3   4
ENDBRANCH   2   3
ENDBRANCH   1   2
BRANCH   1  68
ATOM     68  O   UNL A   1      35.488  21.424  26.080  1.00  0.00    -0.374 OA
BRANCH  68  69
ATOM     69  C   UNL A   1      35.324  22.833  26.232  1.00  0.00     0.202 C 
BRANCH  69  70
ATOM     70  C   UNL A   1      34.007  23.151  26.925  1.00  0.00     0.261 C 
BRANCH  70  71
ATOM     71  O   UNL A   1      33.370  24.307  26.361  1.00  0.00    -0.463 OA
BRANCH  71  72
ATOM     72  C   UNL A   1      32.023  24.428  26.487  1.00  0.00     0.315 C 
ATOM     73  O   UNL A   1      31.345  24.008  27.423  1.00  0.00    -0.251 OA
BRANCH  72  74
ATOM     74  C   UNL A   1      31.407  24.931  25.197  1.00  0.00     0.156 C 
ATOM     75  C   UNL A   1      31.749  23.910  24.119  1.00  0.00    -0.019 A 
ATOM     76  C   UNL A   1      31.734  26.437  24.827  1.00  0.00     0.061 C 
ATOM     77  C   UNL A   1      31.696  22.527  24.399  1.00  0.00     0.005 A 
ATOM     78  C   UNL A   1      32.180  24.325  22.862  1.00  0.00     0.044 A 
ATOM     79  N   UNL A   1      31.313  26.575  23.356  1.00  0.00    -0.329 N 
ATOM     80  C   UNL A   1      33.254  26.828  24.833  1.00  0.00     0.030 C 
ATOM     81  C   UNL A   1      30.930  27.385  25.784  1.00  0.00     0.030 C 
ATOM     82  C   UNL A   1      32.226  21.599  23.507  1.00  0.00     0.000 A 
ATOM     83  C   UNL A   1      32.733  23.393  21.973  1.00  0.00     0.014 A 
ATOM     84  C   UNL A   1      31.901  25.712  22.412  1.00  0.00     0.254 C 
ATOM     85  C   UNL A   1      33.874  27.362  26.118  1.00  0.00     0.002 C 
ATOM     86  C   UNL A   1      31.598  27.968  27.021  1.00  0.00     0.002 C 
ATOM     87  C   UNL A   1      32.785  22.039  22.311  1.00  0.00     0.001 A 
ATOM     88  O   UNL A   1      32.085  26.012  21.233  1.00  0.00    -0.269 OA
ATOM     89  C   UNL A   1      33.029  28.414  26.805  1.00  0.00     0.000 C 
BRANCH  79  90
ATOM     90  C   UNL A   1      30.465  27.645  22.806  1.00  0.00     0.086 C 
ATOM     91  C   UNL A   1      29.001  27.592  23.252  1.00  0.00     0.025 C 
ATOM     92  C   UNL A   1      30.964  29.078  23.002  1.00  0.00     0.025 C 
ATOM     93  C   UNL A   1      28.508  29.022  23.111  1.00  0.00     0.002 C 
ATOM     94  C   UNL A   1      29.726  29.919  23.301  1.00  0.00     0.002 C 
ENDBRANCH  79  90
ENDBRANCH  72  74
ENDBRANCH  71  72
ENDBRANCH  70  71
ENDBRANCH  69  70
ENDBRANCH  68  69
ENDBRANCH   1  68
TORSDOF 18
ENDMDL
