MODEL 1
REMARK VINA RESULT:      -9.5      0.000      0.000
REMARK SMILES O=C(OCCOCCOC(=O)c1ccc(-c2c3nc(c(-c4ccc(S(=O)(=O)[O-])cc4)c4ccc([nH]4)c(-c4ccc(S(=O)(=O)[O-])cc4)c4nc(c(-c5ccc(S(=O)(=O)[O-])cc5)c5ccc2[nH]5)C=C4)C=C3)cc1)C1=C[C@H]2C(=N1)C=CC(Cl)=C2Cl
REMARK SMILES IDX 7 1 6 2 5 3 4 4 3 5 2 6 1 7 72 8 73 9 76 10 74 11 75 12
REMARK SMILES IDX 81 13 77 14 79 15 82 16 78 17 80 18 8 19 9 20 10 21 11 22
REMARK SMILES IDX 12 23 13 24 71 25 14 26 70 27 15 28 16 29 17 30 64 31 18 32
REMARK SMILES IDX 69 33 63 34 65 35 19 36 68 37 62 38 61 39 20 41 50 42 31 43
REMARK SMILES IDX 49 44 32 45 35 46 48 47 66 48 33 49 34 50 47 52 67 53 36 54
REMARK SMILES IDX 21 55 22 56 30 57 23 58 29 59 24 60 25 61 26 62 27 63 28 64
REMARK SMILES IDX 51 65 52 66 60 67 53 68 59 69 54 70 55 71 56 72 57 73 58 74
REMARK SMILES IDX 37 75 38 76 46 77 39 78 45 79 40 80 41 81 42 82 43 83 44 84
REMARK H PARENT 65 40 35 51
REMARK Flexibility Score: inf
ROOT
ATOM      1  C   UNL A   1      41.682  21.135  27.210  1.00  0.00     0.202 C 
ENDROOT
BRANCH   1   2
ATOM      2  O   UNL A   1      41.985  19.738  27.128  1.00  0.00    -0.374 OA
BRANCH   2   3
ATOM      3  C   UNL A   1      42.488  19.299  25.866  1.00  0.00     0.202 C 
BRANCH   3   4
ATOM      4  C   UNL A   1      43.837  18.589  25.961  1.00  0.00     0.261 C 
BRANCH   4   5
ATOM      5  O   UNL A   1      44.678  19.001  24.869  1.00  0.00    -0.459 OA
BRANCH   5   6
ATOM      6  C   UNL A   1      45.610  19.971  24.960  1.00  0.00     0.356 C 
ATOM      7  O   UNL A   1      46.749  19.717  25.349  1.00  0.00    -0.244 OA
BRANCH   6   8
ATOM      8  C   UNL A   1      45.276  21.340  24.508  1.00  0.00     0.145 C 
ATOM      9  C   UNL A   1      46.280  22.217  24.402  1.00  0.00     0.024 C 
ATOM     10  N   UNL A   1      44.022  21.915  24.528  1.00  0.00    -0.245 NA
ATOM     11  C   UNL A   1      45.715  23.584  24.340  1.00  0.00     0.107 C 
ATOM     12  C   UNL A   1      44.260  23.189  24.529  1.00  0.00     0.054 C 
ATOM     13  C   UNL A   1      46.041  24.581  25.419  1.00  0.00     0.050 C 
ATOM     14  C   UNL A   1      43.269  24.264  24.758  1.00  0.00     0.026 C 
ATOM     15  C   UNL A   1      45.179  25.613  25.542  1.00  0.00     0.056 C 
ATOM     16  Cl  UNL A   1      46.549  23.886  26.958  1.00  0.00    -0.086 Cl
ATOM     17  C   UNL A   1      43.767  25.427  25.214  1.00  0.00     0.023 C 
ATOM     18  Cl  UNL A   1      45.812  27.175  25.072  1.00  0.00    -0.083 Cl
ENDBRANCH   6   8
ENDBRANCH   5   6
ENDBRANCH   4   5
ENDBRANCH   3   4
ENDBRANCH   2   3
ENDBRANCH   1   2
BRANCH   1  19
ATOM     19  C   UNL A   1      40.651  21.580  26.171  1.00  0.00     0.261 C 
BRANCH  19  20
ATOM     20  O   UNL A   1      39.425  21.952  26.817  1.00  0.00    -0.460 OA
BRANCH  20  21
ATOM     21  C   UNL A   1      38.750  22.972  26.233  1.00  0.00     0.338 C 
ATOM     22  O   UNL A   1      37.827  22.901  25.448  1.00  0.00    -0.246 OA
BRANCH  21  23
ATOM     23  C   UNL A   1      39.198  24.231  26.862  1.00  0.00     0.060 A 
ATOM     24  C   UNL A   1      39.894  25.155  26.069  1.00  0.00     0.016 A 
ATOM     25  C   UNL A   1      38.943  24.492  28.208  1.00  0.00     0.016 A 
ATOM     26  C   UNL A   1      40.379  26.331  26.636  1.00  0.00     0.010 A 
ATOM     27  C   UNL A   1      39.433  25.664  28.776  1.00  0.00     0.010 A 
ATOM     28  C   UNL A   1      40.185  26.565  28.001  1.00  0.00    -0.014 A 
BRANCH  28  29
ATOM     29  C   UNL A   1      40.911  27.649  28.696  1.00  0.00     0.031 A 
ATOM     30  C   UNL A   1      40.145  28.885  29.063  1.00  0.00     0.074 A 
ATOM     31  C   UNL A   1      42.233  27.562  28.915  1.00  0.00     0.049 A 
ATOM     32  N   UNL A   1      40.584  30.036  29.494  1.00  0.00    -0.248 NA
ATOM     33  C   UNL A   1      38.683  28.818  28.895  1.00  0.00     0.031 C 
ATOM     34  C   UNL A   1      43.063  26.395  28.623  1.00  0.00     0.029 A 
ATOM     35  N   UNL A   1      43.113  28.496  29.398  1.00  0.00    -0.354 N 
ATOM     36  C   UNL A   1      39.459  30.845  29.611  1.00  0.00     0.074 A 
ATOM     37  C   UNL A   1      38.322  30.057  29.188  1.00  0.00     0.031 C 
ATOM     38  C   UNL A   1      44.343  26.696  28.895  1.00  0.00     0.029 A 
ATOM     39  C   UNL A   1      44.423  28.090  29.332  1.00  0.00     0.049 A 
ATOM     40  H   UNL A   1      42.834  29.370  29.754  1.00  0.00     0.167 HD
ATOM     41  C   UNL A   1      39.387  32.132  30.024  1.00  0.00     0.031 A 
ATOM     42  C   UNL A   1      45.560  28.780  29.550  1.00  0.00     0.031 A 
ATOM     43  C   UNL A   1      40.536  32.902  30.417  1.00  0.00     0.049 A 
ATOM     44  C   UNL A   1      45.469  30.224  29.966  1.00  0.00     0.074 A 
ATOM     45  C   UNL A   1      40.581  34.200  30.890  1.00  0.00     0.029 A 
ATOM     46  N   UNL A   1      41.847  32.446  30.364  1.00  0.00    -0.354 N 
ATOM     47  N   UNL A   1      44.400  30.970  30.115  1.00  0.00    -0.248 NA
ATOM     48  C   UNL A   1      46.733  30.915  30.253  1.00  0.00     0.031 C 
ATOM     49  C   UNL A   1      41.924  34.553  31.056  1.00  0.00     0.029 A 
ATOM     50  C   UNL A   1      42.712  33.449  30.765  1.00  0.00     0.049 A 
ATOM     51  H   UNL A   1      42.120  31.544  30.082  1.00  0.00     0.167 HD
ATOM     52  C   UNL A   1      44.859  32.213  30.543  1.00  0.00     0.074 A 
ATOM     53  C   UNL A   1      46.302  32.114  30.630  1.00  0.00     0.031 C 
ATOM     54  C   UNL A   1      44.149  33.328  30.846  1.00  0.00     0.031 A 
BRANCH  41  55
ATOM     55  C   UNL A   1      38.032  32.790  30.003  1.00  0.00    -0.014 A 
ATOM     56  C   UNL A   1      37.173  32.753  31.118  1.00  0.00     0.010 A 
ATOM     57  C   UNL A   1      37.604  33.450  28.836  1.00  0.00     0.010 A 
ATOM     58  C   UNL A   1      35.889  33.300  31.041  1.00  0.00     0.020 A 
ATOM     59  C   UNL A   1      36.335  34.031  28.769  1.00  0.00     0.020 A 
ATOM     60  C   UNL A   1      35.475  33.928  29.862  1.00  0.00     0.054 A 
BRANCH  60  61
ATOM     61  S   UNL A   1      33.797  34.613  29.783  1.00  0.00     0.124 S 
ATOM     62  O   UNL A   1      33.120  33.648  28.920  1.00  0.00    -0.237 OA
ATOM     63  O   UNL A   1      33.381  34.603  31.183  1.00  0.00    -0.237 OA
ATOM     64  O   UNL A   1      33.989  35.939  29.202  1.00  0.00    -0.744 OA
ENDBRANCH  60  61
ENDBRANCH  41  55
BRANCH  42  65
ATOM     65  C   UNL A   1      46.869  28.102  29.351  1.00  0.00    -0.014 A 
ATOM     66  C   UNL A   1      47.462  27.365  30.389  1.00  0.00     0.010 A 
ATOM     67  C   UNL A   1      47.490  28.125  28.087  1.00  0.00     0.010 A 
ATOM     68  C   UNL A   1      48.644  26.653  30.165  1.00  0.00     0.020 A 
ATOM     69  C   UNL A   1      48.657  27.394  27.852  1.00  0.00     0.020 A 
ATOM     70  C   UNL A   1      49.227  26.661  28.894  1.00  0.00     0.054 A 
BRANCH  70  71
ATOM     71  S   UNL A   1      50.699  25.641  28.604  1.00  0.00     0.124 S 
ATOM     72  O   UNL A   1      51.270  25.540  29.943  1.00  0.00    -0.237 OA
ATOM     73  O   UNL A   1      50.126  24.410  28.065  1.00  0.00    -0.237 OA
ATOM     74  O   UNL A   1      51.478  26.425  27.648  1.00  0.00    -0.744 OA
ENDBRANCH  70  71
ENDBRANCH  42  65
BRANCH  54  75
ATOM     75  C   UNL A   1      44.906  34.527  31.352  1.00  0.00    -0.014 A 
ATOM     76  C   UNL A   1      45.345  35.541  30.484  1.00  0.00     0.010 A 
ATOM     77  C   UNL A   1      45.086  34.686  32.739  1.00  0.00     0.010 A 
ATOM     78  C   UNL A   1      45.962  36.688  30.995  1.00  0.00     0.020 A 
ATOM     79  C   UNL A   1      45.674  35.843  33.255  1.00  0.00     0.020 A 
ATOM     80  C   UNL A   1      46.114  36.835  32.378  1.00  0.00     0.054 A 
BRANCH  80  81
ATOM     81  S   UNL A   1      46.842  38.367  33.019  1.00  0.00     0.124 S 
ATOM     82  O   UNL A   1      45.775  38.875  33.878  1.00  0.00    -0.237 OA
ATOM     83  O   UNL A   1      48.034  37.888  33.714  1.00  0.00    -0.237 OA
ATOM     84  O   UNL A   1      47.104  39.158  31.819  1.00  0.00    -0.744 OA
ENDBRANCH  80  81
ENDBRANCH  54  75
ENDBRANCH  28  29
ENDBRANCH  21  23
ENDBRANCH  20  21
ENDBRANCH  19  20
ENDBRANCH   1  19
TORSDOF 17
ENDMDL
MODEL 2
REMARK VINA RESULT:      -9.2      4.234      9.460
REMARK SMILES O=C(OCCOCCOC(=O)c1ccc(-c2c3nc(c(-c4ccc(S(=O)(=O)[O-])cc4)c4ccc([nH]4)c(-c4ccc(S(=O)(=O)[O-])cc4)c4nc(c(-c5ccc(S(=O)(=O)[O-])cc5)c5ccc2[nH]5)C=C4)C=C3)cc1)C1=C[C@H]2C(=N1)C=CC(Cl)=C2Cl
REMARK SMILES IDX 7 1 6 2 5 3 4 4 3 5 2 6 1 7 72 8 73 9 76 10 74 11 75 12
REMARK SMILES IDX 81 13 77 14 79 15 82 16 78 17 80 18 8 19 9 20 10 21 11 22
REMARK SMILES IDX 12 23 13 24 71 25 14 26 70 27 15 28 16 29 17 30 64 31 18 32
REMARK SMILES IDX 69 33 63 34 65 35 19 36 68 37 62 38 61 39 20 41 50 42 31 43
REMARK SMILES IDX 49 44 32 45 35 46 48 47 66 48 33 49 34 50 47 52 67 53 36 54
REMARK SMILES IDX 21 55 22 56 30 57 23 58 29 59 24 60 25 61 26 62 27 63 28 64
REMARK SMILES IDX 51 65 52 66 60 67 53 68 59 69 54 70 55 71 56 72 57 73 58 74
REMARK SMILES IDX 37 75 38 76 46 77 39 78 45 79 40 80 41 81 42 82 43 83 44 84
REMARK H PARENT 65 40 35 51
REMARK Flexibility Score: inf
ROOT
ATOM      1  C   UNL A   1      32.411  29.028  27.144  1.00  0.00     0.202 C 
ENDROOT
BRANCH   1   2
ATOM      2  O   UNL A   1      32.020  28.650  25.820  1.00  0.00    -0.374 OA
BRANCH   2   3
ATOM      3  C   UNL A   1      32.684  27.500  25.296  1.00  0.00     0.202 C 
BRANCH   3   4
ATOM      4  C   UNL A   1      31.831  26.233  25.335  1.00  0.00     0.261 C 
BRANCH   4   5
ATOM      5  O   UNL A   1      31.140  26.076  24.083  1.00  0.00    -0.459 OA
BRANCH   5   6
ATOM      6  C   UNL A   1      31.758  25.865  22.903  1.00  0.00     0.356 C 
ATOM      7  O   UNL A   1      31.640  26.665  21.977  1.00  0.00    -0.244 OA
BRANCH   6   8
ATOM      8  C   UNL A   1      32.652  24.694  22.755  1.00  0.00     0.145 C 
ATOM      9  C   UNL A   1      32.116  23.482  22.936  1.00  0.00     0.024 C 
ATOM     10  N   UNL A   1      34.031  24.717  22.808  1.00  0.00    -0.245 NA
ATOM     11  C   UNL A   1      33.207  22.505  23.147  1.00  0.00     0.107 C 
ATOM     12  C   UNL A   1      34.353  23.502  23.123  1.00  0.00     0.054 C 
ATOM     13  C   UNL A   1      33.306  21.759  24.451  1.00  0.00     0.050 C 
ATOM     14  C   UNL A   1      35.699  23.029  23.515  1.00  0.00     0.026 C 
ATOM     15  C   UNL A   1      34.519  21.243  24.740  1.00  0.00     0.056 C 
ATOM     16  Cl  UNL A   1      32.510  22.531  25.823  1.00  0.00    -0.086 Cl
ATOM     17  C   UNL A   1      35.728  21.914  24.266  1.00  0.00     0.023 C 
ATOM     18  Cl  UNL A   1      34.619  19.497  24.697  1.00  0.00    -0.083 Cl
ENDBRANCH   6   8
ENDBRANCH   5   6
ENDBRANCH   4   5
ENDBRANCH   3   4
ENDBRANCH   2   3
ENDBRANCH   1   2
BRANCH   1  19
ATOM     19  C   UNL A   1      32.820  30.499  27.244  1.00  0.00     0.261 C 
BRANCH  19  20
ATOM     20  O   UNL A   1      34.248  30.622  27.183  1.00  0.00    -0.460 OA
BRANCH  20  21
ATOM     21  C   UNL A   1      34.835  31.108  28.303  1.00  0.00     0.338 C 
ATOM     22  O   UNL A   1      34.360  31.864  29.126  1.00  0.00    -0.246 OA
BRANCH  21  23
ATOM     23  C   UNL A   1      36.122  30.406  28.482  1.00  0.00     0.060 A 
ATOM     24  C   UNL A   1      36.465  29.970  29.770  1.00  0.00     0.016 A 
ATOM     25  C   UNL A   1      36.977  30.187  27.402  1.00  0.00     0.016 A 
ATOM     26  C   UNL A   1      37.693  29.352  29.990  1.00  0.00     0.010 A 
ATOM     27  C   UNL A   1      38.206  29.573  27.623  1.00  0.00     0.010 A 
ATOM     28  C   UNL A   1      38.582  29.191  28.923  1.00  0.00    -0.014 A 
BRANCH  28  29
ATOM     29  C   UNL A   1      39.988  28.799  29.158  1.00  0.00     0.031 A 
ATOM     30  C   UNL A   1      40.952  29.864  29.589  1.00  0.00     0.074 A 
ATOM     31  C   UNL A   1      40.403  27.545  28.912  1.00  0.00     0.049 A 
ATOM     32  N   UNL A   1      42.254  29.821  29.671  1.00  0.00    -0.248 NA
ATOM     33  C   UNL A   1      40.364  31.165  29.953  1.00  0.00     0.031 C 
ATOM     34  C   UNL A   1      39.543  26.432  28.519  1.00  0.00     0.029 A 
ATOM     35  N   UNL A   1      41.667  27.016  28.919  1.00  0.00    -0.354 N 
ATOM     36  C   UNL A   1      42.646  31.098  30.056  1.00  0.00     0.074 A 
ATOM     37  C   UNL A   1      41.445  31.895  30.173  1.00  0.00     0.031 C 
ATOM     38  C   UNL A   1      40.310  25.356  28.281  1.00  0.00     0.029 A 
ATOM     39  C   UNL A   1      41.715  25.723  28.459  1.00  0.00     0.049 A 
ATOM     40  H   UNL A   1      42.461  27.512  29.221  1.00  0.00     0.167 HD
ATOM     41  C   UNL A   1      43.898  31.562  30.280  1.00  0.00     0.031 A 
ATOM     42  C   UNL A   1      42.773  24.942  28.166  1.00  0.00     0.031 A 
ATOM     43  C   UNL A   1      45.079  30.755  30.133  1.00  0.00     0.049 A 
ATOM     44  C   UNL A   1      44.161  25.484  28.376  1.00  0.00     0.074 A 
ATOM     45  C   UNL A   1      46.395  31.105  30.370  1.00  0.00     0.029 A 
ATOM     46  N   UNL A   1      45.085  29.438  29.691  1.00  0.00    -0.354 N 
ATOM     47  N   UNL A   1      44.524  26.679  28.781  1.00  0.00    -0.248 NA
ATOM     48  C   UNL A   1      45.281  24.574  28.102  1.00  0.00     0.031 C 
ATOM     49  C   UNL A   1      47.202  30.022  30.004  1.00  0.00     0.029 A 
ATOM     50  C   UNL A   1      46.385  28.971  29.617  1.00  0.00     0.049 A 
ATOM     51  H   UNL A   1      44.282  28.916  29.463  1.00  0.00     0.167 HD
ATOM     52  C   UNL A   1      45.914  26.655  28.839  1.00  0.00     0.074 A 
ATOM     53  C   UNL A   1      46.324  25.327  28.430  1.00  0.00     0.031 C 
ATOM     54  C   UNL A   1      46.771  27.640  29.208  1.00  0.00     0.031 A 
BRANCH  41  55
ATOM     55  C   UNL A   1      44.042  33.018  30.639  1.00  0.00    -0.014 A 
ATOM     56  C   UNL A   1      43.945  33.466  31.971  1.00  0.00     0.010 A 
ATOM     57  C   UNL A   1      44.265  33.962  29.619  1.00  0.00     0.010 A 
ATOM     58  C   UNL A   1      43.999  34.831  32.265  1.00  0.00     0.020 A 
ATOM     59  C   UNL A   1      44.357  35.324  29.914  1.00  0.00     0.020 A 
ATOM     60  C   UNL A   1      44.196  35.753  31.232  1.00  0.00     0.054 A 
BRANCH  60  61
ATOM     61  S   UNL A   1      44.243  37.520  31.639  1.00  0.00     0.124 S 
ATOM     62  O   UNL A   1      45.677  37.756  31.786  1.00  0.00    -0.237 OA
ATOM     63  O   UNL A   1      43.623  38.134  30.468  1.00  0.00    -0.237 OA
ATOM     64  O   UNL A   1      43.467  37.613  32.873  1.00  0.00    -0.744 OA
ENDBRANCH  60  61
ENDBRANCH  41  55
BRANCH  42  65
ATOM     65  C   UNL A   1      42.538  23.578  27.621  1.00  0.00    -0.014 A 
ATOM     66  C   UNL A   1      42.494  23.356  26.235  1.00  0.00     0.010 A 
ATOM     67  C   UNL A   1      42.439  22.477  28.494  1.00  0.00     0.010 A 
ATOM     68  C   UNL A   1      42.367  22.058  25.730  1.00  0.00     0.020 A 
ATOM     69  C   UNL A   1      42.340  21.176  27.993  1.00  0.00     0.020 A 
ATOM     70  C   UNL A   1      42.305  20.974  26.613  1.00  0.00     0.054 A 
BRANCH  70  71
ATOM     71  S   UNL A   1      42.252  19.295  25.929  1.00  0.00     0.124 S 
ATOM     72  O   UNL A   1      40.831  19.126  25.642  1.00  0.00    -0.237 OA
ATOM     73  O   UNL A   1      43.125  19.404  24.762  1.00  0.00    -0.237 OA
ATOM     74  O   UNL A   1      42.776  18.466  27.012  1.00  0.00    -0.744 OA
ENDBRANCH  70  71
ENDBRANCH  42  65
BRANCH  54  75
ATOM     75  C   UNL A   1      48.241  27.317  29.242  1.00  0.00    -0.014 A 
ATOM     76  C   UNL A   1      49.082  27.595  28.150  1.00  0.00     0.010 A 
ATOM     77  C   UNL A   1      48.805  26.821  30.433  1.00  0.00     0.010 A 
ATOM     78  C   UNL A   1      50.459  27.372  28.247  1.00  0.00     0.020 A 
ATOM     79  C   UNL A   1      50.183  26.626  30.543  1.00  0.00     0.020 A 
ATOM     80  C   UNL A   1      51.002  26.897  29.445  1.00  0.00     0.054 A 
BRANCH  80  81
ATOM     81  S   UNL A   1      52.800  26.694  29.571  1.00  0.00     0.124 S 
ATOM     82  O   UNL A   1      52.926  25.815  30.731  1.00  0.00    -0.237 OA
ATOM     83  O   UNL A   1      53.144  26.092  28.286  1.00  0.00    -0.237 OA
ATOM     84  O   UNL A   1      53.291  28.055  29.766  1.00  0.00    -0.744 OA
ENDBRANCH  80  81
ENDBRANCH  54  75
ENDBRANCH  28  29
ENDBRANCH  21  23
ENDBRANCH  20  21
ENDBRANCH  19  20
ENDBRANCH   1  19
TORSDOF 17
ENDMDL
MODEL 3
REMARK VINA RESULT:      -9.1      3.309     10.465
REMARK SMILES O=C(OCCOCCOC(=O)c1ccc(-c2c3nc(c(-c4ccc(S(=O)(=O)[O-])cc4)c4ccc([nH]4)c(-c4ccc(S(=O)(=O)[O-])cc4)c4nc(c(-c5ccc(S(=O)(=O)[O-])cc5)c5ccc2[nH]5)C=C4)C=C3)cc1)C1=C[C@H]2C(=N1)C=CC(Cl)=C2Cl
REMARK SMILES IDX 7 1 6 2 5 3 4 4 3 5 2 6 1 7 72 8 73 9 76 10 74 11 75 12
REMARK SMILES IDX 81 13 77 14 79 15 82 16 78 17 80 18 8 19 9 20 10 21 11 22
REMARK SMILES IDX 12 23 13 24 71 25 14 26 70 27 15 28 16 29 17 30 64 31 18 32
REMARK SMILES IDX 69 33 63 34 65 35 19 36 68 37 62 38 61 39 20 41 50 42 31 43
REMARK SMILES IDX 49 44 32 45 35 46 48 47 66 48 33 49 34 50 47 52 67 53 36 54
REMARK SMILES IDX 21 55 22 56 30 57 23 58 29 59 24 60 25 61 26 62 27 63 28 64
REMARK SMILES IDX 51 65 52 66 60 67 53 68 59 69 54 70 55 71 56 72 57 73 58 74
REMARK SMILES IDX 37 75 38 76 46 77 39 78 45 79 40 80 41 81 42 82 43 83 44 84
REMARK H PARENT 65 40 35 51
REMARK Flexibility Score: inf
ROOT
ATOM      1  C   UNL A   1      33.699  33.389  27.948  1.00  0.00     0.202 C 
ENDROOT
BRANCH   1   2
ATOM      2  O   UNL A   1      34.157  34.562  28.628  1.00  0.00    -0.374 OA
BRANCH   2   3
ATOM      3  C   UNL A   1      33.137  35.328  29.271  1.00  0.00     0.202 C 
BRANCH   3   4
ATOM      4  C   UNL A   1      33.188  35.253  30.795  1.00  0.00     0.261 C 
BRANCH   4   5
ATOM      5  O   UNL A   1      34.525  34.932  31.219  1.00  0.00    -0.459 OA
BRANCH   5   6
ATOM      6  C   UNL A   1      34.897  33.724  31.689  1.00  0.00     0.356 C 
ATOM      7  O   UNL A   1      34.060  32.855  31.927  1.00  0.00    -0.244 OA
BRANCH   6   8
ATOM      8  C   UNL A   1      36.337  33.419  31.841  1.00  0.00     0.145 C 
ATOM      9  C   UNL A   1      36.675  32.442  32.690  1.00  0.00     0.024 C 
ATOM     10  N   UNL A   1      37.382  34.250  31.489  1.00  0.00    -0.245 NA
ATOM     11  C   UNL A   1      38.116  32.561  33.004  1.00  0.00     0.107 C 
ATOM     12  C   UNL A   1      38.372  33.833  32.213  1.00  0.00     0.054 C 
ATOM     13  C   UNL A   1      38.557  32.830  34.418  1.00  0.00     0.050 C 
ATOM     14  C   UNL A   1      39.677  34.510  32.382  1.00  0.00     0.026 C 
ATOM     15  C   UNL A   1      39.796  33.350  34.556  1.00  0.00     0.056 C 
ATOM     16  Cl  UNL A   1      37.345  33.581  35.455  1.00  0.00    -0.086 Cl
ATOM     17  C   UNL A   1      40.343  34.217  33.513  1.00  0.00     0.023 C 
ATOM     18  Cl  UNL A   1      40.979  32.283  35.278  1.00  0.00    -0.083 Cl
ENDBRANCH   6   8
ENDBRANCH   5   6
ENDBRANCH   4   5
ENDBRANCH   3   4
ENDBRANCH   2   3
ENDBRANCH   1   2
BRANCH   1  19
ATOM     19  C   UNL A   1      34.391  32.114  28.436  1.00  0.00     0.261 C 
BRANCH  19  20
ATOM     20  O   UNL A   1      34.532  31.181  27.355  1.00  0.00    -0.460 OA
BRANCH  20  21
ATOM     21  C   UNL A   1      34.692  29.887  27.724  1.00  0.00     0.338 C 
ATOM     22  O   UNL A   1      33.924  28.963  27.553  1.00  0.00    -0.246 OA
BRANCH  21  23
ATOM     23  C   UNL A   1      36.074  29.724  28.218  1.00  0.00     0.060 A 
ATOM     24  C   UNL A   1      37.124  29.835  27.295  1.00  0.00     0.016 A 
ATOM     25  C   UNL A   1      36.330  29.460  29.564  1.00  0.00     0.016 A 
ATOM     26  C   UNL A   1      38.438  29.635  27.710  1.00  0.00     0.010 A 
ATOM     27  C   UNL A   1      37.643  29.255  29.977  1.00  0.00     0.010 A 
ATOM     28  C   UNL A   1      38.694  29.303  29.044  1.00  0.00    -0.014 A 
BRANCH  28  29
ATOM     29  C   UNL A   1      40.025  28.817  29.463  1.00  0.00     0.031 A 
ATOM     30  C   UNL A   1      40.941  29.784  30.153  1.00  0.00     0.074 A 
ATOM     31  C   UNL A   1      40.430  27.573  29.160  1.00  0.00     0.049 A 
ATOM     32  N   UNL A   1      42.209  29.665  30.440  1.00  0.00    -0.248 NA
ATOM     33  C   UNL A   1      40.348  31.073  30.548  1.00  0.00     0.031 C 
ATOM     34  C   UNL A   1      39.609  26.549  28.519  1.00  0.00     0.029 A 
ATOM     35  N   UNL A   1      41.656  26.979  29.318  1.00  0.00    -0.354 N 
ATOM     36  C   UNL A   1      42.576  30.876  31.014  1.00  0.00     0.074 A 
ATOM     37  C   UNL A   1      41.402  31.721  31.015  1.00  0.00     0.031 C 
ATOM     38  C   UNL A   1      40.365  25.462  28.300  1.00  0.00     0.029 A 
ATOM     39  C   UNL A   1      41.733  25.735  28.741  1.00  0.00     0.049 A 
ATOM     40  H   UNL A   1      42.405  27.402  29.795  1.00  0.00     0.167 HD
ATOM     41  C   UNL A   1      43.789  31.251  31.486  1.00  0.00     0.031 A 
ATOM     42  C   UNL A   1      42.797  24.932  28.545  1.00  0.00     0.031 A 
ATOM     43  C   UNL A   1      44.948  30.401  31.450  1.00  0.00     0.049 A 
ATOM     44  C   UNL A   1      44.149  25.378  29.034  1.00  0.00     0.074 A 
ATOM     45  C   UNL A   1      46.218  30.657  31.933  1.00  0.00     0.029 A 
ATOM     46  N   UNL A   1      44.981  29.134  30.882  1.00  0.00    -0.354 N 
ATOM     47  N   UNL A   1      44.482  26.507  29.613  1.00  0.00    -0.248 NA
ATOM     48  C   UNL A   1      45.265  24.440  28.854  1.00  0.00     0.031 C 
ATOM     49  C   UNL A   1      47.035  29.573  31.595  1.00  0.00     0.029 A 
ATOM     50  C   UNL A   1      46.257  28.608  30.973  1.00  0.00     0.049 A 
ATOM     51  H   UNL A   1      44.209  28.678  30.474  1.00  0.00     0.167 HD
ATOM     52  C   UNL A   1      45.841  26.406  29.894  1.00  0.00     0.074 A 
ATOM     53  C   UNL A   1      46.265  25.103  29.423  1.00  0.00     0.031 C 
ATOM     54  C   UNL A   1      46.658  27.305  30.498  1.00  0.00     0.031 A 
BRANCH  41  55
ATOM     55  C   UNL A   1      43.923  32.656  32.012  1.00  0.00    -0.014 A 
ATOM     56  C   UNL A   1      44.019  32.925  33.391  1.00  0.00     0.010 A 
ATOM     57  C   UNL A   1      43.939  33.733  31.106  1.00  0.00     0.010 A 
ATOM     58  C   UNL A   1      44.058  34.243  33.854  1.00  0.00     0.020 A 
ATOM     59  C   UNL A   1      44.016  35.051  31.564  1.00  0.00     0.020 A 
ATOM     60  C   UNL A   1      44.047  35.299  32.937  1.00  0.00     0.054 A 
BRANCH  60  61
ATOM     61  S   UNL A   1      44.079  37.000  33.566  1.00  0.00     0.124 S 
ATOM     62  O   UNL A   1      44.887  36.858  34.775  1.00  0.00    -0.237 OA
ATOM     63  O   UNL A   1      44.710  37.734  32.472  1.00  0.00    -0.237 OA
ATOM     64  O   UNL A   1      42.671  37.313  33.793  1.00  0.00    -0.744 OA
ENDBRANCH  60  61
ENDBRANCH  41  55
BRANCH  42  65
ATOM     65  C   UNL A   1      42.608  23.640  27.832  1.00  0.00    -0.014 A 
ATOM     66  C   UNL A   1      43.002  23.495  26.491  1.00  0.00     0.010 A 
ATOM     67  C   UNL A   1      42.104  22.520  28.521  1.00  0.00     0.010 A 
ATOM     68  C   UNL A   1      42.908  22.253  25.857  1.00  0.00     0.020 A 
ATOM     69  C   UNL A   1      42.034  21.271  27.899  1.00  0.00     0.020 A 
ATOM     70  C   UNL A   1      42.438  21.145  26.569  1.00  0.00     0.054 A 
BRANCH  70  71
ATOM     71  S   UNL A   1      42.430  19.524  25.755  1.00  0.00     0.124 S 
ATOM     72  O   UNL A   1      41.031  19.384  25.365  1.00  0.00    -0.237 OA
ATOM     73  O   UNL A   1      43.376  19.720  24.659  1.00  0.00    -0.237 OA
ATOM     74  O   UNL A   1      42.883  18.611  26.802  1.00  0.00    -0.744 OA
ENDBRANCH  70  71
ENDBRANCH  42  65
BRANCH  54  75
ATOM     75  C   UNL A   1      48.090  26.903  30.737  1.00  0.00    -0.014 A 
ATOM     76  C   UNL A   1      49.119  27.288  29.861  1.00  0.00     0.010 A 
ATOM     77  C   UNL A   1      48.418  26.214  31.920  1.00  0.00     0.010 A 
ATOM     78  C   UNL A   1      50.450  26.981  30.160  1.00  0.00     0.020 A 
ATOM     79  C   UNL A   1      49.748  25.933  32.237  1.00  0.00     0.020 A 
ATOM     80  C   UNL A   1      50.757  26.313  31.350  1.00  0.00     0.054 A 
BRANCH  80  81
ATOM     81  S   UNL A   1      52.497  26.000  31.754  1.00  0.00     0.124 S 
ATOM     82  O   UNL A   1      53.149  26.193  30.461  1.00  0.00    -0.237 OA
ATOM     83  O   UNL A   1      52.781  27.021  32.759  1.00  0.00    -0.237 OA
ATOM     84  O   UNL A   1      52.497  24.627  32.252  1.00  0.00    -0.744 OA
ENDBRANCH  80  81
ENDBRANCH  54  75
ENDBRANCH  28  29
ENDBRANCH  21  23
ENDBRANCH  20  21
ENDBRANCH  19  20
ENDBRANCH   1  19
TORSDOF 17
ENDMDL
