MODEL 1
REMARK VINA RESULT:      -8.9      0.000      0.000
REMARK SMILES [NH3+]CC(=O)N1C[C@H](O)C[C@H]1C(=O)OCCOCCOC(=O)c1ccc(-c2c3nc(c(-c4ccc(S(=O)(=O)[O-])cc4)c4ccc([nH]4)c(-c4ccc(S(=O)(=O)[O-])cc4)c4nc(c(-c5ccc(S(=O)(=O)[O-])cc5)c5ccc2[nH]5)C=C4)C=C3)cc1
REMARK SMILES IDX 16 1 15 2 14 3 13 4 11 5 12 6 10 7 5 8 6 9 7 10 9 11 3 12
REMARK SMILES IDX 4 13 2 14 1 15 8 19 17 21 18 22 19 23 20 24 21 25 22 26
REMARK SMILES IDX 23 27 81 28 24 29 80 30 25 31 26 32 27 33 74 34 28 35 79 36
REMARK SMILES IDX 73 37 75 38 29 39 78 40 72 41 71 42 30 44 60 45 41 46 59 47
REMARK SMILES IDX 42 48 45 49 58 50 76 51 43 52 44 53 57 55 77 56 46 57 31 58
REMARK SMILES IDX 32 59 40 60 33 61 39 62 34 63 35 64 36 65 37 66 38 67 61 68
REMARK SMILES IDX 62 69 70 70 63 71 69 72 64 73 65 74 66 75 67 76 68 77 47 78
REMARK SMILES IDX 48 79 56 80 49 81 55 82 50 83 51 84 52 85 53 86 54 87
REMARK H PARENT 1 16 1 17 1 18 8 20 75 43 45 54
REMARK Flexibility Score: inf
ROOT
ATOM      1  O   UNL A   1      33.428  27.855  24.780  1.00  0.00    -0.374 OA
ENDROOT
BRANCH   1   2
ATOM      2  C   UNL A   1      33.698  26.462  24.652  1.00  0.00     0.202 C 
BRANCH   2   3
ATOM      3  C   UNL A   1      33.589  25.858  23.247  1.00  0.00     0.261 C 
BRANCH   3   4
ATOM      4  O   UNL A   1      34.397  24.688  23.041  1.00  0.00    -0.462 OA
BRANCH   4   5
ATOM      5  C   UNL A   1      33.704  23.528  22.923  1.00  0.00     0.329 C 
ATOM      6  O   UNL A   1      33.313  23.049  21.860  1.00  0.00    -0.250 OA
BRANCH   5   7
ATOM      7  C   UNL A   1      33.466  22.798  24.249  1.00  0.00     0.198 C 
ATOM      8  N   UNL A   1      32.141  22.331  24.676  1.00  0.00    -0.321 N 
ATOM      9  C   UNL A   1      32.202  20.969  25.196  1.00  0.00     0.152 C 
ATOM     10  C   UNL A   1      33.692  20.647  25.295  1.00  0.00     0.136 C 
ATOM     11  C   UNL A   1      34.305  21.512  24.210  1.00  0.00     0.070 C 
BRANCH   8  12
ATOM     12  C   UNL A   1      31.147  23.190  25.091  1.00  0.00     0.278 C 
ATOM     13  O   UNL A   1      30.631  24.007  24.331  1.00  0.00    -0.268 OA
BRANCH  12  14
ATOM     14  C   UNL A   1      30.620  22.986  26.519  1.00  0.00     0.360 C 
BRANCH  14  15
ATOM     15  N   UNL A   1      29.598  23.992  26.841  1.00  0.00    -0.350 N 
ATOM     16  H   UNL A   1      29.830  24.872  26.380  1.00  0.00     0.344 HD
ATOM     17  H   UNL A   1      29.567  24.134  27.850  1.00  0.00     0.344 HD
ATOM     18  H   UNL A   1      28.687  23.667  26.516  1.00  0.00     0.344 HD
ENDBRANCH  14  15
ENDBRANCH  12  14
ENDBRANCH   8  12
BRANCH  10  19
ATOM     19  O   UNL A   1      34.224  21.006  26.570  1.00  0.00    -0.391 OA
ATOM     20  H   UNL A   1      33.497  21.156  27.193  1.00  0.00     0.211 HD
ENDBRANCH  10  19
ENDBRANCH   5   7
ENDBRANCH   4   5
ENDBRANCH   3   4
ENDBRANCH   2   3
ENDBRANCH   1   2
BRANCH   1  21
ATOM     21  C   UNL A   1      32.363  28.247  25.650  1.00  0.00     0.202 C 
BRANCH  21  22
ATOM     22  C   UNL A   1      32.711  28.432  27.129  1.00  0.00     0.261 C 
BRANCH  22  23
ATOM     23  O   UNL A   1      34.126  28.605  27.309  1.00  0.00    -0.460 OA
BRANCH  23  24
ATOM     24  C   UNL A   1      34.509  29.847  27.677  1.00  0.00     0.338 C 
ATOM     25  O   UNL A   1      33.797  30.839  27.762  1.00  0.00    -0.246 OA
BRANCH  24  26
ATOM     26  C   UNL A   1      35.902  29.829  28.158  1.00  0.00     0.060 A 
ATOM     27  C   UNL A   1      36.913  30.073  27.221  1.00  0.00     0.016 A 
ATOM     28  C   UNL A   1      36.221  29.463  29.467  1.00  0.00     0.016 A 
ATOM     29  C   UNL A   1      38.248  29.885  27.573  1.00  0.00     0.010 A 
ATOM     30  C   UNL A   1      37.563  29.264  29.815  1.00  0.00     0.010 A 
ATOM     31  C   UNL A   1      38.581  29.433  28.858  1.00  0.00    -0.014 A 
BRANCH  31  32
ATOM     32  C   UNL A   1      39.977  29.007  29.133  1.00  0.00     0.031 A 
ATOM     33  C   UNL A   1      40.910  29.954  29.841  1.00  0.00     0.074 A 
ATOM     34  C   UNL A   1      40.394  27.767  28.818  1.00  0.00     0.049 A 
ATOM     35  N   UNL A   1      42.142  29.759  30.237  1.00  0.00    -0.248 NA
ATOM     36  C   UNL A   1      40.383  31.293  30.150  1.00  0.00     0.031 C 
ATOM     37  C   UNL A   1      39.582  26.743  28.163  1.00  0.00     0.029 A 
ATOM     38  N   UNL A   1      41.609  27.160  29.018  1.00  0.00    -0.354 N 
ATOM     39  C   UNL A   1      42.538  30.946  30.845  1.00  0.00     0.074 A 
ATOM     40  C   UNL A   1      41.424  31.865  30.737  1.00  0.00     0.031 C 
ATOM     41  C   UNL A   1      40.322  25.629  28.018  1.00  0.00     0.029 A 
ATOM     42  C   UNL A   1      41.664  25.870  28.548  1.00  0.00     0.049 A 
ATOM     43  H   UNL A   1      42.370  27.606  29.455  1.00  0.00     0.167 HD
ATOM     44  C   UNL A   1      43.714  31.244  31.445  1.00  0.00     0.031 A 
ATOM     45  C   UNL A   1      42.680  24.983  28.540  1.00  0.00     0.031 A 
ATOM     46  C   UNL A   1      44.830  30.340  31.541  1.00  0.00     0.049 A 
ATOM     47  C   UNL A   1      44.003  25.360  29.152  1.00  0.00     0.074 A 
ATOM     48  C   UNL A   1      46.058  30.550  32.148  1.00  0.00     0.029 A 
ATOM     49  N   UNL A   1      44.862  29.062  31.007  1.00  0.00    -0.354 N 
ATOM     50  N   UNL A   1      44.345  26.474  29.754  1.00  0.00    -0.248 NA
ATOM     51  C   UNL A   1      45.074  24.356  29.089  1.00  0.00     0.031 C 
ATOM     52  C   UNL A   1      46.849  29.415  31.936  1.00  0.00     0.029 A 
ATOM     53  C   UNL A   1      46.097  28.481  31.242  1.00  0.00     0.049 A 
ATOM     54  H   UNL A   1      44.116  28.631  30.530  1.00  0.00     0.167 HD
ATOM     55  C   UNL A   1      45.664  26.295  30.161  1.00  0.00     0.074 A 
ATOM     56  C   UNL A   1      46.053  24.963  29.748  1.00  0.00     0.031 C 
ATOM     57  C   UNL A   1      46.478  27.157  30.819  1.00  0.00     0.031 A 
BRANCH  44  58
ATOM     58  C   UNL A   1      43.863  32.624  32.028  1.00  0.00    -0.014 A 
ATOM     59  C   UNL A   1      44.425  33.672  31.277  1.00  0.00     0.010 A 
ATOM     60  C   UNL A   1      43.404  32.883  33.332  1.00  0.00     0.010 A 
ATOM     61  C   UNL A   1      44.559  34.946  31.834  1.00  0.00     0.020 A 
ATOM     62  C   UNL A   1      43.516  34.162  33.883  1.00  0.00     0.020 A 
ATOM     63  C   UNL A   1      44.108  35.183  33.136  1.00  0.00     0.054 A 
BRANCH  63  64
ATOM     64  S   UNL A   1      44.280  36.849  33.831  1.00  0.00     0.124 S 
ATOM     65  O   UNL A   1      44.470  36.565  35.251  1.00  0.00    -0.237 OA
ATOM     66  O   UNL A   1      45.452  37.370  33.132  1.00  0.00    -0.237 OA
ATOM     67  O   UNL A   1      43.016  37.498  33.491  1.00  0.00    -0.744 OA
ENDBRANCH  63  64
ENDBRANCH  44  58
BRANCH  45  68
ATOM     68  C   UNL A   1      42.488  23.646  27.915  1.00  0.00    -0.014 A 
ATOM     69  C   UNL A   1      42.790  23.434  26.560  1.00  0.00     0.010 A 
ATOM     70  C   UNL A   1      42.000  22.575  28.685  1.00  0.00     0.010 A 
ATOM     71  C   UNL A   1      42.599  22.177  25.980  1.00  0.00     0.020 A 
ATOM     72  C   UNL A   1      41.828  21.310  28.116  1.00  0.00     0.020 A 
ATOM     73  C   UNL A   1      42.120  21.122  26.763  1.00  0.00     0.054 A 
BRANCH  73  74
ATOM     74  S   UNL A   1      41.933  19.481  26.010  1.00  0.00     0.124 S 
ATOM     75  O   UNL A   1      42.829  19.570  24.863  1.00  0.00    -0.237 OA
ATOM     76  O   UNL A   1      42.364  18.588  27.084  1.00  0.00    -0.237 OA
ATOM     77  O   UNL A   1      40.509  19.414  25.692  1.00  0.00    -0.744 OA
ENDBRANCH  73  74
ENDBRANCH  45  68
BRANCH  57  78
ATOM     78  C   UNL A   1      47.866  26.682  31.156  1.00  0.00    -0.014 A 
ATOM     79  C   UNL A   1      48.947  26.921  30.288  1.00  0.00     0.010 A 
ATOM     80  C   UNL A   1      48.103  26.035  32.382  1.00  0.00     0.010 A 
ATOM     81  C   UNL A   1      50.233  26.492  30.626  1.00  0.00     0.020 A 
ATOM     82  C   UNL A   1      49.393  25.626  32.735  1.00  0.00     0.020 A 
ATOM     83  C   UNL A   1      50.447  25.845  31.847  1.00  0.00     0.054 A 
BRANCH  83  84
ATOM     84  S   UNL A   1      52.134  25.333  32.283  1.00  0.00     0.124 S 
ATOM     85  O   UNL A   1      51.998  23.881  32.363  1.00  0.00    -0.237 OA
ATOM     86  O   UNL A   1      52.923  25.829  31.159  1.00  0.00    -0.237 OA
ATOM     87  O   UNL A   1      52.381  26.007  33.556  1.00  0.00    -0.744 OA
ENDBRANCH  83  84
ENDBRANCH  57  78
ENDBRANCH  31  32
ENDBRANCH  24  26
ENDBRANCH  23  24
ENDBRANCH  22  23
ENDBRANCH  21  22
ENDBRANCH   1  21
TORSDOF 21
ENDMDL
MODEL 2
REMARK VINA RESULT:      -8.8      4.848     10.529
REMARK SMILES [NH3+]CC(=O)N1C[C@H](O)C[C@H]1C(=O)OCCOCCOC(=O)c1ccc(-c2c3nc(c(-c4ccc(S(=O)(=O)[O-])cc4)c4ccc([nH]4)c(-c4ccc(S(=O)(=O)[O-])cc4)c4nc(c(-c5ccc(S(=O)(=O)[O-])cc5)c5ccc2[nH]5)C=C4)C=C3)cc1
REMARK SMILES IDX 16 1 15 2 14 3 13 4 11 5 12 6 10 7 5 8 6 9 7 10 9 11 3 12
REMARK SMILES IDX 4 13 2 14 1 15 8 19 17 21 18 22 19 23 20 24 21 25 22 26
REMARK SMILES IDX 23 27 81 28 24 29 80 30 25 31 26 32 27 33 74 34 28 35 79 36
REMARK SMILES IDX 73 37 75 38 29 39 78 40 72 41 71 42 30 44 60 45 41 46 59 47
REMARK SMILES IDX 42 48 45 49 58 50 76 51 43 52 44 53 57 55 77 56 46 57 31 58
REMARK SMILES IDX 32 59 40 60 33 61 39 62 34 63 35 64 36 65 37 66 38 67 61 68
REMARK SMILES IDX 62 69 70 70 63 71 69 72 64 73 65 74 66 75 67 76 68 77 47 78
REMARK SMILES IDX 48 79 56 80 49 81 55 82 50 83 51 84 52 85 53 86 54 87
REMARK H PARENT 1 16 1 17 1 18 8 20 75 43 45 54
REMARK Flexibility Score: inf
ROOT
ATOM      1  O   UNL A   1      38.524  21.533  25.541  1.00  0.00    -0.374 OA
ENDROOT
BRANCH   1   2
ATOM      2  C   UNL A   1      37.195  22.016  25.369  1.00  0.00     0.202 C 
BRANCH   2   3
ATOM      3  C   UNL A   1      36.095  20.967  25.167  1.00  0.00     0.261 C 
BRANCH   3   4
ATOM      4  O   UNL A   1      34.847  21.287  25.804  1.00  0.00    -0.462 OA
BRANCH   4   5
ATOM      5  C   UNL A   1      33.743  20.839  25.157  1.00  0.00     0.329 C 
ATOM      6  O   UNL A   1      33.461  19.654  24.988  1.00  0.00    -0.250 OA
BRANCH   5   7
ATOM      7  C   UNL A   1      32.806  21.949  24.667  1.00  0.00     0.198 C 
ATOM      8  N   UNL A   1      32.565  23.183  25.426  1.00  0.00    -0.321 N 
ATOM      9  C   UNL A   1      32.625  24.356  24.560  1.00  0.00     0.152 C 
ATOM     10  C   UNL A   1      32.697  23.799  23.140  1.00  0.00     0.136 C 
ATOM     11  C   UNL A   1      33.369  22.452  23.329  1.00  0.00     0.070 C 
BRANCH   8  12
ATOM     12  C   UNL A   1      31.821  23.211  26.585  1.00  0.00     0.278 C 
ATOM     13  O   UNL A   1      32.341  23.128  27.695  1.00  0.00    -0.268 OA
BRANCH  12  14
ATOM     14  C   UNL A   1      30.319  23.484  26.426  1.00  0.00     0.360 C 
BRANCH  14  15
ATOM     15  N   UNL A   1      29.530  22.445  27.104  1.00  0.00    -0.350 N 
ATOM     16  H   UNL A   1      28.587  22.426  26.716  1.00  0.00     0.344 HD
ATOM     17  H   UNL A   1      29.484  22.651  28.101  1.00  0.00     0.344 HD
ATOM     18  H   UNL A   1      29.974  21.537  26.965  1.00  0.00     0.344 HD
ENDBRANCH  14  15
ENDBRANCH  12  14
ENDBRANCH   8  12
BRANCH  10  19
ATOM     19  O   UNL A   1      31.398  23.625  22.576  1.00  0.00    -0.391 OA
ATOM     20  H   UNL A   1      30.776  23.360  23.271  1.00  0.00     0.211 HD
ENDBRANCH  10  19
ENDBRANCH   5   7
ENDBRANCH   4   5
ENDBRANCH   3   4
ENDBRANCH   2   3
ENDBRANCH   1   2
BRANCH   1  21
ATOM     21  C   UNL A   1      39.309  22.113  26.587  1.00  0.00     0.202 C 
BRANCH  21  22
ATOM     22  C   UNL A   1      40.083  23.389  26.245  1.00  0.00     0.261 C 
BRANCH  22  23
ATOM     23  O   UNL A   1      39.914  24.384  27.268  1.00  0.00    -0.460 OA
BRANCH  23  24
ATOM     24  C   UNL A   1      40.350  25.620  26.942  1.00  0.00     0.338 C 
ATOM     25  O   UNL A   1      40.824  25.972  25.869  1.00  0.00    -0.246 OA
BRANCH  24  26
ATOM     26  C   UNL A   1      40.010  26.578  28.008  1.00  0.00     0.060 A 
ATOM     27  C   UNL A   1      40.705  27.793  28.030  1.00  0.00     0.016 A 
ATOM     28  C   UNL A   1      39.122  26.249  29.034  1.00  0.00     0.016 A 
ATOM     29  C   UNL A   1      40.564  28.657  29.116  1.00  0.00     0.010 A 
ATOM     30  C   UNL A   1      38.990  27.113  30.129  1.00  0.00     0.010 A 
ATOM     31  C   UNL A   1      39.742  28.301  30.196  1.00  0.00    -0.014 A 
BRANCH  31  32
ATOM     32  C   UNL A   1      39.797  29.110  31.440  1.00  0.00     0.031 A 
ATOM     33  C   UNL A   1      40.913  28.873  32.423  1.00  0.00     0.074 A 
ATOM     34  C   UNL A   1      38.904  30.091  31.664  1.00  0.00     0.049 A 
ATOM     35  N   UNL A   1      41.186  29.511  33.533  1.00  0.00    -0.248 NA
ATOM     36  C   UNL A   1      41.848  27.780  32.111  1.00  0.00     0.031 C 
ATOM     37  C   UNL A   1      37.797  30.447  30.778  1.00  0.00     0.029 A 
ATOM     38  N   UNL A   1      38.797  30.974  32.710  1.00  0.00    -0.354 N 
ATOM     39  C   UNL A   1      42.324  28.901  34.051  1.00  0.00     0.074 A 
ATOM     40  C   UNL A   1      42.672  27.824  33.148  1.00  0.00     0.031 C 
ATOM     41  C   UNL A   1      37.123  31.478  31.316  1.00  0.00     0.029 A 
ATOM     42  C   UNL A   1      37.737  31.840  32.594  1.00  0.00     0.049 A 
ATOM     43  H   UNL A   1      39.421  30.987  33.472  1.00  0.00     0.167 HD
ATOM     44  C   UNL A   1      43.023  29.213  35.168  1.00  0.00     0.031 A 
ATOM     45  C   UNL A   1      37.304  32.811  33.423  1.00  0.00     0.031 A 
ATOM     46  C   UNL A   1      42.674  30.272  36.077  1.00  0.00     0.049 A 
ATOM     47  C   UNL A   1      38.056  33.094  34.696  1.00  0.00     0.074 A 
ATOM     48  C   UNL A   1      43.334  30.671  37.228  1.00  0.00     0.029 A 
ATOM     49  N   UNL A   1      41.563  31.090  35.951  1.00  0.00    -0.354 N 
ATOM     50  N   UNL A   1      39.151  32.532  35.149  1.00  0.00    -0.248 NA
ATOM     51  C   UNL A   1      37.518  34.149  35.566  1.00  0.00     0.031 C 
ATOM     52  C   UNL A   1      42.593  31.699  37.822  1.00  0.00     0.029 A 
ATOM     53  C   UNL A   1      41.501  31.973  37.015  1.00  0.00     0.049 A 
ATOM     54  H   UNL A   1      40.913  31.049  35.211  1.00  0.00     0.167 HD
ATOM     55  C   UNL A   1      39.444  33.180  36.346  1.00  0.00     0.074 A 
ATOM     56  C   UNL A   1      38.419  34.185  36.539  1.00  0.00     0.031 C 
ATOM     57  C   UNL A   1      40.471  32.964  37.204  1.00  0.00     0.031 A 
BRANCH  44  58
ATOM     58  C   UNL A   1      44.232  28.373  35.484  1.00  0.00    -0.014 A 
ATOM     59  C   UNL A   1      44.123  27.206  36.262  1.00  0.00     0.010 A 
ATOM     60  C   UNL A   1      45.488  28.737  34.967  1.00  0.00     0.010 A 
ATOM     61  C   UNL A   1      45.256  26.440  36.548  1.00  0.00     0.020 A 
ATOM     62  C   UNL A   1      46.619  27.961  35.232  1.00  0.00     0.020 A 
ATOM     63  C   UNL A   1      46.498  26.825  36.036  1.00  0.00     0.054 A 
BRANCH  63  64
ATOM     64  S   UNL A   1      47.951  25.806  36.409  1.00  0.00     0.124 S 
ATOM     65  O   UNL A   1      48.777  26.729  37.182  1.00  0.00    -0.237 OA
ATOM     66  O   UNL A   1      47.379  24.693  37.163  1.00  0.00    -0.237 OA
ATOM     67  O   UNL A   1      48.476  25.455  35.092  1.00  0.00    -0.744 OA
ENDBRANCH  63  64
ENDBRANCH  44  58
BRANCH  45  68
ATOM     68  C   UNL A   1      36.079  33.584  33.081  1.00  0.00    -0.014 A 
ATOM     69  C   UNL A   1      34.802  33.063  33.342  1.00  0.00     0.010 A 
ATOM     70  C   UNL A   1      36.194  34.854  32.487  1.00  0.00     0.010 A 
ATOM     71  C   UNL A   1      33.657  33.793  33.007  1.00  0.00     0.020 A 
ATOM     72  C   UNL A   1      35.054  35.598  32.172  1.00  0.00     0.020 A 
ATOM     73  C   UNL A   1      33.792  35.058  32.425  1.00  0.00     0.054 A 
BRANCH  73  74
ATOM     74  S   UNL A   1      32.297  36.018  32.052  1.00  0.00     0.124 S 
ATOM     75  O   UNL A   1      32.186  35.856  30.607  1.00  0.00    -0.237 OA
ATOM     76  O   UNL A   1      31.277  35.338  32.847  1.00  0.00    -0.237 OA
ATOM     77  O   UNL A   1      32.635  37.364  32.510  1.00  0.00    -0.744 OA
ENDBRANCH  73  74
ENDBRANCH  45  68
BRANCH  57  78
ATOM     78  C   UNL A   1      40.555  33.843  38.424  1.00  0.00    -0.014 A 
ATOM     79  C   UNL A   1      41.247  35.066  38.392  1.00  0.00     0.010 A 
ATOM     80  C   UNL A   1      39.887  33.463  39.602  1.00  0.00     0.010 A 
ATOM     81  C   UNL A   1      41.296  35.880  39.527  1.00  0.00     0.020 A 
ATOM     82  C   UNL A   1      39.913  34.286  40.732  1.00  0.00     0.020 A 
ATOM     83  C   UNL A   1      40.630  35.483  40.691  1.00  0.00     0.054 A 
BRANCH  83  84
ATOM     84  S   UNL A   1      40.674  36.576  42.141  1.00  0.00     0.124 S 
ATOM     85  O   UNL A   1      40.895  37.883  41.528  1.00  0.00    -0.237 OA
ATOM     86  O   UNL A   1      39.355  36.376  42.736  1.00  0.00    -0.237 OA
ATOM     87  O   UNL A   1      41.791  36.059  42.929  1.00  0.00    -0.744 OA
ENDBRANCH  83  84
ENDBRANCH  57  78
ENDBRANCH  31  32
ENDBRANCH  24  26
ENDBRANCH  23  24
ENDBRANCH  22  23
ENDBRANCH  21  22
ENDBRANCH   1  21
TORSDOF 21
ENDMDL
MODEL 3
REMARK VINA RESULT:      -8.7      4.940     10.614
REMARK SMILES [NH3+]CC(=O)N1C[C@H](O)C[C@H]1C(=O)OCCOCCOC(=O)c1ccc(-c2c3nc(c(-c4ccc(S(=O)(=O)[O-])cc4)c4ccc([nH]4)c(-c4ccc(S(=O)(=O)[O-])cc4)c4nc(c(-c5ccc(S(=O)(=O)[O-])cc5)c5ccc2[nH]5)C=C4)C=C3)cc1
REMARK SMILES IDX 16 1 15 2 14 3 13 4 11 5 12 6 10 7 5 8 6 9 7 10 9 11 3 12
REMARK SMILES IDX 4 13 2 14 1 15 8 19 17 21 18 22 19 23 20 24 21 25 22 26
REMARK SMILES IDX 23 27 81 28 24 29 80 30 25 31 26 32 27 33 74 34 28 35 79 36
REMARK SMILES IDX 73 37 75 38 29 39 78 40 72 41 71 42 30 44 60 45 41 46 59 47
REMARK SMILES IDX 42 48 45 49 58 50 76 51 43 52 44 53 57 55 77 56 46 57 31 58
REMARK SMILES IDX 32 59 40 60 33 61 39 62 34 63 35 64 36 65 37 66 38 67 61 68
REMARK SMILES IDX 62 69 70 70 63 71 69 72 64 73 65 74 66 75 67 76 68 77 47 78
REMARK SMILES IDX 48 79 56 80 49 81 55 82 50 83 51 84 52 85 53 86 54 87
REMARK H PARENT 1 16 1 17 1 18 8 20 75 43 45 54
REMARK Flexibility Score: inf
ROOT
ATOM      1  O   UNL A   1      37.677  21.870  26.098  1.00  0.00    -0.374 OA
ENDROOT
BRANCH   1   2
ATOM      2  C   UNL A   1      36.418  21.974  25.439  1.00  0.00     0.202 C 
BRANCH   2   3
ATOM      3  C   UNL A   1      35.295  22.694  26.195  1.00  0.00     0.261 C 
BRANCH   3   4
ATOM      4  O   UNL A   1      35.222  24.106  25.943  1.00  0.00    -0.462 OA
BRANCH   4   5
ATOM      5  C   UNL A   1      33.976  24.578  25.691  1.00  0.00     0.329 C 
ATOM      6  O   UNL A   1      32.939  24.105  26.152  1.00  0.00    -0.250 OA
BRANCH   5   7
ATOM      7  C   UNL A   1      33.942  25.820  24.793  1.00  0.00     0.198 C 
ATOM      8  N   UNL A   1      32.934  26.018  23.744  1.00  0.00    -0.321 N 
ATOM      9  C   UNL A   1      32.394  27.373  23.779  1.00  0.00     0.152 C 
ATOM     10  C   UNL A   1      33.274  28.127  24.773  1.00  0.00     0.136 C 
ATOM     11  C   UNL A   1      33.748  27.035  25.713  1.00  0.00     0.070 C 
BRANCH   8  12
ATOM     12  C   UNL A   1      32.929  25.297  22.570  1.00  0.00     0.278 C 
ATOM     13  O   UNL A   1      33.746  24.407  22.348  1.00  0.00    -0.268 OA
BRANCH  12  14
ATOM     14  C   UNL A   1      31.767  25.572  21.605  1.00  0.00     0.360 C 
BRANCH  14  15
ATOM     15  N   UNL A   1      32.276  25.923  20.271  1.00  0.00    -0.350 N 
ATOM     16  H   UNL A   1      33.254  25.644  20.196  1.00  0.00     0.344 HD
ATOM     17  H   UNL A   1      32.197  26.930  20.132  1.00  0.00     0.344 HD
ATOM     18  H   UNL A   1      31.728  25.438  19.560  1.00  0.00     0.344 HD
ENDBRANCH  14  15
ENDBRANCH  12  14
ENDBRANCH   8  12
BRANCH  10  19
ATOM     19  O   UNL A   1      34.391  28.740  24.130  1.00  0.00    -0.391 OA
ATOM     20  H   UNL A   1      35.150  28.745  24.734  1.00  0.00     0.211 HD
ENDBRANCH  10  19
ENDBRANCH   5   7
ENDBRANCH   4   5
ENDBRANCH   3   4
ENDBRANCH   2   3
ENDBRANCH   1   2
BRANCH   1  21
ATOM     21  C   UNL A   1      38.677  22.840  25.774  1.00  0.00     0.202 C 
BRANCH  21  22
ATOM     22  C   UNL A   1      38.599  24.184  26.503  1.00  0.00     0.261 C 
BRANCH  22  23
ATOM     23  O   UNL A   1      39.861  24.519  27.103  1.00  0.00    -0.460 OA
BRANCH  23  24
ATOM     24  C   UNL A   1      40.306  25.766  26.840  1.00  0.00     0.338 C 
ATOM     25  O   UNL A   1      40.795  26.166  25.791  1.00  0.00    -0.246 OA
BRANCH  24  26
ATOM     26  C   UNL A   1      39.956  26.676  27.945  1.00  0.00     0.060 A 
ATOM     27  C   UNL A   1      40.536  27.950  27.942  1.00  0.00     0.016 A 
ATOM     28  C   UNL A   1      39.177  26.254  29.024  1.00  0.00     0.016 A 
ATOM     29  C   UNL A   1      40.393  28.783  29.051  1.00  0.00     0.010 A 
ATOM     30  C   UNL A   1      39.044  27.088  30.142  1.00  0.00     0.010 A 
ATOM     31  C   UNL A   1      39.686  28.339  30.178  1.00  0.00    -0.014 A 
BRANCH  31  32
ATOM     32  C   UNL A   1      39.755  29.135  31.431  1.00  0.00     0.031 A 
ATOM     33  C   UNL A   1      40.886  28.892  32.396  1.00  0.00     0.074 A 
ATOM     34  C   UNL A   1      38.860  30.109  31.679  1.00  0.00     0.049 A 
ATOM     35  N   UNL A   1      41.171  29.518  33.509  1.00  0.00    -0.248 NA
ATOM     36  C   UNL A   1      41.822  27.808  32.058  1.00  0.00     0.031 C 
ATOM     37  C   UNL A   1      37.739  30.468  30.812  1.00  0.00     0.029 A 
ATOM     38  N   UNL A   1      38.764  30.979  32.736  1.00  0.00    -0.354 N 
ATOM     39  C   UNL A   1      42.319  28.909  34.004  1.00  0.00     0.074 A 
ATOM     40  C   UNL A   1      42.660  27.844  33.084  1.00  0.00     0.031 C 
ATOM     41  C   UNL A   1      37.068  31.490  31.372  1.00  0.00     0.029 A 
ATOM     42  C   UNL A   1      37.697  31.841  32.644  1.00  0.00     0.049 A 
ATOM     43  H   UNL A   1      39.398  30.986  33.489  1.00  0.00     0.167 HD
ATOM     44  C   UNL A   1      43.032  29.211  35.115  1.00  0.00     0.031 A 
ATOM     45  C   UNL A   1      37.271  32.800  33.491  1.00  0.00     0.031 A 
ATOM     46  C   UNL A   1      42.690  30.258  36.041  1.00  0.00     0.049 A 
ATOM     47  C   UNL A   1      38.040  33.072  34.756  1.00  0.00     0.074 A 
ATOM     48  C   UNL A   1      43.364  30.648  37.186  1.00  0.00     0.029 A 
ATOM     49  N   UNL A   1      41.573  31.072  35.939  1.00  0.00    -0.354 N 
ATOM     50  N   UNL A   1      39.144  32.511  35.187  1.00  0.00    -0.248 NA
ATOM     51  C   UNL A   1      37.508  34.115  35.646  1.00  0.00     0.031 C 
ATOM     52  C   UNL A   1      42.627  31.666  37.803  1.00  0.00     0.029 A 
ATOM     53  C   UNL A   1      41.522  31.943  37.014  1.00  0.00     0.049 A 
ATOM     54  H   UNL A   1      40.914  31.036  35.208  1.00  0.00     0.167 HD
ATOM     55  C   UNL A   1      39.450  33.147  36.387  1.00  0.00     0.074 A 
ATOM     56  C   UNL A   1      38.424  34.144  36.606  1.00  0.00     0.031 C 
ATOM     57  C   UNL A   1      40.491  32.926  37.228  1.00  0.00     0.031 A 
BRANCH  44  58
ATOM     58  C   UNL A   1      44.250  28.375  35.404  1.00  0.00    -0.014 A 
ATOM     59  C   UNL A   1      44.164  27.219  36.202  1.00  0.00     0.010 A 
ATOM     60  C   UNL A   1      45.489  28.729  34.842  1.00  0.00     0.010 A 
ATOM     61  C   UNL A   1      45.304  26.456  36.463  1.00  0.00     0.020 A 
ATOM     62  C   UNL A   1      46.627  27.955  35.083  1.00  0.00     0.020 A 
ATOM     63  C   UNL A   1      46.530  26.831  35.906  1.00  0.00     0.054 A 
BRANCH  63  64
ATOM     64  S   UNL A   1      47.993  25.814  36.247  1.00  0.00     0.124 S 
ATOM     65  O   UNL A   1      47.954  24.851  35.150  1.00  0.00    -0.237 OA
ATOM     66  O   UNL A   1      49.081  26.787  36.190  1.00  0.00    -0.237 OA
ATOM     67  O   UNL A   1      47.727  25.259  37.572  1.00  0.00    -0.744 OA
ENDBRANCH  63  64
ENDBRANCH  44  58
BRANCH  45  68
ATOM     68  C   UNL A   1      36.038  33.571  33.174  1.00  0.00    -0.014 A 
ATOM     69  C   UNL A   1      34.767  33.007  33.366  1.00  0.00     0.010 A 
ATOM     70  C   UNL A   1      36.139  34.882  32.675  1.00  0.00     0.010 A 
ATOM     71  C   UNL A   1      33.615  33.736  33.057  1.00  0.00     0.020 A 
ATOM     72  C   UNL A   1      34.990  35.623  32.385  1.00  0.00     0.020 A 
ATOM     73  C   UNL A   1      33.735  35.041  32.569  1.00  0.00     0.054 A 
BRANCH  73  74
ATOM     74  S   UNL A   1      32.228  35.995  32.228  1.00  0.00     0.124 S 
ATOM     75  O   UNL A   1      32.342  36.239  30.795  1.00  0.00    -0.237 OA
ATOM     76  O   UNL A   1      31.170  35.071  32.632  1.00  0.00    -0.237 OA
ATOM     77  O   UNL A   1      32.373  37.173  33.081  1.00  0.00    -0.744 OA
ENDBRANCH  73  74
ENDBRANCH  45  68
BRANCH  57  78
ATOM     78  C   UNL A   1      40.587  33.792  38.457  1.00  0.00    -0.014 A 
ATOM     79  C   UNL A   1      41.242  35.035  38.420  1.00  0.00     0.010 A 
ATOM     80  C   UNL A   1      39.967  33.378  39.650  1.00  0.00     0.010 A 
ATOM     81  C   UNL A   1      41.303  35.836  39.564  1.00  0.00     0.020 A 
ATOM     82  C   UNL A   1      40.004  34.187  40.790  1.00  0.00     0.020 A 
ATOM     83  C   UNL A   1      40.686  35.405  40.743  1.00  0.00     0.054 A 
BRANCH  83  84
ATOM     84  S   UNL A   1      40.743  36.480  42.205  1.00  0.00     0.124 S 
ATOM     85  O   UNL A   1      42.068  37.081  42.087  1.00  0.00    -0.237 OA
ATOM     86  O   UNL A   1      39.620  37.386  41.984  1.00  0.00    -0.237 OA
ATOM     87  O   UNL A   1      40.576  35.552  43.322  1.00  0.00    -0.744 OA
ENDBRANCH  83  84
ENDBRANCH  57  78
ENDBRANCH  31  32
ENDBRANCH  24  26
ENDBRANCH  23  24
ENDBRANCH  22  23
ENDBRANCH  21  22
ENDBRANCH   1  21
TORSDOF 21
ENDMDL
