MODEL 1
REMARK VINA RESULT:      -9.8      0.000      0.000
REMARK SMILES O=C(NC[C@@H]1CC[C@H](C(=O)OCCOCCOC(=O)c2ccc(-c3c4nc(c(-c5ccc(S(=O)(=O)[O-])cc5)c5ccc([nH]5)c(-c5ccc(S(=O)(=O)[O-])cc5)c5nc(c(-c6ccc(S(=O)(=O)[O-])cc6)c6ccc3[nH]6)C=C5)C=C4)cc2)O1)c1ccc(CO)cc1
REMARK SMILES IDX 13 1 12 2 11 3 9 4 10 5 8 6 5 7 6 8 80 9 7 10 4 11 3 12 1 13
REMARK SMILES IDX 2 14 81 16 82 17 88 18 83 19 87 20 84 21 85 22 86 23 14 25
REMARK SMILES IDX 15 26 16 27 17 28 18 29 19 30 20 31 21 32 79 33 22 34 78 35
REMARK SMILES IDX 23 36 24 37 25 38 72 39 26 40 77 41 71 42 73 43 27 44 76 45
REMARK SMILES IDX 70 46 69 47 28 49 58 50 39 51 57 52 40 53 43 54 56 55 74 56
REMARK SMILES IDX 41 57 42 58 55 60 75 61 44 62 29 63 30 64 38 65 31 66 37 67
REMARK SMILES IDX 32 68 33 69 34 70 35 71 36 72 59 73 60 74 68 75 61 76 67 77
REMARK SMILES IDX 62 78 63 79 64 80 65 81 66 82 45 83 46 84 54 85 47 86 53 87
REMARK SMILES IDX 48 88 49 89 50 90 51 91 52 92
REMARK H PARENT 3 15 86 24 73 48 43 59
REMARK Flexibility Score: inf
ROOT
ATOM      1  C   UNL A   1      38.880  22.250  26.155  1.00  0.00     0.202 C 
ENDROOT
BRANCH   1   2
ATOM      2  C   UNL A   1      37.690  22.104  25.203  1.00  0.00     0.261 C 
BRANCH   2   3
ATOM      3  O   UNL A   1      36.873  23.286  25.186  1.00  0.00    -0.461 OA
BRANCH   3   4
ATOM      4  C   UNL A   1      35.587  23.108  24.790  1.00  0.00     0.335 C 
ATOM      5  O   UNL A   1      34.917  23.938  24.182  1.00  0.00    -0.249 OA
BRANCH   4   6
ATOM      6  C   UNL A   1      35.042  21.726  25.174  1.00  0.00     0.228 C 
ATOM      7  C   UNL A   1      32.717  21.535  25.351  1.00  0.00     0.138 C 
ATOM      8  C   UNL A   1      33.266  21.886  26.728  1.00  0.00     0.037 C 
ATOM      9  O   UNL A   1      33.839  21.438  24.452  1.00  0.00    -0.361 OA
ATOM     10  C   UNL A   1      34.713  21.481  26.636  1.00  0.00     0.047 C 
BRANCH   7  11
ATOM     11  C   UNL A   1      31.721  22.562  24.802  1.00  0.00     0.148 C 
BRANCH  11  12
ATOM     12  N   UNL A   1      30.629  22.833  25.722  1.00  0.00    -0.349 N 
ATOM     13  O   UNL A   1      29.501  24.048  27.254  1.00  0.00    -0.269 OA
ATOM     14  C   UNL A   1      30.309  24.019  26.332  1.00  0.00     0.251 C 
ATOM     15  H   UNL A   1      30.045  22.068  25.936  1.00  0.00     0.163 HD
BRANCH  14  16
ATOM     16  C   UNL A   1      31.008  25.247  25.907  1.00  0.00     0.039 A 
ATOM     17  C   UNL A   1      30.431  26.129  24.987  1.00  0.00     0.014 A 
ATOM     18  C   UNL A   1      32.287  25.478  26.399  1.00  0.00     0.014 A 
ATOM     19  C   UNL A   1      31.149  27.246  24.547  1.00  0.00     0.007 A 
ATOM     20  C   UNL A   1      33.010  26.564  25.913  1.00  0.00     0.007 A 
ATOM     21  C   UNL A   1      32.443  27.487  25.019  1.00  0.00    -0.023 A 
BRANCH  21  22
ATOM     22  C   UNL A   1      33.193  28.738  24.635  1.00  0.00     0.191 C 
BRANCH  22  23
ATOM     23  O   UNL A   1      32.366  29.883  24.745  1.00  0.00    -0.392 OA
ATOM     24  H   UNL A   1      32.425  30.404  23.929  1.00  0.00     0.211 HD
ENDBRANCH  22  23
ENDBRANCH  21  22
ENDBRANCH  14  16
ENDBRANCH  11  12
ENDBRANCH   7  11
ENDBRANCH   4   6
ENDBRANCH   3   4
ENDBRANCH   2   3
ENDBRANCH   1   2
BRANCH   1  25
ATOM     25  O   UNL A   1      40.013  21.417  25.890  1.00  0.00    -0.374 OA
BRANCH  25  26
ATOM     26  C   UNL A   1      41.207  21.684  26.619  1.00  0.00     0.202 C 
BRANCH  26  27
ATOM     27  C   UNL A   1      42.059  22.883  26.175  1.00  0.00     0.261 C 
BRANCH  27  28
ATOM     28  O   UNL A   1      41.352  24.136  26.136  1.00  0.00    -0.460 OA
BRANCH  28  29
ATOM     29  C   UNL A   1      42.153  25.229  26.049  1.00  0.00     0.338 C 
ATOM     30  O   UNL A   1      42.763  25.609  25.054  1.00  0.00    -0.246 OA
BRANCH  29  31
ATOM     31  C   UNL A   1      42.105  26.037  27.286  1.00  0.00     0.060 A 
ATOM     32  C   UNL A   1      41.062  25.781  28.187  1.00  0.00     0.016 A 
ATOM     33  C   UNL A   1      43.004  27.078  27.537  1.00  0.00     0.016 A 
ATOM     34  C   UNL A   1      40.898  26.576  29.326  1.00  0.00     0.010 A 
ATOM     35  C   UNL A   1      42.836  27.876  28.681  1.00  0.00     0.010 A 
ATOM     36  C   UNL A   1      41.773  27.643  29.577  1.00  0.00    -0.014 A 
BRANCH  36  37
ATOM     37  C   UNL A   1      41.496  28.591  30.695  1.00  0.00     0.031 A 
ATOM     38  C   UNL A   1      42.339  28.504  31.929  1.00  0.00     0.074 A 
ATOM     39  C   UNL A   1      40.528  29.526  30.627  1.00  0.00     0.049 A 
ATOM     40  N   UNL A   1      42.265  29.217  33.020  1.00  0.00    -0.248 NA
ATOM     41  C   UNL A   1      43.400  27.485  31.934  1.00  0.00     0.031 C 
ATOM     42  C   UNL A   1      39.665  29.722  29.479  1.00  0.00     0.029 A 
ATOM     43  N   UNL A   1      40.088  30.475  31.517  1.00  0.00    -0.354 N 
ATOM     44  C   UNL A   1      43.264  28.730  33.849  1.00  0.00     0.074 A 
ATOM     45  C   UNL A   1      43.909  27.642  33.146  1.00  0.00     0.031 C 
ATOM     46  C   UNL A   1      38.794  30.713  29.709  1.00  0.00     0.029 A 
ATOM     47  C   UNL A   1      39.010  31.207  31.059  1.00  0.00     0.049 A 
ATOM     48  H   UNL A   1      40.502  30.619  32.398  1.00  0.00     0.167 HD
ATOM     49  C   UNL A   1      43.613  29.161  35.082  1.00  0.00     0.031 A 
ATOM     50  C   UNL A   1      38.258  32.150  31.659  1.00  0.00     0.031 A 
ATOM     51  C   UNL A   1      42.942  30.224  35.784  1.00  0.00     0.049 A 
ATOM     52  C   UNL A   1      38.617  32.558  33.057  1.00  0.00     0.074 A 
ATOM     53  C   UNL A   1      43.231  30.740  37.034  1.00  0.00     0.029 A 
ATOM     54  N   UNL A   1      41.840  30.919  35.306  1.00  0.00    -0.354 N 
ATOM     55  N   UNL A   1      39.595  32.112  33.810  1.00  0.00    -0.248 NA
ATOM     56  C   UNL A   1      37.792  33.596  33.685  1.00  0.00     0.031 C 
ATOM     57  C   UNL A   1      42.266  31.705  37.338  1.00  0.00     0.029 A 
ATOM     58  C   UNL A   1      41.418  31.842  36.249  1.00  0.00     0.049 A 
ATOM     59  H   UNL A   1      41.420  30.778  34.427  1.00  0.00     0.167 HD
ATOM     60  C   UNL A   1      39.521  32.836  34.991  1.00  0.00     0.074 A 
ATOM     61  C   UNL A   1      38.411  33.758  34.847  1.00  0.00     0.031 C 
ATOM     62  C   UNL A   1      40.305  32.747  36.093  1.00  0.00     0.031 A 
BRANCH  49  63
ATOM     63  C   UNL A   1      44.746  28.442  35.758  1.00  0.00    -0.014 A 
ATOM     64  C   UNL A   1      46.067  28.919  35.670  1.00  0.00     0.010 A 
ATOM     65  C   UNL A   1      44.484  27.274  36.495  1.00  0.00     0.010 A 
ATOM     66  C   UNL A   1      47.112  28.215  36.272  1.00  0.00     0.020 A 
ATOM     67  C   UNL A   1      45.522  26.584  37.124  1.00  0.00     0.020 A 
ATOM     68  C   UNL A   1      46.832  27.051  36.994  1.00  0.00     0.054 A 
BRANCH  68  69
ATOM     69  S   UNL A   1      48.205  26.168  37.781  1.00  0.00     0.124 S 
ATOM     70  O   UNL A   1      48.132  24.860  37.135  1.00  0.00    -0.237 OA
ATOM     71  O   UNL A   1      49.360  26.985  37.415  1.00  0.00    -0.237 OA
ATOM     72  O   UNL A   1      47.860  26.180  39.200  1.00  0.00    -0.744 OA
ENDBRANCH  68  69
ENDBRANCH  49  63
BRANCH  50  73
ATOM     73  C   UNL A   1      37.098  32.760  30.945  1.00  0.00    -0.014 A 
ATOM     74  C   UNL A   1      35.779  32.392  31.264  1.00  0.00     0.010 A 
ATOM     75  C   UNL A   1      37.307  33.731  29.946  1.00  0.00     0.010 A 
ATOM     76  C   UNL A   1      34.695  32.970  30.592  1.00  0.00     0.020 A 
ATOM     77  C   UNL A   1      36.226  34.333  29.293  1.00  0.00     0.020 A 
ATOM     78  C   UNL A   1      34.925  33.941  29.613  1.00  0.00     0.054 A 
BRANCH  78  79
ATOM     79  S   UNL A   1      33.501  34.715  28.798  1.00  0.00     0.124 S 
ATOM     80  O   UNL A   1      32.592  34.940  29.917  1.00  0.00    -0.237 OA
ATOM     81  O   UNL A   1      34.091  35.916  28.210  1.00  0.00    -0.237 OA
ATOM     82  O   UNL A   1      33.068  33.708  27.832  1.00  0.00    -0.744 OA
ENDBRANCH  78  79
ENDBRANCH  50  73
BRANCH  62  83
ATOM     83  C   UNL A   1      40.016  33.700  37.219  1.00  0.00    -0.014 A 
ATOM     84  C   UNL A   1      40.485  35.025  37.194  1.00  0.00     0.010 A 
ATOM     85  C   UNL A   1      39.214  33.272  38.293  1.00  0.00     0.010 A 
ATOM     86  C   UNL A   1      40.180  35.897  38.241  1.00  0.00     0.020 A 
ATOM     87  C   UNL A   1      38.881  34.150  39.324  1.00  0.00     0.020 A 
ATOM     88  C   UNL A   1      39.378  35.455  39.298  1.00  0.00     0.054 A 
BRANCH  88  89
ATOM     89  S   UNL A   1      38.952  36.623  40.618  1.00  0.00     0.124 S 
ATOM     90  O   UNL A   1      40.216  36.740  41.339  1.00  0.00    -0.237 OA
ATOM     91  O   UNL A   1      38.540  37.810  39.872  1.00  0.00    -0.237 OA
ATOM     92  O   UNL A   1      37.879  35.948  41.346  1.00  0.00    -0.744 OA
ENDBRANCH  88  89
ENDBRANCH  62  83
ENDBRANCH  36  37
ENDBRANCH  29  31
ENDBRANCH  28  29
ENDBRANCH  27  28
ENDBRANCH  26  27
ENDBRANCH  25  26
ENDBRANCH   1  25
TORSDOF 22
ENDMDL
MODEL 2
REMARK VINA RESULT:      -9.7      6.417      8.543
REMARK SMILES O=C(NC[C@@H]1CC[C@H](C(=O)OCCOCCOC(=O)c2ccc(-c3c4nc(c(-c5ccc(S(=O)(=O)[O-])cc5)c5ccc([nH]5)c(-c5ccc(S(=O)(=O)[O-])cc5)c5nc(c(-c6ccc(S(=O)(=O)[O-])cc6)c6ccc3[nH]6)C=C5)C=C4)cc2)O1)c1ccc(CO)cc1
REMARK SMILES IDX 13 1 12 2 11 3 9 4 10 5 8 6 5 7 6 8 80 9 7 10 4 11 3 12 1 13
REMARK SMILES IDX 2 14 81 16 82 17 88 18 83 19 87 20 84 21 85 22 86 23 14 25
REMARK SMILES IDX 15 26 16 27 17 28 18 29 19 30 20 31 21 32 79 33 22 34 78 35
REMARK SMILES IDX 23 36 24 37 25 38 72 39 26 40 77 41 71 42 73 43 27 44 76 45
REMARK SMILES IDX 70 46 69 47 28 49 58 50 39 51 57 52 40 53 43 54 56 55 74 56
REMARK SMILES IDX 41 57 42 58 55 60 75 61 44 62 29 63 30 64 38 65 31 66 37 67
REMARK SMILES IDX 32 68 33 69 34 70 35 71 36 72 59 73 60 74 68 75 61 76 67 77
REMARK SMILES IDX 62 78 63 79 64 80 65 81 66 82 45 83 46 84 54 85 47 86 53 87
REMARK SMILES IDX 48 88 49 89 50 90 51 91 52 92
REMARK H PARENT 3 15 86 24 73 48 43 59
REMARK Flexibility Score: inf
ROOT
ATOM      1  C   UNL A   1      39.465  21.681  26.111  1.00  0.00     0.202 C 
ENDROOT
BRANCH   1   2
ATOM      2  C   UNL A   1      38.071  21.638  25.479  1.00  0.00     0.261 C 
BRANCH   2   3
ATOM      3  O   UNL A   1      37.225  22.682  25.985  1.00  0.00    -0.461 OA
BRANCH   3   4
ATOM      4  C   UNL A   1      35.889  22.445  25.916  1.00  0.00     0.335 C 
ATOM      5  O   UNL A   1      35.063  22.836  26.735  1.00  0.00    -0.249 OA
BRANCH   4   6
ATOM      6  C   UNL A   1      35.503  21.633  24.672  1.00  0.00     0.228 C 
ATOM      7  C   UNL A   1      33.384  22.050  23.773  1.00  0.00     0.138 C 
ATOM      8  C   UNL A   1      33.255  20.904  24.767  1.00  0.00     0.037 C 
ATOM      9  O   UNL A   1      34.770  22.443  23.746  1.00  0.00    -0.361 OA
ATOM     10  C   UNL A   1      34.664  20.385  24.881  1.00  0.00     0.047 C 
BRANCH   7  11
ATOM     11  C   UNL A   1      32.522  23.269  24.119  1.00  0.00     0.148 C 
BRANCH  11  12
ATOM     12  N   UNL A   1      31.643  23.032  25.251  1.00  0.00    -0.349 N 
ATOM     13  O   UNL A   1      30.746  23.487  27.272  1.00  0.00    -0.269 OA
ATOM     14  C   UNL A   1      31.320  23.895  26.268  1.00  0.00     0.251 C 
ATOM     15  H   UNL A   1      31.226  22.141  25.293  1.00  0.00     0.163 HD
BRANCH  14  16
ATOM     16  C   UNL A   1      31.742  25.305  26.164  1.00  0.00     0.039 A 
ATOM     17  C   UNL A   1      30.815  26.323  25.915  1.00  0.00     0.014 A 
ATOM     18  C   UNL A   1      33.097  25.593  26.261  1.00  0.00     0.014 A 
ATOM     19  C   UNL A   1      31.254  27.641  25.748  1.00  0.00     0.007 A 
ATOM     20  C   UNL A   1      33.526  26.899  26.041  1.00  0.00     0.007 A 
ATOM     21  C   UNL A   1      32.616  27.948  25.826  1.00  0.00    -0.023 A 
BRANCH  21  22
ATOM     22  C   UNL A   1      33.099  29.375  25.750  1.00  0.00     0.191 C 
BRANCH  22  23
ATOM     23  O   UNL A   1      34.514  29.437  25.758  1.00  0.00    -0.392 OA
ATOM     24  H   UNL A   1      34.798  30.336  25.985  1.00  0.00     0.211 HD
ENDBRANCH  22  23
ENDBRANCH  21  22
ENDBRANCH  14  16
ENDBRANCH  11  12
ENDBRANCH   7  11
ENDBRANCH   4   6
ENDBRANCH   3   4
ENDBRANCH   2   3
ENDBRANCH   1   2
BRANCH   1  25
ATOM     25  O   UNL A   1      40.058  20.419  26.433  1.00  0.00    -0.374 OA
BRANCH  25  26
ATOM     26  C   UNL A   1      41.410  20.425  26.880  1.00  0.00     0.202 C 
BRANCH  26  27
ATOM     27  C   UNL A   1      42.365  19.387  26.271  1.00  0.00     0.261 C 
BRANCH  27  28
ATOM     28  O   UNL A   1      42.791  19.683  24.928  1.00  0.00    -0.460 OA
BRANCH  28  29
ATOM     29  C   UNL A   1      44.136  19.784  24.775  1.00  0.00     0.338 C 
ATOM     30  O   UNL A   1      44.895  18.901  24.390  1.00  0.00    -0.246 OA
BRANCH  29  31
ATOM     31  C   UNL A   1      44.603  21.170  24.992  1.00  0.00     0.060 A 
ATOM     32  C   UNL A   1      45.187  21.470  26.231  1.00  0.00     0.016 A 
ATOM     33  C   UNL A   1      44.408  22.183  24.049  1.00  0.00     0.016 A 
ATOM     34  C   UNL A   1      45.557  22.783  26.541  1.00  0.00     0.010 A 
ATOM     35  C   UNL A   1      44.778  23.502  24.364  1.00  0.00     0.010 A 
ATOM     36  C   UNL A   1      45.340  23.816  25.618  1.00  0.00    -0.014 A 
BRANCH  36  37
ATOM     37  C   UNL A   1      45.576  25.235  26.014  1.00  0.00     0.031 A 
ATOM     38  C   UNL A   1      46.974  25.766  25.967  1.00  0.00     0.074 A 
ATOM     39  C   UNL A   1      44.576  26.054  26.397  1.00  0.00     0.049 A 
ATOM     40  N   UNL A   1      47.406  26.958  26.278  1.00  0.00    -0.248 NA
ATOM     41  C   UNL A   1      48.020  24.836  25.513  1.00  0.00     0.031 C 
ATOM     42  C   UNL A   1      43.182  25.663  26.459  1.00  0.00     0.029 A 
ATOM     43  N   UNL A   1      44.554  27.363  26.812  1.00  0.00    -0.354 N 
ATOM     44  C   UNL A   1      48.776  26.923  26.065  1.00  0.00     0.074 A 
ATOM     45  C   UNL A   1      49.106  25.584  25.629  1.00  0.00     0.031 C 
ATOM     46  C   UNL A   1      42.426  26.683  26.885  1.00  0.00     0.029 A 
ATOM     47  C   UNL A   1      43.298  27.810  27.172  1.00  0.00     0.049 A 
ATOM     48  H   UNL A   1      45.359  27.929  26.850  1.00  0.00     0.167 HD
ATOM     49  C   UNL A   1      49.672  27.925  26.215  1.00  0.00     0.031 A 
ATOM     50  C   UNL A   1      42.889  28.980  27.700  1.00  0.00     0.031 A 
ATOM     51  C   UNL A   1      49.336  29.244  26.681  1.00  0.00     0.049 A 
ATOM     52  C   UNL A   1      43.915  30.050  27.928  1.00  0.00     0.074 A 
ATOM     53  C   UNL A   1      50.174  30.331  26.854  1.00  0.00     0.029 A 
ATOM     54  N   UNL A   1      48.065  29.651  27.065  1.00  0.00    -0.354 N 
ATOM     55  N   UNL A   1      45.203  30.010  27.680  1.00  0.00    -0.248 NA
ATOM     56  C   UNL A   1      43.444  31.321  28.491  1.00  0.00     0.031 C 
ATOM     57  C   UNL A   1      49.422  31.375  27.400  1.00  0.00     0.029 A 
ATOM     58  C   UNL A   1      48.101  30.965  27.502  1.00  0.00     0.049 A 
ATOM     59  H   UNL A   1      47.257  29.089  27.031  1.00  0.00     0.167 HD
ATOM     60  C   UNL A   1      45.693  31.260  28.030  1.00  0.00     0.074 A 
ATOM     61  C   UNL A   1      44.560  32.038  28.493  1.00  0.00     0.031 C 
ATOM     62  C   UNL A   1      46.965  31.722  27.967  1.00  0.00     0.031 A 
BRANCH  49  63
ATOM     63  C   UNL A   1      51.108  27.602  25.910  1.00  0.00    -0.014 A 
ATOM     64  C   UNL A   1      51.634  27.773  24.617  1.00  0.00     0.010 A 
ATOM     65  C   UNL A   1      51.943  27.125  26.935  1.00  0.00     0.010 A 
ATOM     66  C   UNL A   1      52.960  27.432  24.344  1.00  0.00     0.020 A 
ATOM     67  C   UNL A   1      53.278  26.810  26.674  1.00  0.00     0.020 A 
ATOM     68  C   UNL A   1      53.773  26.950  25.375  1.00  0.00     0.054 A 
BRANCH  68  69
ATOM     69  S   UNL A   1      55.495  26.532  24.997  1.00  0.00     0.124 S 
ATOM     70  O   UNL A   1      56.201  27.088  26.149  1.00  0.00    -0.237 OA
ATOM     71  O   UNL A   1      55.461  25.074  24.927  1.00  0.00    -0.237 OA
ATOM     72  O   UNL A   1      55.748  27.209  23.727  1.00  0.00    -0.744 OA
ENDBRANCH  68  69
ENDBRANCH  49  63
BRANCH  50  73
ATOM     73  C   UNL A   1      41.454  29.192  28.048  1.00  0.00    -0.014 A 
ATOM     74  C   UNL A   1      40.454  29.131  27.062  1.00  0.00     0.010 A 
ATOM     75  C   UNL A   1      41.074  29.441  29.382  1.00  0.00     0.010 A 
ATOM     76  C   UNL A   1      39.109  29.327  27.396  1.00  0.00     0.020 A 
ATOM     77  C   UNL A   1      39.728  29.608  29.727  1.00  0.00     0.020 A 
ATOM     78  C   UNL A   1      38.753  29.561  28.729  1.00  0.00     0.054 A 
BRANCH  78  79
ATOM     79  S   UNL A   1      36.997  29.755  29.144  1.00  0.00     0.124 S 
ATOM     80  O   UNL A   1      36.872  28.930  30.340  1.00  0.00    -0.237 OA
ATOM     81  O   UNL A   1      36.883  31.196  29.353  1.00  0.00    -0.237 OA
ATOM     82  O   UNL A   1      36.306  29.250  27.959  1.00  0.00    -0.744 OA
ENDBRANCH  78  79
ENDBRANCH  50  73
BRANCH  62  83
ATOM     83  C   UNL A   1      47.197  33.150  28.375  1.00  0.00    -0.014 A 
ATOM     84  C   UNL A   1      47.555  33.486  29.693  1.00  0.00     0.010 A 
ATOM     85  C   UNL A   1      47.105  34.166  27.406  1.00  0.00     0.010 A 
ATOM     86  C   UNL A   1      47.789  34.818  30.040  1.00  0.00     0.020 A 
ATOM     87  C   UNL A   1      47.369  35.493  27.742  1.00  0.00     0.020 A 
ATOM     88  C   UNL A   1      47.697  35.813  29.061  1.00  0.00     0.054 A 
BRANCH  88  89
ATOM     89  S   UNL A   1      48.058  37.528  29.525  1.00  0.00     0.124 S 
ATOM     90  O   UNL A   1      48.032  37.460  30.984  1.00  0.00    -0.237 OA
ATOM     91  O   UNL A   1      49.373  37.749  28.929  1.00  0.00    -0.237 OA
ATOM     92  O   UNL A   1      46.968  38.289  28.918  1.00  0.00    -0.744 OA
ENDBRANCH  88  89
ENDBRANCH  62  83
ENDBRANCH  36  37
ENDBRANCH  29  31
ENDBRANCH  28  29
ENDBRANCH  27  28
ENDBRANCH  26  27
ENDBRANCH  25  26
ENDBRANCH   1  25
TORSDOF 22
ENDMDL
MODEL 3
REMARK VINA RESULT:      -9.5      1.987      3.435
REMARK SMILES O=C(NC[C@@H]1CC[C@H](C(=O)OCCOCCOC(=O)c2ccc(-c3c4nc(c(-c5ccc(S(=O)(=O)[O-])cc5)c5ccc([nH]5)c(-c5ccc(S(=O)(=O)[O-])cc5)c5nc(c(-c6ccc(S(=O)(=O)[O-])cc6)c6ccc3[nH]6)C=C5)C=C4)cc2)O1)c1ccc(CO)cc1
REMARK SMILES IDX 13 1 12 2 11 3 9 4 10 5 8 6 5 7 6 8 80 9 7 10 4 11 3 12 1 13
REMARK SMILES IDX 2 14 81 16 82 17 88 18 83 19 87 20 84 21 85 22 86 23 14 25
REMARK SMILES IDX 15 26 16 27 17 28 18 29 19 30 20 31 21 32 79 33 22 34 78 35
REMARK SMILES IDX 23 36 24 37 25 38 72 39 26 40 77 41 71 42 73 43 27 44 76 45
REMARK SMILES IDX 70 46 69 47 28 49 58 50 39 51 57 52 40 53 43 54 56 55 74 56
REMARK SMILES IDX 41 57 42 58 55 60 75 61 44 62 29 63 30 64 38 65 31 66 37 67
REMARK SMILES IDX 32 68 33 69 34 70 35 71 36 72 59 73 60 74 68 75 61 76 67 77
REMARK SMILES IDX 62 78 63 79 64 80 65 81 66 82 45 83 46 84 54 85 47 86 53 87
REMARK SMILES IDX 48 88 49 89 50 90 51 91 52 92
REMARK H PARENT 3 15 86 24 73 48 43 59
REMARK Flexibility Score: inf
ROOT
ATOM      1  C   UNL A   1      39.559  20.831  26.122  1.00  0.00     0.202 C 
ENDROOT
BRANCH   1   2
ATOM      2  C   UNL A   1      38.724  19.760  25.416  1.00  0.00     0.261 C 
BRANCH   2   3
ATOM      3  O   UNL A   1      37.810  20.336  24.468  1.00  0.00    -0.461 OA
BRANCH   3   4
ATOM      4  C   UNL A   1      36.860  21.156  24.987  1.00  0.00     0.335 C 
ATOM      5  O   UNL A   1      35.969  20.803  25.754  1.00  0.00    -0.249 OA
BRANCH   4   6
ATOM      6  C   UNL A   1      37.023  22.609  24.519  1.00  0.00     0.228 C 
ATOM      7  C   UNL A   1      35.149  23.990  24.740  1.00  0.00     0.138 C 
ATOM      8  C   UNL A   1      35.114  23.371  23.350  1.00  0.00     0.037 C 
ATOM      9  O   UNL A   1      36.334  23.504  25.400  1.00  0.00    -0.361 OA
ATOM     10  C   UNL A   1      36.543  22.955  23.121  1.00  0.00     0.047 C 
BRANCH   7  11
ATOM     11  C   UNL A   1      33.923  23.655  25.597  1.00  0.00     0.148 C 
BRANCH  11  12
ATOM     12  N   UNL A   1      32.671  23.997  24.944  1.00  0.00    -0.349 N 
ATOM     13  O   UNL A   1      30.959  23.672  23.510  1.00  0.00    -0.269 OA
ATOM     14  C   UNL A   1      31.865  23.191  24.180  1.00  0.00     0.251 C 
ATOM     15  H   UNL A   1      32.362  24.925  25.064  1.00  0.00     0.163 HD
BRANCH  14  16
ATOM     16  C   UNL A   1      32.155  21.745  24.125  1.00  0.00     0.039 A 
ATOM     17  C   UNL A   1      32.156  21.051  22.910  1.00  0.00     0.014 A 
ATOM     18  C   UNL A   1      32.373  21.073  25.321  1.00  0.00     0.014 A 
ATOM     19  C   UNL A   1      32.362  19.668  22.897  1.00  0.00     0.007 A 
ATOM     20  C   UNL A   1      32.524  19.690  25.300  1.00  0.00     0.007 A 
ATOM     21  C   UNL A   1      32.567  18.972  24.093  1.00  0.00    -0.023 A 
BRANCH  21  22
ATOM     22  C   UNL A   1      32.892  17.498  24.091  1.00  0.00     0.191 C 
BRANCH  22  23
ATOM     23  O   UNL A   1      32.064  16.792  24.999  1.00  0.00    -0.392 OA
ATOM     24  H   UNL A   1      31.441  17.408  25.414  1.00  0.00     0.211 HD
ENDBRANCH  22  23
ENDBRANCH  21  22
ENDBRANCH  14  16
ENDBRANCH  11  12
ENDBRANCH   7  11
ENDBRANCH   4   6
ENDBRANCH   3   4
ENDBRANCH   2   3
ENDBRANCH   1   2
BRANCH   1  25
ATOM     25  O   UNL A   1      40.580  20.362  27.008  1.00  0.00    -0.374 OA
BRANCH  25  26
ATOM     26  C   UNL A   1      41.816  19.960  26.428  1.00  0.00     0.202 C 
BRANCH  26  27
ATOM     27  C   UNL A   1      42.799  21.064  26.008  1.00  0.00     0.261 C 
BRANCH  27  28
ATOM     28  O   UNL A   1      42.185  22.203  25.378  1.00  0.00    -0.460 OA
BRANCH  28  29
ATOM     29  C   UNL A   1      42.980  23.301  25.305  1.00  0.00     0.338 C 
ATOM     30  O   UNL A   1      43.845  23.520  24.463  1.00  0.00    -0.246 OA
BRANCH  29  31
ATOM     31  C   UNL A   1      42.589  24.321  26.301  1.00  0.00     0.060 A 
ATOM     32  C   UNL A   1      43.237  25.563  26.246  1.00  0.00     0.016 A 
ATOM     33  C   UNL A   1      41.672  24.058  27.323  1.00  0.00     0.016 A 
ATOM     34  C   UNL A   1      42.990  26.536  27.220  1.00  0.00     0.010 A 
ATOM     35  C   UNL A   1      41.426  25.036  28.301  1.00  0.00     0.010 A 
ATOM     36  C   UNL A   1      42.095  26.276  28.268  1.00  0.00    -0.014 A 
BRANCH  36  37
ATOM     37  C   UNL A   1      41.963  27.245  29.395  1.00  0.00     0.031 A 
ATOM     38  C   UNL A   1      42.918  27.140  30.542  1.00  0.00     0.074 A 
ATOM     39  C   UNL A   1      41.026  28.214  29.409  1.00  0.00     0.049 A 
ATOM     40  N   UNL A   1      42.977  27.866  31.626  1.00  0.00    -0.248 NA
ATOM     41  C   UNL A   1      43.938  26.082  30.459  1.00  0.00     0.031 C 
ATOM     42  C   UNL A   1      40.063  28.430  28.347  1.00  0.00     0.029 A 
ATOM     43  N   UNL A   1      40.709  29.187  30.324  1.00  0.00    -0.354 N 
ATOM     44  C   UNL A   1      44.034  27.351  32.361  1.00  0.00     0.074 A 
ATOM     45  C   UNL A   1      44.568  26.232  31.614  1.00  0.00     0.031 C 
ATOM     46  C   UNL A   1      39.255  29.455  28.647  1.00  0.00     0.029 A 
ATOM     47  C   UNL A   1      39.618  29.954  29.963  1.00  0.00     0.049 A 
ATOM     48  H   UNL A   1      41.212  29.325  31.159  1.00  0.00     0.167 HD
ATOM     49  C   UNL A   1      44.516  27.781  33.548  1.00  0.00     0.031 A 
ATOM     50  C   UNL A   1      38.962  30.930  30.620  1.00  0.00     0.031 A 
ATOM     51  C   UNL A   1      43.954  28.875  34.297  1.00  0.00     0.049 A 
ATOM     52  C   UNL A   1      39.471  31.339  31.971  1.00  0.00     0.074 A 
ATOM     53  C   UNL A   1      44.382  29.393  35.506  1.00  0.00     0.029 A 
ATOM     54  N   UNL A   1      42.837  29.605  33.919  1.00  0.00    -0.354 N 
ATOM     55  N   UNL A   1      40.501  30.865  32.631  1.00  0.00    -0.248 NA
ATOM     56  C   UNL A   1      38.748  32.413  32.662  1.00  0.00     0.031 C 
ATOM     57  C   UNL A   1      43.486  30.396  35.889  1.00  0.00     0.029 A 
ATOM     58  C   UNL A   1      42.541  30.552  34.886  1.00  0.00     0.049 A 
ATOM     59  H   UNL A   1      42.328  29.471  33.087  1.00  0.00     0.167 HD
ATOM     60  C   UNL A   1      40.568  31.603  33.805  1.00  0.00     0.074 A 
ATOM     61  C   UNL A   1      39.483  32.564  33.756  1.00  0.00     0.031 C 
ATOM     62  C   UNL A   1      41.452  31.496  34.826  1.00  0.00     0.031 A 
BRANCH  49  63
ATOM     63  C   UNL A   1      45.683  27.028  34.121  1.00  0.00    -0.014 A 
ATOM     64  C   UNL A   1      45.494  25.997  35.059  1.00  0.00     0.010 A 
ATOM     65  C   UNL A   1      46.987  27.354  33.711  1.00  0.00     0.010 A 
ATOM     66  C   UNL A   1      46.593  25.334  35.609  1.00  0.00     0.020 A 
ATOM     67  C   UNL A   1      48.088  26.673  34.236  1.00  0.00     0.020 A 
ATOM     68  C   UNL A   1      47.884  25.678  35.195  1.00  0.00     0.054 A 
BRANCH  68  69
ATOM     69  S   UNL A   1      49.290  24.789  35.911  1.00  0.00     0.124 S 
ATOM     70  O   UNL A   1      48.626  23.847  36.808  1.00  0.00    -0.237 OA
ATOM     71  O   UNL A   1      49.924  24.197  34.737  1.00  0.00    -0.237 OA
ATOM     72  O   UNL A   1      50.064  25.837  36.572  1.00  0.00    -0.744 OA
ENDBRANCH  68  69
ENDBRANCH  49  63
BRANCH  50  73
ATOM     73  C   UNL A   1      37.761  31.575  30.014  1.00  0.00    -0.014 A 
ATOM     74  C   UNL A   1      36.485  31.004  30.159  1.00  0.00     0.010 A 
ATOM     75  C   UNL A   1      37.885  32.781  29.296  1.00  0.00     0.010 A 
ATOM     76  C   UNL A   1      35.361  31.615  29.590  1.00  0.00     0.020 A 
ATOM     77  C   UNL A   1      36.761  33.412  28.751  1.00  0.00     0.020 A 
ATOM     78  C   UNL A   1      35.506  32.819  28.893  1.00  0.00     0.054 A 
BRANCH  78  79
ATOM     79  S   UNL A   1      34.025  33.620  28.214  1.00  0.00     0.124 S 
ATOM     80  O   UNL A   1      33.425  34.213  29.405  1.00  0.00    -0.237 OA
ATOM     81  O   UNL A   1      34.593  34.563  27.254  1.00  0.00    -0.237 OA
ATOM     82  O   UNL A   1      33.278  32.514  27.620  1.00  0.00    -0.744 OA
ENDBRANCH  78  79
ENDBRANCH  50  73
BRANCH  62  83
ATOM     83  C   UNL A   1      41.308  32.470  35.961  1.00  0.00    -0.014 A 
ATOM     84  C   UNL A   1      41.992  33.699  35.962  1.00  0.00     0.010 A 
ATOM     85  C   UNL A   1      40.429  32.169  37.018  1.00  0.00     0.010 A 
ATOM     86  C   UNL A   1      41.820  34.597  37.018  1.00  0.00     0.020 A 
ATOM     87  C   UNL A   1      40.232  33.078  38.057  1.00  0.00     0.020 A 
ATOM     88  C   UNL A   1      40.938  34.282  38.057  1.00  0.00     0.054 A 
BRANCH  88  89
ATOM     89  S   UNL A   1      40.692  35.489  39.388  1.00  0.00     0.124 S 
ATOM     90  O   UNL A   1      40.866  34.665  40.581  1.00  0.00    -0.237 OA
ATOM     91  O   UNL A   1      41.751  36.462  39.135  1.00  0.00    -0.237 OA
ATOM     92  O   UNL A   1      39.335  35.981  39.163  1.00  0.00    -0.744 OA
ENDBRANCH  88  89
ENDBRANCH  62  83
ENDBRANCH  36  37
ENDBRANCH  29  31
ENDBRANCH  28  29
ENDBRANCH  27  28
ENDBRANCH  26  27
ENDBRANCH  25  26
ENDBRANCH   1  25
TORSDOF 22
ENDMDL
