MODEL 1
REMARK VINA RESULT:     -10.1      0.000      0.000
REMARK SMILES Cc1nn(C)cc1CNC(=O)[C@H]1[C@@H]2CC[C@@H](C2)[C@@H]1C(=O)OCCOCCOC(=O)c1ccc(-c2c3nc(c(-c4ccc(S(=O)(=O)[O-])cc4)c4ccc([nH]4)c(-c4ccc(S(=O)(=O)[O-])cc4)c4nc(c(-c5ccc(S(=O)(=O)[O-])cc5)c5ccc2[nH]5)C=C4)C=C3)cc1
REMARK SMILES IDX 24 1 23 2 22 3 21 4 19 5 20 6 18 7 12 8 13 9 14 10 17 11
REMARK SMILES IDX 16 12 15 13 10 14 9 15 11 17 8 18 7 19 1 20 2 21 3 22 4 23
REMARK SMILES IDX 6 24 5 25 25 26 26 27 27 28 28 29 29 30 30 31 31 32 89 33
REMARK SMILES IDX 32 34 88 35 33 36 34 37 35 38 82 39 36 40 87 41 81 42 83 43
REMARK SMILES IDX 37 44 86 45 80 46 79 47 38 49 68 50 49 51 67 52 50 53 53 54
REMARK SMILES IDX 66 55 84 56 51 57 52 58 65 60 85 61 54 62 39 63 40 64 48 65
REMARK SMILES IDX 41 66 47 67 42 68 43 69 44 70 45 71 46 72 69 73 70 74 78 75
REMARK SMILES IDX 71 76 77 77 72 78 73 79 74 80 75 81 76 82 55 83 56 84 64 85
REMARK SMILES IDX 57 86 63 87 58 88 59 89 60 90 61 91 62 92
REMARK H PARENT 9 16 83 48 53 59
REMARK Flexibility Score: inf
ROOT
ATOM      1  O   UNL A   1      36.945  23.725  25.598  1.00  0.00    -0.374 OA
ENDROOT
BRANCH   1   2
ATOM      2  C   UNL A   1      35.761  23.078  25.135  1.00  0.00     0.202 C 
BRANCH   2   3
ATOM      3  C   UNL A   1      34.461  23.886  25.171  1.00  0.00     0.261 C 
BRANCH   3   4
ATOM      4  O   UNL A   1      34.529  25.101  24.402  1.00  0.00    -0.463 OA
BRANCH   4   5
ATOM      5  C   UNL A   1      33.797  25.094  23.263  1.00  0.00     0.310 C 
ATOM      6  O   UNL A   1      33.871  24.237  22.387  1.00  0.00    -0.252 OA
BRANCH   5   7
ATOM      7  C   UNL A   1      32.795  26.213  23.180  1.00  0.00     0.115 C 
ATOM      8  C   UNL A   1      32.643  27.183  24.366  1.00  0.00     0.096 C 
ATOM      9  C   UNL A   1      31.097  27.424  24.376  1.00  0.00     0.002 C 
ATOM     10  C   UNL A   1      30.437  26.250  25.110  1.00  0.00     0.005 C 
ATOM     11  C   UNL A   1      30.657  27.120  22.935  1.00  0.00     0.009 C 
ATOM     12  C   UNL A   1      31.344  25.756  22.918  1.00  0.00     0.004 C 
ATOM     13  C   UNL A   1      30.703  25.080  24.154  1.00  0.00     0.005 C 
BRANCH   8  14
ATOM     14  C   UNL A   1      33.427  28.456  24.081  1.00  0.00     0.224 C 
ATOM     15  N   UNL A   1      34.064  29.095  25.102  1.00  0.00    -0.352 N 
ATOM     16  H   UNL A   1      34.656  29.829  24.819  1.00  0.00     0.163 HD
ATOM     17  O   UNL A   1      33.558  28.899  22.940  1.00  0.00    -0.275 OA
BRANCH  15  18
ATOM     18  C   UNL A   1      34.015  28.872  26.534  1.00  0.00     0.155 C 
BRANCH  18  19
ATOM     19  C   UNL A   1      34.383  30.119  27.263  1.00  0.00     0.012 A 
ATOM     20  C   UNL A   1      36.926  29.695  27.779  1.00  0.00     0.069 C 
ATOM     21  C   UNL A   1      35.665  30.481  27.774  1.00  0.00     0.064 A 
ATOM     22  N   UNL A   1      35.665  31.712  28.303  1.00  0.00    -0.178 NA
ATOM     23  N   UNL A   1      34.410  32.147  28.122  1.00  0.00    -0.275 N 
ATOM     24  C   UNL A   1      33.592  31.211  27.568  1.00  0.00     0.114 A 
ATOM     25  C   UNL A   1      34.062  33.498  28.487  1.00  0.00     0.173 C 
ENDBRANCH  18  19
ENDBRANCH  15  18
ENDBRANCH   8  14
ENDBRANCH   5   7
ENDBRANCH   4   5
ENDBRANCH   3   4
ENDBRANCH   2   3
ENDBRANCH   1   2
BRANCH   1  26
ATOM     26  C   UNL A   1      38.100  22.910  25.794  1.00  0.00     0.202 C 
BRANCH  26  27
ATOM     27  C   UNL A   1      39.245  23.520  26.610  1.00  0.00     0.261 C 
BRANCH  27  28
ATOM     28  O   UNL A   1      38.870  24.772  27.214  1.00  0.00    -0.460 OA
BRANCH  28  29
ATOM     29  C   UNL A   1      39.815  25.741  27.149  1.00  0.00     0.338 C 
ATOM     30  O   UNL A   1      40.548  25.991  26.201  1.00  0.00    -0.246 OA
BRANCH  29  31
ATOM     31  C   UNL A   1      39.713  26.624  28.328  1.00  0.00     0.060 A 
ATOM     32  C   UNL A   1      40.535  27.759  28.357  1.00  0.00     0.016 A 
ATOM     33  C   UNL A   1      38.870  26.335  29.402  1.00  0.00     0.016 A 
ATOM     34  C   UNL A   1      40.548  28.588  29.476  1.00  0.00     0.010 A 
ATOM     35  C   UNL A   1      38.896  27.161  30.532  1.00  0.00     0.010 A 
ATOM     36  C   UNL A   1      39.753  28.276  30.586  1.00  0.00    -0.014 A 
BRANCH  36  37
ATOM     37  C   UNL A   1      39.905  29.043  31.847  1.00  0.00     0.031 A 
ATOM     38  C   UNL A   1      38.947  30.167  32.141  1.00  0.00     0.074 A 
ATOM     39  C   UNL A   1      40.870  28.730  32.731  1.00  0.00     0.049 A 
ATOM     40  N   UNL A   1      38.953  31.020  33.132  1.00  0.00    -0.248 NA
ATOM     41  C   UNL A   1      37.834  30.350  31.194  1.00  0.00     0.031 C 
ATOM     42  C   UNL A   1      41.815  27.621  32.596  1.00  0.00     0.029 A 
ATOM     43  N   UNL A   1      41.222  29.327  33.917  1.00  0.00    -0.354 N 
ATOM     44  C   UNL A   1      37.850  31.842  32.930  1.00  0.00     0.074 A 
ATOM     45  C   UNL A   1      37.213  31.404  31.707  1.00  0.00     0.031 C 
ATOM     46  C   UNL A   1      42.648  27.627  33.653  1.00  0.00     0.029 A 
ATOM     47  C   UNL A   1      42.328  28.766  34.510  1.00  0.00     0.049 A 
ATOM     48  H   UNL A   1      40.729  30.086  34.304  1.00  0.00     0.167 HD
ATOM     49  C   UNL A   1      37.407  32.866  33.698  1.00  0.00     0.031 A 
ATOM     50  C   UNL A   1      43.025  29.150  35.598  1.00  0.00     0.031 A 
ATOM     51  C   UNL A   1      38.052  33.308  34.906  1.00  0.00     0.049 A 
ATOM     52  C   UNL A   1      42.584  30.374  36.362  1.00  0.00     0.074 A 
ATOM     53  C   UNL A   1      37.678  34.339  35.750  1.00  0.00     0.029 A 
ATOM     54  N   UNL A   1      39.204  32.752  35.439  1.00  0.00    -0.354 N 
ATOM     55  N   UNL A   1      41.534  31.135  36.166  1.00  0.00    -0.248 NA
ATOM     56  C   UNL A   1      43.427  30.794  37.491  1.00  0.00     0.031 C 
ATOM     57  C   UNL A   1      38.640  34.447  36.760  1.00  0.00     0.029 A 
ATOM     58  C   UNL A   1      39.576  33.441  36.581  1.00  0.00     0.049 A 
ATOM     59  H   UNL A   1      39.685  31.981  35.062  1.00  0.00     0.167 HD
ATOM     60  C   UNL A   1      41.579  32.106  37.161  1.00  0.00     0.074 A 
ATOM     61  C   UNL A   1      42.746  31.825  37.971  1.00  0.00     0.031 C 
ATOM     62  C   UNL A   1      40.736  33.145  37.382  1.00  0.00     0.031 A 
BRANCH  49  63
ATOM     63  C   UNL A   1      36.172  33.600  33.249  1.00  0.00    -0.014 A 
ATOM     64  C   UNL A   1      34.895  33.032  33.403  1.00  0.00     0.010 A 
ATOM     65  C   UNL A   1      36.282  34.910  32.745  1.00  0.00     0.010 A 
ATOM     66  C   UNL A   1      33.753  33.754  33.047  1.00  0.00     0.020 A 
ATOM     67  C   UNL A   1      35.141  35.643  32.412  1.00  0.00     0.020 A 
ATOM     68  C   UNL A   1      33.883  35.057  32.558  1.00  0.00     0.054 A 
BRANCH  68  69
ATOM     69  S   UNL A   1      32.377  35.988  32.158  1.00  0.00     0.124 S 
ATOM     70  O   UNL A   1      31.330  35.068  32.594  1.00  0.00    -0.237 OA
ATOM     71  O   UNL A   1      32.528  37.197  32.963  1.00  0.00    -0.237 OA
ATOM     72  O   UNL A   1      32.467  36.188  30.713  1.00  0.00    -0.744 OA
ENDBRANCH  68  69
ENDBRANCH  49  63
BRANCH  50  73
ATOM     73  C   UNL A   1      44.253  28.412  36.008  1.00  0.00    -0.014 A 
ATOM     74  C   UNL A   1      45.507  28.745  35.466  1.00  0.00     0.010 A 
ATOM     75  C   UNL A   1      44.164  27.333  36.908  1.00  0.00     0.010 A 
ATOM     76  C   UNL A   1      46.642  27.994  35.790  1.00  0.00     0.020 A 
ATOM     77  C   UNL A   1      45.300  26.602  37.261  1.00  0.00     0.020 A 
ATOM     78  C   UNL A   1      46.530  26.925  36.685  1.00  0.00     0.054 A 
BRANCH  78  79
ATOM     79  S   UNL A   1      48.016  25.975  37.106  1.00  0.00     0.124 S 
ATOM     80  O   UNL A   1      47.622  25.335  38.356  1.00  0.00    -0.237 OA
ATOM     81  O   UNL A   1      48.158  25.087  35.954  1.00  0.00    -0.237 OA
ATOM     82  O   UNL A   1      49.052  26.998  37.223  1.00  0.00    -0.744 OA
ENDBRANCH  78  79
ENDBRANCH  50  73
BRANCH  62  83
ATOM     83  C   UNL A   1      41.022  34.044  38.556  1.00  0.00    -0.014 A 
ATOM     84  C   UNL A   1      41.624  35.302  38.377  1.00  0.00     0.010 A 
ATOM     85  C   UNL A   1      40.615  33.657  39.847  1.00  0.00     0.010 A 
ATOM     86  C   UNL A   1      41.829  36.149  39.468  1.00  0.00     0.020 A 
ATOM     87  C   UNL A   1      40.791  34.514  40.937  1.00  0.00     0.020 A 
ATOM     88  C   UNL A   1      41.406  35.753  40.741  1.00  0.00     0.054 A 
BRANCH  88  89
ATOM     89  S   UNL A   1      41.621  36.903  42.127  1.00  0.00     0.124 S 
ATOM     90  O   UNL A   1      41.497  36.017  43.281  1.00  0.00    -0.237 OA
ATOM     91  O   UNL A   1      42.959  37.441  41.889  1.00  0.00    -0.237 OA
ATOM     92  O   UNL A   1      40.532  37.862  41.956  1.00  0.00    -0.744 OA
ENDBRANCH  88  89
ENDBRANCH  62  83
ENDBRANCH  36  37
ENDBRANCH  29  31
ENDBRANCH  28  29
ENDBRANCH  27  28
ENDBRANCH  26  27
ENDBRANCH   1  26
TORSDOF 20
ENDMDL
MODEL 2
REMARK VINA RESULT:      -9.9      6.950     11.912
REMARK SMILES Cc1nn(C)cc1CNC(=O)[C@H]1[C@@H]2CC[C@@H](C2)[C@@H]1C(=O)OCCOCCOC(=O)c1ccc(-c2c3nc(c(-c4ccc(S(=O)(=O)[O-])cc4)c4ccc([nH]4)c(-c4ccc(S(=O)(=O)[O-])cc4)c4nc(c(-c5ccc(S(=O)(=O)[O-])cc5)c5ccc2[nH]5)C=C4)C=C3)cc1
REMARK SMILES IDX 24 1 23 2 22 3 21 4 19 5 20 6 18 7 12 8 13 9 14 10 17 11
REMARK SMILES IDX 16 12 15 13 10 14 9 15 11 17 8 18 7 19 1 20 2 21 3 22 4 23
REMARK SMILES IDX 6 24 5 25 25 26 26 27 27 28 28 29 29 30 30 31 31 32 89 33
REMARK SMILES IDX 32 34 88 35 33 36 34 37 35 38 82 39 36 40 87 41 81 42 83 43
REMARK SMILES IDX 37 44 86 45 80 46 79 47 38 49 68 50 49 51 67 52 50 53 53 54
REMARK SMILES IDX 66 55 84 56 51 57 52 58 65 60 85 61 54 62 39 63 40 64 48 65
REMARK SMILES IDX 41 66 47 67 42 68 43 69 44 70 45 71 46 72 69 73 70 74 78 75
REMARK SMILES IDX 71 76 77 77 72 78 73 79 74 80 75 81 76 82 55 83 56 84 64 85
REMARK SMILES IDX 57 86 63 87 58 88 59 89 60 90 61 91 62 92
REMARK H PARENT 9 16 83 48 53 59
REMARK Flexibility Score: inf
ROOT
ATOM      1  O   UNL A   1      34.617  31.328  27.293  1.00  0.00    -0.374 OA
ENDROOT
BRANCH   1   2
ATOM      2  C   UNL A   1      34.361  29.925  27.274  1.00  0.00     0.202 C 
BRANCH   2   3
ATOM      3  C   UNL A   1      33.342  29.412  26.251  1.00  0.00     0.261 C 
BRANCH   3   4
ATOM      4  O   UNL A   1      32.538  28.329  26.751  1.00  0.00    -0.463 OA
BRANCH   4   5
ATOM      5  C   UNL A   1      32.824  27.117  26.220  1.00  0.00     0.310 C 
ATOM      6  O   UNL A   1      33.951  26.640  26.127  1.00  0.00    -0.252 OA
BRANCH   5   7
ATOM      7  C   UNL A   1      31.607  26.335  25.804  1.00  0.00     0.115 C 
ATOM      8  C   UNL A   1      31.777  24.910  25.247  1.00  0.00     0.096 C 
ATOM      9  C   UNL A   1      30.685  24.879  24.127  1.00  0.00     0.002 C 
ATOM     10  C   UNL A   1      31.264  25.554  22.878  1.00  0.00     0.005 C 
ATOM     11  C   UNL A   1      29.668  25.947  24.561  1.00  0.00     0.009 C 
ATOM     12  C   UNL A   1      30.738  27.024  24.731  1.00  0.00     0.004 C 
ATOM     13  C   UNL A   1      31.402  27.013  23.332  1.00  0.00     0.005 C 
BRANCH   8  14
ATOM     14  C   UNL A   1      31.503  23.899  26.352  1.00  0.00     0.224 C 
ATOM     15  N   UNL A   1      32.321  22.820  26.492  1.00  0.00    -0.352 N 
ATOM     16  H   UNL A   1      32.162  22.288  27.306  1.00  0.00     0.163 HD
ATOM     17  O   UNL A   1      30.597  24.059  27.170  1.00  0.00    -0.275 OA
BRANCH  15  18
ATOM     18  C   UNL A   1      33.388  22.324  25.644  1.00  0.00     0.155 C 
BRANCH  18  19
ATOM     19  C   UNL A   1      32.979  21.048  24.992  1.00  0.00     0.012 A 
ATOM     20  C   UNL A   1      32.255  21.886  22.607  1.00  0.00     0.069 C 
ATOM     21  C   UNL A   1      32.517  20.865  23.654  1.00  0.00     0.064 A 
ATOM     22  N   UNL A   1      32.314  19.572  23.365  1.00  0.00    -0.178 NA
ATOM     23  N   UNL A   1      32.656  18.928  24.490  1.00  0.00    -0.275 N 
ATOM     24  C   UNL A   1      32.995  19.766  25.507  1.00  0.00     0.114 A 
ATOM     25  C   UNL A   1      32.658  17.486  24.515  1.00  0.00     0.173 C 
ENDBRANCH  18  19
ENDBRANCH  15  18
ENDBRANCH   8  14
ENDBRANCH   5   7
ENDBRANCH   4   5
ENDBRANCH   3   4
ENDBRANCH   2   3
ENDBRANCH   1   2
BRANCH   1  26
ATOM     26  C   UNL A   1      34.011  32.089  28.337  1.00  0.00     0.202 C 
BRANCH  26  27
ATOM     27  C   UNL A   1      34.938  32.606  29.443  1.00  0.00     0.261 C 
BRANCH  27  28
ATOM     28  O   UNL A   1      36.273  32.080  29.317  1.00  0.00    -0.460 OA
BRANCH  28  29
ATOM     29  C   UNL A   1      36.590  31.112  30.210  1.00  0.00     0.338 C 
ATOM     30  O   UNL A   1      35.892  30.700  31.126  1.00  0.00    -0.246 OA
BRANCH  29  31
ATOM     31  C   UNL A   1      37.844  30.446  29.806  1.00  0.00     0.060 A 
ATOM     32  C   UNL A   1      38.747  30.102  30.821  1.00  0.00     0.016 A 
ATOM     33  C   UNL A   1      38.157  30.199  28.469  1.00  0.00     0.016 A 
ATOM     34  C   UNL A   1      39.984  29.546  30.501  1.00  0.00     0.010 A 
ATOM     35  C   UNL A   1      39.407  29.655  28.149  1.00  0.00     0.010 A 
ATOM     36  C   UNL A   1      40.337  29.350  29.160  1.00  0.00    -0.014 A 
BRANCH  36  37
ATOM     37  C   UNL A   1      41.719  28.940  28.808  1.00  0.00     0.031 A 
ATOM     38  C   UNL A   1      42.811  29.976  28.800  1.00  0.00     0.074 A 
ATOM     39  C   UNL A   1      42.002  27.657  28.517  1.00  0.00     0.049 A 
ATOM     40  N   UNL A   1      44.061  29.856  28.436  1.00  0.00    -0.248 NA
ATOM     41  C   UNL A   1      42.446  31.324  29.269  1.00  0.00     0.031 C 
ATOM     42  C   UNL A   1      41.049  26.548  28.559  1.00  0.00     0.029 A 
ATOM     43  N   UNL A   1      43.180  27.072  28.120  1.00  0.00    -0.354 N 
ATOM     44  C   UNL A   1      44.633  31.108  28.628  1.00  0.00     0.074 A 
ATOM     45  C   UNL A   1      43.587  31.982  29.115  1.00  0.00     0.031 C 
ATOM     46  C   UNL A   1      41.677  25.418  28.185  1.00  0.00     0.029 A 
ATOM     47  C   UNL A   1      43.060  25.733  27.834  1.00  0.00     0.049 A 
ATOM     48  H   UNL A   1      44.028  27.566  28.045  1.00  0.00     0.167 HD
ATOM     49  C   UNL A   1      45.915  31.494  28.422  1.00  0.00     0.031 A 
ATOM     50  C   UNL A   1      43.953  24.868  27.312  1.00  0.00     0.031 A 
ATOM     51  C   UNL A   1      46.949  30.626  27.924  1.00  0.00     0.049 A 
ATOM     52  C   UNL A   1      45.339  25.356  26.969  1.00  0.00     0.074 A 
ATOM     53  C   UNL A   1      48.278  30.926  27.679  1.00  0.00     0.029 A 
ATOM     54  N   UNL A   1      46.772  29.293  27.589  1.00  0.00    -0.354 N 
ATOM     55  N   UNL A   1      45.869  26.540  27.166  1.00  0.00    -0.248 NA
ATOM     56  C   UNL A   1      46.245  24.392  26.328  1.00  0.00     0.031 C 
ATOM     57  C   UNL A   1      48.889  29.792  27.137  1.00  0.00     0.029 A 
ATOM     58  C   UNL A   1      47.958  28.766  27.105  1.00  0.00     0.049 A 
ATOM     59  H   UNL A   1      45.929  28.794  27.681  1.00  0.00     0.167 HD
ATOM     60  C   UNL A   1      47.175  26.453  26.695  1.00  0.00     0.074 A 
ATOM     61  C   UNL A   1      47.364  25.096  26.225  1.00  0.00     0.031 C 
ATOM     62  C   UNL A   1      48.133  27.412  26.648  1.00  0.00     0.031 A 
BRANCH  49  63
ATOM     63  C   UNL A   1      46.277  32.925  28.715  1.00  0.00    -0.014 A 
ATOM     64  C   UNL A   1      46.717  33.314  29.992  1.00  0.00     0.010 A 
ATOM     65  C   UNL A   1      46.258  33.876  27.677  1.00  0.00     0.010 A 
ATOM     66  C   UNL A   1      47.117  34.632  30.230  1.00  0.00     0.020 A 
ATOM     67  C   UNL A   1      46.680  35.189  27.906  1.00  0.00     0.020 A 
ATOM     68  C   UNL A   1      47.101  35.559  29.184  1.00  0.00     0.054 A 
BRANCH  68  69
ATOM     69  S   UNL A   1      47.679  37.248  29.513  1.00  0.00     0.124 S 
ATOM     70  O   UNL A   1      48.082  37.161  30.914  1.00  0.00    -0.237 OA
ATOM     71  O   UNL A   1      48.769  37.403  28.554  1.00  0.00    -0.237 OA
ATOM     72  O   UNL A   1      46.503  38.074  29.254  1.00  0.00    -0.744 OA
ENDBRANCH  68  69
ENDBRANCH  49  63
BRANCH  50  73
ATOM     73  C   UNL A   1      43.560  23.461  27.018  1.00  0.00    -0.014 A 
ATOM     74  C   UNL A   1      43.537  22.981  25.697  1.00  0.00     0.010 A 
ATOM     75  C   UNL A   1      43.155  22.606  28.061  1.00  0.00     0.010 A 
ATOM     76  C   UNL A   1      43.085  21.686  25.421  1.00  0.00     0.020 A 
ATOM     77  C   UNL A   1      42.736  21.301  27.794  1.00  0.00     0.020 A 
ATOM     78  C   UNL A   1      42.686  20.855  26.472  1.00  0.00     0.054 A 
BRANCH  78  79
ATOM     79  S   UNL A   1      42.121  19.173  26.094  1.00  0.00     0.124 S 
ATOM     80  O   UNL A   1      42.994  18.803  24.985  1.00  0.00    -0.237 OA
ATOM     81  O   UNL A   1      42.360  18.472  27.353  1.00  0.00    -0.237 OA
ATOM     82  O   UNL A   1      40.713  19.357  25.751  1.00  0.00    -0.744 OA
ENDBRANCH  78  79
ENDBRANCH  50  73
BRANCH  62  83
ATOM     83  C   UNL A   1      49.480  27.030  26.092  1.00  0.00    -0.014 A 
ATOM     84  C   UNL A   1      50.412  26.324  26.873  1.00  0.00     0.010 A 
ATOM     85  C   UNL A   1      49.789  27.317  24.749  1.00  0.00     0.010 A 
ATOM     86  C   UNL A   1      51.633  25.924  26.325  1.00  0.00     0.020 A 
ATOM     87  C   UNL A   1      50.997  26.893  24.189  1.00  0.00     0.020 A 
ATOM     88  C   UNL A   1      51.916  26.206  24.985  1.00  0.00     0.054 A 
BRANCH  88  89
ATOM     89  S   UNL A   1      53.481  25.614  24.283  1.00  0.00     0.124 S 
ATOM     90  O   UNL A   1      54.462  26.431  24.991  1.00  0.00    -0.237 OA
ATOM     91  O   UNL A   1      53.472  24.197  24.636  1.00  0.00    -0.237 OA
ATOM     92  O   UNL A   1      53.350  25.895  22.855  1.00  0.00    -0.744 OA
ENDBRANCH  88  89
ENDBRANCH  62  83
ENDBRANCH  36  37
ENDBRANCH  29  31
ENDBRANCH  28  29
ENDBRANCH  27  28
ENDBRANCH  26  27
ENDBRANCH   1  26
TORSDOF 20
ENDMDL
MODEL 3
REMARK VINA RESULT:      -9.7      6.541      8.823
REMARK SMILES Cc1nn(C)cc1CNC(=O)[C@H]1[C@@H]2CC[C@@H](C2)[C@@H]1C(=O)OCCOCCOC(=O)c1ccc(-c2c3nc(c(-c4ccc(S(=O)(=O)[O-])cc4)c4ccc([nH]4)c(-c4ccc(S(=O)(=O)[O-])cc4)c4nc(c(-c5ccc(S(=O)(=O)[O-])cc5)c5ccc2[nH]5)C=C4)C=C3)cc1
REMARK SMILES IDX 24 1 23 2 22 3 21 4 19 5 20 6 18 7 12 8 13 9 14 10 17 11
REMARK SMILES IDX 16 12 15 13 10 14 9 15 11 17 8 18 7 19 1 20 2 21 3 22 4 23
REMARK SMILES IDX 6 24 5 25 25 26 26 27 27 28 28 29 29 30 30 31 31 32 89 33
REMARK SMILES IDX 32 34 88 35 33 36 34 37 35 38 82 39 36 40 87 41 81 42 83 43
REMARK SMILES IDX 37 44 86 45 80 46 79 47 38 49 68 50 49 51 67 52 50 53 53 54
REMARK SMILES IDX 66 55 84 56 51 57 52 58 65 60 85 61 54 62 39 63 40 64 48 65
REMARK SMILES IDX 41 66 47 67 42 68 43 69 44 70 45 71 46 72 69 73 70 74 78 75
REMARK SMILES IDX 71 76 77 77 72 78 73 79 74 80 75 81 76 82 55 83 56 84 64 85
REMARK SMILES IDX 57 86 63 87 58 88 59 89 60 90 61 91 62 92
REMARK H PARENT 9 16 83 48 53 59
REMARK Flexibility Score: inf
ROOT
ATOM      1  O   UNL A   1      38.917  21.936  26.122  1.00  0.00    -0.374 OA
ENDROOT
BRANCH   1   2
ATOM      2  C   UNL A   1      38.071  23.083  26.084  1.00  0.00     0.202 C 
BRANCH   2   3
ATOM      3  C   UNL A   1      36.596  22.855  25.738  1.00  0.00     0.261 C 
BRANCH   3   4
ATOM      4  O   UNL A   1      36.190  23.522  24.529  1.00  0.00    -0.463 OA
BRANCH   4   5
ATOM      5  C   UNL A   1      35.043  24.233  24.630  1.00  0.00     0.310 C 
ATOM      6  O   UNL A   1      34.848  25.141  25.433  1.00  0.00    -0.252 OA
BRANCH   5   7
ATOM      7  C   UNL A   1      34.010  23.868  23.598  1.00  0.00     0.115 C 
ATOM      8  C   UNL A   1      32.774  24.767  23.413  1.00  0.00     0.096 C 
ATOM      9  C   UNL A   1      31.654  23.707  23.146  1.00  0.00     0.002 C 
ATOM     10  C   UNL A   1      31.186  23.157  24.500  1.00  0.00     0.005 C 
ATOM     11  C   UNL A   1      32.411  22.483  22.608  1.00  0.00     0.009 C 
ATOM     12  C   UNL A   1      33.393  22.464  23.779  1.00  0.00     0.004 C 
ATOM     13  C   UNL A   1      32.424  22.391  24.984  1.00  0.00     0.005 C 
BRANCH   8  14
ATOM     14  C   UNL A   1      32.994  25.689  22.223  1.00  0.00     0.224 C 
ATOM     15  N   UNL A   1      32.741  27.021  22.349  1.00  0.00    -0.352 N 
ATOM     16  H   UNL A   1      33.033  27.568  21.584  1.00  0.00     0.163 HD
ATOM     17  O   UNL A   1      33.457  25.279  21.158  1.00  0.00    -0.275 OA
BRANCH  15  18
ATOM     18  C   UNL A   1      32.114  27.767  23.424  1.00  0.00     0.155 C 
BRANCH  18  19
ATOM     19  C   UNL A   1      30.730  28.164  23.038  1.00  0.00     0.012 A 
ATOM     20  C   UNL A   1      29.293  26.383  24.333  1.00  0.00     0.069 C 
ATOM     21  C   UNL A   1      29.505  27.572  23.467  1.00  0.00     0.064 A 
ATOM     22  N   UNL A   1      28.437  28.229  22.994  1.00  0.00    -0.178 NA
ATOM     23  N   UNL A   1      28.962  29.239  22.285  1.00  0.00    -0.275 N 
ATOM     24  C   UNL A   1      30.321  29.205  22.227  1.00  0.00     0.114 A 
ATOM     25  C   UNL A   1      28.091  30.230  21.701  1.00  0.00     0.173 C 
ENDBRANCH  18  19
ENDBRANCH  15  18
ENDBRANCH   8  14
ENDBRANCH   5   7
ENDBRANCH   4   5
ENDBRANCH   3   4
ENDBRANCH   2   3
ENDBRANCH   1   2
BRANCH   1  26
ATOM     26  C   UNL A   1      38.421  20.738  25.526  1.00  0.00     0.202 C 
BRANCH  26  27
ATOM     27  C   UNL A   1      39.402  19.565  25.411  1.00  0.00     0.261 C 
BRANCH  27  28
ATOM     28  O   UNL A   1      40.342  19.540  26.501  1.00  0.00    -0.460 OA
BRANCH  28  29
ATOM     29  C   UNL A   1      41.629  19.768  26.148  1.00  0.00     0.338 C 
ATOM     30  O   UNL A   1      42.339  19.053  25.454  1.00  0.00    -0.246 OA
BRANCH  29  31
ATOM     31  C   UNL A   1      42.028  21.132  26.547  1.00  0.00     0.060 A 
ATOM     32  C   UNL A   1      42.225  22.072  25.525  1.00  0.00     0.016 A 
ATOM     33  C   UNL A   1      42.248  21.483  27.880  1.00  0.00     0.016 A 
ATOM     34  C   UNL A   1      42.682  23.353  25.828  1.00  0.00     0.010 A 
ATOM     35  C   UNL A   1      42.720  22.766  28.180  1.00  0.00     0.010 A 
ATOM     36  C   UNL A   1      42.965  23.699  27.155  1.00  0.00    -0.014 A 
BRANCH  36  37
ATOM     37  C   UNL A   1      43.629  24.990  27.461  1.00  0.00     0.031 A 
ATOM     38  C   UNL A   1      42.805  26.128  28.001  1.00  0.00     0.074 A 
ATOM     39  C   UNL A   1      44.954  25.142  27.280  1.00  0.00     0.049 A 
ATOM     40  N   UNL A   1      43.160  27.361  28.248  1.00  0.00    -0.248 NA
ATOM     41  C   UNL A   1      41.394  25.835  28.305  1.00  0.00     0.031 C 
ATOM     42  C   UNL A   1      45.873  24.096  26.831  1.00  0.00     0.029 A 
ATOM     43  N   UNL A   1      45.756  26.245  27.445  1.00  0.00    -0.354 N 
ATOM     44  C   UNL A   1      42.022  27.994  28.734  1.00  0.00     0.074 A 
ATOM     45  C   UNL A   1      40.956  27.015  28.721  1.00  0.00     0.031 C 
ATOM     46  C   UNL A   1      47.112  24.613  26.742  1.00  0.00     0.029 A 
ATOM     47  C   UNL A   1      47.064  26.034  27.080  1.00  0.00     0.049 A 
ATOM     48  H   UNL A   1      45.424  27.104  27.790  1.00  0.00     0.167 HD
ATOM     49  C   UNL A   1      41.880  29.272  29.158  1.00  0.00     0.031 A 
ATOM     50  C   UNL A   1      48.097  26.897  26.991  1.00  0.00     0.031 A 
ATOM     51  C   UNL A   1      42.938  30.246  29.155  1.00  0.00     0.049 A 
ATOM     52  C   UNL A   1      47.878  28.347  27.346  1.00  0.00     0.074 A 
ATOM     53  C   UNL A   1      42.890  31.568  29.563  1.00  0.00     0.029 A 
ATOM     54  N   UNL A   1      44.233  30.009  28.721  1.00  0.00    -0.354 N 
ATOM     55  N   UNL A   1      46.799  28.928  27.814  1.00  0.00    -0.248 NA
ATOM     56  C   UNL A   1      49.015  29.259  27.153  1.00  0.00     0.031 C 
ATOM     57  C   UNL A   1      44.138  32.148  29.315  1.00  0.00     0.029 A 
ATOM     58  C   UNL A   1      44.983  31.169  28.816  1.00  0.00     0.049 A 
ATOM     59  H   UNL A   1      44.570  29.144  28.394  1.00  0.00     0.167 HD
ATOM     60  C   UNL A   1      47.137  30.266  27.994  1.00  0.00     0.074 A 
ATOM     61  C   UNL A   1      48.525  30.404  27.607  1.00  0.00     0.031 C 
ATOM     62  C   UNL A   1      46.366  31.291  28.433  1.00  0.00     0.031 A 
BRANCH  49  63
ATOM     63  C   UNL A   1      40.523  29.707  29.644  1.00  0.00    -0.014 A 
ATOM     64  C   UNL A   1      40.302  30.010  30.999  1.00  0.00     0.010 A 
ATOM     65  C   UNL A   1      39.478  29.897  28.721  1.00  0.00     0.010 A 
ATOM     66  C   UNL A   1      39.057  30.480  31.424  1.00  0.00     0.020 A 
ATOM     67  C   UNL A   1      38.239  30.390  29.138  1.00  0.00     0.020 A 
ATOM     68  C   UNL A   1      38.035  30.672  30.490  1.00  0.00     0.054 A 
BRANCH  68  69
ATOM     69  S   UNL A   1      36.447  31.337  31.066  1.00  0.00     0.124 S 
ATOM     70  O   UNL A   1      36.872  32.488  31.857  1.00  0.00    -0.237 OA
ATOM     71  O   UNL A   1      35.763  31.652  29.814  1.00  0.00    -0.237 OA
ATOM     72  O   UNL A   1      35.867  30.236  31.831  1.00  0.00    -0.744 OA
ENDBRANCH  68  69
ENDBRANCH  49  63
BRANCH  50  73
ATOM     73  C   UNL A   1      49.423  26.439  26.491  1.00  0.00    -0.014 A 
ATOM     74  C   UNL A   1      50.293  25.710  27.322  1.00  0.00     0.010 A 
ATOM     75  C   UNL A   1      49.844  26.775  25.190  1.00  0.00     0.010 A 
ATOM     76  C   UNL A   1      51.570  25.357  26.873  1.00  0.00     0.020 A 
ATOM     77  C   UNL A   1      51.106  26.394  24.727  1.00  0.00     0.020 A 
ATOM     78  C   UNL A   1      51.969  25.703  25.579  1.00  0.00     0.054 A 
BRANCH  78  79
ATOM     79  S   UNL A   1      53.622  25.220  25.011  1.00  0.00     0.124 S 
ATOM     80  O   UNL A   1      53.655  23.801  25.350  1.00  0.00    -0.237 OA
ATOM     81  O   UNL A   1      53.568  25.532  23.585  1.00  0.00    -0.237 OA
ATOM     82  O   UNL A   1      54.513  26.073  25.793  1.00  0.00    -0.744 OA
ENDBRANCH  78  79
ENDBRANCH  50  73
BRANCH  62  83
ATOM     83  C   UNL A   1      47.005  32.651  28.545  1.00  0.00    -0.014 A 
ATOM     84  C   UNL A   1      47.183  33.463  27.411  1.00  0.00     0.010 A 
ATOM     85  C   UNL A   1      47.363  33.153  29.810  1.00  0.00     0.010 A 
ATOM     86  C   UNL A   1      47.721  34.746  27.538  1.00  0.00     0.020 A 
ATOM     87  C   UNL A   1      47.875  34.446  29.945  1.00  0.00     0.020 A 
ATOM     88  C   UNL A   1      48.059  35.232  28.806  1.00  0.00     0.054 A 
BRANCH  88  89
ATOM     89  S   UNL A   1      48.692  36.926  28.948  1.00  0.00     0.124 S 
ATOM     90  O   UNL A   1      47.548  37.717  28.501  1.00  0.00    -0.237 OA
ATOM     91  O   UNL A   1      49.009  37.029  30.370  1.00  0.00    -0.237 OA
ATOM     92  O   UNL A   1      49.848  36.942  28.054  1.00  0.00    -0.744 OA
ENDBRANCH  88  89
ENDBRANCH  62  83
ENDBRANCH  36  37
ENDBRANCH  29  31
ENDBRANCH  28  29
ENDBRANCH  27  28
ENDBRANCH  26  27
ENDBRANCH   1  26
TORSDOF 20
ENDMDL
