MODEL 1
REMARK VINA RESULT:      -9.4      0.000      0.000
REMARK SMILES O=C(C[C@@H]([NH2+]C[C@H]1CCCO1)C(=O)OCCOCCOC(=O)c1ccc(-c2c3nc(c(-c4ccc(S(=O)(=O)[O-])cc4)c4ccc([nH]4)c(-c4ccc(S(=O)(=O)[O-])cc4)c4nc(c(-c5ccc(S(=O)(=O)[O-])cc5)c5ccc2[nH]5)C=C4)C=C3)cc1)Nc1cccc(Cl)c1
REMARK SMILES IDX 17 1 16 2 15 3 14 4 12 5 13 6 4 7 3 8 2 9 1 10 83 11 84 13
REMARK SMILES IDX 85 14 90 15 86 16 88 17 87 18 89 19 5 20 6 23 7 24 8 25
REMARK SMILES IDX 11 26 9 27 10 28 18 29 19 30 20 31 21 32 22 33 23 34 24 35
REMARK SMILES IDX 82 36 25 37 81 38 26 39 27 40 28 41 75 42 29 43 80 44 74 45
REMARK SMILES IDX 76 46 30 47 79 48 73 49 72 50 31 52 61 53 42 54 60 55 43 56
REMARK SMILES IDX 46 57 59 58 77 59 44 60 45 61 58 63 78 64 47 65 32 66 33 67
REMARK SMILES IDX 41 68 34 69 40 70 35 71 36 72 37 73 38 74 39 75 62 76 63 77
REMARK SMILES IDX 71 78 64 79 70 80 65 81 66 82 67 83 68 84 69 85 48 86 49 87
REMARK SMILES IDX 57 88 50 89 56 90 51 91 52 92 53 93 54 94 55 95
REMARK H PARENT 83 12 5 21 5 22 76 51 46 62
REMARK Flexibility Score: inf
ROOT
ATOM      1  O   UNL A   1      32.455  29.393  24.429  1.00  0.00    -0.374 OA
ENDROOT
BRANCH   1   2
ATOM      2  C   UNL A   1      33.539  28.742  23.776  1.00  0.00     0.202 C 
BRANCH   2   3
ATOM      3  C   UNL A   1      33.389  28.346  22.297  1.00  0.00     0.261 C 
BRANCH   3   4
ATOM      4  O   UNL A   1      33.975  27.084  21.957  1.00  0.00    -0.459 OA
BRANCH   4   5
ATOM      5  C   UNL A   1      33.064  26.079  21.814  1.00  0.00     0.365 C 
ATOM      6  O   UNL A   1      32.236  26.058  20.910  1.00  0.00    -0.245 OA
BRANCH   5   7
ATOM      7  C   UNL A   1      33.284  24.910  22.804  1.00  0.00     0.302 C 
BRANCH   7   8
ATOM      8  C   UNL A   1      33.389  25.384  24.269  1.00  0.00     0.177 C 
BRANCH   8   9
ATOM      9  C   UNL A   1      34.315  24.520  25.109  1.00  0.00     0.231 C 
ATOM     10  O   UNL A   1      34.057  24.247  26.277  1.00  0.00    -0.274 OA
ATOM     11  N   UNL A   1      35.439  24.135  24.406  1.00  0.00    -0.326 N 
ATOM     12  H   UNL A   1      35.504  24.476  23.484  1.00  0.00     0.169 HD
BRANCH  11  13
ATOM     13  C   UNL A   1      36.503  23.323  24.831  1.00  0.00     0.042 A 
ATOM     14  C   UNL A   1      36.528  22.013  24.333  1.00  0.00     0.026 A 
ATOM     15  C   UNL A   1      37.496  23.738  25.718  1.00  0.00     0.046 A 
ATOM     16  C   UNL A   1      37.539  21.126  24.707  1.00  0.00     0.004 A 
ATOM     17  C   UNL A   1      38.490  22.839  26.109  1.00  0.00     0.043 A 
ATOM     18  C   UNL A   1      38.519  21.537  25.604  1.00  0.00     0.020 A 
ATOM     19  Cl  UNL A   1      39.692  23.325  27.245  1.00  0.00    -0.084 Cl
ENDBRANCH  11  13
ENDBRANCH   8   9
ENDBRANCH   7   8
BRANCH   7  20
ATOM     20  N   UNL A   1      32.266  23.808  22.685  1.00  0.00    -0.332 N 
ATOM     21  H   UNL A   1      31.715  23.982  21.845  1.00  0.00     0.347 HD
ATOM     22  H   UNL A   1      31.726  23.837  23.551  1.00  0.00     0.347 HD
BRANCH  20  23
ATOM     23  C   UNL A   1      32.808  22.436  22.597  1.00  0.00     0.293 C 
BRANCH  23  24
ATOM     24  C   UNL A   1      32.223  21.396  23.590  1.00  0.00     0.173 C 
ATOM     25  C   UNL A   1      33.229  20.404  24.153  1.00  0.00     0.040 C 
ATOM     26  O   UNL A   1      31.560  22.030  24.696  1.00  0.00    -0.372 OA
ATOM     27  C   UNL A   1      33.372  20.773  25.609  1.00  0.00     0.031 C 
ATOM     28  C   UNL A   1      32.127  21.567  25.924  1.00  0.00     0.161 C 
ENDBRANCH  23  24
ENDBRANCH  20  23
ENDBRANCH   7  20
ENDBRANCH   5   7
ENDBRANCH   4   5
ENDBRANCH   3   4
ENDBRANCH   2   3
ENDBRANCH   1   2
BRANCH   1  29
ATOM     29  C   UNL A   1      32.152  29.048  25.781  1.00  0.00     0.202 C 
BRANCH  29  30
ATOM     30  C   UNL A   1      32.638  29.959  26.913  1.00  0.00     0.261 C 
BRANCH  30  31
ATOM     31  O   UNL A   1      34.012  30.357  26.744  1.00  0.00    -0.460 OA
BRANCH  31  32
ATOM     32  C   UNL A   1      34.553  30.957  27.830  1.00  0.00     0.338 C 
ATOM     33  O   UNL A   1      34.029  31.803  28.543  1.00  0.00    -0.246 OA
BRANCH  32  34
ATOM     34  C   UNL A   1      35.820  30.307  28.199  1.00  0.00     0.060 A 
ATOM     35  C   UNL A   1      35.866  29.645  29.433  1.00  0.00     0.016 A 
ATOM     36  C   UNL A   1      36.968  30.442  27.417  1.00  0.00     0.016 A 
ATOM     37  C   UNL A   1      37.078  29.162  29.915  1.00  0.00     0.010 A 
ATOM     38  C   UNL A   1      38.188  29.962  27.909  1.00  0.00     0.010 A 
ATOM     39  C   UNL A   1      38.254  29.355  29.177  1.00  0.00    -0.014 A 
BRANCH  39  40
ATOM     40  C   UNL A   1      39.554  29.040  29.818  1.00  0.00     0.031 A 
ATOM     41  C   UNL A   1      39.948  29.762  31.077  1.00  0.00     0.074 A 
ATOM     42  C   UNL A   1      40.331  28.058  29.327  1.00  0.00     0.049 A 
ATOM     43  N   UNL A   1      40.994  29.578  31.842  1.00  0.00    -0.248 NA
ATOM     44  C   UNL A   1      39.044  30.828  31.540  1.00  0.00     0.031 C 
ATOM     45  C   UNL A   1      40.035  27.261  28.136  1.00  0.00     0.029 A 
ATOM     46  N   UNL A   1      41.523  27.553  29.782  1.00  0.00    -0.354 N 
ATOM     47  C   UNL A   1      40.873  30.499  32.877  1.00  0.00     0.074 A 
ATOM     48  C   UNL A   1      39.671  31.264  32.623  1.00  0.00     0.031 C 
ATOM     49  C   UNL A   1      41.017  26.361  27.960  1.00  0.00     0.029 A 
ATOM     50  C   UNL A   1      42.020  26.532  29.010  1.00  0.00     0.049 A 
ATOM     51  H   UNL A   1      41.979  27.892  30.586  1.00  0.00     0.167 HD
ATOM     52  C   UNL A   1      41.683  30.686  33.947  1.00  0.00     0.031 A 
ATOM     53  C   UNL A   1      43.155  25.818  29.132  1.00  0.00     0.031 A 
ATOM     54  C   UNL A   1      42.888  29.936  34.188  1.00  0.00     0.049 A 
ATOM     55  C   UNL A   1      44.073  26.087  30.295  1.00  0.00     0.074 A 
ATOM     56  C   UNL A   1      43.770  30.041  35.250  1.00  0.00     0.029 A 
ATOM     57  N   UNL A   1      43.387  28.948  33.351  1.00  0.00    -0.354 N 
ATOM     58  N   UNL A   1      43.926  26.940  31.281  1.00  0.00    -0.248 NA
ATOM     59  C   UNL A   1      45.303  25.287  30.366  1.00  0.00     0.031 C 
ATOM     60  C   UNL A   1      44.832  29.156  35.026  1.00  0.00     0.029 A 
ATOM     61  C   UNL A   1      44.579  28.457  33.856  1.00  0.00     0.049 A 
ATOM     62  H   UNL A   1      42.956  28.641  32.521  1.00  0.00     0.167 HD
ATOM     63  C   UNL A   1      45.037  26.766  32.100  1.00  0.00     0.074 A 
ATOM     64  C   UNL A   1      45.832  25.711  31.506  1.00  0.00     0.031 C 
ATOM     65  C   UNL A   1      45.369  27.419  33.242  1.00  0.00     0.031 A 
BRANCH  52  66
ATOM     66  C   UNL A   1      41.306  31.770  34.923  1.00  0.00    -0.014 A 
ATOM     67  C   UNL A   1      41.880  33.051  34.847  1.00  0.00     0.010 A 
ATOM     68  C   UNL A   1      40.335  31.512  35.908  1.00  0.00     0.010 A 
ATOM     69  C   UNL A   1      41.519  34.044  35.763  1.00  0.00     0.020 A 
ATOM     70  C   UNL A   1      39.953  32.509  36.810  1.00  0.00     0.020 A 
ATOM     71  C   UNL A   1      40.560  33.765  36.741  1.00  0.00     0.054 A 
BRANCH  71  72
ATOM     72  S   UNL A   1      40.094  35.076  37.906  1.00  0.00     0.124 S 
ATOM     73  O   UNL A   1      40.272  36.278  37.094  1.00  0.00    -0.237 OA
ATOM     74  O   UNL A   1      38.711  34.738  38.232  1.00  0.00    -0.237 OA
ATOM     75  O   UNL A   1      41.046  34.920  39.003  1.00  0.00    -0.744 OA
ENDBRANCH  71  72
ENDBRANCH  52  66
BRANCH  53  76
ATOM     76  C   UNL A   1      43.493  24.783  28.116  1.00  0.00    -0.014 A 
ATOM     77  C   UNL A   1      44.163  25.129  26.929  1.00  0.00     0.010 A 
ATOM     78  C   UNL A   1      43.149  23.438  28.340  1.00  0.00     0.010 A 
ATOM     79  C   UNL A   1      44.469  24.149  25.980  1.00  0.00     0.020 A 
ATOM     80  C   UNL A   1      43.478  22.452  27.407  1.00  0.00     0.020 A 
ATOM     81  C   UNL A   1      44.127  22.816  26.226  1.00  0.00     0.054 A 
BRANCH  81  82
ATOM     82  S   UNL A   1      44.588  21.552  25.009  1.00  0.00     0.124 S 
ATOM     83  O   UNL A   1      44.468  22.283  23.752  1.00  0.00    -0.237 OA
ATOM     84  O   UNL A   1      45.948  21.205  25.414  1.00  0.00    -0.237 OA
ATOM     85  O   UNL A   1      43.597  20.499  25.220  1.00  0.00    -0.744 OA
ENDBRANCH  81  82
ENDBRANCH  53  76
BRANCH  65  86
ATOM     86  C   UNL A   1      46.643  26.998  33.928  1.00  0.00    -0.014 A 
ATOM     87  C   UNL A   1      47.865  27.636  33.651  1.00  0.00     0.010 A 
ATOM     88  C   UNL A   1      46.610  25.964  34.883  1.00  0.00     0.010 A 
ATOM     89  C   UNL A   1      49.040  27.216  34.280  1.00  0.00     0.020 A 
ATOM     90  C   UNL A   1      47.778  25.561  35.535  1.00  0.00     0.020 A 
ATOM     91  C   UNL A   1      48.990  26.176  35.213  1.00  0.00     0.054 A 
BRANCH  91  92
ATOM     92  S   UNL A   1      50.526  25.655  36.025  1.00  0.00     0.124 S 
ATOM     93  O   UNL A   1      50.320  26.124  37.393  1.00  0.00    -0.237 OA
ATOM     94  O   UNL A   1      50.508  24.204  35.849  1.00  0.00    -0.237 OA
ATOM     95  O   UNL A   1      51.568  26.353  35.277  1.00  0.00    -0.744 OA
ENDBRANCH  91  92
ENDBRANCH  65  86
ENDBRANCH  39  40
ENDBRANCH  32  34
ENDBRANCH  31  32
ENDBRANCH  30  31
ENDBRANCH  29  30
ENDBRANCH   1  29
TORSDOF 23
ENDMDL
MODEL 2
REMARK VINA RESULT:      -9.3      3.566      9.765
REMARK SMILES O=C(C[C@@H]([NH2+]C[C@H]1CCCO1)C(=O)OCCOCCOC(=O)c1ccc(-c2c3nc(c(-c4ccc(S(=O)(=O)[O-])cc4)c4ccc([nH]4)c(-c4ccc(S(=O)(=O)[O-])cc4)c4nc(c(-c5ccc(S(=O)(=O)[O-])cc5)c5ccc2[nH]5)C=C4)C=C3)cc1)Nc1cccc(Cl)c1
REMARK SMILES IDX 17 1 16 2 15 3 14 4 12 5 13 6 4 7 3 8 2 9 1 10 83 11 84 13
REMARK SMILES IDX 85 14 90 15 86 16 88 17 87 18 89 19 5 20 6 23 7 24 8 25
REMARK SMILES IDX 11 26 9 27 10 28 18 29 19 30 20 31 21 32 22 33 23 34 24 35
REMARK SMILES IDX 82 36 25 37 81 38 26 39 27 40 28 41 75 42 29 43 80 44 74 45
REMARK SMILES IDX 76 46 30 47 79 48 73 49 72 50 31 52 61 53 42 54 60 55 43 56
REMARK SMILES IDX 46 57 59 58 77 59 44 60 45 61 58 63 78 64 47 65 32 66 33 67
REMARK SMILES IDX 41 68 34 69 40 70 35 71 36 72 37 73 38 74 39 75 62 76 63 77
REMARK SMILES IDX 71 78 64 79 70 80 65 81 66 82 67 83 68 84 69 85 48 86 49 87
REMARK SMILES IDX 57 88 50 89 56 90 51 91 52 92 53 93 54 94 55 95
REMARK H PARENT 83 12 5 21 5 22 76 51 46 62
REMARK Flexibility Score: inf
ROOT
ATOM      1  O   UNL A   1      37.836  22.062  25.558  1.00  0.00    -0.374 OA
ENDROOT
BRANCH   1   2
ATOM      2  C   UNL A   1      36.719  22.736  26.125  1.00  0.00     0.202 C 
BRANCH   2   3
ATOM      3  C   UNL A   1      35.796  23.555  25.206  1.00  0.00     0.261 C 
BRANCH   3   4
ATOM      4  O   UNL A   1      34.569  22.902  24.860  1.00  0.00    -0.459 OA
BRANCH   4   5
ATOM      5  C   UNL A   1      33.648  22.901  25.866  1.00  0.00     0.365 C 
ATOM      6  O   UNL A   1      33.688  23.692  26.802  1.00  0.00    -0.245 OA
BRANCH   5   7
ATOM      7  C   UNL A   1      32.479  21.916  25.623  1.00  0.00     0.302 C 
BRANCH   7   8
ATOM      8  C   UNL A   1      31.104  22.615  25.620  1.00  0.00     0.177 C 
BRANCH   8   9
ATOM      9  C   UNL A   1      31.073  23.863  24.752  1.00  0.00     0.231 C 
ATOM     10  O   UNL A   1      31.085  23.796  23.528  1.00  0.00    -0.274 OA
ATOM     11  N   UNL A   1      31.060  25.017  25.511  1.00  0.00    -0.326 N 
ATOM     12  H   UNL A   1      31.090  24.887  26.487  1.00  0.00     0.169 HD
BRANCH  11  13
ATOM     13  C   UNL A   1      31.009  26.351  25.075  1.00  0.00     0.042 A 
ATOM     14  C   UNL A   1      31.887  27.248  25.701  1.00  0.00     0.026 A 
ATOM     15  C   UNL A   1      30.135  26.820  24.094  1.00  0.00     0.046 A 
ATOM     16  C   UNL A   1      31.902  28.597  25.345  1.00  0.00     0.004 A 
ATOM     17  C   UNL A   1      30.137  28.176  23.760  1.00  0.00     0.043 A 
ATOM     18  C   UNL A   1      31.019  29.065  24.377  1.00  0.00     0.020 A 
ATOM     19  Cl  UNL A   1      29.026  28.774  22.587  1.00  0.00    -0.084 Cl
ENDBRANCH  11  13
ENDBRANCH   8   9
ENDBRANCH   7   8
BRANCH   7  20
ATOM     20  N   UNL A   1      32.637  21.073  24.386  1.00  0.00    -0.332 N 
ATOM     21  H   UNL A   1      33.147  21.624  23.696  1.00  0.00     0.347 HD
ATOM     22  H   UNL A   1      31.690  20.822  24.100  1.00  0.00     0.347 HD
BRANCH  20  23
ATOM     23  C   UNL A   1      33.354  19.792  24.565  1.00  0.00     0.293 C 
BRANCH  23  24
ATOM     24  C   UNL A   1      32.566  18.504  24.209  1.00  0.00     0.173 C 
ATOM     25  C   UNL A   1      33.287  17.541  23.278  1.00  0.00     0.040 C 
ATOM     26  O   UNL A   1      32.177  17.774  25.385  1.00  0.00    -0.372 OA
ATOM     27  C   UNL A   1      33.619  16.343  24.133  1.00  0.00     0.031 C 
ATOM     28  C   UNL A   1      32.668  16.434  25.301  1.00  0.00     0.161 C 
ENDBRANCH  23  24
ENDBRANCH  20  23
ENDBRANCH   7  20
ENDBRANCH   5   7
ENDBRANCH   4   5
ENDBRANCH   3   4
ENDBRANCH   2   3
ENDBRANCH   1   2
BRANCH   1  29
ATOM     29  C   UNL A   1      39.153  22.514  25.872  1.00  0.00     0.202 C 
BRANCH  29  30
ATOM     30  C   UNL A   1      39.356  23.457  27.063  1.00  0.00     0.261 C 
BRANCH  30  31
ATOM     31  O   UNL A   1      39.240  24.843  26.689  1.00  0.00    -0.460 OA
BRANCH  31  32
ATOM     32  C   UNL A   1      40.323  25.594  27.001  1.00  0.00     0.338 C 
ATOM     33  O   UNL A   1      41.382  25.652  26.387  1.00  0.00    -0.246 OA
BRANCH  32  34
ATOM     34  C   UNL A   1      40.004  26.528  28.090  1.00  0.00     0.060 A 
ATOM     35  C   UNL A   1      40.705  27.741  28.122  1.00  0.00     0.016 A 
ATOM     36  C   UNL A   1      39.132  26.180  29.123  1.00  0.00     0.016 A 
ATOM     37  C   UNL A   1      40.576  28.588  29.218  1.00  0.00     0.010 A 
ATOM     38  C   UNL A   1      39.011  27.030  30.229  1.00  0.00     0.010 A 
ATOM     39  C   UNL A   1      39.762  28.218  30.298  1.00  0.00    -0.014 A 
BRANCH  39  40
ATOM     40  C   UNL A   1      39.827  29.023  31.542  1.00  0.00     0.031 A 
ATOM     41  C   UNL A   1      40.959  28.798  32.507  1.00  0.00     0.074 A 
ATOM     42  C   UNL A   1      38.931  30.001  31.764  1.00  0.00     0.049 A 
ATOM     43  N   UNL A   1      41.251  29.449  33.604  1.00  0.00    -0.248 NA
ATOM     44  C   UNL A   1      41.890  27.701  32.192  1.00  0.00     0.031 C 
ATOM     45  C   UNL A   1      37.813  30.338  30.883  1.00  0.00     0.029 A 
ATOM     46  N   UNL A   1      38.832  30.903  32.794  1.00  0.00    -0.354 N 
ATOM     47  C   UNL A   1      42.398  28.846  34.109  1.00  0.00     0.074 A 
ATOM     48  C   UNL A   1      42.729  27.755  33.216  1.00  0.00     0.031 C 
ATOM     49  C   UNL A   1      37.145  31.380  31.406  1.00  0.00     0.029 A 
ATOM     50  C   UNL A   1      37.773  31.768  32.668  1.00  0.00     0.049 A 
ATOM     51  H   UNL A   1      39.460  30.926  33.551  1.00  0.00     0.167 HD
ATOM     52  C   UNL A   1      43.116  29.174  35.209  1.00  0.00     0.031 A 
ATOM     53  C   UNL A   1      37.354  32.758  33.480  1.00  0.00     0.031 A 
ATOM     54  C   UNL A   1      42.775  30.248  36.105  1.00  0.00     0.049 A 
ATOM     55  C   UNL A   1      38.133  33.064  34.731  1.00  0.00     0.074 A 
ATOM     56  C   UNL A   1      43.447  30.669  37.240  1.00  0.00     0.029 A 
ATOM     57  N   UNL A   1      41.662  31.065  35.974  1.00  0.00    -0.354 N 
ATOM     58  N   UNL A   1      39.233  32.504  35.175  1.00  0.00    -0.248 NA
ATOM     59  C   UNL A   1      37.619  34.145  35.584  1.00  0.00     0.031 C 
ATOM     60  C   UNL A   1      42.709  31.704  37.827  1.00  0.00     0.029 A 
ATOM     61  C   UNL A   1      41.611  31.967  37.023  1.00  0.00     0.049 A 
ATOM     62  H   UNL A   1      41.006  31.012  35.243  1.00  0.00     0.167 HD
ATOM     63  C   UNL A   1      39.553  33.176  36.350  1.00  0.00     0.074 A 
ATOM     64  C   UNL A   1      38.543  34.200  36.533  1.00  0.00     0.031 C 
ATOM     65  C   UNL A   1      40.589  32.968  37.201  1.00  0.00     0.031 A 
BRANCH  52  66
ATOM     66  C   UNL A   1      44.330  28.337  35.522  1.00  0.00    -0.014 A 
ATOM     67  C   UNL A   1      44.210  27.091  36.163  1.00  0.00     0.010 A 
ATOM     68  C   UNL A   1      45.605  28.789  35.136  1.00  0.00     0.010 A 
ATOM     69  C   UNL A   1      45.347  26.329  36.447  1.00  0.00     0.020 A 
ATOM     70  C   UNL A   1      46.742  28.018  35.395  1.00  0.00     0.020 A 
ATOM     71  C   UNL A   1      46.607  26.800  36.064  1.00  0.00     0.054 A 
BRANCH  71  72
ATOM     72  S   UNL A   1      48.066  25.783  36.426  1.00  0.00     0.124 S 
ATOM     73  O   UNL A   1      49.146  26.597  35.875  1.00  0.00    -0.237 OA
ATOM     74  O   UNL A   1      48.034  25.685  37.884  1.00  0.00    -0.237 OA
ATOM     75  O   UNL A   1      47.803  24.534  35.716  1.00  0.00    -0.744 OA
ENDBRANCH  71  72
ENDBRANCH  52  66
BRANCH  53  76
ATOM     76  C   UNL A   1      36.127  33.528  33.137  1.00  0.00    -0.014 A 
ATOM     77  C   UNL A   1      36.212  34.849  32.664  1.00  0.00     0.010 A 
ATOM     78  C   UNL A   1      34.860  32.933  33.278  1.00  0.00     0.010 A 
ATOM     79  C   UNL A   1      35.052  35.564  32.351  1.00  0.00     0.020 A 
ATOM     80  C   UNL A   1      33.700  33.635  32.940  1.00  0.00     0.020 A 
ATOM     81  C   UNL A   1      33.803  34.951  32.488  1.00  0.00     0.054 A 
BRANCH  81  82
ATOM     82  S   UNL A   1      32.314  35.875  32.018  1.00  0.00     0.124 S 
ATOM     83  O   UNL A   1      32.650  37.230  32.447  1.00  0.00    -0.237 OA
ATOM     84  O   UNL A   1      32.254  35.664  30.574  1.00  0.00    -0.237 OA
ATOM     85  O   UNL A   1      31.253  35.222  32.780  1.00  0.00    -0.744 OA
ENDBRANCH  81  82
ENDBRANCH  53  76
BRANCH  65  86
ATOM     86  C   UNL A   1      40.686  33.876  38.400  1.00  0.00    -0.014 A 
ATOM     87  C   UNL A   1      40.043  33.557  39.609  1.00  0.00     0.010 A 
ATOM     88  C   UNL A   1      41.452  35.054  38.320  1.00  0.00     0.010 A 
ATOM     89  C   UNL A   1      40.126  34.424  40.703  1.00  0.00     0.020 A 
ATOM     90  C   UNL A   1      41.560  35.908  39.420  1.00  0.00     0.020 A 
ATOM     91  C   UNL A   1      40.879  35.597  40.599  1.00  0.00     0.054 A 
BRANCH  91  92
ATOM     92  S   UNL A   1      40.980  36.701  42.035  1.00  0.00     0.124 S 
ATOM     93  O   UNL A   1      39.575  36.842  42.409  1.00  0.00    -0.237 OA
ATOM     94  O   UNL A   1      41.806  35.940  42.970  1.00  0.00    -0.237 OA
ATOM     95  O   UNL A   1      41.607  37.908  41.501  1.00  0.00    -0.744 OA
ENDBRANCH  91  92
ENDBRANCH  65  86
ENDBRANCH  39  40
ENDBRANCH  32  34
ENDBRANCH  31  32
ENDBRANCH  30  31
ENDBRANCH  29  30
ENDBRANCH   1  29
TORSDOF 23
ENDMDL
MODEL 3
REMARK VINA RESULT:      -9.1      5.226      8.115
REMARK SMILES O=C(C[C@@H]([NH2+]C[C@H]1CCCO1)C(=O)OCCOCCOC(=O)c1ccc(-c2c3nc(c(-c4ccc(S(=O)(=O)[O-])cc4)c4ccc([nH]4)c(-c4ccc(S(=O)(=O)[O-])cc4)c4nc(c(-c5ccc(S(=O)(=O)[O-])cc5)c5ccc2[nH]5)C=C4)C=C3)cc1)Nc1cccc(Cl)c1
REMARK SMILES IDX 17 1 16 2 15 3 14 4 12 5 13 6 4 7 3 8 2 9 1 10 83 11 84 13
REMARK SMILES IDX 85 14 90 15 86 16 88 17 87 18 89 19 5 20 6 23 7 24 8 25
REMARK SMILES IDX 11 26 9 27 10 28 18 29 19 30 20 31 21 32 22 33 23 34 24 35
REMARK SMILES IDX 82 36 25 37 81 38 26 39 27 40 28 41 75 42 29 43 80 44 74 45
REMARK SMILES IDX 76 46 30 47 79 48 73 49 72 50 31 52 61 53 42 54 60 55 43 56
REMARK SMILES IDX 46 57 59 58 77 59 44 60 45 61 58 63 78 64 47 65 32 66 33 67
REMARK SMILES IDX 41 68 34 69 40 70 35 71 36 72 37 73 38 74 39 75 62 76 63 77
REMARK SMILES IDX 71 78 64 79 70 80 65 81 66 82 67 83 68 84 69 85 48 86 49 87
REMARK SMILES IDX 57 88 50 89 56 90 51 91 52 92 53 93 54 94 55 95
REMARK H PARENT 83 12 5 21 5 22 76 51 46 62
REMARK Flexibility Score: inf
ROOT
ATOM      1  O   UNL A   1      37.090  21.542  25.565  1.00  0.00    -0.374 OA
ENDROOT
BRANCH   1   2
ATOM      2  C   UNL A   1      36.565  22.617  24.794  1.00  0.00     0.202 C 
BRANCH   2   3
ATOM      3  C   UNL A   1      35.609  23.618  25.464  1.00  0.00     0.261 C 
BRANCH   3   4
ATOM      4  O   UNL A   1      34.495  24.011  24.653  1.00  0.00    -0.459 OA
BRANCH   4   5
ATOM      5  C   UNL A   1      33.397  24.376  25.375  1.00  0.00     0.365 C 
ATOM      6  O   UNL A   1      33.451  25.171  26.307  1.00  0.00    -0.245 OA
BRANCH   5   7
ATOM      7  C   UNL A   1      32.075  23.812  24.803  1.00  0.00     0.302 C 
BRANCH   7   8
ATOM      8  C   UNL A   1      31.656  22.486  25.470  1.00  0.00     0.177 C 
BRANCH   8   9
ATOM      9  C   UNL A   1      32.178  21.260  24.737  1.00  0.00     0.231 C 
ATOM     10  O   UNL A   1      32.196  21.203  23.512  1.00  0.00    -0.274 OA
ATOM     11  N   UNL A   1      32.577  20.269  25.611  1.00  0.00    -0.326 N 
ATOM     12  H   UNL A   1      32.459  20.470  26.568  1.00  0.00     0.169 HD
BRANCH  11  13
ATOM     13  C   UNL A   1      33.130  19.012  25.316  1.00  0.00     0.042 A 
ATOM     14  C   UNL A   1      34.353  19.011  24.630  1.00  0.00     0.026 A 
ATOM     15  C   UNL A   1      32.528  17.797  25.644  1.00  0.00     0.046 A 
ATOM     16  C   UNL A   1      34.975  17.812  24.282  1.00  0.00     0.004 A 
ATOM     17  C   UNL A   1      33.142  16.600  25.270  1.00  0.00     0.043 A 
ATOM     18  C   UNL A   1      34.365  16.602  24.596  1.00  0.00     0.020 A 
ATOM     19  Cl  UNL A   1      32.381  15.096  25.624  1.00  0.00    -0.084 Cl
ENDBRANCH  11  13
ENDBRANCH   8   9
ENDBRANCH   7   8
BRANCH   7  20
ATOM     20  N   UNL A   1      30.931  24.790  24.828  1.00  0.00    -0.332 N 
ATOM     21  H   UNL A   1      31.288  25.679  25.179  1.00  0.00     0.347 HD
ATOM     22  H   UNL A   1      30.217  24.366  25.421  1.00  0.00     0.347 HD
BRANCH  20  23
ATOM     23  C   UNL A   1      30.272  25.047  23.530  1.00  0.00     0.293 C 
BRANCH  23  24
ATOM     24  C   UNL A   1      30.945  26.099  22.609  1.00  0.00     0.173 C 
ATOM     25  C   UNL A   1      31.448  27.349  23.316  1.00  0.00     0.040 C 
ATOM     26  O   UNL A   1      32.042  25.538  21.869  1.00  0.00    -0.372 OA
ATOM     27  C   UNL A   1      32.952  27.258  23.250  1.00  0.00     0.031 C 
ATOM     28  C   UNL A   1      33.226  26.299  22.118  1.00  0.00     0.161 C 
ENDBRANCH  23  24
ENDBRANCH  20  23
ENDBRANCH   7  20
ENDBRANCH   5   7
ENDBRANCH   4   5
ENDBRANCH   3   4
ENDBRANCH   2   3
ENDBRANCH   1   2
BRANCH   1  29
ATOM     29  C   UNL A   1      38.414  21.079  25.299  1.00  0.00     0.202 C 
BRANCH  29  30
ATOM     30  C   UNL A   1      39.553  21.487  26.240  1.00  0.00     0.261 C 
BRANCH  30  31
ATOM     31  O   UNL A   1      40.167  20.353  26.880  1.00  0.00    -0.460 OA
BRANCH  31  32
ATOM     32  C   UNL A   1      41.390  20.036  26.391  1.00  0.00     0.338 C 
ATOM     33  O   UNL A   1      41.696  19.026  25.769  1.00  0.00    -0.246 OA
BRANCH  32  34
ATOM     34  C   UNL A   1      42.306  21.179  26.517  1.00  0.00     0.060 A 
ATOM     35  C   UNL A   1      42.549  21.668  27.807  1.00  0.00     0.016 A 
ATOM     36  C   UNL A   1      42.818  21.835  25.396  1.00  0.00     0.016 A 
ATOM     37  C   UNL A   1      43.264  22.849  27.977  1.00  0.00     0.010 A 
ATOM     38  C   UNL A   1      43.530  23.028  25.571  1.00  0.00     0.010 A 
ATOM     39  C   UNL A   1      43.721  23.560  26.859  1.00  0.00    -0.014 A 
BRANCH  39  40
ATOM     40  C   UNL A   1      44.271  24.922  27.061  1.00  0.00     0.031 A 
ATOM     41  C   UNL A   1      43.362  26.019  27.546  1.00  0.00     0.074 A 
ATOM     42  C   UNL A   1      45.585  25.155  26.895  1.00  0.00     0.049 A 
ATOM     43  N   UNL A   1      43.655  27.253  27.870  1.00  0.00    -0.248 NA
ATOM     44  C   UNL A   1      41.936  25.681  27.693  1.00  0.00     0.031 C 
ATOM     45  C   UNL A   1      46.571  24.163  26.465  1.00  0.00     0.029 A 
ATOM     46  N   UNL A   1      46.319  26.299  27.084  1.00  0.00    -0.354 N 
ATOM     47  C   UNL A   1      42.456  27.837  28.262  1.00  0.00     0.074 A 
ATOM     48  C   UNL A   1      41.426  26.832  28.102  1.00  0.00     0.031 C 
ATOM     49  C   UNL A   1      47.783  24.740  26.433  1.00  0.00     0.029 A 
ATOM     50  C   UNL A   1      47.657  26.145  26.816  1.00  0.00     0.049 A 
ATOM     51  H   UNL A   1      45.923  27.149  27.383  1.00  0.00     0.167 HD
ATOM     52  C   UNL A   1      42.232  29.091  28.721  1.00  0.00     0.031 A 
ATOM     53  C   UNL A   1      48.666  27.036  26.869  1.00  0.00     0.031 A 
ATOM     54  C   UNL A   1      43.256  30.094  28.861  1.00  0.00     0.049 A 
ATOM     55  C   UNL A   1      48.382  28.444  27.322  1.00  0.00     0.074 A 
ATOM     56  C   UNL A   1      43.133  31.391  29.330  1.00  0.00     0.029 A 
ATOM     57  N   UNL A   1      44.589  29.917  28.524  1.00  0.00    -0.354 N 
ATOM     58  N   UNL A   1      47.248  28.969  27.719  1.00  0.00    -0.248 NA
ATOM     59  C   UNL A   1      49.519  29.374  27.345  1.00  0.00     0.031 C 
ATOM     60  C   UNL A   1      44.381  32.015  29.223  1.00  0.00     0.029 A 
ATOM     61  C   UNL A   1      45.294  31.088  28.745  1.00  0.00     0.049 A 
ATOM     62  H   UNL A   1      44.978  29.080  28.179  1.00  0.00     0.167 HD
ATOM     63  C   UNL A   1      47.538  30.287  28.056  1.00  0.00     0.074 A 
ATOM     64  C   UNL A   1      48.959  30.470  27.839  1.00  0.00     0.031 C 
ATOM     65  C   UNL A   1      46.705  31.259  28.507  1.00  0.00     0.031 A 
BRANCH  52  66
ATOM     66  C   UNL A   1      40.815  29.459  29.075  1.00  0.00    -0.014 A 
ATOM     67  C   UNL A   1      40.425  29.659  30.411  1.00  0.00     0.010 A 
ATOM     68  C   UNL A   1      39.867  29.643  28.051  1.00  0.00     0.010 A 
ATOM     69  C   UNL A   1      39.105  29.998  30.721  1.00  0.00     0.020 A 
ATOM     70  C   UNL A   1      38.552  30.008  28.355  1.00  0.00     0.020 A 
ATOM     71  C   UNL A   1      38.175  30.167  29.690  1.00  0.00     0.054 A 
BRANCH  71  72
ATOM     72  S   UNL A   1      36.473  30.626  30.117  1.00  0.00     0.124 S 
ATOM     73  O   UNL A   1      35.744  30.233  28.914  1.00  0.00    -0.237 OA
ATOM     74  O   UNL A   1      36.211  29.816  31.304  1.00  0.00    -0.237 OA
ATOM     75  O   UNL A   1      36.551  32.066  30.355  1.00  0.00    -0.744 OA
ENDBRANCH  71  72
ENDBRANCH  52  66
BRANCH  53  76
ATOM     76  C   UNL A   1      50.041  26.624  26.472  1.00  0.00    -0.014 A 
ATOM     77  C   UNL A   1      50.457  26.698  25.132  1.00  0.00     0.010 A 
ATOM     78  C   UNL A   1      50.945  26.161  27.445  1.00  0.00     0.010 A 
ATOM     79  C   UNL A   1      51.749  26.302  24.771  1.00  0.00     0.020 A 
ATOM     80  C   UNL A   1      52.245  25.791  27.092  1.00  0.00     0.020 A 
ATOM     81  C   UNL A   1      52.636  25.854  25.755  1.00  0.00     0.054 A 
BRANCH  81  82
ATOM     82  S   UNL A   1      54.326  25.404  25.274  1.00  0.00     0.124 S 
ATOM     83  O   UNL A   1      54.158  24.023  24.829  1.00  0.00    -0.237 OA
ATOM     84  O   UNL A   1      54.626  26.375  24.225  1.00  0.00    -0.237 OA
ATOM     85  O   UNL A   1      55.089  25.576  26.508  1.00  0.00    -0.744 OA
ENDBRANCH  81  82
ENDBRANCH  53  76
BRANCH  65  86
ATOM     86  C   UNL A   1      47.317  32.603  28.807  1.00  0.00    -0.014 A 
ATOM     87  C   UNL A   1      47.370  33.614  27.830  1.00  0.00     0.010 A 
ATOM     88  C   UNL A   1      47.826  32.865  30.093  1.00  0.00     0.010 A 
ATOM     89  C   UNL A   1      47.963  34.846  28.120  1.00  0.00     0.020 A 
ATOM     90  C   UNL A   1      48.394  34.105  30.394  1.00  0.00     0.020 A 
ATOM     91  C   UNL A   1      48.476  35.081  29.399  1.00  0.00     0.054 A 
BRANCH  91  92
ATOM     92  S   UNL A   1      49.232  36.692  29.755  1.00  0.00     0.124 S 
ATOM     93  O   UNL A   1      48.263  37.617  29.173  1.00  0.00    -0.237 OA
ATOM     94  O   UNL A   1      49.307  36.696  31.215  1.00  0.00    -0.237 OA
ATOM     95  O   UNL A   1      50.522  36.628  29.072  1.00  0.00    -0.744 OA
ENDBRANCH  91  92
ENDBRANCH  65  86
ENDBRANCH  39  40
ENDBRANCH  32  34
ENDBRANCH  31  32
ENDBRANCH  30  31
ENDBRANCH  29  30
ENDBRANCH   1  29
TORSDOF 23
ENDMDL
