MODEL 1
REMARK VINA RESULT:      -9.9      0.000      0.000
REMARK SMILES O=C(C[NH+]1CC2(CCCC2)C1)OCCOCCOC(=O)c1ccc(-c2c3nc(c(-c4ccc(S(=O)(=O)[O-])cc4)c4ccc([nH]4)c(-c4ccc(S(=O)(=O)[O-])cc4)c4nc(c(-c5ccc(S(=O)(=O)[O-])cc5)c5ccc2[nH]5)C=C4)C=C3)cc1
REMARK SMILES IDX 16 1 15 2 14 3 13 4 12 5 2 6 1 7 3 8 4 9 5 10 11 11 6 13
REMARK SMILES IDX 7 14 10 15 8 16 9 17 17 18 18 19 19 20 20 21 21 22 22 23
REMARK SMILES IDX 80 24 23 25 79 26 24 27 25 28 26 29 73 30 27 31 78 32 72 33
REMARK SMILES IDX 74 34 28 35 77 36 71 37 70 38 29 40 59 41 40 42 58 43 41 44
REMARK SMILES IDX 44 45 57 46 75 47 42 48 43 49 56 51 76 52 45 53 30 54 31 55
REMARK SMILES IDX 39 56 32 57 38 58 33 59 34 60 35 61 36 62 37 63 60 64 61 65
REMARK SMILES IDX 69 66 62 67 68 68 63 69 64 70 65 71 66 72 67 73 46 74 47 75
REMARK SMILES IDX 55 76 48 77 54 78 49 79 50 80 51 81 52 82 53 83
REMARK H PARENT 4 12 74 39 44 50
REMARK Flexibility Score: inf
ROOT
ATOM      1  C   UNL A   1      34.566  34.845  28.284  1.00  0.00     0.202 C 
ENDROOT
BRANCH   1   2
ATOM      2  O   UNL A   1      33.534  34.726  29.272  1.00  0.00    -0.374 OA
BRANCH   2   3
ATOM      3  C   UNL A   1      32.898  35.936  29.699  1.00  0.00     0.202 C 
BRANCH   3   4
ATOM      4  C   UNL A   1      32.521  36.074  31.176  1.00  0.00     0.261 C 
BRANCH   4   5
ATOM      5  O   UNL A   1      33.261  37.133  31.816  1.00  0.00    -0.459 OA
BRANCH   5   6
ATOM      6  C   UNL A   1      33.946  36.936  32.965  1.00  0.00     0.361 C 
ATOM      7  O   UNL A   1      33.965  37.791  33.849  1.00  0.00    -0.245 OA
BRANCH   6   8
ATOM      8  C   UNL A   1      34.778  35.689  33.066  1.00  0.00     0.386 C 
BRANCH   8   9
ATOM      9  N   UNL A   1      34.383  34.776  34.159  1.00  0.00    -0.324 N 
ATOM     10  C   UNL A   1      35.499  34.239  34.960  1.00  0.00     0.275 C 
ATOM     11  C   UNL A   1      34.345  33.449  33.548  1.00  0.00     0.275 C 
ATOM     12  H   UNL A   1      33.624  35.274  34.626  1.00  0.00     0.348 HD
ATOM     13  C   UNL A   1      36.009  33.366  33.679  1.00  0.00     0.068 C 
ATOM     14  C   UNL A   1      36.015  32.425  32.449  1.00  0.00     0.019 C 
ATOM     15  C   UNL A   1      37.406  34.041  33.578  1.00  0.00     0.019 C 
ATOM     16  C   UNL A   1      37.453  32.331  31.963  1.00  0.00     0.001 C 
ATOM     17  C   UNL A   1      37.985  33.717  32.220  1.00  0.00     0.001 C 
ENDBRANCH   8   9
ENDBRANCH   6   8
ENDBRANCH   5   6
ENDBRANCH   4   5
ENDBRANCH   3   4
ENDBRANCH   2   3
ENDBRANCH   1   2
BRANCH   1  18
ATOM     18  C   UNL A   1      35.355  33.572  27.958  1.00  0.00     0.261 C 
BRANCH  18  19
ATOM     19  O   UNL A   1      35.233  32.613  29.014  1.00  0.00    -0.460 OA
BRANCH  19  20
ATOM     20  C   UNL A   1      34.850  31.382  28.605  1.00  0.00     0.338 C 
ATOM     21  O   UNL A   1      33.766  31.066  28.134  1.00  0.00    -0.246 OA
BRANCH  20  22
ATOM     22  C   UNL A   1      36.036  30.505  28.559  1.00  0.00     0.060 A 
ATOM     23  C   UNL A   1      36.357  29.807  29.732  1.00  0.00     0.016 A 
ATOM     24  C   UNL A   1      36.808  30.362  27.405  1.00  0.00     0.016 A 
ATOM     25  C   UNL A   1      37.514  29.048  29.792  1.00  0.00     0.010 A 
ATOM     26  C   UNL A   1      37.982  29.613  27.468  1.00  0.00     0.010 A 
ATOM     27  C   UNL A   1      38.369  29.025  28.684  1.00  0.00    -0.014 A 
BRANCH  27  28
ATOM     28  C   UNL A   1      39.783  28.671  28.916  1.00  0.00     0.031 A 
ATOM     29  C   UNL A   1      40.646  29.691  29.612  1.00  0.00     0.074 A 
ATOM     30  C   UNL A   1      40.255  27.455  28.599  1.00  0.00     0.049 A 
ATOM     31  N   UNL A   1      41.902  29.617  29.960  1.00  0.00    -0.248 NA
ATOM     32  C   UNL A   1      40.002  30.972  29.961  1.00  0.00     0.031 C 
ATOM     33  C   UNL A   1      39.479  26.378  27.984  1.00  0.00     0.029 A 
ATOM     34  N   UNL A   1      41.504  26.923  28.766  1.00  0.00    -0.354 N 
ATOM     35  C   UNL A   1      42.201  30.843  30.546  1.00  0.00     0.074 A 
ATOM     36  C   UNL A   1      41.010  31.655  30.479  1.00  0.00     0.031 C 
ATOM     37  C   UNL A   1      40.275  25.305  27.831  1.00  0.00     0.029 A 
ATOM     38  C   UNL A   1      41.617  25.634  28.307  1.00  0.00     0.049 A 
ATOM     39  H   UNL A   1      42.252  27.417  29.176  1.00  0.00     0.167 HD
ATOM     40  C   UNL A   1      43.366  31.253  31.097  1.00  0.00     0.031 A 
ATOM     41  C   UNL A   1      42.691  24.823  28.270  1.00  0.00     0.031 A 
ATOM     42  C   UNL A   1      44.545  30.432  31.152  1.00  0.00     0.049 A 
ATOM     43  C   UNL A   1      43.995  25.323  28.837  1.00  0.00     0.074 A 
ATOM     44  C   UNL A   1      45.778  30.731  31.698  1.00  0.00     0.029 A 
ATOM     45  N   UNL A   1      44.633  29.147  30.635  1.00  0.00    -0.354 N 
ATOM     46  N   UNL A   1      44.264  26.479  29.400  1.00  0.00    -0.248 NA
ATOM     47  C   UNL A   1      45.135  24.400  28.779  1.00  0.00     0.031 C 
ATOM     48  C   UNL A   1      46.634  29.652  31.452  1.00  0.00     0.029 A 
ATOM     49  C   UNL A   1      45.909  28.649  30.825  1.00  0.00     0.049 A 
ATOM     50  H   UNL A   1      43.896  28.661  30.197  1.00  0.00     0.167 HD
ATOM     51  C   UNL A   1      45.592  26.404  29.804  1.00  0.00     0.074 A 
ATOM     52  C   UNL A   1      46.066  25.086  29.426  1.00  0.00     0.031 C 
ATOM     53  C   UNL A   1      46.353  27.332  30.440  1.00  0.00     0.031 A 
BRANCH  40  54
ATOM     54  C   UNL A   1      43.432  32.661  31.627  1.00  0.00    -0.014 A 
ATOM     55  C   UNL A   1      43.857  33.737  30.824  1.00  0.00     0.010 A 
ATOM     56  C   UNL A   1      43.049  32.914  32.956  1.00  0.00     0.010 A 
ATOM     57  C   UNL A   1      43.934  35.029  31.353  1.00  0.00     0.020 A 
ATOM     58  C   UNL A   1      43.092  34.210  33.478  1.00  0.00     0.020 A 
ATOM     59  C   UNL A   1      43.550  35.256  32.678  1.00  0.00     0.054 A 
BRANCH  59  60
ATOM     60  S   UNL A   1      43.635  36.946  33.332  1.00  0.00     0.124 S 
ATOM     61  O   UNL A   1      43.608  37.744  32.109  1.00  0.00    -0.237 OA
ATOM     62  O   UNL A   1      42.436  37.028  34.162  1.00  0.00    -0.237 OA
ATOM     63  O   UNL A   1      44.899  36.972  34.063  1.00  0.00    -0.744 OA
ENDBRANCH  59  60
ENDBRANCH  40  54
BRANCH  41  64
ATOM     64  C   UNL A   1      42.573  23.458  27.690  1.00  0.00    -0.014 A 
ATOM     65  C   UNL A   1      42.728  23.247  26.309  1.00  0.00     0.010 A 
ATOM     66  C   UNL A   1      42.310  22.354  28.524  1.00  0.00     0.010 A 
ATOM     67  C   UNL A   1      42.600  21.965  25.769  1.00  0.00     0.020 A 
ATOM     68  C   UNL A   1      42.213  21.065  27.991  1.00  0.00     0.020 A 
ATOM     69  C   UNL A   1      42.347  20.881  26.615  1.00  0.00     0.054 A 
BRANCH  69  70
ATOM     70  S   UNL A   1      42.230  19.220  25.895  1.00  0.00     0.124 S 
ATOM     71  O   UNL A   1      40.802  19.106  25.621  1.00  0.00    -0.237 OA
ATOM     72  O   UNL A   1      43.093  19.327  24.720  1.00  0.00    -0.237 OA
ATOM     73  O   UNL A   1      42.737  18.351  26.954  1.00  0.00    -0.744 OA
ENDBRANCH  69  70
ENDBRANCH  41  64
BRANCH  53  74
ATOM     74  C   UNL A   1      47.752  26.931  30.826  1.00  0.00    -0.014 A 
ATOM     75  C   UNL A   1      48.036  26.317  32.058  1.00  0.00     0.010 A 
ATOM     76  C   UNL A   1      48.800  27.148  29.911  1.00  0.00     0.010 A 
ATOM     77  C   UNL A   1      49.349  25.979  32.392  1.00  0.00     0.020 A 
ATOM     78  C   UNL A   1      50.109  26.777  30.225  1.00  0.00     0.020 A 
ATOM     79  C   UNL A   1      50.378  26.216  31.473  1.00  0.00     0.054 A 
BRANCH  79  80
ATOM     80  S   UNL A   1      52.074  25.759  31.925  1.00  0.00     0.124 S 
ATOM     81  O   UNL A   1      51.910  24.374  32.355  1.00  0.00    -0.237 OA
ATOM     82  O   UNL A   1      52.801  25.947  30.672  1.00  0.00    -0.237 OA
ATOM     83  O   UNL A   1      52.416  26.704  32.986  1.00  0.00    -0.744 OA
ENDBRANCH  79  80
ENDBRANCH  53  74
ENDBRANCH  27  28
ENDBRANCH  20  22
ENDBRANCH  19  20
ENDBRANCH  18  19
ENDBRANCH   1  18
TORSDOF 18
ENDMDL
MODEL 2
REMARK VINA RESULT:      -9.5      0.960      8.600
REMARK SMILES O=C(C[NH+]1CC2(CCCC2)C1)OCCOCCOC(=O)c1ccc(-c2c3nc(c(-c4ccc(S(=O)(=O)[O-])cc4)c4ccc([nH]4)c(-c4ccc(S(=O)(=O)[O-])cc4)c4nc(c(-c5ccc(S(=O)(=O)[O-])cc5)c5ccc2[nH]5)C=C4)C=C3)cc1
REMARK SMILES IDX 16 1 15 2 14 3 13 4 12 5 2 6 1 7 3 8 4 9 5 10 11 11 6 13
REMARK SMILES IDX 7 14 10 15 8 16 9 17 17 18 18 19 19 20 20 21 21 22 22 23
REMARK SMILES IDX 80 24 23 25 79 26 24 27 25 28 26 29 73 30 27 31 78 32 72 33
REMARK SMILES IDX 74 34 28 35 77 36 71 37 70 38 29 40 59 41 40 42 58 43 41 44
REMARK SMILES IDX 44 45 57 46 75 47 42 48 43 49 56 51 76 52 45 53 30 54 31 55
REMARK SMILES IDX 39 56 32 57 38 58 33 59 34 60 35 61 36 62 37 63 60 64 61 65
REMARK SMILES IDX 69 66 62 67 68 68 63 69 64 70 65 71 66 72 67 73 46 74 47 75
REMARK SMILES IDX 55 76 48 77 54 78 49 79 50 80 51 81 52 82 53 83
REMARK H PARENT 4 12 74 39 44 50
REMARK Flexibility Score: inf
ROOT
ATOM      1  C   UNL A   1      33.890  34.487  28.895  1.00  0.00     0.202 C 
ENDROOT
BRANCH   1   2
ATOM      2  O   UNL A   1      32.729  34.801  29.676  1.00  0.00    -0.374 OA
BRANCH   2   3
ATOM      3  C   UNL A   1      32.719  36.064  30.351  1.00  0.00     0.202 C 
BRANCH   3   4
ATOM      4  C   UNL A   1      32.626  36.068  31.879  1.00  0.00     0.261 C 
BRANCH   4   5
ATOM      5  O   UNL A   1      33.206  34.878  32.449  1.00  0.00    -0.459 OA
BRANCH   5   6
ATOM      6  C   UNL A   1      34.357  34.911  33.158  1.00  0.00     0.361 C 
ATOM      7  O   UNL A   1      34.930  35.974  33.392  1.00  0.00    -0.245 OA
BRANCH   6   8
ATOM      8  C   UNL A   1      34.969  33.593  33.539  1.00  0.00     0.386 C 
BRANCH   8   9
ATOM      9  N   UNL A   1      35.267  32.703  32.396  1.00  0.00    -0.324 N 
ATOM     10  C   UNL A   1      36.374  31.752  32.614  1.00  0.00     0.275 C 
ATOM     11  C   UNL A   1      36.227  33.443  31.580  1.00  0.00     0.275 C 
ATOM     12  H   UNL A   1      34.350  32.351  32.121  1.00  0.00     0.348 HD
ATOM     13  C   UNL A   1      37.441  32.987  32.636  1.00  0.00     0.068 C 
ATOM     14  C   UNL A   1      38.200  34.281  32.253  1.00  0.00     0.019 C 
ATOM     15  C   UNL A   1      37.944  32.731  34.084  1.00  0.00     0.019 C 
ATOM     16  C   UNL A   1      39.305  34.473  33.279  1.00  0.00     0.001 C 
ATOM     17  C   UNL A   1      38.673  33.970  34.551  1.00  0.00     0.001 C 
ENDBRANCH   8   9
ENDBRANCH   6   8
ENDBRANCH   5   6
ENDBRANCH   4   5
ENDBRANCH   3   4
ENDBRANCH   2   3
ENDBRANCH   1   2
BRANCH   1  18
ATOM     18  C   UNL A   1      33.850  33.178  28.100  1.00  0.00     0.261 C 
BRANCH  18  19
ATOM     19  O   UNL A   1      34.760  32.220  28.651  1.00  0.00    -0.460 OA
BRANCH  19  20
ATOM     20  C   UNL A   1      34.633  30.975  28.139  1.00  0.00     0.338 C 
ATOM     21  O   UNL A   1      33.716  30.553  27.447  1.00  0.00    -0.246 OA
BRANCH  20  22
ATOM     22  C   UNL A   1      35.907  30.253  28.315  1.00  0.00     0.060 A 
ATOM     23  C   UNL A   1      36.136  29.659  29.565  1.00  0.00     0.016 A 
ATOM     24  C   UNL A   1      36.850  30.153  27.290  1.00  0.00     0.016 A 
ATOM     25  C   UNL A   1      37.353  29.056  29.833  1.00  0.00     0.010 A 
ATOM     26  C   UNL A   1      38.083  29.563  27.564  1.00  0.00     0.010 A 
ATOM     27  C   UNL A   1      38.356  29.088  28.858  1.00  0.00    -0.014 A 
BRANCH  27  28
ATOM     28  C   UNL A   1      39.754  28.927  29.306  1.00  0.00     0.031 A 
ATOM     29  C   UNL A   1      40.459  27.652  28.923  1.00  0.00     0.074 A 
ATOM     30  C   UNL A   1      40.395  29.916  29.949  1.00  0.00     0.049 A 
ATOM     31  N   UNL A   1      41.687  27.280  29.162  1.00  0.00    -0.248 NA
ATOM     32  C   UNL A   1      39.668  26.661  28.169  1.00  0.00     0.031 C 
ATOM     33  C   UNL A   1      39.816  31.212  30.303  1.00  0.00     0.029 A 
ATOM     34  N   UNL A   1      41.683  29.981  30.406  1.00  0.00    -0.354 N 
ATOM     35  C   UNL A   1      41.807  26.008  28.610  1.00  0.00     0.074 A 
ATOM     36  C   UNL A   1      40.523  25.658  28.052  1.00  0.00     0.031 C 
ATOM     37  C   UNL A   1      40.756  31.949  30.921  1.00  0.00     0.029 A 
ATOM     38  C   UNL A   1      41.983  31.165  31.031  1.00  0.00     0.049 A 
ATOM     39  H   UNL A   1      42.332  29.248  30.298  1.00  0.00     0.167 HD
ATOM     40  C   UNL A   1      42.895  25.207  28.566  1.00  0.00     0.031 A 
ATOM     41  C   UNL A   1      43.123  31.558  31.630  1.00  0.00     0.031 A 
ATOM     42  C   UNL A   1      44.166  25.571  29.129  1.00  0.00     0.049 A 
ATOM     43  C   UNL A   1      44.305  30.624  31.620  1.00  0.00     0.074 A 
ATOM     44  C   UNL A   1      45.345  24.849  29.133  1.00  0.00     0.029 A 
ATOM     45  N   UNL A   1      44.420  26.762  29.795  1.00  0.00    -0.354 N 
ATOM     46  N   UNL A   1      44.412  29.430  31.084  1.00  0.00    -0.248 NA
ATOM     47  C   UNL A   1      45.526  31.100  32.281  1.00  0.00     0.031 C 
ATOM     48  C   UNL A   1      46.294  25.575  29.861  1.00  0.00     0.029 A 
ATOM     49  C   UNL A   1      45.729  26.785  30.238  1.00  0.00     0.049 A 
ATOM     50  H   UNL A   1      43.764  27.484  29.932  1.00  0.00     0.167 HD
ATOM     51  C   UNL A   1      45.726  29.031  31.304  1.00  0.00     0.074 A 
ATOM     52  C   UNL A   1      46.374  30.117  32.015  1.00  0.00     0.031 C 
ATOM     53  C   UNL A   1      46.349  27.880  30.943  1.00  0.00     0.031 A 
BRANCH  40  54
ATOM     54  C   UNL A   1      42.737  23.846  27.939  1.00  0.00    -0.014 A 
ATOM     55  C   UNL A   1      43.084  23.603  26.596  1.00  0.00     0.010 A 
ATOM     56  C   UNL A   1      42.240  22.785  28.717  1.00  0.00     0.010 A 
ATOM     57  C   UNL A   1      42.899  22.336  26.035  1.00  0.00     0.020 A 
ATOM     58  C   UNL A   1      42.087  21.508  28.169  1.00  0.00     0.020 A 
ATOM     59  C   UNL A   1      42.401  21.296  26.827  1.00  0.00     0.054 A 
BRANCH  59  60
ATOM     60  S   UNL A   1      42.196  19.656  26.082  1.00  0.00     0.124 S 
ATOM     61  O   UNL A   1      40.764  19.632  25.794  1.00  0.00    -0.237 OA
ATOM     62  O   UNL A   1      43.069  19.724  24.913  1.00  0.00    -0.237 OA
ATOM     63  O   UNL A   1      42.634  18.739  27.131  1.00  0.00    -0.744 OA
ENDBRANCH  59  60
ENDBRANCH  40  54
BRANCH  41  64
ATOM     64  C   UNL A   1      43.202  32.898  32.274  1.00  0.00    -0.014 A 
ATOM     65  C   UNL A   1      43.648  34.018  31.551  1.00  0.00     0.010 A 
ATOM     66  C   UNL A   1      42.822  33.060  33.620  1.00  0.00     0.010 A 
ATOM     67  C   UNL A   1      43.735  35.270  32.167  1.00  0.00     0.020 A 
ATOM     68  C   UNL A   1      42.878  34.317  34.230  1.00  0.00     0.020 A 
ATOM     69  C   UNL A   1      43.345  35.412  33.501  1.00  0.00     0.054 A 
BRANCH  69  70
ATOM     70  S   UNL A   1      43.424  37.056  34.264  1.00  0.00     0.124 S 
ATOM     71  O   UNL A   1      44.702  37.005  34.966  1.00  0.00    -0.237 OA
ATOM     72  O   UNL A   1      43.375  37.942  33.103  1.00  0.00    -0.237 OA
ATOM     73  O   UNL A   1      42.241  37.095  35.119  1.00  0.00    -0.744 OA
ENDBRANCH  69  70
ENDBRANCH  41  64
BRANCH  53  74
ATOM     74  C   UNL A   1      47.818  27.763  31.252  1.00  0.00    -0.014 A 
ATOM     75  C   UNL A   1      48.803  28.231  30.364  1.00  0.00     0.010 A 
ATOM     76  C   UNL A   1      48.214  27.200  32.480  1.00  0.00     0.010 A 
ATOM     77  C   UNL A   1      50.157  28.086  30.675  1.00  0.00     0.020 A 
ATOM     78  C   UNL A   1      49.566  27.088  32.810  1.00  0.00     0.020 A 
ATOM     79  C   UNL A   1      50.529  27.511  31.895  1.00  0.00     0.054 A 
BRANCH  79  80
ATOM     80  S   UNL A   1      52.293  27.343  32.279  1.00  0.00     0.124 S 
ATOM     81  O   UNL A   1      52.912  27.623  30.987  1.00  0.00    -0.237 OA
ATOM     82  O   UNL A   1      52.496  28.360  33.308  1.00  0.00    -0.237 OA
ATOM     83  O   UNL A   1      52.417  25.962  32.742  1.00  0.00    -0.744 OA
ENDBRANCH  79  80
ENDBRANCH  53  74
ENDBRANCH  27  28
ENDBRANCH  20  22
ENDBRANCH  19  20
ENDBRANCH  18  19
ENDBRANCH   1  18
TORSDOF 18
ENDMDL
MODEL 3
REMARK VINA RESULT:      -9.4      2.583     12.485
REMARK SMILES O=C(C[NH+]1CC2(CCCC2)C1)OCCOCCOC(=O)c1ccc(-c2c3nc(c(-c4ccc(S(=O)(=O)[O-])cc4)c4ccc([nH]4)c(-c4ccc(S(=O)(=O)[O-])cc4)c4nc(c(-c5ccc(S(=O)(=O)[O-])cc5)c5ccc2[nH]5)C=C4)C=C3)cc1
REMARK SMILES IDX 16 1 15 2 14 3 13 4 12 5 2 6 1 7 3 8 4 9 5 10 11 11 6 13
REMARK SMILES IDX 7 14 10 15 8 16 9 17 17 18 18 19 19 20 20 21 21 22 22 23
REMARK SMILES IDX 80 24 23 25 79 26 24 27 25 28 26 29 73 30 27 31 78 32 72 33
REMARK SMILES IDX 74 34 28 35 77 36 71 37 70 38 29 40 59 41 40 42 58 43 41 44
REMARK SMILES IDX 44 45 57 46 75 47 42 48 43 49 56 51 76 52 45 53 30 54 31 55
REMARK SMILES IDX 39 56 32 57 38 58 33 59 34 60 35 61 36 62 37 63 60 64 61 65
REMARK SMILES IDX 69 66 62 67 68 68 63 69 64 70 65 71 66 72 67 73 46 74 47 75
REMARK SMILES IDX 55 76 48 77 54 78 49 79 50 80 51 81 52 82 53 83
REMARK H PARENT 4 12 74 39 44 50
REMARK Flexibility Score: inf
ROOT
ATOM      1  C   UNL A   1      42.003  20.238  27.387  1.00  0.00     0.202 C 
ENDROOT
BRANCH   1   2
ATOM      2  O   UNL A   1      42.720  19.028  27.108  1.00  0.00    -0.374 OA
BRANCH   2   3
ATOM      3  C   UNL A   1      42.658  18.527  25.769  1.00  0.00     0.202 C 
BRANCH   3   4
ATOM      4  C   UNL A   1      43.935  18.553  24.925  1.00  0.00     0.261 C 
BRANCH   4   5
ATOM      5  O   UNL A   1      45.095  18.852  25.727  1.00  0.00    -0.459 OA
BRANCH   5   6
ATOM      6  C   UNL A   1      46.043  19.724  25.318  1.00  0.00     0.361 C 
ATOM      7  O   UNL A   1      47.193  19.352  25.085  1.00  0.00    -0.245 OA
BRANCH   6   8
ATOM      8  C   UNL A   1      45.670  21.179  25.279  1.00  0.00     0.386 C 
BRANCH   8   9
ATOM      9  N   UNL A   1      46.017  21.867  24.017  1.00  0.00    -0.324 N 
ATOM     10  C   UNL A   1      46.712  23.158  24.179  1.00  0.00     0.275 C 
ATOM     11  C   UNL A   1      44.846  22.678  23.693  1.00  0.00     0.275 C 
ATOM     12  H   UNL A   1      46.447  21.133  23.454  1.00  0.00     0.348 HD
ATOM     13  C   UNL A   1      45.357  23.818  24.804  1.00  0.00     0.068 C 
ATOM     14  C   UNL A   1      43.876  24.224  25.004  1.00  0.00     0.019 C 
ATOM     15  C   UNL A   1      45.980  24.175  26.183  1.00  0.00     0.019 C 
ATOM     16  C   UNL A   1      43.811  25.082  26.257  1.00  0.00     0.001 C 
ATOM     17  C   UNL A   1      44.851  24.454  27.148  1.00  0.00     0.001 C 
ENDBRANCH   8   9
ENDBRANCH   6   8
ENDBRANCH   5   6
ENDBRANCH   4   5
ENDBRANCH   3   4
ENDBRANCH   2   3
ENDBRANCH   1   2
BRANCH   1  18
ATOM     18  C   UNL A   1      41.587  21.084  26.179  1.00  0.00     0.261 C 
BRANCH  18  19
ATOM     19  O   UNL A   1      41.319  22.435  26.571  1.00  0.00    -0.460 OA
BRANCH  19  20
ATOM     20  C   UNL A   1      40.031  22.814  26.411  1.00  0.00     0.338 C 
ATOM     21  O   UNL A   1      39.095  22.111  26.056  1.00  0.00    -0.246 OA
BRANCH  20  22
ATOM     22  C   UNL A   1      39.855  24.161  26.987  1.00  0.00     0.060 A 
ATOM     23  C   UNL A   1      40.381  25.239  26.260  1.00  0.00     0.016 A 
ATOM     24  C   UNL A   1      39.192  24.368  28.198  1.00  0.00     0.016 A 
ATOM     25  C   UNL A   1      40.343  26.517  26.791  1.00  0.00     0.010 A 
ATOM     26  C   UNL A   1      39.169  25.651  28.743  1.00  0.00     0.010 A 
ATOM     27  C   UNL A   1      39.814  26.704  28.073  1.00  0.00    -0.014 A 
BRANCH  27  28
ATOM     28  C   UNL A   1      40.233  27.908  28.819  1.00  0.00     0.031 A 
ATOM     29  C   UNL A   1      41.643  27.936  29.348  1.00  0.00     0.074 A 
ATOM     30  C   UNL A   1      39.417  28.967  28.942  1.00  0.00     0.049 A 
ATOM     31  N   UNL A   1      42.264  28.879  30.004  1.00  0.00    -0.248 NA
ATOM     32  C   UNL A   1      42.464  26.735  29.105  1.00  0.00     0.031 C 
ATOM     33  C   UNL A   1      38.060  29.058  28.405  1.00  0.00     0.029 A 
ATOM     34  N   UNL A   1      39.626  30.174  29.551  1.00  0.00    -0.354 N 
ATOM     35  C   UNL A   1      43.534  28.376  30.269  1.00  0.00     0.074 A 
ATOM     36  C   UNL A   1      43.588  27.037  29.734  1.00  0.00     0.031 C 
ATOM     37  C   UNL A   1      37.557  30.268  28.706  1.00  0.00     0.029 A 
ATOM     38  C   UNL A   1      38.545  31.017  29.481  1.00  0.00     0.049 A 
ATOM     39  H   UNL A   1      40.470  30.416  29.997  1.00  0.00     0.167 HD
ATOM     40  C   UNL A   1      44.567  28.983  30.897  1.00  0.00     0.031 A 
ATOM     41  C   UNL A   1      38.379  32.250  29.996  1.00  0.00     0.031 A 
ATOM     42  C   UNL A   1      44.495  30.317  31.427  1.00  0.00     0.049 A 
ATOM     43  C   UNL A   1      39.523  32.882  30.744  1.00  0.00     0.074 A 
ATOM     44  C   UNL A   1      45.479  31.042  32.070  1.00  0.00     0.029 A 
ATOM     45  N   UNL A   1      43.366  31.123  31.376  1.00  0.00    -0.354 N 
ATOM     46  N   UNL A   1      40.724  32.404  30.977  1.00  0.00    -0.248 NA
ATOM     47  C   UNL A   1      39.295  34.228  31.282  1.00  0.00     0.031 C 
ATOM     48  C   UNL A   1      44.926  32.264  32.469  1.00  0.00     0.029 A 
ATOM     49  C   UNL A   1      43.621  32.330  32.001  1.00  0.00     0.049 A 
ATOM     50  H   UNL A   1      42.511  30.873  30.958  1.00  0.00     0.167 HD
ATOM     51  C   UNL A   1      41.409  33.410  31.650  1.00  0.00     0.074 A 
ATOM     52  C   UNL A   1      40.488  34.523  31.777  1.00  0.00     0.031 C 
ATOM     53  C   UNL A   1      42.686  33.422  32.112  1.00  0.00     0.031 A 
BRANCH  40  54
ATOM     54  C   UNL A   1      45.831  28.187  31.091  1.00  0.00    -0.014 A 
ATOM     55  C   UNL A   1      46.019  27.353  32.210  1.00  0.00     0.010 A 
ATOM     56  C   UNL A   1      46.850  28.269  30.125  1.00  0.00     0.010 A 
ATOM     57  C   UNL A   1      47.215  26.649  32.376  1.00  0.00     0.020 A 
ATOM     58  C   UNL A   1      48.033  27.540  30.270  1.00  0.00     0.020 A 
ATOM     59  C   UNL A   1      48.215  26.747  31.403  1.00  0.00     0.054 A 
BRANCH  59  60
ATOM     60  S   UNL A   1      49.747  25.804  31.630  1.00  0.00     0.124 S 
ATOM     61  O   UNL A   1      49.892  25.147  30.334  1.00  0.00    -0.237 OA
ATOM     62  O   UNL A   1      50.726  26.848  31.918  1.00  0.00    -0.237 OA
ATOM     63  O   UNL A   1      49.443  24.913  32.748  1.00  0.00    -0.744 OA
ENDBRANCH  59  60
ENDBRANCH  40  54
BRANCH  41  64
ATOM     64  C   UNL A   1      37.087  32.966  29.810  1.00  0.00    -0.014 A 
ATOM     65  C   UNL A   1      36.746  33.523  28.565  1.00  0.00     0.010 A 
ATOM     66  C   UNL A   1      36.185  33.089  30.884  1.00  0.00     0.010 A 
ATOM     67  C   UNL A   1      35.539  34.208  28.402  1.00  0.00     0.020 A 
ATOM     68  C   UNL A   1      34.962  33.746  30.716  1.00  0.00     0.020 A 
ATOM     69  C   UNL A   1      34.653  34.311  29.478  1.00  0.00     0.054 A 
BRANCH  69  70
ATOM     70  S   UNL A   1      33.073  35.167  29.229  1.00  0.00     0.124 S 
ATOM     71  O   UNL A   1      32.440  35.025  30.536  1.00  0.00    -0.237 OA
ATOM     72  O   UNL A   1      33.500  36.519  28.876  1.00  0.00    -0.237 OA
ATOM     73  O   UNL A   1      32.444  34.417  28.144  1.00  0.00    -0.744 OA
ENDBRANCH  69  70
ENDBRANCH  41  64
BRANCH  53  74
ATOM     74  C   UNL A   1      43.181  34.700  32.737  1.00  0.00    -0.014 A 
ATOM     75  C   UNL A   1      43.688  35.758  31.962  1.00  0.00     0.010 A 
ATOM     76  C   UNL A   1      43.104  34.850  34.135  1.00  0.00     0.010 A 
ATOM     77  C   UNL A   1      44.159  36.919  32.578  1.00  0.00     0.020 A 
ATOM     78  C   UNL A   1      43.539  36.024  34.751  1.00  0.00     0.020 A 
ATOM     79  C   UNL A   1      44.086  37.042  33.970  1.00  0.00     0.054 A 
BRANCH  79  80
ATOM     80  S   UNL A   1      44.695  38.564  34.745  1.00  0.00     0.124 S 
ATOM     81  O   UNL A   1      46.138  38.443  34.558  1.00  0.00    -0.237 OA
ATOM     82  O   UNL A   1      44.043  39.608  33.958  1.00  0.00    -0.237 OA
ATOM     83  O   UNL A   1      44.236  38.456  36.129  1.00  0.00    -0.744 OA
ENDBRANCH  79  80
ENDBRANCH  53  74
ENDBRANCH  27  28
ENDBRANCH  20  22
ENDBRANCH  19  20
ENDBRANCH  18  19
ENDBRANCH   1  18
TORSDOF 18
ENDMDL
