MODEL 1
REMARK VINA RESULT:     -11.1      0.000      0.000
REMARK SMILES O=C(OCCOCCOC(=O)[C@H]1Cc2ccc(Cl)cc2C[N@@H+]1Cc1ccc(Cl)cc1)c1ccc(-c2c3nc(c(-c4ccc(S(=O)(=O)[O-])cc4)c4ccc([nH]4)c(-c4ccc(S(=O)(=O)[O-])cc4)c4nc(c(-c5ccc(S(=O)(=O)[O-])cc5)c5ccc2[nH]5)C=C4)C=C3)cc1
REMARK SMILES IDX 5 1 4 2 3 3 2 4 1 5 31 6 32 7 90 8 33 9 89 10 34 11 35 12
REMARK SMILES IDX 36 13 83 14 37 15 88 16 82 17 84 18 38 19 87 20 81 21 80 22
REMARK SMILES IDX 39 24 69 25 50 26 68 27 51 28 54 29 67 30 85 31 52 32 53 33
REMARK SMILES IDX 66 35 86 36 55 37 40 38 41 39 49 40 42 41 48 42 43 43 44 44
REMARK SMILES IDX 45 45 46 46 47 47 70 48 71 49 79 50 72 51 78 52 73 53 74 54
REMARK SMILES IDX 75 55 76 56 77 57 56 58 57 59 65 60 58 61 64 62 59 63 60 64
REMARK SMILES IDX 61 65 62 66 63 67 6 68 7 69 8 70 9 71 10 72 11 73 12 74
REMARK SMILES IDX 13 75 22 76 14 77 21 78 15 80 20 81 16 82 19 83 17 84 18 85
REMARK SMILES IDX 23 86 24 87 25 88 30 89 26 90 29 91 27 92 28 93
REMARK H PARENT 84 23 54 34 22 79
REMARK Flexibility Score: inf
ROOT
ATOM      1  C   UNL A   1      31.708  28.183  26.946  1.00  0.00     0.202 C 
ENDROOT
BRANCH   1   2
ATOM      2  C   UNL A   1      33.190  28.383  27.263  1.00  0.00     0.261 C 
BRANCH   2   3
ATOM      3  O   UNL A   1      33.591  29.742  27.058  1.00  0.00    -0.460 OA
BRANCH   3   4
ATOM      4  C   UNL A   1      34.424  30.489  27.821  1.00  0.00     0.338 C 
ATOM      5  O   UNL A   1      34.033  31.608  28.155  1.00  0.00    -0.246 OA
BRANCH   4   6
ATOM      6  C   UNL A   1      35.802  30.070  28.252  1.00  0.00     0.060 A 
ATOM      7  C   UNL A   1      36.816  30.168  27.279  1.00  0.00     0.016 A 
ATOM      8  C   UNL A   1      36.150  29.517  29.487  1.00  0.00     0.016 A 
ATOM      9  C   UNL A   1      38.106  29.692  27.528  1.00  0.00     0.010 A 
ATOM     10  C   UNL A   1      37.401  28.978  29.720  1.00  0.00     0.010 A 
ATOM     11  C   UNL A   1      38.387  29.081  28.750  1.00  0.00    -0.014 A 
BRANCH  11  12
ATOM     12  C   UNL A   1      39.743  28.756  29.198  1.00  0.00     0.031 A 
ATOM     13  C   UNL A   1      40.388  27.467  28.820  1.00  0.00     0.074 A 
ATOM     14  C   UNL A   1      40.221  29.546  30.176  1.00  0.00     0.049 A 
ATOM     15  N   UNL A   1      41.560  27.018  29.167  1.00  0.00    -0.248 NA
ATOM     16  C   UNL A   1      39.612  26.546  27.971  1.00  0.00     0.031 C 
ATOM     17  C   UNL A   1      39.523  30.728  30.700  1.00  0.00     0.029 A 
ATOM     18  N   UNL A   1      41.346  29.455  30.941  1.00  0.00    -0.354 N 
ATOM     19  C   UNL A   1      41.681  25.774  28.565  1.00  0.00     0.074 A 
ATOM     20  C   UNL A   1      40.438  25.511  27.874  1.00  0.00     0.031 C 
ATOM     21  C   UNL A   1      40.231  31.244  31.710  1.00  0.00     0.029 A 
ATOM     22  C   UNL A   1      41.432  30.439  31.895  1.00  0.00     0.049 A 
ATOM     23  H   UNL A   1      42.027  28.754  30.822  1.00  0.00     0.167 HD
ATOM     24  C   UNL A   1      42.758  24.954  28.591  1.00  0.00     0.031 A 
ATOM     25  C   UNL A   1      42.392  30.682  32.805  1.00  0.00     0.031 A 
ATOM     26  C   UNL A   1      43.947  25.273  29.343  1.00  0.00     0.049 A 
ATOM     27  C   UNL A   1      43.602  29.805  32.771  1.00  0.00     0.074 A 
ATOM     28  C   UNL A   1      45.161  24.615  29.350  1.00  0.00     0.029 A 
ATOM     29  N   UNL A   1      44.055  26.329  30.244  1.00  0.00    -0.354 N 
ATOM     30  N   UNL A   1      43.814  28.744  32.028  1.00  0.00    -0.248 NA
ATOM     31  C   UNL A   1      44.715  30.165  33.652  1.00  0.00     0.031 C 
ATOM     32  C   UNL A   1      45.969  25.215  30.318  1.00  0.00     0.029 A 
ATOM     33  C   UNL A   1      45.296  26.305  30.855  1.00  0.00     0.049 A 
ATOM     34  H   UNL A   1      43.351  26.994  30.421  1.00  0.00     0.167 HD
ATOM     35  C   UNL A   1      45.090  28.306  32.342  1.00  0.00     0.074 A 
ATOM     36  C   UNL A   1      45.609  29.236  33.331  1.00  0.00     0.031 C 
ATOM     37  C   UNL A   1      45.766  27.234  31.860  1.00  0.00     0.031 A 
BRANCH  24  38
ATOM     38  C   UNL A   1      42.731  23.678  27.784  1.00  0.00    -0.014 A 
ATOM     39  C   UNL A   1      42.431  22.451  28.408  1.00  0.00     0.010 A 
ATOM     40  C   UNL A   1      43.138  23.665  26.435  1.00  0.00     0.010 A 
ATOM     41  C   UNL A   1      42.568  21.242  27.715  1.00  0.00     0.020 A 
ATOM     42  C   UNL A   1      43.246  22.460  25.730  1.00  0.00     0.020 A 
ATOM     43  C   UNL A   1      42.985  21.255  26.382  1.00  0.00     0.054 A 
BRANCH  43  44
ATOM     44  S   UNL A   1      43.199  19.676  25.513  1.00  0.00     0.124 S 
ATOM     45  O   UNL A   1      43.984  20.067  24.346  1.00  0.00    -0.237 OA
ATOM     46  O   UNL A   1      43.898  18.859  26.502  1.00  0.00    -0.237 OA
ATOM     47  O   UNL A   1      41.829  19.253  25.228  1.00  0.00    -0.744 OA
ENDBRANCH  43  44
ENDBRANCH  24  38
BRANCH  25  48
ATOM     48  C   UNL A   1      42.246  31.892  33.655  1.00  0.00    -0.014 A 
ATOM     49  C   UNL A   1      41.753  31.785  34.970  1.00  0.00     0.010 A 
ATOM     50  C   UNL A   1      42.338  33.162  33.060  1.00  0.00     0.010 A 
ATOM     51  C   UNL A   1      41.268  32.914  35.637  1.00  0.00     0.020 A 
ATOM     52  C   UNL A   1      41.876  34.297  33.734  1.00  0.00     0.020 A 
ATOM     53  C   UNL A   1      41.305  34.158  35.001  1.00  0.00     0.054 A 
BRANCH  53  54
ATOM     54  S   UNL A   1      40.515  35.577  35.813  1.00  0.00     0.124 S 
ATOM     55  O   UNL A   1      39.303  35.743  35.014  1.00  0.00    -0.237 OA
ATOM     56  O   UNL A   1      40.311  35.089  37.174  1.00  0.00    -0.237 OA
ATOM     57  O   UNL A   1      41.503  36.643  35.677  1.00  0.00    -0.744 OA
ENDBRANCH  53  54
ENDBRANCH  25  48
BRANCH  37  58
ATOM     58  C   UNL A   1      47.128  26.962  32.435  1.00  0.00    -0.014 A 
ATOM     59  C   UNL A   1      48.261  27.580  31.875  1.00  0.00     0.010 A 
ATOM     60  C   UNL A   1      47.294  25.960  33.406  1.00  0.00     0.010 A 
ATOM     61  C   UNL A   1      49.541  27.153  32.230  1.00  0.00     0.020 A 
ATOM     62  C   UNL A   1      48.573  25.556  33.788  1.00  0.00     0.020 A 
ATOM     63  C   UNL A   1      49.687  26.130  33.171  1.00  0.00     0.054 A 
BRANCH  63  64
ATOM     64  S   UNL A   1      51.353  25.526  33.547  1.00  0.00     0.124 S 
ATOM     65  O   UNL A   1      51.104  24.126  33.878  1.00  0.00    -0.237 OA
ATOM     66  O   UNL A   1      52.066  25.761  32.295  1.00  0.00    -0.237 OA
ATOM     67  O   UNL A   1      51.779  26.366  34.665  1.00  0.00    -0.744 OA
ENDBRANCH  63  64
ENDBRANCH  37  58
ENDBRANCH  11  12
ENDBRANCH   4   6
ENDBRANCH   3   4
ENDBRANCH   2   3
ENDBRANCH   1   2
BRANCH   1  68
ATOM     68  O   UNL A   1      31.215  26.851  27.068  1.00  0.00    -0.374 OA
BRANCH  68  69
ATOM     69  C   UNL A   1      31.602  25.939  26.035  1.00  0.00     0.202 C 
BRANCH  69  70
ATOM     70  C   UNL A   1      30.656  24.737  25.969  1.00  0.00     0.261 C 
BRANCH  70  71
ATOM     71  O   UNL A   1      31.400  23.542  25.676  1.00  0.00    -0.459 OA
BRANCH  71  72
ATOM     72  C   UNL A   1      31.761  23.393  24.373  1.00  0.00     0.365 C 
ATOM     73  O   UNL A   1      31.052  23.687  23.414  1.00  0.00    -0.245 OA
BRANCH  72  74
ATOM     74  C   UNL A   1      33.194  22.872  24.224  1.00  0.00     0.300 C 
ATOM     75  C   UNL A   1      34.130  23.837  24.979  1.00  0.00     0.113 C 
ATOM     76  N   UNL A   1      33.313  21.462  24.667  1.00  0.00    -0.315 N 
ATOM     77  C   UNL A   1      35.498  23.308  25.271  1.00  0.00    -0.033 A 
ATOM     78  C   UNL A   1      34.708  21.000  24.587  1.00  0.00     0.300 C 
ATOM     79  H   UNL A   1      33.033  21.430  25.647  1.00  0.00     0.349 HD
ATOM     80  C   UNL A   1      36.508  24.196  25.678  1.00  0.00     0.006 A 
ATOM     81  C   UNL A   1      35.753  21.941  25.149  1.00  0.00     0.011 A 
ATOM     82  C   UNL A   1      37.794  23.726  25.920  1.00  0.00     0.021 A 
ATOM     83  C   UNL A   1      37.051  21.477  25.402  1.00  0.00     0.030 A 
ATOM     84  C   UNL A   1      38.061  22.368  25.779  1.00  0.00     0.041 A 
ATOM     85  Cl  UNL A   1      39.659  21.785  26.037  1.00  0.00    -0.084 Cl
BRANCH  76  86
ATOM     86  C   UNL A   1      32.378  20.552  23.945  1.00  0.00     0.300 C 
BRANCH  86  87
ATOM     87  C   UNL A   1      32.504  19.064  24.250  1.00  0.00     0.006 A 
ATOM     88  C   UNL A   1      32.394  18.579  25.560  1.00  0.00     0.011 A 
ATOM     89  C   UNL A   1      32.814  18.145  23.233  1.00  0.00     0.011 A 
ATOM     90  C   UNL A   1      32.730  17.258  25.865  1.00  0.00     0.021 A 
ATOM     91  C   UNL A   1      33.144  16.820  23.532  1.00  0.00     0.021 A 
ATOM     92  C   UNL A   1      33.129  16.390  24.853  1.00  0.00     0.041 A 
ATOM     93  Cl  UNL A   1      33.610  14.787  25.246  1.00  0.00    -0.084 Cl
ENDBRANCH  86  87
ENDBRANCH  76  86
ENDBRANCH  72  74
ENDBRANCH  71  72
ENDBRANCH  70  71
ENDBRANCH  69  70
ENDBRANCH  68  69
ENDBRANCH   1  68
TORSDOF 19
ENDMDL
MODEL 2
REMARK VINA RESULT:     -11.0      4.953     10.949
REMARK SMILES O=C(OCCOCCOC(=O)[C@H]1Cc2ccc(Cl)cc2C[N@@H+]1Cc1ccc(Cl)cc1)c1ccc(-c2c3nc(c(-c4ccc(S(=O)(=O)[O-])cc4)c4ccc([nH]4)c(-c4ccc(S(=O)(=O)[O-])cc4)c4nc(c(-c5ccc(S(=O)(=O)[O-])cc5)c5ccc2[nH]5)C=C4)C=C3)cc1
REMARK SMILES IDX 5 1 4 2 3 3 2 4 1 5 31 6 32 7 90 8 33 9 89 10 34 11 35 12
REMARK SMILES IDX 36 13 83 14 37 15 88 16 82 17 84 18 38 19 87 20 81 21 80 22
REMARK SMILES IDX 39 24 69 25 50 26 68 27 51 28 54 29 67 30 85 31 52 32 53 33
REMARK SMILES IDX 66 35 86 36 55 37 40 38 41 39 49 40 42 41 48 42 43 43 44 44
REMARK SMILES IDX 45 45 46 46 47 47 70 48 71 49 79 50 72 51 78 52 73 53 74 54
REMARK SMILES IDX 75 55 76 56 77 57 56 58 57 59 65 60 58 61 64 62 59 63 60 64
REMARK SMILES IDX 61 65 62 66 63 67 6 68 7 69 8 70 9 71 10 72 11 73 12 74
REMARK SMILES IDX 13 75 22 76 14 77 21 78 15 80 20 81 16 82 19 83 17 84 18 85
REMARK SMILES IDX 23 86 24 87 25 88 30 89 26 90 29 91 27 92 28 93
REMARK H PARENT 84 23 54 34 22 79
REMARK Flexibility Score: inf
ROOT
ATOM      1  C   UNL A   1      44.406  18.973  24.664  1.00  0.00     0.202 C 
ENDROOT
BRANCH   1   2
ATOM      2  C   UNL A   1      43.371  18.677  25.749  1.00  0.00     0.261 C 
BRANCH   2   3
ATOM      3  O   UNL A   1      42.051  19.031  25.323  1.00  0.00    -0.460 OA
BRANCH   3   4
ATOM      4  C   UNL A   1      41.177  19.870  25.929  1.00  0.00     0.338 C 
ATOM      5  O   UNL A   1      40.001  19.512  25.989  1.00  0.00    -0.246 OA
BRANCH   4   6
ATOM      6  C   UNL A   1      41.530  21.218  26.493  1.00  0.00     0.060 A 
ATOM      7  C   UNL A   1      41.278  21.405  27.866  1.00  0.00     0.016 A 
ATOM      8  C   UNL A   1      41.998  22.320  25.772  1.00  0.00     0.016 A 
ATOM      9  C   UNL A   1      41.450  22.654  28.470  1.00  0.00     0.010 A 
ATOM     10  C   UNL A   1      42.104  23.575  26.340  1.00  0.00     0.010 A 
ATOM     11  C   UNL A   1      41.849  23.741  27.694  1.00  0.00    -0.014 A 
BRANCH  11  12
ATOM     12  C   UNL A   1      42.274  25.024  28.257  1.00  0.00     0.031 A 
ATOM     13  C   UNL A   1      43.586  25.162  28.951  1.00  0.00     0.074 A 
ATOM     14  C   UNL A   1      41.303  25.950  28.351  1.00  0.00     0.049 A 
ATOM     15  N   UNL A   1      44.085  26.215  29.533  1.00  0.00    -0.248 NA
ATOM     16  C   UNL A   1      44.435  23.961  29.036  1.00  0.00     0.031 C 
ATOM     17  C   UNL A   1      39.939  25.775  27.834  1.00  0.00     0.029 A 
ATOM     18  N   UNL A   1      41.278  27.173  28.955  1.00  0.00    -0.354 N 
ATOM     19  C   UNL A   1      45.317  25.820  30.034  1.00  0.00     0.074 A 
ATOM     20  C   UNL A   1      45.468  24.412  29.738  1.00  0.00     0.031 C 
ATOM     21  C   UNL A   1      39.207  26.847  28.155  1.00  0.00     0.029 A 
ATOM     22  C   UNL A   1      40.049  27.784  28.887  1.00  0.00     0.049 A 
ATOM     23  H   UNL A   1      42.060  27.576  29.397  1.00  0.00     0.167 HD
ATOM     24  C   UNL A   1      46.228  26.595  30.667  1.00  0.00     0.031 A 
ATOM     25  C   UNL A   1      39.653  28.985  29.343  1.00  0.00     0.031 A 
ATOM     26  C   UNL A   1      45.981  27.985  30.963  1.00  0.00     0.049 A 
ATOM     27  C   UNL A   1      40.693  29.851  29.978  1.00  0.00     0.074 A 
ATOM     28  C   UNL A   1      46.858  28.926  31.466  1.00  0.00     0.029 A 
ATOM     29  N   UNL A   1      44.753  28.622  30.806  1.00  0.00    -0.354 N 
ATOM     30  N   UNL A   1      41.942  29.552  30.252  1.00  0.00    -0.248 NA
ATOM     31  C   UNL A   1      40.303  31.218  30.332  1.00  0.00     0.031 C 
ATOM     32  C   UNL A   1      46.140  30.101  31.698  1.00  0.00     0.029 A 
ATOM     33  C   UNL A   1      44.835  29.926  31.257  1.00  0.00     0.049 A 
ATOM     34  H   UNL A   1      43.945  28.204  30.430  1.00  0.00     0.167 HD
ATOM     35  C   UNL A   1      42.497  30.694  30.804  1.00  0.00     0.074 A 
ATOM     36  C   UNL A   1      41.447  31.699  30.805  1.00  0.00     0.031 C 
ATOM     37  C   UNL A   1      43.755  30.891  31.269  1.00  0.00     0.031 A 
BRANCH  24  38
ATOM     38  C   UNL A   1      47.562  25.999  31.050  1.00  0.00    -0.014 A 
ATOM     39  C   UNL A   1      47.798  25.584  32.375  1.00  0.00     0.010 A 
ATOM     40  C   UNL A   1      48.634  25.974  30.137  1.00  0.00     0.010 A 
ATOM     41  C   UNL A   1      49.077  25.189  32.786  1.00  0.00     0.020 A 
ATOM     42  C   UNL A   1      49.908  25.551  30.535  1.00  0.00     0.020 A 
ATOM     43  C   UNL A   1      50.127  25.186  31.864  1.00  0.00     0.054 A 
BRANCH  43  44
ATOM     44  S   UNL A   1      51.787  24.713  32.424  1.00  0.00     0.124 S 
ATOM     45  O   UNL A   1      51.824  25.254  33.780  1.00  0.00    -0.237 OA
ATOM     46  O   UNL A   1      51.755  23.255  32.325  1.00  0.00    -0.237 OA
ATOM     47  O   UNL A   1      52.673  25.372  31.466  1.00  0.00    -0.744 OA
ENDBRANCH  43  44
ENDBRANCH  24  38
BRANCH  25  48
ATOM     48  C   UNL A   1      38.265  29.416  29.035  1.00  0.00    -0.014 A 
ATOM     49  C   UNL A   1      37.947  29.946  27.768  1.00  0.00     0.010 A 
ATOM     50  C   UNL A   1      37.341  29.551  30.085  1.00  0.00     0.010 A 
ATOM     51  C   UNL A   1      36.773  30.684  27.586  1.00  0.00     0.020 A 
ATOM     52  C   UNL A   1      36.155  30.268  29.899  1.00  0.00     0.020 A 
ATOM     53  C   UNL A   1      35.900  30.865  28.663  1.00  0.00     0.054 A 
BRANCH  53  54
ATOM     54  S   UNL A   1      34.472  31.966  28.452  1.00  0.00     0.124 S 
ATOM     55  O   UNL A   1      33.488  31.069  27.852  1.00  0.00    -0.237 OA
ATOM     56  O   UNL A   1      34.191  32.385  29.822  1.00  0.00    -0.237 OA
ATOM     57  O   UNL A   1      34.976  33.017  27.572  1.00  0.00    -0.744 OA
ENDBRANCH  53  54
ENDBRANCH  25  48
BRANCH  37  58
ATOM     58  C   UNL A   1      44.064  32.230  31.879  1.00  0.00    -0.014 A 
ATOM     59  C   UNL A   1      43.966  32.405  33.271  1.00  0.00     0.010 A 
ATOM     60  C   UNL A   1      44.274  33.347  31.052  1.00  0.00     0.010 A 
ATOM     61  C   UNL A   1      44.006  33.686  33.822  1.00  0.00     0.020 A 
ATOM     62  C   UNL A   1      44.350  34.626  31.604  1.00  0.00     0.020 A 
ATOM     63  C   UNL A   1      44.180  34.790  32.981  1.00  0.00     0.054 A 
BRANCH  63  64
ATOM     64  S   UNL A   1      44.135  36.450  33.705  1.00  0.00     0.124 S 
ATOM     65  O   UNL A   1      44.025  37.297  32.521  1.00  0.00    -0.237 OA
ATOM     66  O   UNL A   1      42.947  36.394  34.553  1.00  0.00    -0.237 OA
ATOM     67  O   UNL A   1      45.402  36.545  34.426  1.00  0.00    -0.744 OA
ENDBRANCH  63  64
ENDBRANCH  37  58
ENDBRANCH  11  12
ENDBRANCH   4   6
ENDBRANCH   3   4
ENDBRANCH   2   3
ENDBRANCH   1   2
BRANCH   1  68
ATOM     68  O   UNL A   1      44.340  20.267  24.070  1.00  0.00    -0.374 OA
BRANCH  68  69
ATOM     69  C   UNL A   1      44.912  21.338  24.826  1.00  0.00     0.202 C 
BRANCH  69  70
ATOM     70  C   UNL A   1      45.709  22.290  23.930  1.00  0.00     0.261 C 
BRANCH  70  71
ATOM     71  O   UNL A   1      45.477  23.651  24.330  1.00  0.00    -0.459 OA
BRANCH  71  72
ATOM     72  C   UNL A   1      46.150  24.047  25.444  1.00  0.00     0.365 C 
ATOM     73  O   UNL A   1      46.731  23.288  26.215  1.00  0.00    -0.245 OA
BRANCH  72  74
ATOM     74  C   UNL A   1      46.161  25.570  25.605  1.00  0.00     0.300 C 
ATOM     75  C   UNL A   1      44.701  26.043  25.745  1.00  0.00     0.113 C 
ATOM     76  N   UNL A   1      47.032  25.996  26.726  1.00  0.00    -0.315 N 
ATOM     77  C   UNL A   1      44.521  27.426  26.284  1.00  0.00    -0.033 A 
ATOM     78  C   UNL A   1      46.975  27.455  26.914  1.00  0.00     0.300 C 
ATOM     79  H   UNL A   1      46.667  25.561  27.573  1.00  0.00     0.349 HD
ATOM     80  C   UNL A   1      43.270  28.054  26.170  1.00  0.00     0.006 A 
ATOM     81  C   UNL A   1      45.593  28.072  26.903  1.00  0.00     0.011 A 
ATOM     82  C   UNL A   1      43.096  29.353  26.635  1.00  0.00     0.021 A 
ATOM     83  C   UNL A   1      45.404  29.379  27.375  1.00  0.00     0.030 A 
ATOM     84  C   UNL A   1      44.165  30.011  27.234  1.00  0.00     0.041 A 
ATOM     85  Cl  UNL A   1      43.969  31.633  27.775  1.00  0.00    -0.084 Cl
BRANCH  76  86
ATOM     86  C   UNL A   1      48.433  25.504  26.585  1.00  0.00     0.300 C 
BRANCH  86  87
ATOM     87  C   UNL A   1      49.227  26.038  25.399  1.00  0.00     0.006 A 
ATOM     88  C   UNL A   1      50.606  26.265  25.491  1.00  0.00     0.011 A 
ATOM     89  C   UNL A   1      48.581  26.391  24.202  1.00  0.00     0.011 A 
ATOM     90  C   UNL A   1      51.286  26.959  24.487  1.00  0.00     0.021 A 
ATOM     91  C   UNL A   1      49.258  27.080  23.191  1.00  0.00     0.021 A 
ATOM     92  C   UNL A   1      50.603  27.387  23.352  1.00  0.00     0.041 A 
ATOM     93  Cl  UNL A   1      51.430  28.302  22.154  1.00  0.00    -0.084 Cl
ENDBRANCH  86  87
ENDBRANCH  76  86
ENDBRANCH  72  74
ENDBRANCH  71  72
ENDBRANCH  70  71
ENDBRANCH  69  70
ENDBRANCH  68  69
ENDBRANCH   1  68
TORSDOF 19
ENDMDL
MODEL 3
REMARK VINA RESULT:     -10.8      3.695      9.103
REMARK SMILES O=C(OCCOCCOC(=O)[C@H]1Cc2ccc(Cl)cc2C[N@@H+]1Cc1ccc(Cl)cc1)c1ccc(-c2c3nc(c(-c4ccc(S(=O)(=O)[O-])cc4)c4ccc([nH]4)c(-c4ccc(S(=O)(=O)[O-])cc4)c4nc(c(-c5ccc(S(=O)(=O)[O-])cc5)c5ccc2[nH]5)C=C4)C=C3)cc1
REMARK SMILES IDX 5 1 4 2 3 3 2 4 1 5 31 6 32 7 90 8 33 9 89 10 34 11 35 12
REMARK SMILES IDX 36 13 83 14 37 15 88 16 82 17 84 18 38 19 87 20 81 21 80 22
REMARK SMILES IDX 39 24 69 25 50 26 68 27 51 28 54 29 67 30 85 31 52 32 53 33
REMARK SMILES IDX 66 35 86 36 55 37 40 38 41 39 49 40 42 41 48 42 43 43 44 44
REMARK SMILES IDX 45 45 46 46 47 47 70 48 71 49 79 50 72 51 78 52 73 53 74 54
REMARK SMILES IDX 75 55 76 56 77 57 56 58 57 59 65 60 58 61 64 62 59 63 60 64
REMARK SMILES IDX 61 65 62 66 63 67 6 68 7 69 8 70 9 71 10 72 11 73 12 74
REMARK SMILES IDX 13 75 22 76 14 77 21 78 15 80 20 81 16 82 19 83 17 84 18 85
REMARK SMILES IDX 23 86 24 87 25 88 30 89 26 90 29 91 27 92 28 93
REMARK H PARENT 84 23 54 34 22 79
REMARK Flexibility Score: inf
ROOT
ATOM      1  C   UNL A   1      39.210  22.186  26.564  1.00  0.00     0.202 C 
ENDROOT
BRANCH   1   2
ATOM      2  C   UNL A   1      40.637  22.736  26.561  1.00  0.00     0.261 C 
BRANCH   2   3
ATOM      3  O   UNL A   1      40.652  24.148  26.328  1.00  0.00    -0.460 OA
BRANCH   3   4
ATOM      4  C   UNL A   1      41.605  25.041  26.688  1.00  0.00     0.338 C 
ATOM      5  O   UNL A   1      42.690  24.971  26.111  1.00  0.00    -0.246 OA
BRANCH   4   6
ATOM      6  C   UNL A   1      41.448  26.078  27.765  1.00  0.00     0.060 A 
ATOM      7  C   UNL A   1      40.274  26.001  28.539  1.00  0.00     0.016 A 
ATOM      8  C   UNL A   1      42.308  27.152  28.010  1.00  0.00     0.016 A 
ATOM      9  C   UNL A   1      39.964  26.983  29.484  1.00  0.00     0.010 A 
ATOM     10  C   UNL A   1      41.979  28.166  28.889  1.00  0.00     0.010 A 
ATOM     11  C   UNL A   1      40.817  28.075  29.642  1.00  0.00    -0.014 A 
BRANCH  11  12
ATOM     12  C   UNL A   1      40.710  29.032  30.745  1.00  0.00     0.031 A 
ATOM     13  C   UNL A   1      41.464  28.829  32.014  1.00  0.00     0.074 A 
ATOM     14  C   UNL A   1      39.697  29.911  30.636  1.00  0.00     0.049 A 
ATOM     15  N   UNL A   1      41.445  29.562  33.091  1.00  0.00    -0.248 NA
ATOM     16  C   UNL A   1      42.324  27.637  32.106  1.00  0.00     0.031 C 
ATOM     17  C   UNL A   1      38.815  30.016  29.465  1.00  0.00     0.029 A 
ATOM     18  N   UNL A   1      39.194  30.821  31.517  1.00  0.00    -0.354 N 
ATOM     19  C   UNL A   1      42.305  28.941  33.985  1.00  0.00     0.074 A 
ATOM     20  C   UNL A   1      42.789  27.737  33.346  1.00  0.00     0.031 C 
ATOM     21  C   UNL A   1      37.872  30.932  29.707  1.00  0.00     0.029 A 
ATOM     22  C   UNL A   1      38.088  31.483  31.039  1.00  0.00     0.049 A 
ATOM     23  H   UNL A   1      39.582  30.988  32.406  1.00  0.00     0.167 HD
ATOM     24  C   UNL A   1      42.654  29.373  35.218  1.00  0.00     0.031 A 
ATOM     25  C   UNL A   1      37.346  32.450  31.605  1.00  0.00     0.031 A 
ATOM     26  C   UNL A   1      42.090  30.566  35.802  1.00  0.00     0.049 A 
ATOM     27  C   UNL A   1      37.789  32.959  32.939  1.00  0.00     0.074 A 
ATOM     28  C   UNL A   1      42.449  31.203  36.973  1.00  0.00     0.029 A 
ATOM     29  N   UNL A   1      41.025  31.284  35.263  1.00  0.00    -0.354 N 
ATOM     30  N   UNL A   1      38.764  32.509  33.696  1.00  0.00    -0.248 NA
ATOM     31  C   UNL A   1      37.078  34.117  33.485  1.00  0.00     0.031 C 
ATOM     32  C   UNL A   1      41.547  32.246  37.189  1.00  0.00     0.029 A 
ATOM     33  C   UNL A   1      40.678  32.322  36.108  1.00  0.00     0.049 A 
ATOM     34  H   UNL A   1      40.584  31.081  34.407  1.00  0.00     0.167 HD
ATOM     35  C   UNL A   1      38.794  33.332  34.808  1.00  0.00     0.074 A 
ATOM     36  C   UNL A   1      37.748  34.323  34.613  1.00  0.00     0.031 C 
ATOM     37  C   UNL A   1      39.607  33.272  35.892  1.00  0.00     0.031 A 
BRANCH  24  38
ATOM     38  C   UNL A   1      43.690  28.604  36.003  1.00  0.00    -0.014 A 
ATOM     39  C   UNL A   1      45.062  28.838  35.785  1.00  0.00     0.010 A 
ATOM     40  C   UNL A   1      43.316  27.550  36.860  1.00  0.00     0.010 A 
ATOM     41  C   UNL A   1      46.031  28.019  36.376  1.00  0.00     0.020 A 
ATOM     42  C   UNL A   1      44.283  26.749  37.477  1.00  0.00     0.020 A 
ATOM     43  C   UNL A   1      45.635  26.972  37.211  1.00  0.00     0.054 A 
BRANCH  43  44
ATOM     44  S   UNL A   1      46.903  25.895  37.934  1.00  0.00     0.124 S 
ATOM     45  O   UNL A   1      46.183  24.637  38.103  1.00  0.00    -0.237 OA
ATOM     46  O   UNL A   1      47.945  25.896  36.909  1.00  0.00    -0.237 OA
ATOM     47  O   UNL A   1      47.266  26.577  39.175  1.00  0.00    -0.744 OA
ENDBRANCH  43  44
ENDBRANCH  24  38
BRANCH  25  48
ATOM     48  C   UNL A   1      36.250  33.041  30.794  1.00  0.00    -0.014 A 
ATOM     49  C   UNL A   1      36.541  33.765  29.621  1.00  0.00     0.010 A 
ATOM     50  C   UNL A   1      34.957  33.115  31.341  1.00  0.00     0.010 A 
ATOM     51  C   UNL A   1      35.587  34.623  29.065  1.00  0.00     0.020 A 
ATOM     52  C   UNL A   1      33.993  33.954  30.772  1.00  0.00     0.020 A 
ATOM     53  C   UNL A   1      34.329  34.733  29.664  1.00  0.00     0.054 A 
BRANCH  53  54
ATOM     54  S   UNL A   1      33.168  35.977  29.030  1.00  0.00     0.124 S 
ATOM     55  O   UNL A   1      32.246  35.156  28.249  1.00  0.00    -0.237 OA
ATOM     56  O   UNL A   1      32.618  36.549  30.256  1.00  0.00    -0.237 OA
ATOM     57  O   UNL A   1      34.017  36.874  28.251  1.00  0.00    -0.744 OA
ENDBRANCH  53  54
ENDBRANCH  25  48
BRANCH  37  58
ATOM     58  C   UNL A   1      39.370  34.270  36.990  1.00  0.00    -0.014 A 
ATOM     59  C   UNL A   1      39.992  35.530  36.940  1.00  0.00     0.010 A 
ATOM     60  C   UNL A   1      38.676  33.886  38.151  1.00  0.00     0.010 A 
ATOM     61  C   UNL A   1      39.982  36.364  38.058  1.00  0.00     0.020 A 
ATOM     62  C   UNL A   1      38.634  34.733  39.258  1.00  0.00     0.020 A 
ATOM     63  C   UNL A   1      39.318  35.951  39.216  1.00  0.00     0.054 A 
BRANCH  63  64
ATOM     64  S   UNL A   1      39.396  37.006  40.687  1.00  0.00     0.124 S 
ATOM     65  O   UNL A   1      40.835  37.179  40.864  1.00  0.00    -0.237 OA
ATOM     66  O   UNL A   1      38.666  38.197  40.262  1.00  0.00    -0.237 OA
ATOM     67  O   UNL A   1      38.731  36.210  41.717  1.00  0.00    -0.744 OA
ENDBRANCH  63  64
ENDBRANCH  37  58
ENDBRANCH  11  12
ENDBRANCH   4   6
ENDBRANCH   3   4
ENDBRANCH   2   3
ENDBRANCH   1   2
BRANCH   1  68
ATOM     68  O   UNL A   1      38.806  21.484  25.391  1.00  0.00    -0.374 OA
BRANCH  68  69
ATOM     69  C   UNL A   1      37.439  21.645  25.000  1.00  0.00     0.202 C 
BRANCH  69  70
ATOM     70  C   UNL A   1      36.844  22.937  25.568  1.00  0.00     0.261 C 
BRANCH  70  71
ATOM     71  O   UNL A   1      35.448  23.022  25.238  1.00  0.00    -0.459 OA
BRANCH  71  72
ATOM     72  C   UNL A   1      34.628  23.334  26.277  1.00  0.00     0.365 C 
ATOM     73  O   UNL A   1      34.776  22.932  27.429  1.00  0.00    -0.245 OA
BRANCH  72  74
ATOM     74  C   UNL A   1      33.517  24.307  25.869  1.00  0.00     0.300 C 
ATOM     75  C   UNL A   1      34.185  25.586  25.326  1.00  0.00     0.113 C 
ATOM     76  N   UNL A   1      32.565  23.685  24.919  1.00  0.00    -0.315 N 
ATOM     77  C   UNL A   1      33.293  26.489  24.535  1.00  0.00    -0.033 A 
ATOM     78  C   UNL A   1      31.548  24.653  24.480  1.00  0.00     0.300 C 
ATOM     79  H   UNL A   1      33.100  23.405  24.097  1.00  0.00     0.349 HD
ATOM     80  C   UNL A   1      33.713  27.800  24.256  1.00  0.00     0.006 A 
ATOM     81  C   UNL A   1      32.063  26.018  24.074  1.00  0.00     0.011 A 
ATOM     82  C   UNL A   1      32.882  28.665  23.552  1.00  0.00     0.021 A 
ATOM     83  C   UNL A   1      31.235  26.896  23.359  1.00  0.00     0.030 A 
ATOM     84  C   UNL A   1      31.644  28.209  23.108  1.00  0.00     0.041 A 
ATOM     85  Cl  UNL A   1      30.593  29.284  22.272  1.00  0.00    -0.084 Cl
BRANCH  76  86
ATOM     86  C   UNL A   1      31.954  22.433  25.454  1.00  0.00     0.300 C 
BRANCH  86  87
ATOM     87  C   UNL A   1      32.425  21.125  24.831  1.00  0.00     0.006 A 
ATOM     88  C   UNL A   1      32.189  20.837  23.481  1.00  0.00     0.011 A 
ATOM     89  C   UNL A   1      33.042  20.136  25.617  1.00  0.00     0.011 A 
ATOM     90  C   UNL A   1      32.419  19.556  22.971  1.00  0.00     0.021 A 
ATOM     91  C   UNL A   1      33.281  18.855  25.109  1.00  0.00     0.021 A 
ATOM     92  C   UNL A   1      32.940  18.563  23.794  1.00  0.00     0.041 A 
ATOM     93  Cl  UNL A   1      33.153  16.971  23.180  1.00  0.00    -0.084 Cl
ENDBRANCH  86  87
ENDBRANCH  76  86
ENDBRANCH  72  74
ENDBRANCH  71  72
ENDBRANCH  70  71
ENDBRANCH  69  70
ENDBRANCH  68  69
ENDBRANCH   1  68
TORSDOF 19
ENDMDL
