MODEL 1
REMARK VINA RESULT:      -9.2      0.000      0.000
REMARK SMILES C[C@]12c3ccccc3[C@](C)(c3ccccc31)[C@@H]1C(=O)N(c3ccc(C(=O)OCCOCCOC(=O)c4ccc(-c5c6nc(c(-c7ccc(S(=O)(=O)[O-])cc7)c7ccc([nH]7)c(-c7ccc(S(=O)(=O)[O-])cc7)c7nc(c(-c8ccc(S(=O)(=O)[O-])cc8)c8ccc5[nH]8)C=C7)C=C6)cc4)cc3)C(=O)[C@H]12
REMARK SMILES IDX 31 1 30 2 29 3 28 4 27 5 25 6 26 7 24 8 21 9 22 10 97 11
REMARK SMILES IDX 23 12 96 13 20 14 1 15 2 16 16 17 3 18 100 19 15 20 11 21
REMARK SMILES IDX 8 22 4 23 17 24 98 25 14 26 12 27 9 28 7 29 5 30 18 31 99 32
REMARK SMILES IDX 13 33 10 34 6 35 19 36 32 37 33 38 34 39 35 40 36 41 37 42
REMARK SMILES IDX 95 43 38 44 94 45 39 46 40 47 41 48 88 49 42 50 93 51 87 52
REMARK SMILES IDX 89 53 43 54 92 55 86 56 85 57 44 59 74 60 55 61 73 62 56 63
REMARK SMILES IDX 59 64 72 65 90 66 57 67 58 68 71 70 91 71 60 72 45 73 46 74
REMARK SMILES IDX 54 75 47 76 53 77 48 78 49 79 50 80 51 81 52 82 75 83 76 84
REMARK SMILES IDX 84 85 77 86 83 87 78 88 79 89 80 90 81 91 82 92 61 93 62 94
REMARK SMILES IDX 70 95 63 96 69 97 64 98 65 99 66 100 67 101 68 102
REMARK H PARENT 89 58 59 69
REMARK Flexibility Score: inf
ROOT
ATOM      1  C   UNL A   1      45.714  25.137  25.526  1.00  0.00     0.202 C 
ENDROOT
BRANCH   1   2
ATOM      2  O   UNL A   1      46.609  25.212  24.416  1.00  0.00    -0.374 OA
BRANCH   2   3
ATOM      3  C   UNL A   1      47.936  25.676  24.664  1.00  0.00     0.202 C 
BRANCH   3   4
ATOM      4  C   UNL A   1      48.137  27.185  24.843  1.00  0.00     0.261 C 
BRANCH   4   5
ATOM      5  O   UNL A   1      48.851  27.495  26.051  1.00  0.00    -0.460 OA
BRANCH   5   6
ATOM      6  C   UNL A   1      48.271  28.446  26.824  1.00  0.00     0.338 C 
ATOM      7  O   UNL A   1      48.022  29.600  26.514  1.00  0.00    -0.246 OA
BRANCH   6   8
ATOM      8  C   UNL A   1      47.772  27.837  28.077  1.00  0.00     0.060 A 
ATOM      9  C   UNL A   1      46.899  26.544  30.401  1.00  0.00     0.052 A 
ATOM     10  C   UNL A   1      47.987  26.035  29.688  1.00  0.00     0.028 A 
ATOM     11  C   UNL A   1      46.277  27.726  29.967  1.00  0.00     0.028 A 
ATOM     12  C   UNL A   1      48.395  26.657  28.508  1.00  0.00     0.018 A 
ATOM     13  C   UNL A   1      46.736  28.396  28.827  1.00  0.00     0.018 A 
BRANCH   9  14
ATOM     14  N   UNL A   1      46.406  25.853  31.521  1.00  0.00    -0.250 N 
ATOM     15  C   UNL A   1      43.404  22.665  32.703  1.00  0.00     0.022 C 
ATOM     16  C   UNL A   1      44.394  23.409  33.598  1.00  0.00     0.030 C 
ATOM     17  C   UNL A   1      45.483  22.522  34.265  1.00  0.00    -0.033 A 
ATOM     18  C   UNL A   1      43.733  24.146  34.809  1.00  0.00    -0.033 A 
ATOM     19  C   UNL A   1      45.030  24.634  32.888  1.00  0.00     0.108 C 
ATOM     20  C   UNL A   1      45.642  21.151  34.104  1.00  0.00     0.005 A 
ATOM     21  C   UNL A   1      46.349  23.234  35.171  1.00  0.00    -0.033 A 
ATOM     22  C   UNL A   1      44.658  24.954  35.556  1.00  0.00    -0.033 A 
ATOM     23  C   UNL A   1      42.392  24.082  35.179  1.00  0.00     0.005 A 
ATOM     24  C   UNL A   1      46.334  24.980  33.612  1.00  0.00     0.108 C 
ATOM     25  C   UNL A   1      45.470  24.814  31.465  1.00  0.00     0.238 C 
ATOM     26  C   UNL A   1      46.626  20.489  34.844  1.00  0.00     0.000 A 
ATOM     27  C   UNL A   1      47.313  22.559  35.913  1.00  0.00     0.005 A 
ATOM     28  C   UNL A   1      46.140  24.781  35.133  1.00  0.00     0.030 C 
ATOM     29  C   UNL A   1      44.196  25.710  36.629  1.00  0.00     0.005 A 
ATOM     30  C   UNL A   1      41.954  24.836  36.267  1.00  0.00     0.000 A 
ATOM     31  C   UNL A   1      46.774  26.170  32.832  1.00  0.00     0.238 C 
ATOM     32  O   UNL A   1      44.998  24.253  30.492  1.00  0.00    -0.274 OA
ATOM     33  C   UNL A   1      47.444  21.182  35.746  1.00  0.00     0.000 A 
ATOM     34  C   UNL A   1      47.146  25.590  35.948  1.00  0.00     0.022 C 
ATOM     35  C   UNL A   1      42.843  25.652  36.977  1.00  0.00     0.000 A 
ATOM     36  O   UNL A   1      47.394  27.128  33.256  1.00  0.00    -0.274 OA
ENDBRANCH   9  14
ENDBRANCH   6   8
ENDBRANCH   5   6
ENDBRANCH   4   5
ENDBRANCH   3   4
ENDBRANCH   2   3
ENDBRANCH   1   2
BRANCH   1  37
ATOM     37  C   UNL A   1      44.378  24.410  25.323  1.00  0.00     0.261 C 
BRANCH  37  38
ATOM     38  O   UNL A   1      43.432  24.686  26.368  1.00  0.00    -0.460 OA
BRANCH  38  39
ATOM     39  C   UNL A   1      42.612  25.739  26.133  1.00  0.00     0.338 C 
ATOM     40  O   UNL A   1      41.956  25.952  25.124  1.00  0.00    -0.246 OA
BRANCH  39  41
ATOM     41  C   UNL A   1      42.456  26.521  27.375  1.00  0.00     0.060 A 
ATOM     42  C   UNL A   1      43.134  27.726  27.568  1.00  0.00     0.016 A 
ATOM     43  C   UNL A   1      41.583  26.033  28.357  1.00  0.00     0.016 A 
ATOM     44  C   UNL A   1      42.908  28.457  28.737  1.00  0.00     0.010 A 
ATOM     45  C   UNL A   1      41.355  26.768  29.520  1.00  0.00     0.010 A 
ATOM     46  C   UNL A   1      42.001  27.997  29.711  1.00  0.00    -0.014 A 
BRANCH  46  47
ATOM     47  C   UNL A   1      41.628  28.872  30.852  1.00  0.00     0.031 A 
ATOM     48  C   UNL A   1      42.438  28.914  32.113  1.00  0.00     0.074 A 
ATOM     49  C   UNL A   1      40.523  29.636  30.734  1.00  0.00     0.049 A 
ATOM     50  N   UNL A   1      42.295  29.701  33.147  1.00  0.00    -0.248 NA
ATOM     51  C   UNL A   1      43.544  27.953  32.236  1.00  0.00     0.031 C 
ATOM     52  C   UNL A   1      39.637  29.644  29.568  1.00  0.00     0.029 A 
ATOM     53  N   UNL A   1      39.965  30.558  31.584  1.00  0.00    -0.354 N 
ATOM     54  C   UNL A   1      43.301  29.349  34.038  1.00  0.00     0.074 A 
ATOM     55  C   UNL A   1      44.016  28.239  33.444  1.00  0.00     0.031 C 
ATOM     56  C   UNL A   1      38.678  30.562  29.755  1.00  0.00     0.029 A 
ATOM     57  C   UNL A   1      38.852  31.179  31.067  1.00  0.00     0.049 A 
ATOM     58  H   UNL A   1      40.327  30.754  32.479  1.00  0.00     0.167 HD
ATOM     59  C   UNL A   1      43.608  29.918  35.228  1.00  0.00     0.031 A 
ATOM     60  C   UNL A   1      38.062  32.145  31.579  1.00  0.00     0.031 A 
ATOM     61  C   UNL A   1      42.873  31.014  35.812  1.00  0.00     0.049 A 
ATOM     62  C   UNL A   1      38.404  32.738  32.916  1.00  0.00     0.074 A 
ATOM     63  C   UNL A   1      43.140  31.686  36.993  1.00  0.00     0.029 A 
ATOM     64  N   UNL A   1      41.730  31.590  35.278  1.00  0.00    -0.354 N 
ATOM     65  N   UNL A   1      39.418  32.458  33.702  1.00  0.00    -0.248 NA
ATOM     66  C   UNL A   1      37.516  33.788  33.432  1.00  0.00     0.031 C 
ATOM     67  C   UNL A   1      42.114  32.606  37.216  1.00  0.00     0.029 A 
ATOM     68  C   UNL A   1      41.258  32.580  36.126  1.00  0.00     0.049 A 
ATOM     69  H   UNL A   1      41.315  31.335  34.422  1.00  0.00     0.167 HD
ATOM     70  C   UNL A   1      39.299  33.311  34.795  1.00  0.00     0.074 A 
ATOM     71  C   UNL A   1      38.130  34.132  34.557  1.00  0.00     0.031 C 
ATOM     72  C   UNL A   1      40.090  33.397  35.892  1.00  0.00     0.031 A 
BRANCH  59  73
ATOM     73  C   UNL A   1      44.804  29.398  35.989  1.00  0.00    -0.014 A 
ATOM     74  C   UNL A   1      44.647  28.917  37.303  1.00  0.00     0.010 A 
ATOM     75  C   UNL A   1      46.102  29.524  35.461  1.00  0.00     0.010 A 
ATOM     76  C   UNL A   1      45.763  28.614  38.089  1.00  0.00     0.020 A 
ATOM     77  C   UNL A   1      47.220  29.189  36.232  1.00  0.00     0.020 A 
ATOM     78  C   UNL A   1      47.044  28.763  37.551  1.00  0.00     0.054 A 
BRANCH  78  79
ATOM     79  S   UNL A   1      48.481  28.411  38.601  1.00  0.00     0.124 S 
ATOM     80  O   UNL A   1      47.868  27.761  39.755  1.00  0.00    -0.237 OA
ATOM     81  O   UNL A   1      49.294  27.547  37.747  1.00  0.00    -0.237 OA
ATOM     82  O   UNL A   1      49.049  29.732  38.858  1.00  0.00    -0.744 OA
ENDBRANCH  78  79
ENDBRANCH  59  73
BRANCH  60  83
ATOM     83  C   UNL A   1      36.912  32.639  30.769  1.00  0.00    -0.014 A 
ATOM     84  C   UNL A   1      37.111  33.601  29.760  1.00  0.00     0.010 A 
ATOM     85  C   UNL A   1      35.600  32.233  31.072  1.00  0.00     0.010 A 
ATOM     86  C   UNL A   1      36.021  34.201  29.125  1.00  0.00     0.020 A 
ATOM     87  C   UNL A   1      34.507  32.804  30.410  1.00  0.00     0.020 A 
ATOM     88  C   UNL A   1      34.726  33.810  29.467  1.00  0.00     0.054 A 
BRANCH  88  89
ATOM     89  S   UNL A   1      33.327  34.665  28.688  1.00  0.00     0.124 S 
ATOM     90  O   UNL A   1      33.997  35.767  28.002  1.00  0.00    -0.237 OA
ATOM     91  O   UNL A   1      32.767  33.631  27.821  1.00  0.00    -0.237 OA
ATOM     92  O   UNL A   1      32.487  35.051  29.818  1.00  0.00    -0.744 OA
ENDBRANCH  88  89
ENDBRANCH  60  83
BRANCH  72  93
ATOM     93  C   UNL A   1      39.737  34.413  36.953  1.00  0.00    -0.014 A 
ATOM     94  C   UNL A   1      40.302  35.703  36.901  1.00  0.00     0.010 A 
ATOM     95  C   UNL A   1      38.972  34.051  38.076  1.00  0.00     0.010 A 
ATOM     96  C   UNL A   1      40.152  36.590  37.970  1.00  0.00     0.020 A 
ATOM     97  C   UNL A   1      38.788  34.950  39.132  1.00  0.00     0.020 A 
ATOM     98  C   UNL A   1      39.405  36.203  39.085  1.00  0.00     0.054 A 
BRANCH  98  99
ATOM     99  S   UNL A   1      39.270  37.348  40.485  1.00  0.00     0.124 S 
ATOM    100  O   UNL A   1      40.671  37.603  40.811  1.00  0.00    -0.237 OA
ATOM    101  O   UNL A   1      38.542  38.474  39.909  1.00  0.00    -0.237 OA
ATOM    102  O   UNL A   1      38.529  36.582  41.486  1.00  0.00    -0.744 OA
ENDBRANCH  98  99
ENDBRANCH  72  93
ENDBRANCH  46  47
ENDBRANCH  39  41
ENDBRANCH  38  39
ENDBRANCH  37  38
ENDBRANCH   1  37
TORSDOF 18
ENDMDL
MODEL 2
REMARK VINA RESULT:      -9.2      2.933      6.229
REMARK SMILES C[C@]12c3ccccc3[C@](C)(c3ccccc31)[C@@H]1C(=O)N(c3ccc(C(=O)OCCOCCOC(=O)c4ccc(-c5c6nc(c(-c7ccc(S(=O)(=O)[O-])cc7)c7ccc([nH]7)c(-c7ccc(S(=O)(=O)[O-])cc7)c7nc(c(-c8ccc(S(=O)(=O)[O-])cc8)c8ccc5[nH]8)C=C7)C=C6)cc4)cc3)C(=O)[C@H]12
REMARK SMILES IDX 31 1 30 2 29 3 28 4 27 5 25 6 26 7 24 8 21 9 22 10 97 11
REMARK SMILES IDX 23 12 96 13 20 14 1 15 2 16 16 17 3 18 100 19 15 20 11 21
REMARK SMILES IDX 8 22 4 23 17 24 98 25 14 26 12 27 9 28 7 29 5 30 18 31 99 32
REMARK SMILES IDX 13 33 10 34 6 35 19 36 32 37 33 38 34 39 35 40 36 41 37 42
REMARK SMILES IDX 95 43 38 44 94 45 39 46 40 47 41 48 88 49 42 50 93 51 87 52
REMARK SMILES IDX 89 53 43 54 92 55 86 56 85 57 44 59 74 60 55 61 73 62 56 63
REMARK SMILES IDX 59 64 72 65 90 66 57 67 58 68 71 70 91 71 60 72 45 73 46 74
REMARK SMILES IDX 54 75 47 76 53 77 48 78 49 79 50 80 51 81 52 82 75 83 76 84
REMARK SMILES IDX 84 85 77 86 83 87 78 88 79 89 80 90 81 91 82 92 61 93 62 94
REMARK SMILES IDX 70 95 63 96 69 97 64 98 65 99 66 100 67 101 68 102
REMARK H PARENT 89 58 59 69
REMARK Flexibility Score: inf
ROOT
ATOM      1  C   UNL A   1      43.701  21.893  26.345  1.00  0.00     0.202 C 
ENDROOT
BRANCH   1   2
ATOM      2  O   UNL A   1      44.467  22.539  27.362  1.00  0.00    -0.374 OA
BRANCH   2   3
ATOM      3  C   UNL A   1      45.623  23.273  26.956  1.00  0.00     0.202 C 
BRANCH   3   4
ATOM      4  C   UNL A   1      46.051  24.459  27.828  1.00  0.00     0.261 C 
BRANCH   4   5
ATOM      5  O   UNL A   1      45.692  25.720  27.239  1.00  0.00    -0.460 OA
BRANCH   5   6
ATOM      6  C   UNL A   1      46.658  26.669  27.300  1.00  0.00     0.338 C 
ATOM      7  O   UNL A   1      47.791  26.599  26.854  1.00  0.00    -0.246 OA
BRANCH   6   8
ATOM      8  C   UNL A   1      46.087  27.932  27.818  1.00  0.00     0.060 A 
ATOM      9  C   UNL A   1      45.041  30.391  28.652  1.00  0.00     0.052 A 
ATOM     10  C   UNL A   1      45.162  30.113  27.288  1.00  0.00     0.028 A 
ATOM     11  C   UNL A   1      45.407  29.416  29.594  1.00  0.00     0.028 A 
ATOM     12  C   UNL A   1      45.722  28.904  26.874  1.00  0.00     0.018 A 
ATOM     13  C   UNL A   1      45.894  28.171  29.179  1.00  0.00     0.018 A 
BRANCH   9  14
ATOM     14  N   UNL A   1      44.594  31.654  29.076  1.00  0.00    -0.250 N 
ATOM     15  C   UNL A   1      46.114  35.768  30.233  1.00  0.00     0.022 C 
ATOM     16  C   UNL A   1      44.667  35.289  30.137  1.00  0.00     0.030 C 
ATOM     17  C   UNL A   1      43.803  35.996  29.056  1.00  0.00    -0.033 A 
ATOM     18  C   UNL A   1      43.840  35.484  31.449  1.00  0.00    -0.033 A 
ATOM     19  C   UNL A   1      44.561  33.745  30.013  1.00  0.00     0.108 C 
ATOM     20  C   UNL A   1      44.229  36.986  28.178  1.00  0.00     0.005 A 
ATOM     21  C   UNL A   1      42.421  35.586  29.044  1.00  0.00    -0.033 A 
ATOM     22  C   UNL A   1      42.528  34.900  31.386  1.00  0.00    -0.033 A 
ATOM     23  C   UNL A   1      44.269  36.135  32.604  1.00  0.00     0.005 A 
ATOM     24  C   UNL A   1      43.195  33.408  29.408  1.00  0.00     0.108 C 
ATOM     25  C   UNL A   1      45.421  32.767  29.267  1.00  0.00     0.238 C 
ATOM     26  C   UNL A   1      43.299  37.579  27.318  1.00  0.00     0.000 A 
ATOM     27  C   UNL A   1      41.504  36.198  28.195  1.00  0.00     0.005 A 
ATOM     28  C   UNL A   1      42.133  34.372  29.983  1.00  0.00     0.030 C 
ATOM     29  C   UNL A   1      41.700  34.950  32.504  1.00  0.00     0.005 A 
ATOM     30  C   UNL A   1      43.417  36.187  33.707  1.00  0.00     0.000 A 
ATOM     31  C   UNL A   1      43.259  31.920  29.396  1.00  0.00     0.238 C 
ATOM     32  O   UNL A   1      46.608  32.898  29.020  1.00  0.00    -0.274 OA
ATOM     33  C   UNL A   1      41.951  37.199  27.335  1.00  0.00     0.000 A 
ATOM     34  C   UNL A   1      40.723  33.795  29.880  1.00  0.00     0.022 C 
ATOM     35  C   UNL A   1      42.151  35.590  33.663  1.00  0.00     0.000 A 
ATOM     36  O   UNL A   1      42.326  31.152  29.539  1.00  0.00    -0.274 OA
ENDBRANCH   9  14
ENDBRANCH   6   8
ENDBRANCH   5   6
ENDBRANCH   4   5
ENDBRANCH   3   4
ENDBRANCH   2   3
ENDBRANCH   1   2
BRANCH   1  37
ATOM     37  C   UNL A   1      42.384  22.551  25.912  1.00  0.00     0.261 C 
BRANCH  37  38
ATOM     38  O   UNL A   1      41.973  23.605  26.798  1.00  0.00    -0.460 OA
BRANCH  38  39
ATOM     39  C   UNL A   1      42.178  24.860  26.329  1.00  0.00     0.338 C 
ATOM     40  O   UNL A   1      42.493  25.179  25.192  1.00  0.00    -0.246 OA
BRANCH  39  41
ATOM     41  C   UNL A   1      41.763  25.837  27.354  1.00  0.00     0.060 A 
ATOM     42  C   UNL A   1      40.701  25.578  28.221  1.00  0.00     0.016 A 
ATOM     43  C   UNL A   1      42.486  27.034  27.454  1.00  0.00     0.016 A 
ATOM     44  C   UNL A   1      40.385  26.512  29.211  1.00  0.00     0.010 A 
ATOM     45  C   UNL A   1      42.172  27.961  28.448  1.00  0.00     0.010 A 
ATOM     46  C   UNL A   1      41.131  27.698  29.348  1.00  0.00    -0.014 A 
BRANCH  46  47
ATOM     47  C   UNL A   1      40.908  28.585  30.518  1.00  0.00     0.031 A 
ATOM     48  C   UNL A   1      41.766  28.506  31.745  1.00  0.00     0.074 A 
ATOM     49  C   UNL A   1      39.895  29.474  30.460  1.00  0.00     0.049 A 
ATOM     50  N   UNL A   1      41.757  29.282  32.798  1.00  0.00    -0.248 NA
ATOM     51  C   UNL A   1      42.757  27.422  31.805  1.00  0.00     0.031 C 
ATOM     52  C   UNL A   1      38.970  29.610  29.333  1.00  0.00     0.029 A 
ATOM     53  N   UNL A   1      39.482  30.435  31.349  1.00  0.00    -0.354 N 
ATOM     54  C   UNL A   1      42.750  28.797  33.639  1.00  0.00     0.074 A 
ATOM     55  C   UNL A   1      43.307  27.624  32.997  1.00  0.00     0.031 C 
ATOM     56  C   UNL A   1      38.133  30.628  29.575  1.00  0.00     0.029 A 
ATOM     57  C   UNL A   1      38.429  31.192  30.889  1.00  0.00     0.049 A 
ATOM     58  H   UNL A   1      39.899  30.570  32.230  1.00  0.00     0.167 HD
ATOM     59  C   UNL A   1      43.168  29.301  34.824  1.00  0.00     0.031 A 
ATOM     60  C   UNL A   1      37.778  32.232  31.449  1.00  0.00     0.031 A 
ATOM     61  C   UNL A   1      42.589  30.461  35.458  1.00  0.00     0.049 A 
ATOM     62  C   UNL A   1      38.240  32.752  32.782  1.00  0.00     0.074 A 
ATOM     63  C   UNL A   1      42.980  31.073  36.637  1.00  0.00     0.029 A 
ATOM     64  N   UNL A   1      41.501  31.177  34.981  1.00  0.00    -0.354 N 
ATOM     65  N   UNL A   1      39.244  32.341  33.519  1.00  0.00    -0.248 NA
ATOM     66  C   UNL A   1      37.500  33.887  33.351  1.00  0.00     0.031 C 
ATOM     67  C   UNL A   1      42.077  32.099  36.918  1.00  0.00     0.029 A 
ATOM     68  C   UNL A   1      41.181  32.196  35.865  1.00  0.00     0.049 A 
ATOM     69  H   UNL A   1      41.025  30.990  34.140  1.00  0.00     0.167 HD
ATOM     70  C   UNL A   1      39.269  33.178  34.630  1.00  0.00     0.074 A 
ATOM     71  C   UNL A   1      38.195  34.133  34.456  1.00  0.00     0.031 C 
ATOM     72  C   UNL A   1      40.107  33.148  35.694  1.00  0.00     0.031 A 
BRANCH  59  73
ATOM     73  C   UNL A   1      44.325  28.630  35.526  1.00  0.00    -0.014 A 
ATOM     74  C   UNL A   1      44.080  27.685  36.541  1.00  0.00     0.010 A 
ATOM     75  C   UNL A   1      45.648  29.043  35.287  1.00  0.00     0.010 A 
ATOM     76  C   UNL A   1      45.127  27.199  37.330  1.00  0.00     0.020 A 
ATOM     77  C   UNL A   1      46.703  28.534  36.051  1.00  0.00     0.020 A 
ATOM     78  C   UNL A   1      46.432  27.637  37.086  1.00  0.00     0.054 A 
BRANCH  78  79
ATOM     79  S   UNL A   1      47.770  27.032  38.151  1.00  0.00     0.124 S 
ATOM     80  O   UNL A   1      48.050  28.197  38.986  1.00  0.00    -0.237 OA
ATOM     81  O   UNL A   1      47.147  25.900  38.833  1.00  0.00    -0.237 OA
ATOM     82  O   UNL A   1      48.825  26.674  37.205  1.00  0.00    -0.744 OA
ENDBRANCH  78  79
ENDBRANCH  59  73
BRANCH  60  83
ATOM     83  C   UNL A   1      36.661  32.872  30.697  1.00  0.00    -0.014 A 
ATOM     84  C   UNL A   1      36.932  33.762  29.640  1.00  0.00     0.010 A 
ATOM     85  C   UNL A   1      35.328  32.683  31.102  1.00  0.00     0.010 A 
ATOM     86  C   UNL A   1      35.904  34.503  29.053  1.00  0.00     0.020 A 
ATOM     87  C   UNL A   1      34.290  33.395  30.490  1.00  0.00     0.020 A 
ATOM     88  C   UNL A   1      34.592  34.327  29.494  1.00  0.00     0.054 A 
BRANCH  88  89
ATOM     89  S   UNL A   1      33.288  35.363  28.774  1.00  0.00     0.124 S 
ATOM     90  O   UNL A   1      32.510  35.727  29.956  1.00  0.00    -0.237 OA
ATOM     91  O   UNL A   1      34.048  36.448  28.160  1.00  0.00    -0.237 OA
ATOM     92  O   UNL A   1      32.616  34.467  27.836  1.00  0.00    -0.744 OA
ENDBRANCH  88  89
ENDBRANCH  60  83
BRANCH  72  93
ATOM     93  C   UNL A   1      39.918  34.174  36.786  1.00  0.00    -0.014 A 
ATOM     94  C   UNL A   1      40.632  35.388  36.736  1.00  0.00     0.010 A 
ATOM     95  C   UNL A   1      39.155  33.882  37.931  1.00  0.00     0.010 A 
ATOM     96  C   UNL A   1      40.628  36.262  37.826  1.00  0.00     0.020 A 
ATOM     97  C   UNL A   1      39.118  34.772  39.008  1.00  0.00     0.020 A 
ATOM     98  C   UNL A   1      39.880  35.943  38.961  1.00  0.00     0.054 A 
BRANCH  98  99
ATOM     99  S   UNL A   1      39.934  37.063  40.386  1.00  0.00     0.124 S 
ATOM    100  O   UNL A   1      40.536  38.263  39.812  1.00  0.00    -0.237 OA
ATOM    101  O   UNL A   1      38.525  37.180  40.755  1.00  0.00    -0.237 OA
ATOM    102  O   UNL A   1      40.766  36.351  41.354  1.00  0.00    -0.744 OA
ENDBRANCH  98  99
ENDBRANCH  72  93
ENDBRANCH  46  47
ENDBRANCH  39  41
ENDBRANCH  38  39
ENDBRANCH  37  38
ENDBRANCH   1  37
TORSDOF 18
ENDMDL
MODEL 3
REMARK VINA RESULT:      -9.1      2.946      6.072
REMARK SMILES C[C@]12c3ccccc3[C@](C)(c3ccccc31)[C@@H]1C(=O)N(c3ccc(C(=O)OCCOCCOC(=O)c4ccc(-c5c6nc(c(-c7ccc(S(=O)(=O)[O-])cc7)c7ccc([nH]7)c(-c7ccc(S(=O)(=O)[O-])cc7)c7nc(c(-c8ccc(S(=O)(=O)[O-])cc8)c8ccc5[nH]8)C=C7)C=C6)cc4)cc3)C(=O)[C@H]12
REMARK SMILES IDX 31 1 30 2 29 3 28 4 27 5 25 6 26 7 24 8 21 9 22 10 97 11
REMARK SMILES IDX 23 12 96 13 20 14 1 15 2 16 16 17 3 18 100 19 15 20 11 21
REMARK SMILES IDX 8 22 4 23 17 24 98 25 14 26 12 27 9 28 7 29 5 30 18 31 99 32
REMARK SMILES IDX 13 33 10 34 6 35 19 36 32 37 33 38 34 39 35 40 36 41 37 42
REMARK SMILES IDX 95 43 38 44 94 45 39 46 40 47 41 48 88 49 42 50 93 51 87 52
REMARK SMILES IDX 89 53 43 54 92 55 86 56 85 57 44 59 74 60 55 61 73 62 56 63
REMARK SMILES IDX 59 64 72 65 90 66 57 67 58 68 71 70 91 71 60 72 45 73 46 74
REMARK SMILES IDX 54 75 47 76 53 77 48 78 49 79 50 80 51 81 52 82 75 83 76 84
REMARK SMILES IDX 84 85 77 86 83 87 78 88 79 89 80 90 81 91 82 92 61 93 62 94
REMARK SMILES IDX 70 95 63 96 69 97 64 98 65 99 66 100 67 101 68 102
REMARK H PARENT 89 58 59 69
REMARK Flexibility Score: inf
ROOT
ATOM      1  C   UNL A   1      44.103  22.053  25.773  1.00  0.00     0.202 C 
ENDROOT
BRANCH   1   2
ATOM      2  O   UNL A   1      44.886  22.511  26.875  1.00  0.00    -0.374 OA
BRANCH   2   3
ATOM      3  C   UNL A   1      45.914  23.465  26.609  1.00  0.00     0.202 C 
BRANCH   3   4
ATOM      4  C   UNL A   1      46.305  24.420  27.741  1.00  0.00     0.261 C 
BRANCH   4   5
ATOM      5  O   UNL A   1      45.981  25.785  27.433  1.00  0.00    -0.460 OA
BRANCH   5   6
ATOM      6  C   UNL A   1      46.942  26.684  27.760  1.00  0.00     0.338 C 
ATOM      7  O   UNL A   1      48.145  26.576  27.585  1.00  0.00    -0.246 OA
BRANCH   6   8
ATOM      8  C   UNL A   1      46.315  27.953  28.192  1.00  0.00     0.060 A 
ATOM      9  C   UNL A   1      45.177  30.420  28.867  1.00  0.00     0.052 A 
ATOM     10  C   UNL A   1      45.431  30.114  27.528  1.00  0.00     0.028 A 
ATOM     11  C   UNL A   1      45.456  29.468  29.861  1.00  0.00     0.028 A 
ATOM     12  C   UNL A   1      46.036  28.900  27.197  1.00  0.00     0.018 A 
ATOM     13  C   UNL A   1      45.989  28.219  29.523  1.00  0.00     0.018 A 
BRANCH   9  14
ATOM     14  N   UNL A   1      44.682  31.687  29.217  1.00  0.00    -0.250 N 
ATOM     15  C   UNL A   1      40.801  33.968  29.774  1.00  0.00     0.022 C 
ATOM     16  C   UNL A   1      42.228  34.461  30.007  1.00  0.00     0.030 C 
ATOM     17  C   UNL A   1      42.570  34.836  31.476  1.00  0.00    -0.033 A 
ATOM     18  C   UNL A   1      42.598  35.753  29.206  1.00  0.00    -0.033 A 
ATOM     19  C   UNL A   1      43.292  33.498  29.416  1.00  0.00     0.108 C 
ATOM     20  C   UNL A   1      41.718  34.743  32.570  1.00  0.00     0.005 A 
ATOM     21  C   UNL A   1      43.893  35.379  31.654  1.00  0.00    -0.033 A 
ATOM     22  C   UNL A   1      43.982  36.119  29.328  1.00  0.00    -0.033 A 
ATOM     23  C   UNL A   1      41.731  36.513  28.425  1.00  0.00     0.005 A 
ATOM     24  C   UNL A   1      44.623  33.765  30.124  1.00  0.00     0.108 C 
ATOM     25  C   UNL A   1      43.325  31.999  29.362  1.00  0.00     0.238 C 
ATOM     26  C   UNL A   1      42.158  35.201  33.816  1.00  0.00     0.000 A 
ATOM     27  C   UNL A   1      44.311  35.847  32.896  1.00  0.00     0.005 A 
ATOM     28  C   UNL A   1      44.774  35.284  30.367  1.00  0.00     0.030 C 
ATOM     29  C   UNL A   1      44.465  37.218  28.623  1.00  0.00     0.005 A 
ATOM     30  C   UNL A   1      42.232  37.620  27.741  1.00  0.00     0.000 A 
ATOM     31  C   UNL A   1      45.509  32.797  29.419  1.00  0.00     0.238 C 
ATOM     32  O   UNL A   1      42.356  31.260  29.323  1.00  0.00    -0.274 OA
ATOM     33  C   UNL A   1      43.434  35.758  33.974  1.00  0.00     0.000 A 
ATOM     34  C   UNL A   1      46.233  35.691  30.551  1.00  0.00     0.022 C 
ATOM     35  C   UNL A   1      43.587  37.962  27.828  1.00  0.00     0.000 A 
ATOM     36  O   UNL A   1      46.694  32.937  29.181  1.00  0.00    -0.274 OA
ENDBRANCH   9  14
ENDBRANCH   6   8
ENDBRANCH   5   6
ENDBRANCH   4   5
ENDBRANCH   3   4
ENDBRANCH   2   3
ENDBRANCH   1   2
BRANCH   1  37
ATOM     37  C   UNL A   1      42.772  22.764  25.494  1.00  0.00     0.261 C 
BRANCH  37  38
ATOM     38  O   UNL A   1      42.452  23.752  26.487  1.00  0.00    -0.460 OA
BRANCH  38  39
ATOM     39  C   UNL A   1      42.608  25.037  26.086  1.00  0.00     0.338 C 
ATOM     40  O   UNL A   1      42.929  25.429  24.973  1.00  0.00    -0.246 OA
BRANCH  39  41
ATOM     41  C   UNL A   1      42.132  25.941  27.151  1.00  0.00     0.060 A 
ATOM     42  C   UNL A   1      41.091  25.576  28.006  1.00  0.00     0.016 A 
ATOM     43  C   UNL A   1      42.773  27.178  27.301  1.00  0.00     0.016 A 
ATOM     44  C   UNL A   1      40.716  26.444  29.035  1.00  0.00     0.010 A 
ATOM     45  C   UNL A   1      42.400  28.040  28.332  1.00  0.00     0.010 A 
ATOM     46  C   UNL A   1      41.381  27.671  29.221  1.00  0.00    -0.014 A 
BRANCH  46  47
ATOM     47  C   UNL A   1      41.103  28.492  30.427  1.00  0.00     0.031 A 
ATOM     48  C   UNL A   1      41.933  28.378  31.669  1.00  0.00     0.074 A 
ATOM     49  C   UNL A   1      40.064  29.351  30.387  1.00  0.00     0.049 A 
ATOM     50  N   UNL A   1      41.874  29.099  32.759  1.00  0.00    -0.248 NA
ATOM     51  C   UNL A   1      42.957  27.322  31.702  1.00  0.00     0.031 C 
ATOM     52  C   UNL A   1      39.162  29.515  29.244  1.00  0.00     0.029 A 
ATOM     53  N   UNL A   1      39.599  30.254  31.310  1.00  0.00    -0.354 N 
ATOM     54  C   UNL A   1      42.862  28.604  33.600  1.00  0.00     0.074 A 
ATOM     55  C   UNL A   1      43.471  27.482  32.916  1.00  0.00     0.031 C 
ATOM     56  C   UNL A   1      38.288  30.494  29.514  1.00  0.00     0.029 A 
ATOM     57  C   UNL A   1      38.535  31.001  30.862  1.00  0.00     0.049 A 
ATOM     58  H   UNL A   1      39.991  30.357  32.208  1.00  0.00     0.167 HD
ATOM     59  C   UNL A   1      43.236  29.061  34.819  1.00  0.00     0.031 A 
ATOM     60  C   UNL A   1      37.837  31.991  31.455  1.00  0.00     0.031 A 
ATOM     61  C   UNL A   1      42.606  30.170  35.493  1.00  0.00     0.049 A 
ATOM     62  C   UNL A   1      38.251  32.458  32.823  1.00  0.00     0.074 A 
ATOM     63  C   UNL A   1      42.948  30.734  36.711  1.00  0.00     0.029 A 
ATOM     64  N   UNL A   1      41.507  30.876  35.025  1.00  0.00    -0.354 N 
ATOM     65  N   UNL A   1      39.250  32.041  33.564  1.00  0.00    -0.248 NA
ATOM     66  C   UNL A   1      37.463  33.540  33.428  1.00  0.00     0.031 C 
ATOM     67  C   UNL A   1      42.007  31.718  37.019  1.00  0.00     0.029 A 
ATOM     68  C   UNL A   1      41.134  31.839  35.949  1.00  0.00     0.049 A 
ATOM     69  H   UNL A   1      41.057  30.716  34.164  1.00  0.00     0.167 HD
ATOM     70  C   UNL A   1      39.221  32.822  34.715  1.00  0.00     0.074 A 
ATOM     71  C   UNL A   1      38.122  33.752  34.561  1.00  0.00     0.031 C 
ATOM     72  C   UNL A   1      40.035  32.765  35.798  1.00  0.00     0.031 A 
BRANCH  59  73
ATOM     73  C   UNL A   1      44.396  28.392  35.516  1.00  0.00    -0.014 A 
ATOM     74  C   UNL A   1      44.164  27.562  36.630  1.00  0.00     0.010 A 
ATOM     75  C   UNL A   1      45.722  28.701  35.163  1.00  0.00     0.010 A 
ATOM     76  C   UNL A   1      45.230  27.092  37.403  1.00  0.00     0.020 A 
ATOM     77  C   UNL A   1      46.793  28.204  35.912  1.00  0.00     0.020 A 
ATOM     78  C   UNL A   1      46.539  27.426  37.044  1.00  0.00     0.054 A 
BRANCH  78  79
ATOM     79  S   UNL A   1      47.907  26.846  38.086  1.00  0.00     0.124 S 
ATOM     80  O   UNL A   1      48.306  25.614  37.413  1.00  0.00    -0.237 OA
ATOM     81  O   UNL A   1      48.860  27.950  38.001  1.00  0.00    -0.237 OA
ATOM     82  O   UNL A   1      47.287  26.669  39.397  1.00  0.00    -0.744 OA
ENDBRANCH  78  79
ENDBRANCH  59  73
BRANCH  60  83
ATOM     83  C   UNL A   1      36.720  32.633  30.707  1.00  0.00    -0.014 A 
ATOM     84  C   UNL A   1      36.965  33.740  29.872  1.00  0.00     0.010 A 
ATOM     85  C   UNL A   1      35.392  32.214  30.909  1.00  0.00     0.010 A 
ATOM     86  C   UNL A   1      35.905  34.459  29.314  1.00  0.00     0.020 A 
ATOM     87  C   UNL A   1      34.330  32.908  30.320  1.00  0.00     0.020 A 
ATOM     88  C   UNL A   1      34.593  34.047  29.557  1.00  0.00     0.054 A 
BRANCH  88  89
ATOM     89  S   UNL A   1      33.233  35.047  28.890  1.00  0.00     0.124 S 
ATOM     90  O   UNL A   1      32.604  34.112  27.960  1.00  0.00    -0.237 OA
ATOM     91  O   UNL A   1      32.458  35.365  30.086  1.00  0.00    -0.237 OA
ATOM     92  O   UNL A   1      33.913  36.182  28.270  1.00  0.00    -0.744 OA
ENDBRANCH  88  89
ENDBRANCH  60  83
BRANCH  72  93
ATOM     93  C   UNL A   1      39.787  33.730  36.933  1.00  0.00    -0.014 A 
ATOM     94  C   UNL A   1      40.370  35.012  36.901  1.00  0.00     0.010 A 
ATOM     95  C   UNL A   1      39.106  33.322  38.094  1.00  0.00     0.010 A 
ATOM     96  C   UNL A   1      40.322  35.845  38.022  1.00  0.00     0.020 A 
ATOM     97  C   UNL A   1      39.023  34.168  39.205  1.00  0.00     0.020 A 
ATOM     98  C   UNL A   1      39.659  35.412  39.172  1.00  0.00     0.054 A 
BRANCH  98  99
ATOM     99  S   UNL A   1      39.657  36.485  40.635  1.00  0.00     0.124 S 
ATOM    100  O   UNL A   1      39.748  37.816  40.041  1.00  0.00    -0.237 OA
ATOM    101  O   UNL A   1      38.380  36.163  41.266  1.00  0.00    -0.237 OA
ATOM    102  O   UNL A   1      40.838  36.054  41.380  1.00  0.00    -0.744 OA
ENDBRANCH  98  99
ENDBRANCH  72  93
ENDBRANCH  46  47
ENDBRANCH  39  41
ENDBRANCH  38  39
ENDBRANCH  37  38
ENDBRANCH   1  37
TORSDOF 18
ENDMDL
