MODEL 1
REMARK VINA RESULT:      -9.7      0.000      0.000
REMARK SMILES CCC(CC)COc1cc2c(cc1Cl)C=C(C(=O)OCCOCCOC(=O)c1ccc(-c3c4nc(c(-c5ccc(S(=O)(=O)[O-])cc5)c5ccc([nH]5)c(-c5ccc(S(=O)(=O)[O-])cc5)c5nc(c(-c6ccc(S(=O)(=O)[O-])cc6)c6ccc3[nH]6)C=C5)C=C4)cc1)[C@@H](C(F)(F)F)O2
REMARK SMILES IDX 21 1 20 2 19 3 17 4 18 5 16 6 8 7 9 8 13 9 10 10 12 11 14 12
REMARK SMILES IDX 11 13 93 14 15 15 88 16 7 17 6 18 3 19 2 20 1 21 4 22 5 23
REMARK SMILES IDX 89 24 90 25 91 26 92 27 22 28 23 29 24 30 25 31 26 32 27 33
REMARK SMILES IDX 28 34 29 35 87 36 30 37 86 38 31 39 32 40 33 41 80 42 34 43
REMARK SMILES IDX 85 44 79 45 81 46 35 47 84 48 78 49 77 50 36 52 66 53 47 54
REMARK SMILES IDX 65 55 48 56 51 57 64 58 82 59 49 60 50 61 63 63 83 64 52 65
REMARK SMILES IDX 37 66 38 67 46 68 39 69 45 70 40 71 41 72 42 73 43 74 44 75
REMARK SMILES IDX 67 76 68 77 76 78 69 79 75 80 70 81 71 82 72 83 73 84 74 85
REMARK SMILES IDX 53 86 54 87 62 88 55 89 61 90 56 91 57 92 58 93 59 94 60 95
REMARK H PARENT 81 51 51 62
REMARK Flexibility Score: inf
ROOT
ATOM      1  C   UNL A   1      39.435  22.397  26.653  1.00  0.00     0.202 C 
ENDROOT
BRANCH   1   2
ATOM      2  C   UNL A   1      37.996  22.690  26.212  1.00  0.00     0.261 C 
BRANCH   2   3
ATOM      3  O   UNL A   1      37.735  22.308  24.852  1.00  0.00    -0.460 OA
BRANCH   3   4
ATOM      4  C   UNL A   1      36.678  21.475  24.730  1.00  0.00     0.338 C 
ATOM      5  O   UNL A   1      36.675  20.269  24.937  1.00  0.00    -0.246 OA
BRANCH   4   6
ATOM      6  C   UNL A   1      35.441  22.215  24.434  1.00  0.00     0.087 C 
ATOM      7  C   UNL A   1      32.101  25.865  24.910  1.00  0.00     0.141 A 
ATOM      8  C   UNL A   1      32.004  24.579  24.353  1.00  0.00     0.095 A 
ATOM      9  C   UNL A   1      33.315  26.285  25.469  1.00  0.00     0.083 A 
ATOM     10  C   UNL A   1      33.148  23.777  24.275  1.00  0.00     0.131 A 
ATOM     11  C   UNL A   1      34.474  25.566  25.220  1.00  0.00     0.036 A 
ATOM     12  Cl  UNL A   1      33.446  27.643  26.523  1.00  0.00    -0.080 Cl
ATOM     13  C   UNL A   1      34.389  24.320  24.608  1.00  0.00     0.019 A 
ATOM     14  O   UNL A   1      33.027  22.466  23.880  1.00  0.00    -0.475 OA
ATOM     15  C   UNL A   1      35.596  23.542  24.464  1.00  0.00     0.027 C 
ATOM     16  C   UNL A   1      34.095  21.553  24.331  1.00  0.00     0.316 C 
BRANCH   7  17
ATOM     17  O   UNL A   1      30.990  26.663  24.994  1.00  0.00    -0.492 OA
BRANCH  17  18
ATOM     18  C   UNL A   1      29.957  26.328  24.034  1.00  0.00     0.233 C 
BRANCH  18  19
ATOM     19  C   UNL A   1      29.541  27.524  23.133  1.00  0.00     0.026 C 
BRANCH  19  20
ATOM     20  C   UNL A   1      28.026  27.814  23.245  1.00  0.00     0.003 C 
ATOM     21  C   UNL A   1      27.272  26.759  24.045  1.00  0.00     0.004 C 
ENDBRANCH  19  20
BRANCH  19  22
ATOM     22  C   UNL A   1      30.389  28.793  23.376  1.00  0.00     0.003 C 
ATOM     23  C   UNL A   1      30.167  29.937  22.400  1.00  0.00     0.004 C 
ENDBRANCH  19  22
ENDBRANCH  18  19
ENDBRANCH  17  18
ENDBRANCH   7  17
BRANCH  16  24
ATOM     24  C   UNL A   1      33.719  20.863  25.652  1.00  0.00     0.430 C 
ATOM     25  F   UNL A   1      32.407  21.019  25.941  1.00  0.00    -0.167 F 
ATOM     26  F   UNL A   1      33.954  19.530  25.587  1.00  0.00    -0.167 F 
ATOM     27  F   UNL A   1      34.430  21.347  26.697  1.00  0.00    -0.167 F 
ENDBRANCH  16  24
ENDBRANCH   4   6
ENDBRANCH   3   4
ENDBRANCH   2   3
ENDBRANCH   1   2
BRANCH   1  28
ATOM     28  O   UNL A   1      40.261  21.598  25.814  1.00  0.00    -0.374 OA
BRANCH  28  29
ATOM     29  C   UNL A   1      41.640  21.441  26.134  1.00  0.00     0.202 C 
BRANCH  29  30
ATOM     30  C   UNL A   1      42.657  22.486  25.652  1.00  0.00     0.261 C 
BRANCH  30  31
ATOM     31  O   UNL A   1      42.099  23.792  25.446  1.00  0.00    -0.460 OA
BRANCH  31  32
ATOM     32  C   UNL A   1      42.982  24.813  25.607  1.00  0.00     0.338 C 
ATOM     33  O   UNL A   1      43.934  25.081  24.899  1.00  0.00    -0.246 OA
BRANCH  32  34
ATOM     34  C   UNL A   1      42.510  25.700  26.687  1.00  0.00     0.060 A 
ATOM     35  C   UNL A   1      41.506  25.290  27.563  1.00  0.00     0.016 A 
ATOM     36  C   UNL A   1      43.142  26.939  26.853  1.00  0.00     0.016 A 
ATOM     37  C   UNL A   1      41.154  26.119  28.629  1.00  0.00     0.010 A 
ATOM     38  C   UNL A   1      42.791  27.764  27.921  1.00  0.00     0.010 A 
ATOM     39  C   UNL A   1      41.808  27.350  28.831  1.00  0.00    -0.014 A 
BRANCH  39  40
ATOM     40  C   UNL A   1      41.557  28.124  30.071  1.00  0.00     0.031 A 
ATOM     41  C   UNL A   1      42.447  27.999  31.270  1.00  0.00     0.074 A 
ATOM     42  C   UNL A   1      40.501  28.962  30.094  1.00  0.00     0.049 A 
ATOM     43  N   UNL A   1      42.437  28.707  32.369  1.00  0.00    -0.248 NA
ATOM     44  C   UNL A   1      43.476  26.947  31.239  1.00  0.00     0.031 C 
ATOM     45  C   UNL A   1      39.547  29.130  28.997  1.00  0.00     0.029 A 
ATOM     46  N   UNL A   1      40.067  29.844  31.053  1.00  0.00    -0.354 N 
ATOM     47  C   UNL A   1      43.470  28.210  33.151  1.00  0.00     0.074 A 
ATOM     48  C   UNL A   1      44.052  27.100  32.426  1.00  0.00     0.031 C 
ATOM     49  C   UNL A   1      38.674  30.097  29.320  1.00  0.00     0.029 A 
ATOM     50  C   UNL A   1      38.981  30.592  30.660  1.00  0.00     0.049 A 
ATOM     51  H   UNL A   1      40.492  29.932  31.937  1.00  0.00     0.167 HD
ATOM     52  C   UNL A   1      43.906  28.659  34.352  1.00  0.00     0.031 A 
ATOM     53  C   UNL A   1      38.316  31.581  31.291  1.00  0.00     0.031 A 
ATOM     54  C   UNL A   1      43.300  29.755  35.070  1.00  0.00     0.049 A 
ATOM     55  C   UNL A   1      38.800  32.042  32.637  1.00  0.00     0.074 A 
ATOM     56  C   UNL A   1      43.694  30.306  36.277  1.00  0.00     0.029 A 
ATOM     57  N   UNL A   1      42.178  30.462  34.658  1.00  0.00    -0.354 N 
ATOM     58  N   UNL A   1      39.835  31.620  33.325  1.00  0.00    -0.248 NA
ATOM     59  C   UNL A   1      38.048  33.125  33.285  1.00  0.00     0.031 C 
ATOM     60  C   UNL A   1      42.766  31.286  36.634  1.00  0.00     0.029 A 
ATOM     61  C   UNL A   1      41.848  31.417  35.605  1.00  0.00     0.049 A 
ATOM     62  H   UNL A   1      41.691  30.307  33.817  1.00  0.00     0.167 HD
ATOM     63  C   UNL A   1      39.874  32.403  34.473  1.00  0.00     0.074 A 
ATOM     64  C   UNL A   1      38.769  33.336  34.380  1.00  0.00     0.031 C 
ATOM     65  C   UNL A   1      40.749  32.350  35.507  1.00  0.00     0.031 A 
BRANCH  52  66
ATOM     66  C   UNL A   1      45.110  27.999  34.976  1.00  0.00    -0.014 A 
ATOM     67  C   UNL A   1      44.940  26.977  35.929  1.00  0.00     0.010 A 
ATOM     68  C   UNL A   1      46.405  28.493  34.733  1.00  0.00     0.010 A 
ATOM     69  C   UNL A   1      46.030  26.493  36.658  1.00  0.00     0.020 A 
ATOM     70  C   UNL A   1      47.504  27.988  35.434  1.00  0.00     0.020 A 
ATOM     71  C   UNL A   1      47.305  27.011  36.412  1.00  0.00     0.054 A 
BRANCH  71  72
ATOM     72  S   UNL A   1      48.700  26.406  37.402  1.00  0.00     0.124 S 
ATOM     73  O   UNL A   1      48.229  25.094  37.832  1.00  0.00    -0.237 OA
ATOM     74  O   UNL A   1      49.794  26.399  36.435  1.00  0.00    -0.237 OA
ATOM     75  O   UNL A   1      48.826  27.404  38.462  1.00  0.00    -0.744 OA
ENDBRANCH  71  72
ENDBRANCH  52  66
BRANCH  53  76
ATOM     76  C   UNL A   1      37.168  32.234  30.602  1.00  0.00    -0.014 A 
ATOM     77  C   UNL A   1      37.384  33.307  29.716  1.00  0.00     0.010 A 
ATOM     78  C   UNL A   1      35.846  31.857  30.903  1.00  0.00     0.010 A 
ATOM     79  C   UNL A   1      36.307  34.031  29.198  1.00  0.00     0.020 A 
ATOM     80  C   UNL A   1      34.764  32.556  30.358  1.00  0.00     0.020 A 
ATOM     81  C   UNL A   1      35.004  33.660  29.536  1.00  0.00     0.054 A 
BRANCH  81  82
ATOM     82  S   UNL A   1      33.626  34.661  28.910  1.00  0.00     0.124 S 
ATOM     83  O   UNL A   1      34.326  35.817  28.356  1.00  0.00    -0.237 OA
ATOM     84  O   UNL A   1      33.008  33.771  27.930  1.00  0.00    -0.237 OA
ATOM     85  O   UNL A   1      32.825  34.927  30.101  1.00  0.00    -0.744 OA
ENDBRANCH  81  82
ENDBRANCH  53  76
BRANCH  65  86
ATOM     86  C   UNL A   1      40.581  33.329  36.645  1.00  0.00    -0.014 A 
ATOM     87  C   UNL A   1      39.673  33.039  37.682  1.00  0.00     0.010 A 
ATOM     88  C   UNL A   1      41.198  34.591  36.612  1.00  0.00     0.010 A 
ATOM     89  C   UNL A   1      39.346  34.009  38.633  1.00  0.00     0.020 A 
ATOM     90  C   UNL A   1      40.901  35.552  37.584  1.00  0.00     0.020 A 
ATOM     91  C   UNL A   1      39.954  35.265  38.570  1.00  0.00     0.054 A 
BRANCH  91  92
ATOM     92  S   UNL A   1      39.473  36.528  39.780  1.00  0.00     0.124 S 
ATOM     93  O   UNL A   1      38.892  37.563  38.931  1.00  0.00    -0.237 OA
ATOM     94  O   UNL A   1      38.530  35.811  40.635  1.00  0.00    -0.237 OA
ATOM     95  O   UNL A   1      40.737  36.886  40.423  1.00  0.00    -0.744 OA
ENDBRANCH  91  92
ENDBRANCH  65  86
ENDBRANCH  39  40
ENDBRANCH  32  34
ENDBRANCH  31  32
ENDBRANCH  30  31
ENDBRANCH  29  30
ENDBRANCH  28  29
ENDBRANCH   1  28
TORSDOF 23
ENDMDL
MODEL 2
REMARK VINA RESULT:      -9.6      4.790      6.617
REMARK SMILES CCC(CC)COc1cc2c(cc1Cl)C=C(C(=O)OCCOCCOC(=O)c1ccc(-c3c4nc(c(-c5ccc(S(=O)(=O)[O-])cc5)c5ccc([nH]5)c(-c5ccc(S(=O)(=O)[O-])cc5)c5nc(c(-c6ccc(S(=O)(=O)[O-])cc6)c6ccc3[nH]6)C=C5)C=C4)cc1)[C@@H](C(F)(F)F)O2
REMARK SMILES IDX 21 1 20 2 19 3 17 4 18 5 16 6 8 7 9 8 13 9 10 10 12 11 14 12
REMARK SMILES IDX 11 13 93 14 15 15 88 16 7 17 6 18 3 19 2 20 1 21 4 22 5 23
REMARK SMILES IDX 89 24 90 25 91 26 92 27 22 28 23 29 24 30 25 31 26 32 27 33
REMARK SMILES IDX 28 34 29 35 87 36 30 37 86 38 31 39 32 40 33 41 80 42 34 43
REMARK SMILES IDX 85 44 79 45 81 46 35 47 84 48 78 49 77 50 36 52 66 53 47 54
REMARK SMILES IDX 65 55 48 56 51 57 64 58 82 59 49 60 50 61 63 63 83 64 52 65
REMARK SMILES IDX 37 66 38 67 46 68 39 69 45 70 40 71 41 72 42 73 43 74 44 75
REMARK SMILES IDX 67 76 68 77 76 78 69 79 75 80 70 81 71 82 72 83 73 84 74 85
REMARK SMILES IDX 53 86 54 87 62 88 55 89 61 90 56 91 57 92 58 93 59 94 60 95
REMARK H PARENT 81 51 51 62
REMARK Flexibility Score: inf
ROOT
ATOM      1  C   UNL A   1      44.654  22.325  24.364  1.00  0.00     0.202 C 
ENDROOT
BRANCH   1   2
ATOM      2  C   UNL A   1      43.965  22.511  25.721  1.00  0.00     0.261 C 
BRANCH   2   3
ATOM      3  O   UNL A   1      43.380  23.813  25.883  1.00  0.00    -0.460 OA
BRANCH   3   4
ATOM      4  C   UNL A   1      42.998  24.067  27.154  1.00  0.00     0.338 C 
ATOM      5  O   UNL A   1      43.400  23.501  28.161  1.00  0.00    -0.246 OA
BRANCH   4   6
ATOM      6  C   UNL A   1      42.105  25.235  27.223  1.00  0.00     0.087 C 
ATOM      7  C   UNL A   1      39.464  28.814  29.441  1.00  0.00     0.141 A 
ATOM      8  C   UNL A   1      39.388  28.262  28.152  1.00  0.00     0.095 A 
ATOM      9  C   UNL A   1      40.417  28.327  30.345  1.00  0.00     0.083 A 
ATOM     10  C   UNL A   1      40.331  27.306  27.758  1.00  0.00     0.131 A 
ATOM     11  C   UNL A   1      41.452  27.525  29.890  1.00  0.00     0.036 A 
ATOM     12  Cl  UNL A   1      40.343  28.624  32.042  1.00  0.00    -0.080 Cl
ATOM     13  C   UNL A   1      41.415  27.030  28.592  1.00  0.00     0.019 A 
ATOM     14  O   UNL A   1      40.167  26.649  26.562  1.00  0.00    -0.475 OA
ATOM     15  C   UNL A   1      42.444  26.106  28.179  1.00  0.00     0.027 C 
ATOM     16  C   UNL A   1      40.818  25.330  26.453  1.00  0.00     0.316 C 
BRANCH   7  17
ATOM     17  O   UNL A   1      38.549  29.751  29.843  1.00  0.00    -0.492 OA
BRANCH  17  18
ATOM     18  C   UNL A   1      39.039  31.115  29.770  1.00  0.00     0.233 C 
BRANCH  18  19
ATOM     19  C   UNL A   1      38.270  32.097  30.696  1.00  0.00     0.026 C 
BRANCH  19  20
ATOM     20  C   UNL A   1      39.218  33.158  31.303  1.00  0.00     0.003 C 
ATOM     21  C   UNL A   1      39.003  33.369  32.796  1.00  0.00     0.004 C 
ENDBRANCH  19  20
BRANCH  19  22
ATOM     22  C   UNL A   1      37.044  32.745  30.011  1.00  0.00     0.003 C 
ATOM     23  C   UNL A   1      36.782  32.315  28.577  1.00  0.00     0.004 C 
ENDBRANCH  19  22
ENDBRANCH  18  19
ENDBRANCH  17  18
ENDBRANCH   7  17
BRANCH  16  24
ATOM     24  C   UNL A   1      39.856  24.197  26.848  1.00  0.00     0.430 C 
ATOM     25  F   UNL A   1      39.850  23.993  28.185  1.00  0.00    -0.167 F 
ATOM     26  F   UNL A   1      38.585  24.494  26.486  1.00  0.00    -0.167 F 
ATOM     27  F   UNL A   1      40.181  23.025  26.255  1.00  0.00    -0.167 F 
ENDBRANCH  16  24
ENDBRANCH   4   6
ENDBRANCH   3   4
ENDBRANCH   2   3
ENDBRANCH   1   2
BRANCH   1  28
ATOM     28  O   UNL A   1      45.467  23.378  23.857  1.00  0.00    -0.374 OA
BRANCH  28  29
ATOM     29  C   UNL A   1      46.758  23.596  24.418  1.00  0.00     0.202 C 
BRANCH  29  30
ATOM     30  C   UNL A   1      46.991  24.796  25.348  1.00  0.00     0.261 C 
BRANCH  30  31
ATOM     31  O   UNL A   1      48.012  25.696  24.893  1.00  0.00    -0.460 OA
BRANCH  31  32
ATOM     32  C   UNL A   1      47.541  26.825  24.298  1.00  0.00     0.338 C 
ATOM     33  O   UNL A   1      47.522  27.075  23.108  1.00  0.00    -0.246 OA
BRANCH  32  34
ATOM     34  C   UNL A   1      46.861  27.660  25.305  1.00  0.00     0.060 A 
ATOM     35  C   UNL A   1      45.470  27.672  25.404  1.00  0.00     0.016 A 
ATOM     36  C   UNL A   1      47.649  28.389  26.206  1.00  0.00     0.016 A 
ATOM     37  C   UNL A   1      44.868  28.401  26.431  1.00  0.00     0.010 A 
ATOM     38  C   UNL A   1      47.045  29.114  27.233  1.00  0.00     0.010 A 
ATOM     39  C   UNL A   1      45.649  29.108  27.366  1.00  0.00    -0.014 A 
BRANCH  39  40
ATOM     40  C   UNL A   1      45.004  29.714  28.557  1.00  0.00     0.031 A 
ATOM     41  C   UNL A   1      44.845  28.954  29.837  1.00  0.00     0.074 A 
ATOM     42  C   UNL A   1      44.567  30.986  28.464  1.00  0.00     0.049 A 
ATOM     43  N   UNL A   1      44.431  29.391  30.998  1.00  0.00    -0.248 NA
ATOM     44  C   UNL A   1      45.189  27.523  29.819  1.00  0.00     0.031 C 
ATOM     45  C   UNL A   1      44.636  31.804  27.251  1.00  0.00     0.029 A 
ATOM     46  N   UNL A   1      44.007  31.821  29.399  1.00  0.00    -0.354 N 
ATOM     47  C   UNL A   1      44.487  28.302  31.857  1.00  0.00     0.074 A 
ATOM     48  C   UNL A   1      44.921  27.167  31.070  1.00  0.00     0.031 C 
ATOM     49  C   UNL A   1      44.190  33.039  27.531  1.00  0.00     0.029 A 
ATOM     50  C   UNL A   1      43.770  33.092  28.929  1.00  0.00     0.049 A 
ATOM     51  H   UNL A   1      43.795  31.537  30.318  1.00  0.00     0.167 HD
ATOM     52  C   UNL A   1      44.224  28.265  33.185  1.00  0.00     0.031 A 
ATOM     53  C   UNL A   1      43.289  34.188  29.552  1.00  0.00     0.031 A 
ATOM     54  C   UNL A   1      43.772  29.404  33.948  1.00  0.00     0.049 A 
ATOM     55  C   UNL A   1      42.976  34.114  31.019  1.00  0.00     0.074 A 
ATOM     56  C   UNL A   1      43.513  29.472  35.306  1.00  0.00     0.029 A 
ATOM     57  N   UNL A   1      43.506  30.663  33.429  1.00  0.00    -0.354 N 
ATOM     58  N   UNL A   1      43.119  33.098  31.838  1.00  0.00    -0.248 NA
ATOM     59  C   UNL A   1      42.459  35.333  31.656  1.00  0.00     0.031 C 
ATOM     60  C   UNL A   1      43.014  30.744  35.593  1.00  0.00     0.029 A 
ATOM     61  C   UNL A   1      43.053  31.502  34.435  1.00  0.00     0.049 A 
ATOM     62  H   UNL A   1      43.622  30.922  32.487  1.00  0.00     0.167 HD
ATOM     63  C   UNL A   1      42.736  33.563  33.091  1.00  0.00     0.074 A 
ATOM     64  C   UNL A   1      42.371  34.955  32.927  1.00  0.00     0.031 C 
ATOM     65  C   UNL A   1      42.694  32.892  34.268  1.00  0.00     0.031 A 
BRANCH  52  66
ATOM     66  C   UNL A   1      44.435  26.969  33.927  1.00  0.00    -0.014 A 
ATOM     67  C   UNL A   1      45.715  26.630  34.404  1.00  0.00     0.010 A 
ATOM     68  C   UNL A   1      43.402  26.019  34.018  1.00  0.00     0.010 A 
ATOM     69  C   UNL A   1      45.970  25.354  34.916  1.00  0.00     0.020 A 
ATOM     70  C   UNL A   1      43.642  24.753  34.561  1.00  0.00     0.020 A 
ATOM     71  C   UNL A   1      44.932  24.420  34.981  1.00  0.00     0.054 A 
BRANCH  71  72
ATOM     72  S   UNL A   1      45.293  22.754  35.603  1.00  0.00     0.124 S 
ATOM     73  O   UNL A   1      46.589  22.470  34.994  1.00  0.00    -0.237 OA
ATOM     74  O   UNL A   1      45.304  22.952  37.050  1.00  0.00    -0.237 OA
ATOM     75  O   UNL A   1      44.178  21.953  35.103  1.00  0.00    -0.744 OA
ENDBRANCH  71  72
ENDBRANCH  52  66
BRANCH  53  76
ATOM     76  C   UNL A   1      43.154  35.456  28.781  1.00  0.00    -0.014 A 
ATOM     77  C   UNL A   1      44.137  36.459  28.879  1.00  0.00     0.010 A 
ATOM     78  C   UNL A   1      41.995  35.712  28.026  1.00  0.00     0.010 A 
ATOM     79  C   UNL A   1      43.937  37.712  28.295  1.00  0.00     0.020 A 
ATOM     80  C   UNL A   1      41.806  36.954  27.410  1.00  0.00     0.020 A 
ATOM     81  C   UNL A   1      42.764  37.957  27.578  1.00  0.00     0.054 A 
BRANCH  81  82
ATOM     82  S   UNL A   1      42.495  39.615  26.893  1.00  0.00     0.124 S 
ATOM     83  O   UNL A   1      42.384  40.423  28.104  1.00  0.00    -0.237 OA
ATOM     84  O   UNL A   1      43.703  39.830  26.101  1.00  0.00    -0.237 OA
ATOM     85  O   UNL A   1      41.263  39.472  26.122  1.00  0.00    -0.744 OA
ENDBRANCH  81  82
ENDBRANCH  53  76
BRANCH  65  86
ATOM     86  C   UNL A   1      42.247  33.634  35.505  1.00  0.00    -0.014 A 
ATOM     87  C   UNL A   1      40.873  33.730  35.799  1.00  0.00     0.010 A 
ATOM     88  C   UNL A   1      43.163  34.359  36.287  1.00  0.00     0.010 A 
ATOM     89  C   UNL A   1      40.419  34.576  36.814  1.00  0.00     0.020 A 
ATOM     90  C   UNL A   1      42.715  35.179  37.329  1.00  0.00     0.020 A 
ATOM     91  C   UNL A   1      41.344  35.306  37.564  1.00  0.00     0.054 A 
BRANCH  91  92
ATOM     92  S   UNL A   1      40.731  36.441  38.839  1.00  0.00     0.124 S 
ATOM     93  O   UNL A   1      40.471  35.537  39.956  1.00  0.00    -0.237 OA
ATOM     94  O   UNL A   1      41.853  37.358  39.019  1.00  0.00    -0.237 OA
ATOM     95  O   UNL A   1      39.542  37.034  38.228  1.00  0.00    -0.744 OA
ENDBRANCH  91  92
ENDBRANCH  65  86
ENDBRANCH  39  40
ENDBRANCH  32  34
ENDBRANCH  31  32
ENDBRANCH  30  31
ENDBRANCH  29  30
ENDBRANCH  28  29
ENDBRANCH   1  28
TORSDOF 23
ENDMDL
MODEL 3
REMARK VINA RESULT:      -9.3      5.533      9.658
REMARK SMILES CCC(CC)COc1cc2c(cc1Cl)C=C(C(=O)OCCOCCOC(=O)c1ccc(-c3c4nc(c(-c5ccc(S(=O)(=O)[O-])cc5)c5ccc([nH]5)c(-c5ccc(S(=O)(=O)[O-])cc5)c5nc(c(-c6ccc(S(=O)(=O)[O-])cc6)c6ccc3[nH]6)C=C5)C=C4)cc1)[C@@H](C(F)(F)F)O2
REMARK SMILES IDX 21 1 20 2 19 3 17 4 18 5 16 6 8 7 9 8 13 9 10 10 12 11 14 12
REMARK SMILES IDX 11 13 93 14 15 15 88 16 7 17 6 18 3 19 2 20 1 21 4 22 5 23
REMARK SMILES IDX 89 24 90 25 91 26 92 27 22 28 23 29 24 30 25 31 26 32 27 33
REMARK SMILES IDX 28 34 29 35 87 36 30 37 86 38 31 39 32 40 33 41 80 42 34 43
REMARK SMILES IDX 85 44 79 45 81 46 35 47 84 48 78 49 77 50 36 52 66 53 47 54
REMARK SMILES IDX 65 55 48 56 51 57 64 58 82 59 49 60 50 61 63 63 83 64 52 65
REMARK SMILES IDX 37 66 38 67 46 68 39 69 45 70 40 71 41 72 42 73 43 74 44 75
REMARK SMILES IDX 67 76 68 77 76 78 69 79 75 80 70 81 71 82 72 83 73 84 74 85
REMARK SMILES IDX 53 86 54 87 62 88 55 89 61 90 56 91 57 92 58 93 59 94 60 95
REMARK H PARENT 81 51 51 62
REMARK Flexibility Score: inf
ROOT
ATOM      1  C   UNL A   1      39.701  22.523  26.515  1.00  0.00     0.202 C 
ENDROOT
BRANCH   1   2
ATOM      2  C   UNL A   1      38.393  23.253  26.185  1.00  0.00     0.261 C 
BRANCH   2   3
ATOM      3  O   UNL A   1      37.656  22.635  25.118  1.00  0.00    -0.460 OA
BRANCH   3   4
ATOM      4  C   UNL A   1      36.417  22.242  25.488  1.00  0.00     0.338 C 
ATOM      5  O   UNL A   1      36.141  21.463  26.390  1.00  0.00    -0.246 OA
BRANCH   4   6
ATOM      6  C   UNL A   1      35.377  22.976  24.749  1.00  0.00     0.087 C 
ATOM      7  C   UNL A   1      31.443  25.963  24.198  1.00  0.00     0.141 A 
ATOM      8  C   UNL A   1      32.011  25.002  23.345  1.00  0.00     0.095 A 
ATOM      9  C   UNL A   1      32.007  26.185  25.460  1.00  0.00     0.083 A 
ATOM     10  C   UNL A   1      33.191  24.356  23.729  1.00  0.00     0.131 A 
ATOM     11  C   UNL A   1      33.267  25.683  25.750  1.00  0.00     0.036 A 
ATOM     12  Cl  UNL A   1      31.184  27.015  26.727  1.00  0.00    -0.080 Cl
ATOM     13  C   UNL A   1      33.863  24.782  24.875  1.00  0.00     0.019 A 
ATOM     14  O   UNL A   1      33.662  23.306  22.977  1.00  0.00    -0.475 OA
ATOM     15  C   UNL A   1      35.122  24.187  25.254  1.00  0.00     0.027 C 
ATOM     16  C   UNL A   1      34.531  22.343  23.679  1.00  0.00     0.316 C 
BRANCH   7  17
ATOM     17  O   UNL A   1      30.287  26.605  23.837  1.00  0.00    -0.492 OA
BRANCH  17  18
ATOM     18  C   UNL A   1      30.508  27.828  23.089  1.00  0.00     0.233 C 
BRANCH  18  19
ATOM     19  C   UNL A   1      30.423  29.110  23.964  1.00  0.00     0.026 C 
BRANCH  19  20
ATOM     20  C   UNL A   1      31.831  29.637  24.328  1.00  0.00     0.003 C 
ATOM     21  C   UNL A   1      32.943  28.987  23.515  1.00  0.00     0.004 C 
ENDBRANCH  19  20
BRANCH  19  22
ATOM     22  C   UNL A   1      29.538  30.213  23.342  1.00  0.00     0.003 C 
ATOM     23  C   UNL A   1      29.491  30.247  21.822  1.00  0.00     0.004 C 
ENDBRANCH  19  22
ENDBRANCH  18  19
ENDBRANCH  17  18
ENDBRANCH   7  17
BRANCH  16  24
ATOM     24  C   UNL A   1      33.720  21.166  24.244  1.00  0.00     0.430 C 
ATOM     25  F   UNL A   1      32.666  20.862  23.453  1.00  0.00    -0.167 F 
ATOM     26  F   UNL A   1      34.483  20.050  24.334  1.00  0.00    -0.167 F 
ATOM     27  F   UNL A   1      33.241  21.428  25.483  1.00  0.00    -0.167 F 
ENDBRANCH  16  24
ENDBRANCH   4   6
ENDBRANCH   3   4
ENDBRANCH   2   3
ENDBRANCH   1   2
BRANCH   1  28
ATOM     28  O   UNL A   1      39.878  21.189  26.050  1.00  0.00    -0.374 OA
BRANCH  28  29
ATOM     29  C   UNL A   1      40.544  20.243  26.881  1.00  0.00     0.202 C 
BRANCH  29  30
ATOM     30  C   UNL A   1      41.646  19.353  26.288  1.00  0.00     0.261 C 
BRANCH  30  31
ATOM     31  O   UNL A   1      42.242  19.879  25.094  1.00  0.00    -0.460 OA
BRANCH  31  32
ATOM     32  C   UNL A   1      43.572  20.142  25.198  1.00  0.00     0.338 C 
ATOM     33  O   UNL A   1      44.491  19.445  24.813  1.00  0.00    -0.246 OA
BRANCH  32  34
ATOM     34  C   UNL A   1      43.759  21.521  25.687  1.00  0.00     0.060 A 
ATOM     35  C   UNL A   1      44.226  21.765  26.978  1.00  0.00     0.016 A 
ATOM     36  C   UNL A   1      43.521  22.579  24.801  1.00  0.00     0.016 A 
ATOM     37  C   UNL A   1      44.482  23.079  27.371  1.00  0.00     0.010 A 
ATOM     38  C   UNL A   1      43.780  23.891  25.195  1.00  0.00     0.010 A 
ATOM     39  C   UNL A   1      44.283  24.149  26.478  1.00  0.00    -0.014 A 
BRANCH  39  40
ATOM     40  C   UNL A   1      44.740  25.512  26.847  1.00  0.00     0.031 A 
ATOM     41  C   UNL A   1      43.885  26.434  27.661  1.00  0.00     0.074 A 
ATOM     42  C   UNL A   1      45.963  25.905  26.437  1.00  0.00     0.049 A 
ATOM     43  N   UNL A   1      44.199  27.594  28.176  1.00  0.00    -0.248 NA
ATOM     44  C   UNL A   1      42.502  26.009  27.931  1.00  0.00     0.031 C 
ATOM     45  C   UNL A   1      46.861  25.101  25.606  1.00  0.00     0.029 A 
ATOM     46  N   UNL A   1      46.672  27.055  26.680  1.00  0.00    -0.354 N 
ATOM     47  C   UNL A   1      43.069  28.029  28.854  1.00  0.00     0.074 A 
ATOM     48  C   UNL A   1      42.039  27.035  28.636  1.00  0.00     0.031 C 
ATOM     49  C   UNL A   1      48.022  25.758  25.455  1.00  0.00     0.029 A 
ATOM     50  C   UNL A   1      47.939  27.043  26.145  1.00  0.00     0.049 A 
ATOM     51  H   UNL A   1      46.308  27.817  27.187  1.00  0.00     0.167 HD
ATOM     52  C   UNL A   1      42.918  29.144  29.608  1.00  0.00     0.031 A 
ATOM     53  C   UNL A   1      48.936  27.949  26.215  1.00  0.00     0.031 A 
ATOM     54  C   UNL A   1      43.951  30.134  29.796  1.00  0.00     0.049 A 
ATOM     55  C   UNL A   1      48.734  29.193  27.033  1.00  0.00     0.074 A 
ATOM     56  C   UNL A   1      43.903  31.279  30.572  1.00  0.00     0.029 A 
ATOM     57  N   UNL A   1      45.207  30.106  29.206  1.00  0.00    -0.354 N 
ATOM     58  N   UNL A   1      47.687  29.547  27.741  1.00  0.00    -0.248 NA
ATOM     59  C   UNL A   1      49.848  30.149  27.085  1.00  0.00     0.031 C 
ATOM     60  C   UNL A   1      45.094  31.983  30.387  1.00  0.00     0.029 A 
ATOM     61  C   UNL A   1      45.927  31.231  29.574  1.00  0.00     0.049 A 
ATOM     62  H   UNL A   1      45.538  29.392  28.615  1.00  0.00     0.167 HD
ATOM     63  C   UNL A   1      48.027  30.754  28.344  1.00  0.00     0.074 A 
ATOM     64  C   UNL A   1      49.382  31.061  27.932  1.00  0.00     0.031 C 
ATOM     65  C   UNL A   1      47.280  31.532  29.165  1.00  0.00     0.031 A 
BRANCH  52  66
ATOM     66  C   UNL A   1      41.605  29.363  30.317  1.00  0.00    -0.014 A 
ATOM     67  C   UNL A   1      41.181  28.461  31.311  1.00  0.00     0.010 A 
ATOM     68  C   UNL A   1      40.722  30.373  29.895  1.00  0.00     0.010 A 
ATOM     69  C   UNL A   1      39.888  28.536  31.837  1.00  0.00     0.020 A 
ATOM     70  C   UNL A   1      39.440  30.474  30.442  1.00  0.00     0.020 A 
ATOM     71  C   UNL A   1      39.022  29.537  31.390  1.00  0.00     0.054 A 
BRANCH  71  72
ATOM     72  S   UNL A   1      37.332  29.588  32.047  1.00  0.00     0.124 S 
ATOM     73  O   UNL A   1      37.194  30.986  32.443  1.00  0.00    -0.237 OA
ATOM     74  O   UNL A   1      36.533  29.175  30.896  1.00  0.00    -0.237 OA
ATOM     75  O   UNL A   1      37.362  28.627  33.148  1.00  0.00    -0.744 OA
ENDBRANCH  71  72
ENDBRANCH  52  66
BRANCH  53  76
ATOM     76  C   UNL A   1      50.231  27.653  25.539  1.00  0.00    -0.014 A 
ATOM     77  C   UNL A   1      51.325  27.164  26.278  1.00  0.00     0.010 A 
ATOM     78  C   UNL A   1      50.410  27.953  24.177  1.00  0.00     0.010 A 
ATOM     79  C   UNL A   1      52.586  27.045  25.688  1.00  0.00     0.020 A 
ATOM     80  C   UNL A   1      51.662  27.801  23.573  1.00  0.00     0.020 A 
ATOM     81  C   UNL A   1      52.749  27.380  24.342  1.00  0.00     0.054 A 
BRANCH  81  82
ATOM     82  S   UNL A   1      54.411  27.285  23.619  1.00  0.00     0.124 S 
ATOM     83  O   UNL A   1      55.063  28.447  24.218  1.00  0.00    -0.237 OA
ATOM     84  O   UNL A   1      54.886  25.986  24.087  1.00  0.00    -0.237 OA
ATOM     85  O   UNL A   1      54.166  27.378  22.183  1.00  0.00    -0.744 OA
ENDBRANCH  81  82
ENDBRANCH  53  76
BRANCH  65  86
ATOM     86  C   UNL A   1      47.888  32.804  29.703  1.00  0.00    -0.014 A 
ATOM     87  C   UNL A   1      47.803  33.989  28.946  1.00  0.00     0.010 A 
ATOM     88  C   UNL A   1      48.670  32.797  30.872  1.00  0.00     0.010 A 
ATOM     89  C   UNL A   1      48.527  35.125  29.317  1.00  0.00     0.020 A 
ATOM     90  C   UNL A   1      49.367  33.944  31.267  1.00  0.00     0.020 A 
ATOM     91  C   UNL A   1      49.316  35.090  30.470  1.00  0.00     0.054 A 
BRANCH  91  92
ATOM     92  S   UNL A   1      50.292  36.556  30.902  1.00  0.00     0.124 S 
ATOM     93  O   UNL A   1      49.749  37.566  29.998  1.00  0.00    -0.237 OA
ATOM     94  O   UNL A   1      49.981  36.744  32.317  1.00  0.00    -0.237 OA
ATOM     95  O   UNL A   1      51.668  36.147  30.624  1.00  0.00    -0.744 OA
ENDBRANCH  91  92
ENDBRANCH  65  86
ENDBRANCH  39  40
ENDBRANCH  32  34
ENDBRANCH  31  32
ENDBRANCH  30  31
ENDBRANCH  29  30
ENDBRANCH  28  29
ENDBRANCH   1  28
TORSDOF 23
ENDMDL
