MODEL 1
REMARK VINA RESULT:     -10.9      0.000      0.000
REMARK SMILES CN(Cc1ncc(C(=O)OCCOCCOC(=O)c2ccc(-c3c4nc(c(-c5ccc(S(=O)(=O)[O-])cc5)c5ccc([nH]5)c(-c5ccc(S(=O)(=O)[O-])cc5)c5nc(c(-c6ccc(S(=O)(=O)[O-])cc6)c6ccc3[nH]6)C=C5)C=C4)cc2)cn1)S(=O)(=O)c1ccc(Cl)cc1
REMARK SMILES IDX 12 1 11 2 10 3 8 4 9 5 7 6 4 7 5 8 80 9 6 10 79 11 3 12 2 13
REMARK SMILES IDX 1 14 81 15 82 16 83 17 84 18 85 19 90 20 86 21 89 22 87 23
REMARK SMILES IDX 88 24 13 25 14 26 15 27 16 28 17 29 18 30 19 31 20 32 78 33
REMARK SMILES IDX 21 34 77 35 22 36 23 37 24 38 71 39 25 40 76 41 70 42 72 43
REMARK SMILES IDX 26 44 75 45 69 46 68 47 27 49 57 50 38 51 56 52 39 53 42 54
REMARK SMILES IDX 55 55 73 56 40 57 41 58 54 60 74 61 43 62 28 63 29 64 37 65
REMARK SMILES IDX 30 66 36 67 31 68 32 69 33 70 34 71 35 72 58 73 59 74 67 75
REMARK SMILES IDX 60 76 66 77 61 78 62 79 63 80 64 81 65 82 44 83 45 84 53 85
REMARK SMILES IDX 46 86 52 87 47 88 48 89 49 90 50 91 51 92
REMARK H PARENT 72 48 42 59
REMARK Flexibility Score: inf
ROOT
ATOM      1  C   UNL A   1      39.473  21.175  26.068  1.00  0.00     0.202 C 
ENDROOT
BRANCH   1   2
ATOM      2  C   UNL A   1      38.300  22.123  25.805  1.00  0.00     0.261 C 
BRANCH   2   3
ATOM      3  O   UNL A   1      37.562  21.708  24.640  1.00  0.00    -0.460 OA
BRANCH   3   4
ATOM      4  C   UNL A   1      36.231  21.555  24.824  1.00  0.00     0.341 C 
ATOM      5  O   UNL A   1      35.655  20.570  25.256  1.00  0.00    -0.246 OA
BRANCH   4   6
ATOM      6  C   UNL A   1      35.534  22.822  24.577  1.00  0.00     0.096 A 
ATOM      7  C   UNL A   1      34.125  25.064  23.969  1.00  0.00     0.143 A 
ATOM      8  N   UNL A   1      34.454  24.856  25.264  1.00  0.00    -0.239 NA
ATOM      9  N   UNL A   1      34.483  24.251  22.952  1.00  0.00    -0.239 NA
ATOM     10  C   UNL A   1      35.149  23.724  25.541  1.00  0.00     0.130 A 
ATOM     11  C   UNL A   1      35.174  23.139  23.287  1.00  0.00     0.130 A 
BRANCH   7  12
ATOM     12  C   UNL A   1      33.297  26.291  23.615  1.00  0.00     0.179 C 
BRANCH  12  13
ATOM     13  N   UNL A   1      31.825  26.111  23.396  1.00  0.00    -0.193 NA
ATOM     14  C   UNL A   1      31.359  26.832  22.185  1.00  0.00     0.125 C 
BRANCH  13  15
ATOM     15  S   UNL A   1      30.802  26.348  24.738  1.00  0.00     0.243 S 
ATOM     16  O   UNL A   1      29.487  26.736  24.279  1.00  0.00    -0.207 OA
ATOM     17  O   UNL A   1      30.958  25.196  25.604  1.00  0.00    -0.207 OA
BRANCH  15  18
ATOM     18  C   UNL A   1      31.517  27.734  25.604  1.00  0.00     0.082 A 
ATOM     19  C   UNL A   1      31.394  29.023  25.070  1.00  0.00     0.023 A 
ATOM     20  C   UNL A   1      32.307  27.517  26.738  1.00  0.00     0.023 A 
ATOM     21  C   UNL A   1      32.040  30.097  25.691  1.00  0.00     0.022 A 
ATOM     22  C   UNL A   1      32.933  28.594  27.367  1.00  0.00     0.022 A 
ATOM     23  C   UNL A   1      32.801  29.878  26.839  1.00  0.00     0.041 A 
ATOM     24  Cl  UNL A   1      33.600  31.199  27.600  1.00  0.00    -0.084 Cl
ENDBRANCH  15  18
ENDBRANCH  13  15
ENDBRANCH  12  13
ENDBRANCH   7  12
ENDBRANCH   4   6
ENDBRANCH   3   4
ENDBRANCH   2   3
ENDBRANCH   1   2
BRANCH   1  25
ATOM     25  O   UNL A   1      40.361  21.585  27.110  1.00  0.00    -0.374 OA
BRANCH  25  26
ATOM     26  C   UNL A   1      41.745  21.695  26.762  1.00  0.00     0.202 C 
BRANCH  26  27
ATOM     27  C   UNL A   1      42.170  23.022  26.122  1.00  0.00     0.261 C 
BRANCH  27  28
ATOM     28  O   UNL A   1      41.248  24.081  26.442  1.00  0.00    -0.460 OA
BRANCH  28  29
ATOM     29  C   UNL A   1      41.661  25.326  26.102  1.00  0.00     0.338 C 
ATOM     30  O   UNL A   1      42.166  25.672  25.047  1.00  0.00    -0.246 OA
BRANCH  29  31
ATOM     31  C   UNL A   1      41.233  26.291  27.136  1.00  0.00     0.060 A 
ATOM     32  C   UNL A   1      41.875  27.536  27.161  1.00  0.00     0.016 A 
ATOM     33  C   UNL A   1      40.261  25.977  28.087  1.00  0.00     0.016 A 
ATOM     34  C   UNL A   1      41.577  28.455  28.166  1.00  0.00     0.010 A 
ATOM     35  C   UNL A   1      39.969  26.898  29.099  1.00  0.00     0.010 A 
ATOM     36  C   UNL A   1      40.647  28.129  29.161  1.00  0.00    -0.014 A 
BRANCH  36  37
ATOM     37  C   UNL A   1      40.476  29.027  30.330  1.00  0.00     0.031 A 
ATOM     38  C   UNL A   1      41.347  28.829  31.541  1.00  0.00     0.074 A 
ATOM     39  C   UNL A   1      39.570  30.020  30.305  1.00  0.00     0.049 A 
ATOM     40  N   UNL A   1      41.348  29.483  32.674  1.00  0.00    -0.248 NA
ATOM     41  C   UNL A   1      42.349  27.754  31.462  1.00  0.00     0.031 C 
ATOM     42  C   UNL A   1      38.694  30.339  29.178  1.00  0.00     0.029 A 
ATOM     43  N   UNL A   1      39.233  30.944  31.263  1.00  0.00    -0.354 N 
ATOM     44  C   UNL A   1      42.343  28.895  33.447  1.00  0.00     0.074 A 
ATOM     45  C   UNL A   1      42.905  27.816  32.664  1.00  0.00     0.031 C 
ATOM     46  C   UNL A   1      37.914  31.382  29.512  1.00  0.00     0.029 A 
ATOM     47  C   UNL A   1      38.213  31.783  30.886  1.00  0.00     0.049 A 
ATOM     48  H   UNL A   1      39.681  30.999  32.138  1.00  0.00     0.167 HD
ATOM     49  C   UNL A   1      42.755  29.227  34.695  1.00  0.00     0.031 A 
ATOM     50  C   UNL A   1      37.577  32.751  31.575  1.00  0.00     0.031 A 
ATOM     51  C   UNL A   1      42.184  30.291  35.478  1.00  0.00     0.049 A 
ATOM     52  C   UNL A   1      38.003  33.054  32.988  1.00  0.00     0.074 A 
ATOM     53  C   UNL A   1      42.544  30.714  36.746  1.00  0.00     0.029 A 
ATOM     54  N   UNL A   1      41.127  31.092  35.074  1.00  0.00    -0.354 N 
ATOM     55  N   UNL A   1      38.963  32.507  33.695  1.00  0.00    -0.248 NA
ATOM     56  C   UNL A   1      37.263  34.111  33.692  1.00  0.00     0.031 C 
ATOM     57  C   UNL A   1      41.669  31.735  37.131  1.00  0.00     0.029 A 
ATOM     58  C   UNL A   1      40.803  31.988  36.079  1.00  0.00     0.049 A 
ATOM     59  H   UNL A   1      40.675  31.033  34.202  1.00  0.00     0.167 HD
ATOM     60  C   UNL A   1      38.957  33.170  34.918  1.00  0.00     0.074 A 
ATOM     61  C   UNL A   1      37.909  34.166  34.850  1.00  0.00     0.031 C 
ATOM     62  C   UNL A   1      39.751  32.972  36.000  1.00  0.00     0.031 A 
BRANCH  49  63
ATOM     63  C   UNL A   1      43.857  28.402  35.303  1.00  0.00    -0.014 A 
ATOM     64  C   UNL A   1      45.210  28.742  35.119  1.00  0.00     0.010 A 
ATOM     65  C   UNL A   1      43.534  27.291  36.104  1.00  0.00     0.010 A 
ATOM     66  C   UNL A   1      46.219  27.962  35.691  1.00  0.00     0.020 A 
ATOM     67  C   UNL A   1      44.539  26.525  36.699  1.00  0.00     0.020 A 
ATOM     68  C   UNL A   1      45.877  26.856  36.474  1.00  0.00     0.054 A 
BRANCH  68  69
ATOM     69  S   UNL A   1      47.207  25.873  37.220  1.00  0.00     0.124 S 
ATOM     70  O   UNL A   1      46.609  24.541  37.264  1.00  0.00    -0.237 OA
ATOM     71  O   UNL A   1      48.301  26.039  36.268  1.00  0.00    -0.237 OA
ATOM     72  O   UNL A   1      47.417  26.504  38.521  1.00  0.00    -0.744 OA
ENDBRANCH  68  69
ENDBRANCH  49  63
BRANCH  50  73
ATOM     73  C   UNL A   1      36.452  33.493  30.943  1.00  0.00    -0.014 A 
ATOM     74  C   UNL A   1      36.552  33.963  29.623  1.00  0.00     0.010 A 
ATOM     75  C   UNL A   1      35.267  33.728  31.665  1.00  0.00     0.010 A 
ATOM     76  C   UNL A   1      35.493  34.663  29.038  1.00  0.00     0.020 A 
ATOM     77  C   UNL A   1      34.196  34.404  31.076  1.00  0.00     0.020 A 
ATOM     78  C   UNL A   1      34.319  34.877  29.768  1.00  0.00     0.054 A 
BRANCH  78  79
ATOM     79  S   UNL A   1      32.933  35.733  28.970  1.00  0.00     0.124 S 
ATOM     80  O   UNL A   1      32.112  36.114  30.114  1.00  0.00    -0.237 OA
ATOM     81  O   UNL A   1      33.599  36.830  28.273  1.00  0.00    -0.237 OA
ATOM     82  O   UNL A   1      32.358  34.710  28.098  1.00  0.00    -0.744 OA
ENDBRANCH  78  79
ENDBRANCH  50  73
BRANCH  62  83
ATOM     83  C   UNL A   1      39.540  33.870  37.190  1.00  0.00    -0.014 A 
ATOM     84  C   UNL A   1      38.775  33.451  38.293  1.00  0.00     0.010 A 
ATOM     85  C   UNL A   1      40.163  35.131  37.228  1.00  0.00     0.010 A 
ATOM     86  C   UNL A   1      38.611  34.291  39.398  1.00  0.00     0.020 A 
ATOM     87  C   UNL A   1      40.023  35.962  38.342  1.00  0.00     0.020 A 
ATOM     88  C   UNL A   1      39.236  35.542  39.415  1.00  0.00     0.054 A 
BRANCH  88  89
ATOM     89  S   UNL A   1      39.040  36.597  40.878  1.00  0.00     0.124 S 
ATOM     90  O   UNL A   1      38.560  37.845  40.292  1.00  0.00    -0.237 OA
ATOM     91  O   UNL A   1      38.065  35.861  41.678  1.00  0.00    -0.237 OA
ATOM     92  O   UNL A   1      40.386  36.653  41.446  1.00  0.00    -0.744 OA
ENDBRANCH  88  89
ENDBRANCH  62  83
ENDBRANCH  36  37
ENDBRANCH  29  31
ENDBRANCH  28  29
ENDBRANCH  27  28
ENDBRANCH  26  27
ENDBRANCH  25  26
ENDBRANCH   1  25
TORSDOF 21
ENDMDL
MODEL 2
REMARK VINA RESULT:     -10.3      1.242      1.720
REMARK SMILES CN(Cc1ncc(C(=O)OCCOCCOC(=O)c2ccc(-c3c4nc(c(-c5ccc(S(=O)(=O)[O-])cc5)c5ccc([nH]5)c(-c5ccc(S(=O)(=O)[O-])cc5)c5nc(c(-c6ccc(S(=O)(=O)[O-])cc6)c6ccc3[nH]6)C=C5)C=C4)cc2)cn1)S(=O)(=O)c1ccc(Cl)cc1
REMARK SMILES IDX 12 1 11 2 10 3 8 4 9 5 7 6 4 7 5 8 80 9 6 10 79 11 3 12 2 13
REMARK SMILES IDX 1 14 81 15 82 16 83 17 84 18 85 19 90 20 86 21 89 22 87 23
REMARK SMILES IDX 88 24 13 25 14 26 15 27 16 28 17 29 18 30 19 31 20 32 78 33
REMARK SMILES IDX 21 34 77 35 22 36 23 37 24 38 71 39 25 40 76 41 70 42 72 43
REMARK SMILES IDX 26 44 75 45 69 46 68 47 27 49 57 50 38 51 56 52 39 53 42 54
REMARK SMILES IDX 55 55 73 56 40 57 41 58 54 60 74 61 43 62 28 63 29 64 37 65
REMARK SMILES IDX 30 66 36 67 31 68 32 69 33 70 34 71 35 72 58 73 59 74 67 75
REMARK SMILES IDX 60 76 66 77 61 78 62 79 63 80 64 81 65 82 44 83 45 84 53 85
REMARK SMILES IDX 46 86 52 87 47 88 48 89 49 90 50 91 51 92
REMARK H PARENT 72 48 42 59
REMARK Flexibility Score: inf
ROOT
ATOM      1  C   UNL A   1      39.674  20.939  26.055  1.00  0.00     0.202 C 
ENDROOT
BRANCH   1   2
ATOM      2  C   UNL A   1      38.633  22.061  26.023  1.00  0.00     0.261 C 
BRANCH   2   3
ATOM      3  O   UNL A   1      37.925  22.063  24.770  1.00  0.00    -0.460 OA
BRANCH   3   4
ATOM      4  C   UNL A   1      36.603  21.786  24.852  1.00  0.00     0.341 C 
ATOM      5  O   UNL A   1      36.090  20.751  25.245  1.00  0.00    -0.246 OA
BRANCH   4   6
ATOM      6  C   UNL A   1      35.813  22.983  24.545  1.00  0.00     0.096 A 
ATOM      7  C   UNL A   1      34.216  25.071  23.860  1.00  0.00     0.143 A 
ATOM      8  N   UNL A   1      34.732  25.053  25.110  1.00  0.00    -0.239 NA
ATOM      9  N   UNL A   1      34.472  24.140  22.917  1.00  0.00    -0.239 NA
ATOM     10  C   UNL A   1      35.517  23.994  25.429  1.00  0.00     0.130 A 
ATOM     11  C   UNL A   1      35.260  23.108  23.291  1.00  0.00     0.130 A 
BRANCH   7  12
ATOM     12  C   UNL A   1      33.282  26.209  23.472  1.00  0.00     0.179 C 
BRANCH  12  13
ATOM     13  N   UNL A   1      31.911  25.861  22.975  1.00  0.00    -0.193 NA
ATOM     14  C   UNL A   1      31.645  26.457  21.641  1.00  0.00     0.125 C 
BRANCH  13  15
ATOM     15  S   UNL A   1      30.613  26.066  24.059  1.00  0.00     0.243 S 
ATOM     16  O   UNL A   1      29.583  25.094  23.766  1.00  0.00    -0.207 OA
ATOM     17  O   UNL A   1      31.178  26.146  25.392  1.00  0.00    -0.207 OA
BRANCH  15  18
ATOM     18  C   UNL A   1      29.970  27.686  23.683  1.00  0.00     0.082 A 
ATOM     19  C   UNL A   1      30.709  28.824  24.032  1.00  0.00     0.023 A 
ATOM     20  C   UNL A   1      28.678  27.821  23.163  1.00  0.00     0.023 A 
ATOM     21  C   UNL A   1      30.163  30.095  23.832  1.00  0.00     0.022 A 
ATOM     22  C   UNL A   1      28.144  29.092  22.945  1.00  0.00     0.022 A 
ATOM     23  C   UNL A   1      28.886  30.223  23.284  1.00  0.00     0.041 A 
ATOM     24  Cl  UNL A   1      28.212  31.788  23.043  1.00  0.00    -0.084 Cl
ENDBRANCH  15  18
ENDBRANCH  13  15
ENDBRANCH  12  13
ENDBRANCH   7  12
ENDBRANCH   4   6
ENDBRANCH   3   4
ENDBRANCH   2   3
ENDBRANCH   1   2
BRANCH   1  25
ATOM     25  O   UNL A   1      40.700  21.093  27.037  1.00  0.00    -0.374 OA
BRANCH  25  26
ATOM     26  C   UNL A   1      42.050  21.064  26.559  1.00  0.00     0.202 C 
BRANCH  26  27
ATOM     27  C   UNL A   1      42.660  22.423  26.197  1.00  0.00     0.261 C 
BRANCH  27  28
ATOM     28  O   UNL A   1      41.978  23.502  26.866  1.00  0.00    -0.460 OA
BRANCH  28  29
ATOM     29  C   UNL A   1      42.251  24.740  26.386  1.00  0.00     0.338 C 
ATOM     30  O   UNL A   1      42.646  25.026  25.269  1.00  0.00    -0.246 OA
BRANCH  29  31
ATOM     31  C   UNL A   1      41.813  25.758  27.362  1.00  0.00     0.060 A 
ATOM     32  C   UNL A   1      42.543  26.952  27.420  1.00  0.00     0.016 A 
ATOM     33  C   UNL A   1      40.742  25.540  28.232  1.00  0.00     0.016 A 
ATOM     34  C   UNL A   1      42.232  27.915  28.380  1.00  0.00     0.010 A 
ATOM     35  C   UNL A   1      40.437  26.505  29.199  1.00  0.00     0.010 A 
ATOM     36  C   UNL A   1      41.200  27.683  29.297  1.00  0.00    -0.014 A 
BRANCH  36  37
ATOM     37  C   UNL A   1      40.999  28.619  30.431  1.00  0.00     0.031 A 
ATOM     38  C   UNL A   1      41.888  28.508  31.640  1.00  0.00     0.074 A 
ATOM     39  C   UNL A   1      40.050  29.570  30.376  1.00  0.00     0.049 A 
ATOM     40  N   UNL A   1      41.870  29.206  32.746  1.00  0.00    -0.248 NA
ATOM     41  C   UNL A   1      42.935  27.475  31.594  1.00  0.00     0.031 C 
ATOM     42  C   UNL A   1      39.152  29.806  29.245  1.00  0.00     0.029 A 
ATOM     43  N   UNL A   1      39.682  30.517  31.299  1.00  0.00    -0.354 N 
ATOM     44  C   UNL A   1      42.896  28.694  33.532  1.00  0.00     0.074 A 
ATOM     45  C   UNL A   1      43.498  27.609  32.787  1.00  0.00     0.031 C 
ATOM     46  C   UNL A   1      38.331  30.827  29.545  1.00  0.00     0.029 A 
ATOM     47  C   UNL A   1      38.623  31.295  30.899  1.00  0.00     0.049 A 
ATOM     48  H   UNL A   1      40.135  30.627  32.167  1.00  0.00     0.167 HD
ATOM     49  C   UNL A   1      43.303  29.093  34.761  1.00  0.00     0.031 A 
ATOM     50  C   UNL A   1      37.951  32.262  31.556  1.00  0.00     0.031 A 
ATOM     51  C   UNL A   1      42.693  30.162  35.507  1.00  0.00     0.049 A 
ATOM     52  C   UNL A   1      38.375  32.640  32.950  1.00  0.00     0.074 A 
ATOM     53  C   UNL A   1      43.046  30.652  36.753  1.00  0.00     0.029 A 
ATOM     54  N   UNL A   1      41.599  30.900  35.082  1.00  0.00    -0.354 N 
ATOM     55  N   UNL A   1      39.364  32.163  33.669  1.00  0.00    -0.248 NA
ATOM     56  C   UNL A   1      37.596  33.692  33.619  1.00  0.00     0.031 C 
ATOM     57  C   UNL A   1      42.130  31.649  37.106  1.00  0.00     0.029 A 
ATOM     58  C   UNL A   1      41.245  31.821  36.053  1.00  0.00     0.049 A 
ATOM     59  H   UNL A   1      41.143  30.787  34.218  1.00  0.00     0.167 HD
ATOM     60  C   UNL A   1      39.340  32.874  34.865  1.00  0.00     0.074 A 
ATOM     61  C   UNL A   1      38.249  33.821  34.767  1.00  0.00     0.031 C 
ATOM     62  C   UNL A   1      40.151  32.755  35.946  1.00  0.00     0.031 A 
BRANCH  49  63
ATOM     63  C   UNL A   1      44.446  28.342  35.391  1.00  0.00    -0.014 A 
ATOM     64  C   UNL A   1      44.218  27.268  36.270  1.00  0.00     0.010 A 
ATOM     65  C   UNL A   1      45.770  28.695  35.070  1.00  0.00     0.010 A 
ATOM     66  C   UNL A   1      45.293  26.585  36.845  1.00  0.00     0.020 A 
ATOM     67  C   UNL A   1      46.847  27.997  35.624  1.00  0.00     0.020 A 
ATOM     68  C   UNL A   1      46.601  26.957  36.522  1.00  0.00     0.054 A 
BRANCH  68  69
ATOM     69  S   UNL A   1      47.977  26.041  37.269  1.00  0.00     0.124 S 
ATOM     70  O   UNL A   1      47.308  24.840  37.760  1.00  0.00    -0.237 OA
ATOM     71  O   UNL A   1      48.880  25.840  36.140  1.00  0.00    -0.237 OA
ATOM     72  O   UNL A   1      48.473  26.945  38.305  1.00  0.00    -0.744 OA
ENDBRANCH  68  69
ENDBRANCH  49  63
BRANCH  50  73
ATOM     73  C   UNL A   1      36.790  32.928  30.906  1.00  0.00    -0.014 A 
ATOM     74  C   UNL A   1      35.501  32.827  31.459  1.00  0.00     0.010 A 
ATOM     75  C   UNL A   1      36.971  33.674  29.727  1.00  0.00     0.010 A 
ATOM     76  C   UNL A   1      34.414  33.451  30.839  1.00  0.00     0.020 A 
ATOM     77  C   UNL A   1      35.893  34.322  29.120  1.00  0.00     0.020 A 
ATOM     78  C   UNL A   1      34.618  34.198  29.674  1.00  0.00     0.054 A 
BRANCH  78  79
ATOM     79  S   UNL A   1      33.205  35.052  28.921  1.00  0.00     0.124 S 
ATOM     80  O   UNL A   1      32.333  35.266  30.070  1.00  0.00    -0.237 OA
ATOM     81  O   UNL A   1      33.823  36.251  28.361  1.00  0.00    -0.237 OA
ATOM     82  O   UNL A   1      32.716  34.093  27.932  1.00  0.00    -0.744 OA
ENDBRANCH  78  79
ENDBRANCH  50  73
BRANCH  62  83
ATOM     83  C   UNL A   1      39.911  33.690  37.101  1.00  0.00    -0.014 A 
ATOM     84  C   UNL A   1      40.611  34.904  37.215  1.00  0.00     0.010 A 
ATOM     85  C   UNL A   1      38.929  33.373  38.059  1.00  0.00     0.010 A 
ATOM     86  C   UNL A   1      40.355  35.769  38.284  1.00  0.00     0.020 A 
ATOM     87  C   UNL A   1      38.652  34.248  39.112  1.00  0.00     0.020 A 
ATOM     88  C   UNL A   1      39.377  35.434  39.226  1.00  0.00     0.054 A 
BRANCH  88  89
ATOM     89  S   UNL A   1      39.036  36.592  40.580  1.00  0.00     0.124 S 
ATOM     90  O   UNL A   1      38.456  37.728  39.870  1.00  0.00    -0.237 OA
ATOM     91  O   UNL A   1      38.112  35.838  41.423  1.00  0.00    -0.237 OA
ATOM     92  O   UNL A   1      40.352  36.832  41.169  1.00  0.00    -0.744 OA
ENDBRANCH  88  89
ENDBRANCH  62  83
ENDBRANCH  36  37
ENDBRANCH  29  31
ENDBRANCH  28  29
ENDBRANCH  27  28
ENDBRANCH  26  27
ENDBRANCH  25  26
ENDBRANCH   1  25
TORSDOF 21
ENDMDL
MODEL 3
REMARK VINA RESULT:     -10.3      2.697      4.019
REMARK SMILES CN(Cc1ncc(C(=O)OCCOCCOC(=O)c2ccc(-c3c4nc(c(-c5ccc(S(=O)(=O)[O-])cc5)c5ccc([nH]5)c(-c5ccc(S(=O)(=O)[O-])cc5)c5nc(c(-c6ccc(S(=O)(=O)[O-])cc6)c6ccc3[nH]6)C=C5)C=C4)cc2)cn1)S(=O)(=O)c1ccc(Cl)cc1
REMARK SMILES IDX 12 1 11 2 10 3 8 4 9 5 7 6 4 7 5 8 80 9 6 10 79 11 3 12 2 13
REMARK SMILES IDX 1 14 81 15 82 16 83 17 84 18 85 19 90 20 86 21 89 22 87 23
REMARK SMILES IDX 88 24 13 25 14 26 15 27 16 28 17 29 18 30 19 31 20 32 78 33
REMARK SMILES IDX 21 34 77 35 22 36 23 37 24 38 71 39 25 40 76 41 70 42 72 43
REMARK SMILES IDX 26 44 75 45 69 46 68 47 27 49 57 50 38 51 56 52 39 53 42 54
REMARK SMILES IDX 55 55 73 56 40 57 41 58 54 60 74 61 43 62 28 63 29 64 37 65
REMARK SMILES IDX 30 66 36 67 31 68 32 69 33 70 34 71 35 72 58 73 59 74 67 75
REMARK SMILES IDX 60 76 66 77 61 78 62 79 63 80 64 81 65 82 44 83 45 84 53 85
REMARK SMILES IDX 46 86 52 87 47 88 48 89 49 90 50 91 51 92
REMARK H PARENT 72 48 42 59
REMARK Flexibility Score: inf
ROOT
ATOM      1  C   UNL A   1      44.241  20.766  25.425  1.00  0.00     0.202 C 
ENDROOT
BRANCH   1   2
ATOM      2  C   UNL A   1      42.795  20.419  25.789  1.00  0.00     0.261 C 
BRANCH   2   3
ATOM      3  O   UNL A   1      41.956  21.586  25.708  1.00  0.00    -0.460 OA
BRANCH   3   4
ATOM      4  C   UNL A   1      41.300  21.906  26.847  1.00  0.00     0.341 C 
ATOM      5  O   UNL A   1      41.766  21.974  27.972  1.00  0.00    -0.246 OA
BRANCH   4   6
ATOM      6  C   UNL A   1      39.930  22.333  26.542  1.00  0.00     0.096 A 
ATOM      7  C   UNL A   1      37.473  23.321  25.934  1.00  0.00     0.143 A 
ATOM      8  N   UNL A   1      37.757  22.055  25.555  1.00  0.00    -0.239 NA
ATOM      9  N   UNL A   1      38.316  24.115  26.628  1.00  0.00    -0.239 NA
ATOM     10  C   UNL A   1      38.994  21.590  25.862  1.00  0.00     0.130 A 
ATOM     11  C   UNL A   1      39.534  23.600  26.906  1.00  0.00     0.130 A 
BRANCH   7  12
ATOM     12  C   UNL A   1      36.119  23.908  25.563  1.00  0.00     0.179 C 
BRANCH  12  13
ATOM     13  N   UNL A   1      35.198  23.082  24.716  1.00  0.00    -0.193 NA
ATOM     14  C   UNL A   1      34.799  23.799  23.479  1.00  0.00     0.125 C 
BRANCH  13  15
ATOM     15  S   UNL A   1      33.882  22.334  25.498  1.00  0.00     0.243 S 
ATOM     16  O   UNL A   1      34.138  22.271  26.920  1.00  0.00    -0.207 OA
ATOM     17  O   UNL A   1      32.675  22.967  25.004  1.00  0.00    -0.207 OA
BRANCH  15  18
ATOM     18  C   UNL A   1      33.875  20.667  24.863  1.00  0.00     0.082 A 
ATOM     19  C   UNL A   1      32.677  20.106  24.402  1.00  0.00     0.023 A 
ATOM     20  C   UNL A   1      35.031  19.883  24.948  1.00  0.00     0.023 A 
ATOM     21  C   UNL A   1      32.647  18.766  24.000  1.00  0.00     0.022 A 
ATOM     22  C   UNL A   1      35.002  18.553  24.525  1.00  0.00     0.022 A 
ATOM     23  C   UNL A   1      33.811  17.999  24.058  1.00  0.00     0.041 A 
ATOM     24  Cl  UNL A   1      33.772  16.349  23.568  1.00  0.00    -0.084 Cl
ENDBRANCH  15  18
ENDBRANCH  13  15
ENDBRANCH  12  13
ENDBRANCH   7  12
ENDBRANCH   4   6
ENDBRANCH   3   4
ENDBRANCH   2   3
ENDBRANCH   1   2
BRANCH   1  25
ATOM     25  O   UNL A   1      44.796  21.871  26.139  1.00  0.00    -0.374 OA
BRANCH  25  26
ATOM     26  C   UNL A   1      45.264  22.971  25.350  1.00  0.00     0.202 C 
BRANCH  26  27
ATOM     27  C   UNL A   1      45.153  24.355  26.000  1.00  0.00     0.261 C 
BRANCH  27  28
ATOM     28  O   UNL A   1      43.934  24.486  26.756  1.00  0.00    -0.460 OA
BRANCH  28  29
ATOM     29  C   UNL A   1      42.998  25.294  26.202  1.00  0.00     0.338 C 
ATOM     30  O   UNL A   1      42.528  25.214  25.079  1.00  0.00    -0.246 OA
BRANCH  29  31
ATOM     31  C   UNL A   1      42.455  26.205  27.230  1.00  0.00     0.060 A 
ATOM     32  C   UNL A   1      42.940  27.519  27.248  1.00  0.00     0.016 A 
ATOM     33  C   UNL A   1      41.529  25.779  28.184  1.00  0.00     0.016 A 
ATOM     34  C   UNL A   1      42.532  28.401  28.248  1.00  0.00     0.010 A 
ATOM     35  C   UNL A   1      41.126  26.664  29.191  1.00  0.00     0.010 A 
ATOM     36  C   UNL A   1      41.649  27.969  29.246  1.00  0.00    -0.014 A 
BRANCH  36  37
ATOM     37  C   UNL A   1      41.369  28.846  30.409  1.00  0.00     0.031 A 
ATOM     38  C   UNL A   1      42.232  28.734  31.637  1.00  0.00     0.074 A 
ATOM     39  C   UNL A   1      40.371  29.746  30.366  1.00  0.00     0.049 A 
ATOM     40  N   UNL A   1      42.149  29.384  32.769  1.00  0.00    -0.248 NA
ATOM     41  C   UNL A   1      43.336  27.761  31.579  1.00  0.00     0.031 C 
ATOM     42  C   UNL A   1      39.490  29.979  29.222  1.00  0.00     0.029 A 
ATOM     43  N   UNL A   1      39.928  30.633  31.316  1.00  0.00    -0.354 N 
ATOM     44  C   UNL A   1      43.181  28.896  33.561  1.00  0.00     0.074 A 
ATOM     45  C   UNL A   1      43.860  27.877  32.791  1.00  0.00     0.031 C 
ATOM     46  C   UNL A   1      38.607  30.941  29.540  1.00  0.00     0.029 A 
ATOM     47  C   UNL A   1      38.838  31.369  30.918  1.00  0.00     0.049 A 
ATOM     48  H   UNL A   1      40.352  30.731  32.199  1.00  0.00     0.167 HD
ATOM     49  C   UNL A   1      43.535  29.266  34.816  1.00  0.00     0.031 A 
ATOM     50  C   UNL A   1      38.099  32.270  31.594  1.00  0.00     0.031 A 
ATOM     51  C   UNL A   1      42.849  30.269  35.587  1.00  0.00     0.049 A 
ATOM     52  C   UNL A   1      38.466  32.613  33.013  1.00  0.00     0.074 A 
ATOM     53  C   UNL A   1      43.142  30.726  36.860  1.00  0.00     0.029 A 
ATOM     54  N   UNL A   1      41.727  30.964  35.162  1.00  0.00    -0.354 N 
ATOM     55  N   UNL A   1      39.461  32.162  33.740  1.00  0.00    -0.248 NA
ATOM     56  C   UNL A   1      37.613  33.593  33.702  1.00  0.00     0.031 C 
ATOM     57  C   UNL A   1      42.164  31.657  37.227  1.00  0.00     0.029 A 
ATOM     58  C   UNL A   1      41.298  31.824  36.158  1.00  0.00     0.049 A 
ATOM     59  H   UNL A   1      41.299  30.862  34.281  1.00  0.00     0.167 HD
ATOM     60  C   UNL A   1      39.368  32.821  34.962  1.00  0.00     0.074 A 
ATOM     61  C   UNL A   1      38.229  33.710  34.872  1.00  0.00     0.031 C 
ATOM     62  C   UNL A   1      40.157  32.701  36.058  1.00  0.00     0.031 A 
BRANCH  49  63
ATOM     63  C   UNL A   1      44.701  28.553  35.447  1.00  0.00    -0.014 A 
ATOM     64  C   UNL A   1      44.574  27.242  35.942  1.00  0.00     0.010 A 
ATOM     65  C   UNL A   1      45.953  29.191  35.512  1.00  0.00     0.010 A 
ATOM     66  C   UNL A   1      45.669  26.598  36.525  1.00  0.00     0.020 A 
ATOM     67  C   UNL A   1      47.056  28.541  36.072  1.00  0.00     0.020 A 
ATOM     68  C   UNL A   1      46.902  27.254  36.590  1.00  0.00     0.054 A 
BRANCH  68  69
ATOM     69  S   UNL A   1      48.310  26.387  37.336  1.00  0.00     0.124 S 
ATOM     70  O   UNL A   1      48.474  25.247  36.438  1.00  0.00    -0.237 OA
ATOM     71  O   UNL A   1      49.371  27.389  37.279  1.00  0.00    -0.237 OA
ATOM     72  O   UNL A   1      47.843  26.057  38.681  1.00  0.00    -0.744 OA
ENDBRANCH  68  69
ENDBRANCH  49  63
BRANCH  50  73
ATOM     73  C   UNL A   1      36.919  32.899  30.940  1.00  0.00    -0.014 A 
ATOM     74  C   UNL A   1      35.613  32.540  31.315  1.00  0.00     0.010 A 
ATOM     75  C   UNL A   1      37.100  33.867  29.935  1.00  0.00     0.010 A 
ATOM     76  C   UNL A   1      34.509  33.132  30.692  1.00  0.00     0.020 A 
ATOM     77  C   UNL A   1      36.001  34.480  29.329  1.00  0.00     0.020 A 
ATOM     78  C   UNL A   1      34.711  34.101  29.704  1.00  0.00     0.054 A 
BRANCH  78  79
ATOM     79  S   UNL A   1      33.266  34.901  28.952  1.00  0.00     0.124 S 
ATOM     80  O   UNL A   1      33.854  36.103  28.371  1.00  0.00    -0.237 OA
ATOM     81  O   UNL A   1      32.808  33.894  27.999  1.00  0.00    -0.237 OA
ATOM     82  O   UNL A   1      32.373  35.125  30.087  1.00  0.00    -0.744 OA
ENDBRANCH  78  79
ENDBRANCH  50  73
BRANCH  62  83
ATOM     83  C   UNL A   1      39.837  33.574  37.243  1.00  0.00    -0.014 A 
ATOM     84  C   UNL A   1      39.454  33.018  38.476  1.00  0.00     0.010 A 
ATOM     85  C   UNL A   1      39.975  34.970  37.134  1.00  0.00     0.010 A 
ATOM     86  C   UNL A   1      39.184  33.846  39.570  1.00  0.00     0.020 A 
ATOM     87  C   UNL A   1      39.732  35.798  38.233  1.00  0.00     0.020 A 
ATOM     88  C   UNL A   1      39.324  35.231  39.441  1.00  0.00     0.054 A 
BRANCH  88  89
ATOM     89  S   UNL A   1      39.008  36.280  40.886  1.00  0.00     0.124 S 
ATOM     90  O   UNL A   1      40.202  36.052  41.696  1.00  0.00    -0.237 OA
ATOM     91  O   UNL A   1      38.891  37.612  40.298  1.00  0.00    -0.237 OA
ATOM     92  O   UNL A   1      37.767  35.740  41.440  1.00  0.00    -0.744 OA
ENDBRANCH  88  89
ENDBRANCH  62  83
ENDBRANCH  36  37
ENDBRANCH  29  31
ENDBRANCH  28  29
ENDBRANCH  27  28
ENDBRANCH  26  27
ENDBRANCH  25  26
ENDBRANCH   1  25
TORSDOF 21
ENDMDL
