MODEL 1
REMARK VINA RESULT:     -11.0      0.000      0.000
REMARK SMILES O=C(OCCOCCOC(=O)[C@H]1c2[nH]cnc2CC[N@H+]1Cc1ccoc1)c1ccc(-c2c3nc(c(-c4ccc(S(=O)(=O)[O-])cc4)c4ccc([nH]4)c(-c4ccc(S(=O)(=O)[O-])cc4)c4nc(c(-c5ccc(S(=O)(=O)[O-])cc5)c5ccc2[nH]5)C=C4)C=C3)cc1
REMARK SMILES IDX 5 1 4 2 3 3 2 4 1 5 27 6 28 7 86 8 29 9 85 10 30 11 31 12
REMARK SMILES IDX 32 13 79 14 33 15 84 16 78 17 80 18 34 19 83 20 77 21 76 22
REMARK SMILES IDX 35 24 65 25 46 26 64 27 47 28 50 29 63 30 81 31 48 32 49 33
REMARK SMILES IDX 62 35 82 36 51 37 36 38 37 39 45 40 38 41 44 42 39 43 40 44
REMARK SMILES IDX 41 45 42 46 43 47 66 48 67 49 75 50 68 51 74 52 69 53 70 54
REMARK SMILES IDX 71 55 72 56 73 57 52 58 53 59 61 60 54 61 60 62 55 63 56 64
REMARK SMILES IDX 57 65 58 66 59 67 6 68 7 69 8 70 9 71 10 72 11 73 12 74
REMARK SMILES IDX 13 75 20 76 14 77 17 78 19 79 15 81 16 83 18 84 21 85 22 86
REMARK SMILES IDX 23 87 26 88 24 89 25 90
REMARK H PARENT 80 23 50 34 20 80 14 82
REMARK Flexibility Score: inf
ROOT
ATOM      1  C   UNL A   1      38.822  21.815  26.017  1.00  0.00     0.202 C 
ENDROOT
BRANCH   1   2
ATOM      2  C   UNL A   1      39.715  20.575  26.181  1.00  0.00     0.261 C 
BRANCH   2   3
ATOM      3  O   UNL A   1      40.959  20.871  26.819  1.00  0.00    -0.460 OA
BRANCH   3   4
ATOM      4  C   UNL A   1      41.955  21.687  26.406  1.00  0.00     0.338 C 
ATOM      5  O   UNL A   1      42.743  21.267  25.568  1.00  0.00    -0.246 OA
BRANCH   4   6
ATOM      6  C   UNL A   1      42.174  23.063  26.954  1.00  0.00     0.060 A 
ATOM      7  C   UNL A   1      42.753  23.383  28.183  1.00  0.00     0.016 A 
ATOM      8  C   UNL A   1      41.774  24.117  26.115  1.00  0.00     0.016 A 
ATOM      9  C   UNL A   1      42.656  24.662  28.689  1.00  0.00     0.010 A 
ATOM     10  C   UNL A   1      41.773  25.423  26.572  1.00  0.00     0.010 A 
ATOM     11  C   UNL A   1      42.106  25.664  27.897  1.00  0.00    -0.014 A 
BRANCH  11  12
ATOM     12  C   UNL A   1      41.949  26.968  28.508  1.00  0.00     0.031 A 
ATOM     13  C   UNL A   1      43.097  27.889  28.295  1.00  0.00     0.074 A 
ATOM     14  C   UNL A   1      40.837  27.294  29.194  1.00  0.00     0.049 A 
ATOM     15  N   UNL A   1      43.925  28.346  29.176  1.00  0.00    -0.248 NA
ATOM     16  C   UNL A   1      43.470  28.195  26.904  1.00  0.00     0.031 C 
ATOM     17  C   UNL A   1      39.563  26.573  29.277  1.00  0.00     0.029 A 
ATOM     18  N   UNL A   1      40.586  28.426  29.894  1.00  0.00    -0.354 N 
ATOM     19  C   UNL A   1      44.812  29.160  28.478  1.00  0.00     0.074 A 
ATOM     20  C   UNL A   1      44.584  28.906  27.078  1.00  0.00     0.031 C 
ATOM     21  C   UNL A   1      38.611  27.409  29.748  1.00  0.00     0.029 A 
ATOM     22  C   UNL A   1      39.243  28.655  30.149  1.00  0.00     0.049 A 
ATOM     23  H   UNL A   1      41.299  29.035  30.196  1.00  0.00     0.167 HD
ATOM     24  C   UNL A   1      45.529  30.144  29.091  1.00  0.00     0.031 A 
ATOM     25  C   UNL A   1      38.697  29.819  30.582  1.00  0.00     0.031 A 
ATOM     26  C   UNL A   1      45.584  29.962  30.516  1.00  0.00     0.049 A 
ATOM     27  C   UNL A   1      39.797  30.606  31.199  1.00  0.00     0.074 A 
ATOM     28  C   UNL A   1      46.114  28.990  31.340  1.00  0.00     0.029 A 
ATOM     29  N   UNL A   1      44.673  30.652  31.280  1.00  0.00    -0.354 N 
ATOM     30  N   UNL A   1      40.421  30.229  32.281  1.00  0.00    -0.248 NA
ATOM     31  C   UNL A   1      40.531  31.536  30.351  1.00  0.00     0.031 C 
ATOM     32  C   UNL A   1      45.148  28.823  32.375  1.00  0.00     0.029 A 
ATOM     33  C   UNL A   1      44.129  29.758  32.170  1.00  0.00     0.049 A 
ATOM     34  H   UNL A   1      44.451  31.607  31.204  1.00  0.00     0.167 HD
ATOM     35  C   UNL A   1      41.758  30.519  32.045  1.00  0.00     0.074 A 
ATOM     36  C   UNL A   1      41.754  31.396  30.874  1.00  0.00     0.031 C 
ATOM     37  C   UNL A   1      42.761  29.807  32.643  1.00  0.00     0.031 A 
BRANCH  24  38
ATOM     38  C   UNL A   1      45.852  31.454  28.421  1.00  0.00    -0.014 A 
ATOM     39  C   UNL A   1      44.818  32.360  28.121  1.00  0.00     0.010 A 
ATOM     40  C   UNL A   1      47.112  31.704  27.836  1.00  0.00     0.010 A 
ATOM     41  C   UNL A   1      45.026  33.434  27.243  1.00  0.00     0.020 A 
ATOM     42  C   UNL A   1      47.342  32.791  26.994  1.00  0.00     0.020 A 
ATOM     43  C   UNL A   1      46.287  33.634  26.678  1.00  0.00     0.054 A 
BRANCH  43  44
ATOM     44  S   UNL A   1      46.527  34.963  25.473  1.00  0.00     0.124 S 
ATOM     45  O   UNL A   1      46.236  36.150  26.270  1.00  0.00    -0.237 OA
ATOM     46  O   UNL A   1      47.925  34.782  25.090  1.00  0.00    -0.237 OA
ATOM     47  O   UNL A   1      45.555  34.657  24.425  1.00  0.00    -0.744 OA
ENDBRANCH  43  44
ENDBRANCH  24  38
BRANCH  25  48
ATOM     48  C   UNL A   1      37.425  30.426  30.110  1.00  0.00    -0.014 A 
ATOM     49  C   UNL A   1      36.665  31.270  30.940  1.00  0.00     0.010 A 
ATOM     50  C   UNL A   1      37.101  30.395  28.736  1.00  0.00     0.010 A 
ATOM     51  C   UNL A   1      35.653  32.090  30.404  1.00  0.00     0.020 A 
ATOM     52  C   UNL A   1      36.095  31.205  28.198  1.00  0.00     0.020 A 
ATOM     53  C   UNL A   1      35.389  32.067  29.032  1.00  0.00     0.054 A 
BRANCH  53  54
ATOM     54  S   UNL A   1      34.207  33.254  28.323  1.00  0.00     0.124 S 
ATOM     55  O   UNL A   1      35.072  34.110  27.517  1.00  0.00    -0.237 OA
ATOM     56  O   UNL A   1      33.300  32.389  27.574  1.00  0.00    -0.237 OA
ATOM     57  O   UNL A   1      33.618  33.896  29.496  1.00  0.00    -0.744 OA
ENDBRANCH  53  54
ENDBRANCH  25  48
BRANCH  37  58
ATOM     58  C   UNL A   1      42.396  28.827  33.739  1.00  0.00    -0.014 A 
ATOM     59  C   UNL A   1      42.174  27.451  33.521  1.00  0.00     0.010 A 
ATOM     60  C   UNL A   1      42.444  29.292  35.064  1.00  0.00     0.010 A 
ATOM     61  C   UNL A   1      41.983  26.574  34.603  1.00  0.00     0.020 A 
ATOM     62  C   UNL A   1      42.272  28.423  36.143  1.00  0.00     0.020 A 
ATOM     63  C   UNL A   1      42.032  27.069  35.910  1.00  0.00     0.054 A 
BRANCH  63  64
ATOM     64  S   UNL A   1      41.827  25.931  37.311  1.00  0.00     0.124 S 
ATOM     65  O   UNL A   1      42.837  26.403  38.253  1.00  0.00    -0.237 OA
ATOM     66  O   UNL A   1      40.439  26.152  37.710  1.00  0.00    -0.237 OA
ATOM     67  O   UNL A   1      42.093  24.614  36.731  1.00  0.00    -0.744 OA
ENDBRANCH  63  64
ENDBRANCH  37  58
ENDBRANCH  11  12
ENDBRANCH   4   6
ENDBRANCH   3   4
ENDBRANCH   2   3
ENDBRANCH   1   2
BRANCH   1  68
ATOM     68  O   UNL A   1      37.466  21.685  25.608  1.00  0.00    -0.374 OA
BRANCH  68  69
ATOM     69  C   UNL A   1      37.099  21.851  24.245  1.00  0.00     0.202 C 
BRANCH  69  70
ATOM     70  C   UNL A   1      36.638  23.202  23.689  1.00  0.00     0.261 C 
BRANCH  70  71
ATOM     71  O   UNL A   1      35.571  23.187  22.732  1.00  0.00    -0.459 OA
BRANCH  71  72
ATOM     72  C   UNL A   1      34.480  23.927  23.078  1.00  0.00     0.371 C 
ATOM     73  O   UNL A   1      34.024  24.845  22.395  1.00  0.00    -0.245 OA
BRANCH  72  74
ATOM     74  C   UNL A   1      33.854  23.541  24.423  1.00  0.00     0.345 C 
ATOM     75  C   UNL A   1      33.321  24.716  25.176  1.00  0.00     0.108 A 
ATOM     76  N   UNL A   1      32.812  22.479  24.331  1.00  0.00    -0.314 N 
ATOM     77  N   UNL A   1      33.995  25.780  25.709  1.00  0.00    -0.343 N 
ATOM     78  C   UNL A   1      32.012  24.908  25.552  1.00  0.00     0.074 A 
ATOM     79  C   UNL A   1      31.429  22.963  24.144  1.00  0.00     0.270 C 
ATOM     80  H   UNL A   1      32.779  22.119  25.284  1.00  0.00     0.349 HD
ATOM     81  C   UNL A   1      33.063  26.582  26.319  1.00  0.00     0.197 A 
ATOM     82  H   UNL A   1      34.966  25.941  25.663  1.00  0.00     0.167 HD
ATOM     83  N   UNL A   1      31.856  26.063  26.259  1.00  0.00    -0.241 NA
ATOM     84  C   UNL A   1      30.953  23.920  25.267  1.00  0.00     0.120 C 
BRANCH  76  85
ATOM     85  C   UNL A   1      33.188  21.273  23.592  1.00  0.00     0.303 C 
BRANCH  85  86
ATOM     86  C   UNL A   1      32.879  19.980  24.277  1.00  0.00     0.044 A 
ATOM     87  C   UNL A   1      32.706  18.696  23.678  1.00  0.00     0.051 A 
ATOM     88  C   UNL A   1      32.773  19.748  25.635  1.00  0.00     0.204 A 
ATOM     89  C   UNL A   1      32.424  17.816  24.697  1.00  0.00     0.195 A 
ATOM     90  O   UNL A   1      32.479  18.449  25.893  1.00  0.00    -0.472 OA
ENDBRANCH  85  86
ENDBRANCH  76  85
ENDBRANCH  72  74
ENDBRANCH  71  72
ENDBRANCH  70  71
ENDBRANCH  69  70
ENDBRANCH  68  69
ENDBRANCH   1  68
TORSDOF 19
ENDMDL
MODEL 2
REMARK VINA RESULT:     -10.9      2.442      9.127
REMARK SMILES O=C(OCCOCCOC(=O)[C@H]1c2[nH]cnc2CC[N@H+]1Cc1ccoc1)c1ccc(-c2c3nc(c(-c4ccc(S(=O)(=O)[O-])cc4)c4ccc([nH]4)c(-c4ccc(S(=O)(=O)[O-])cc4)c4nc(c(-c5ccc(S(=O)(=O)[O-])cc5)c5ccc2[nH]5)C=C4)C=C3)cc1
REMARK SMILES IDX 5 1 4 2 3 3 2 4 1 5 27 6 28 7 86 8 29 9 85 10 30 11 31 12
REMARK SMILES IDX 32 13 79 14 33 15 84 16 78 17 80 18 34 19 83 20 77 21 76 22
REMARK SMILES IDX 35 24 65 25 46 26 64 27 47 28 50 29 63 30 81 31 48 32 49 33
REMARK SMILES IDX 62 35 82 36 51 37 36 38 37 39 45 40 38 41 44 42 39 43 40 44
REMARK SMILES IDX 41 45 42 46 43 47 66 48 67 49 75 50 68 51 74 52 69 53 70 54
REMARK SMILES IDX 71 55 72 56 73 57 52 58 53 59 61 60 54 61 60 62 55 63 56 64
REMARK SMILES IDX 57 65 58 66 59 67 6 68 7 69 8 70 9 71 10 72 11 73 12 74
REMARK SMILES IDX 13 75 20 76 14 77 17 78 19 79 15 81 16 83 18 84 21 85 22 86
REMARK SMILES IDX 23 87 26 88 24 89 25 90
REMARK H PARENT 80 23 50 34 20 80 14 82
REMARK Flexibility Score: inf
ROOT
ATOM      1  C   UNL A   1      31.977  30.291  26.100  1.00  0.00     0.202 C 
ENDROOT
BRANCH   1   2
ATOM      2  C   UNL A   1      33.464  30.028  26.385  1.00  0.00     0.261 C 
BRANCH   2   3
ATOM      3  O   UNL A   1      33.903  30.610  27.614  1.00  0.00    -0.460 OA
BRANCH   3   4
ATOM      4  C   UNL A   1      34.976  31.399  27.847  1.00  0.00     0.338 C 
ATOM      5  O   UNL A   1      34.907  32.584  27.545  1.00  0.00    -0.246 OA
BRANCH   4   6
ATOM      6  C   UNL A   1      36.265  30.889  28.413  1.00  0.00     0.060 A 
ATOM      7  C   UNL A   1      37.315  31.663  28.913  1.00  0.00     0.016 A 
ATOM      8  C   UNL A   1      36.393  29.491  28.462  1.00  0.00     0.016 A 
ATOM      9  C   UNL A   1      38.547  31.095  29.157  1.00  0.00     0.010 A 
ATOM     10  C   UNL A   1      37.595  28.902  28.810  1.00  0.00     0.010 A 
ATOM     11  C   UNL A   1      38.693  29.718  29.041  1.00  0.00    -0.014 A 
BRANCH  11  12
ATOM     12  C   UNL A   1      40.027  29.184  29.223  1.00  0.00     0.031 A 
ATOM     13  C   UNL A   1      40.420  28.983  30.644  1.00  0.00     0.074 A 
ATOM     14  C   UNL A   1      40.816  28.891  28.173  1.00  0.00     0.049 A 
ATOM     15  N   UNL A   1      41.332  29.607  31.313  1.00  0.00    -0.248 NA
ATOM     16  C   UNL A   1      39.573  28.098  31.462  1.00  0.00     0.031 C 
ATOM     17  C   UNL A   1      40.468  28.825  26.750  1.00  0.00     0.029 A 
ATOM     18  N   UNL A   1      42.107  28.480  28.184  1.00  0.00    -0.354 N 
ATOM     19  C   UNL A   1      41.309  29.058  32.592  1.00  0.00     0.074 A 
ATOM     20  C   UNL A   1      40.115  28.255  32.669  1.00  0.00     0.031 C 
ATOM     21  C   UNL A   1      41.431  28.144  26.089  1.00  0.00     0.029 A 
ATOM     22  C   UNL A   1      42.525  27.878  27.007  1.00  0.00     0.049 A 
ATOM     23  H   UNL A   1      42.698  28.598  28.963  1.00  0.00     0.167 HD
ATOM     24  C   UNL A   1      42.381  29.129  33.431  1.00  0.00     0.031 A 
ATOM     25  C   UNL A   1      43.657  27.147  26.839  1.00  0.00     0.031 A 
ATOM     26  C   UNL A   1      43.311  30.149  33.030  1.00  0.00     0.049 A 
ATOM     27  C   UNL A   1      44.577  27.521  27.944  1.00  0.00     0.074 A 
ATOM     28  C   UNL A   1      43.241  31.523  32.919  1.00  0.00     0.029 A 
ATOM     29  N   UNL A   1      44.391  29.761  32.272  1.00  0.00    -0.354 N 
ATOM     30  N   UNL A   1      45.091  28.715  28.069  1.00  0.00    -0.248 NA
ATOM     31  C   UNL A   1      44.530  26.735  29.170  1.00  0.00     0.031 C 
ATOM     32  C   UNL A   1      43.952  31.828  31.721  1.00  0.00     0.029 A 
ATOM     33  C   UNL A   1      44.484  30.637  31.219  1.00  0.00     0.049 A 
ATOM     34  H   UNL A   1      44.987  28.999  32.451  1.00  0.00     0.167 HD
ATOM     35  C   UNL A   1      45.035  28.991  29.428  1.00  0.00     0.074 A 
ATOM     36  C   UNL A   1      44.754  27.704  30.064  1.00  0.00     0.031 C 
ATOM     37  C   UNL A   1      44.944  30.274  29.894  1.00  0.00     0.031 A 
BRANCH  24  38
ATOM     38  C   UNL A   1      42.742  28.021  34.385  1.00  0.00    -0.014 A 
ATOM     39  C   UNL A   1      42.786  28.278  35.768  1.00  0.00     0.010 A 
ATOM     40  C   UNL A   1      43.302  26.804  33.941  1.00  0.00     0.010 A 
ATOM     41  C   UNL A   1      43.401  27.379  36.653  1.00  0.00     0.020 A 
ATOM     42  C   UNL A   1      43.879  25.884  34.816  1.00  0.00     0.020 A 
ATOM     43  C   UNL A   1      43.952  26.192  36.166  1.00  0.00     0.054 A 
BRANCH  43  44
ATOM     44  S   UNL A   1      44.827  25.082  37.296  1.00  0.00     0.124 S 
ATOM     45  O   UNL A   1      46.216  25.485  37.102  1.00  0.00    -0.237 OA
ATOM     46  O   UNL A   1      44.238  25.430  38.587  1.00  0.00    -0.237 OA
ATOM     47  O   UNL A   1      44.485  23.750  36.802  1.00  0.00    -0.744 OA
ENDBRANCH  43  44
ENDBRANCH  24  38
BRANCH  25  48
ATOM     48  C   UNL A   1      43.785  25.887  26.061  1.00  0.00    -0.014 A 
ATOM     49  C   UNL A   1      44.953  25.592  25.335  1.00  0.00     0.010 A 
ATOM     50  C   UNL A   1      42.858  24.842  26.262  1.00  0.00     0.010 A 
ATOM     51  C   UNL A   1      45.206  24.287  24.873  1.00  0.00     0.020 A 
ATOM     52  C   UNL A   1      43.102  23.543  25.802  1.00  0.00     0.020 A 
ATOM     53  C   UNL A   1      44.287  23.265  25.128  1.00  0.00     0.054 A 
BRANCH  53  54
ATOM     54  S   UNL A   1      44.701  21.550  24.686  1.00  0.00     0.124 S 
ATOM     55  O   UNL A   1      43.622  20.796  25.317  1.00  0.00    -0.237 OA
ATOM     56  O   UNL A   1      44.677  21.585  23.226  1.00  0.00    -0.237 OA
ATOM     57  O   UNL A   1      46.024  21.352  25.275  1.00  0.00    -0.744 OA
ENDBRANCH  53  54
ENDBRANCH  25  48
BRANCH  37  58
ATOM     58  C   UNL A   1      45.121  31.413  28.911  1.00  0.00    -0.014 A 
ATOM     59  C   UNL A   1      46.366  32.003  28.608  1.00  0.00     0.010 A 
ATOM     60  C   UNL A   1      44.004  31.784  28.144  1.00  0.00     0.010 A 
ATOM     61  C   UNL A   1      46.478  32.955  27.580  1.00  0.00     0.020 A 
ATOM     62  C   UNL A   1      44.112  32.716  27.110  1.00  0.00     0.020 A 
ATOM     63  C   UNL A   1      45.346  33.307  26.837  1.00  0.00     0.054 A 
BRANCH  63  64
ATOM     64  S   UNL A   1      45.496  34.505  25.481  1.00  0.00     0.124 S 
ATOM     65  O   UNL A   1      44.666  33.910  24.438  1.00  0.00    -0.237 OA
ATOM     66  O   UNL A   1      44.978  35.736  26.075  1.00  0.00    -0.237 OA
ATOM     67  O   UNL A   1      46.931  34.525  25.191  1.00  0.00    -0.744 OA
ENDBRANCH  63  64
ENDBRANCH  37  58
ENDBRANCH  11  12
ENDBRANCH   4   6
ENDBRANCH   3   4
ENDBRANCH   2   3
ENDBRANCH   1   2
BRANCH   1  68
ATOM     68  O   UNL A   1      31.341  29.716  24.966  1.00  0.00    -0.374 OA
BRANCH  68  69
ATOM     69  C   UNL A   1      31.759  28.455  24.459  1.00  0.00     0.202 C 
BRANCH  69  70
ATOM     70  C   UNL A   1      31.330  27.137  25.111  1.00  0.00     0.261 C 
BRANCH  70  71
ATOM     71  O   UNL A   1      31.958  25.939  24.640  1.00  0.00    -0.459 OA
BRANCH  71  72
ATOM     72  C   UNL A   1      33.167  25.664  25.206  1.00  0.00     0.371 C 
ATOM     73  O   UNL A   1      34.084  26.479  25.306  1.00  0.00    -0.245 OA
BRANCH  72  74
ATOM     74  C   UNL A   1      33.318  24.222  25.705  1.00  0.00     0.345 C 
ATOM     75  C   UNL A   1      32.011  23.584  26.048  1.00  0.00     0.108 A 
ATOM     76  N   UNL A   1      34.093  23.336  24.791  1.00  0.00    -0.314 N 
ATOM     77  N   UNL A   1      31.121  23.912  27.034  1.00  0.00    -0.343 N 
ATOM     78  C   UNL A   1      31.484  22.458  25.462  1.00  0.00     0.074 A 
ATOM     79  C   UNL A   1      33.293  22.607  23.786  1.00  0.00     0.270 C 
ATOM     80  H   UNL A   1      34.386  22.581  25.411  1.00  0.00     0.349 HD
ATOM     81  C   UNL A   1      30.084  23.016  26.953  1.00  0.00     0.197 A 
ATOM     82  H   UNL A   1      31.207  24.652  27.678  1.00  0.00     0.167 HD
ATOM     83  N   UNL A   1      30.292  22.109  26.025  1.00  0.00    -0.241 NA
ATOM     84  C   UNL A   1      32.193  21.708  24.406  1.00  0.00     0.120 C 
BRANCH  76  85
ATOM     85  C   UNL A   1      35.390  23.848  24.348  1.00  0.00     0.303 C 
BRANCH  85  86
ATOM     86  C   UNL A   1      36.584  23.189  24.962  1.00  0.00     0.044 A 
ATOM     87  C   UNL A   1      37.155  21.926  24.620  1.00  0.00     0.051 A 
ATOM     88  C   UNL A   1      37.424  23.699  25.934  1.00  0.00     0.204 A 
ATOM     89  C   UNL A   1      38.226  21.733  25.460  1.00  0.00     0.195 A 
ATOM     90  O   UNL A   1      38.404  22.817  26.252  1.00  0.00    -0.472 OA
ENDBRANCH  85  86
ENDBRANCH  76  85
ENDBRANCH  72  74
ENDBRANCH  71  72
ENDBRANCH  70  71
ENDBRANCH  69  70
ENDBRANCH  68  69
ENDBRANCH   1  68
TORSDOF 19
ENDMDL
MODEL 3
REMARK VINA RESULT:     -10.9      1.247      2.883
REMARK SMILES O=C(OCCOCCOC(=O)[C@H]1c2[nH]cnc2CC[N@H+]1Cc1ccoc1)c1ccc(-c2c3nc(c(-c4ccc(S(=O)(=O)[O-])cc4)c4ccc([nH]4)c(-c4ccc(S(=O)(=O)[O-])cc4)c4nc(c(-c5ccc(S(=O)(=O)[O-])cc5)c5ccc2[nH]5)C=C4)C=C3)cc1
REMARK SMILES IDX 5 1 4 2 3 3 2 4 1 5 27 6 28 7 86 8 29 9 85 10 30 11 31 12
REMARK SMILES IDX 32 13 79 14 33 15 84 16 78 17 80 18 34 19 83 20 77 21 76 22
REMARK SMILES IDX 35 24 65 25 46 26 64 27 47 28 50 29 63 30 81 31 48 32 49 33
REMARK SMILES IDX 62 35 82 36 51 37 36 38 37 39 45 40 38 41 44 42 39 43 40 44
REMARK SMILES IDX 41 45 42 46 43 47 66 48 67 49 75 50 68 51 74 52 69 53 70 54
REMARK SMILES IDX 71 55 72 56 73 57 52 58 53 59 61 60 54 61 60 62 55 63 56 64
REMARK SMILES IDX 57 65 58 66 59 67 6 68 7 69 8 70 9 71 10 72 11 73 12 74
REMARK SMILES IDX 13 75 20 76 14 77 17 78 19 79 15 81 16 83 18 84 21 85 22 86
REMARK SMILES IDX 23 87 26 88 24 89 25 90
REMARK H PARENT 80 23 50 34 20 80 14 82
REMARK Flexibility Score: inf
ROOT
ATOM      1  C   UNL A   1      39.699  20.806  25.893  1.00  0.00     0.202 C 
ENDROOT
BRANCH   1   2
ATOM      2  C   UNL A   1      41.033  21.092  26.600  1.00  0.00     0.261 C 
BRANCH   2   3
ATOM      3  O   UNL A   1      42.049  21.545  25.702  1.00  0.00    -0.460 OA
BRANCH   3   4
ATOM      4  C   UNL A   1      42.459  22.807  25.447  1.00  0.00     0.338 C 
ATOM      5  O   UNL A   1      43.257  22.989  24.535  1.00  0.00    -0.246 OA
BRANCH   4   6
ATOM      6  C   UNL A   1      42.026  23.992  26.253  1.00  0.00     0.060 A 
ATOM      7  C   UNL A   1      41.052  24.927  25.894  1.00  0.00     0.016 A 
ATOM      8  C   UNL A   1      42.656  24.138  27.500  1.00  0.00     0.016 A 
ATOM      9  C   UNL A   1      40.932  26.112  26.589  1.00  0.00     0.010 A 
ATOM     10  C   UNL A   1      42.462  25.276  28.262  1.00  0.00     0.010 A 
ATOM     11  C   UNL A   1      41.689  26.303  27.738  1.00  0.00    -0.014 A 
BRANCH  11  12
ATOM     12  C   UNL A   1      41.589  27.598  28.380  1.00  0.00     0.031 A 
ATOM     13  C   UNL A   1      42.753  28.493  28.141  1.00  0.00     0.074 A 
ATOM     14  C   UNL A   1      40.514  27.938  29.114  1.00  0.00     0.049 A 
ATOM     15  N   UNL A   1      43.625  28.912  28.998  1.00  0.00    -0.248 NA
ATOM     16  C   UNL A   1      43.081  28.819  26.743  1.00  0.00     0.031 C 
ATOM     17  C   UNL A   1      39.225  27.248  29.231  1.00  0.00     0.029 A 
ATOM     18  N   UNL A   1      40.319  29.061  29.844  1.00  0.00    -0.354 N 
ATOM     19  C   UNL A   1      44.506  29.717  28.283  1.00  0.00     0.074 A 
ATOM     20  C   UNL A   1      44.218  29.497  26.888  1.00  0.00     0.031 C 
ATOM     21  C   UNL A   1      38.313  28.099  29.755  1.00  0.00     0.029 A 
ATOM     22  C   UNL A   1      38.992  29.319  30.155  1.00  0.00     0.049 A 
ATOM     23  H   UNL A   1      41.058  29.647  30.131  1.00  0.00     0.167 HD
ATOM     24  C   UNL A   1      45.271  30.670  28.887  1.00  0.00     0.031 A 
ATOM     25  C   UNL A   1      38.494  30.488  30.631  1.00  0.00     0.031 A 
ATOM     26  C   UNL A   1      45.375  30.457  30.305  1.00  0.00     0.049 A 
ATOM     27  C   UNL A   1      39.636  31.234  31.221  1.00  0.00     0.074 A 
ATOM     28  C   UNL A   1      45.910  29.455  31.089  1.00  0.00     0.029 A 
ATOM     29  N   UNL A   1      44.512  31.154  31.116  1.00  0.00    -0.354 N 
ATOM     30  N   UNL A   1      40.291  30.819  32.271  1.00  0.00    -0.248 NA
ATOM     31  C   UNL A   1      40.362  32.162  30.363  1.00  0.00     0.031 C 
ATOM     32  C   UNL A   1      44.980  29.293  32.157  1.00  0.00     0.029 A 
ATOM     33  C   UNL A   1      43.979  30.257  32.009  1.00  0.00     0.049 A 
ATOM     34  H   UNL A   1      44.312  32.117  31.068  1.00  0.00     0.167 HD
ATOM     35  C   UNL A   1      41.625  31.080  31.990  1.00  0.00     0.074 A 
ATOM     36  C   UNL A   1      41.600  31.980  30.837  1.00  0.00     0.031 C 
ATOM     37  C   UNL A   1      42.631  30.331  32.535  1.00  0.00     0.031 A 
BRANCH  24  38
ATOM     38  C   UNL A   1      45.603  31.984  28.231  1.00  0.00    -0.014 A 
ATOM     39  C   UNL A   1      46.937  32.431  28.198  1.00  0.00     0.010 A 
ATOM     40  C   UNL A   1      44.605  32.919  27.881  1.00  0.00     0.010 A 
ATOM     41  C   UNL A   1      47.249  33.761  27.876  1.00  0.00     0.020 A 
ATOM     42  C   UNL A   1      44.906  34.232  27.520  1.00  0.00     0.020 A 
ATOM     43  C   UNL A   1      46.227  34.654  27.549  1.00  0.00     0.054 A 
BRANCH  43  44
ATOM     44  S   UNL A   1      46.624  36.390  27.228  1.00  0.00     0.124 S 
ATOM     45  O   UNL A   1      47.721  36.627  28.160  1.00  0.00    -0.237 OA
ATOM     46  O   UNL A   1      46.987  36.366  25.813  1.00  0.00    -0.237 OA
ATOM     47  O   UNL A   1      45.378  37.090  27.533  1.00  0.00    -0.744 OA
ENDBRANCH  43  44
ENDBRANCH  24  38
BRANCH  25  48
ATOM     48  C   UNL A   1      37.221  31.136  30.220  1.00  0.00    -0.014 A 
ATOM     49  C   UNL A   1      36.330  31.667  31.170  1.00  0.00     0.010 A 
ATOM     50  C   UNL A   1      37.015  31.482  28.866  1.00  0.00     0.010 A 
ATOM     51  C   UNL A   1      35.305  32.551  30.785  1.00  0.00     0.020 A 
ATOM     52  C   UNL A   1      35.996  32.357  28.476  1.00  0.00     0.020 A 
ATOM     53  C   UNL A   1      35.158  32.907  29.441  1.00  0.00     0.054 A 
BRANCH  53  54
ATOM     54  S   UNL A   1      33.948  34.183  28.975  1.00  0.00     0.124 S 
ATOM     55  O   UNL A   1      33.112  33.480  28.006  1.00  0.00    -0.237 OA
ATOM     56  O   UNL A   1      33.310  34.496  30.250  1.00  0.00    -0.237 OA
ATOM     57  O   UNL A   1      34.774  35.254  28.420  1.00  0.00    -0.744 OA
ENDBRANCH  53  54
ENDBRANCH  25  48
BRANCH  37  58
ATOM     58  C   UNL A   1      42.282  29.338  33.625  1.00  0.00    -0.014 A 
ATOM     59  C   UNL A   1      41.785  28.041  33.377  1.00  0.00     0.010 A 
ATOM     60  C   UNL A   1      42.630  29.677  34.943  1.00  0.00     0.010 A 
ATOM     61  C   UNL A   1      41.621  27.122  34.428  1.00  0.00     0.020 A 
ATOM     62  C   UNL A   1      42.485  28.763  35.989  1.00  0.00     0.020 A 
ATOM     63  C   UNL A   1      41.972  27.492  35.730  1.00  0.00     0.054 A 
BRANCH  63  64
ATOM     64  S   UNL A   1      41.800  26.292  37.083  1.00  0.00     0.124 S 
ATOM     65  O   UNL A   1      40.484  26.613  37.626  1.00  0.00    -0.237 OA
ATOM     66  O   UNL A   1      41.903  25.008  36.394  1.00  0.00    -0.237 OA
ATOM     67  O   UNL A   1      42.925  26.602  37.967  1.00  0.00    -0.744 OA
ENDBRANCH  63  64
ENDBRANCH  37  58
ENDBRANCH  11  12
ENDBRANCH   4   6
ENDBRANCH   3   4
ENDBRANCH   2   3
ENDBRANCH   1   2
BRANCH   1  68
ATOM     68  O   UNL A   1      38.816  21.866  25.551  1.00  0.00    -0.374 OA
BRANCH  68  69
ATOM     69  C   UNL A   1      37.649  21.620  24.777  1.00  0.00     0.202 C 
BRANCH  69  70
ATOM     70  C   UNL A   1      36.850  22.757  24.132  1.00  0.00     0.261 C 
BRANCH  70  71
ATOM     71  O   UNL A   1      35.655  22.399  23.427  1.00  0.00    -0.459 OA
BRANCH  71  72
ATOM     72  C   UNL A   1      34.663  23.332  23.470  1.00  0.00     0.371 C 
ATOM     73  O   UNL A   1      34.605  24.314  22.729  1.00  0.00    -0.245 OA
BRANCH  72  74
ATOM     74  C   UNL A   1      33.603  23.079  24.549  1.00  0.00     0.345 C 
ATOM     75  C   UNL A   1      33.290  21.628  24.729  1.00  0.00     0.108 A 
ATOM     76  N   UNL A   1      33.910  23.701  25.867  1.00  0.00    -0.314 N 
ATOM     77  N   UNL A   1      32.715  20.752  23.850  1.00  0.00    -0.343 N 
ATOM     78  C   UNL A   1      33.460  20.904  25.885  1.00  0.00     0.074 A 
ATOM     79  C   UNL A   1      34.667  22.852  26.808  1.00  0.00     0.270 C 
ATOM     80  H   UNL A   1      32.994  23.739  26.312  1.00  0.00     0.349 HD
ATOM     81  C   UNL A   1      32.625  19.542  24.491  1.00  0.00     0.197 A 
ATOM     82  H   UNL A   1      32.423  20.951  22.931  1.00  0.00     0.167 HD
ATOM     83  N   UNL A   1      33.046  19.613  25.734  1.00  0.00    -0.241 NA
ATOM     84  C   UNL A   1      33.962  21.510  27.134  1.00  0.00     0.120 C 
BRANCH  76  85
ATOM     85  C   UNL A   1      34.263  25.121  25.839  1.00  0.00     0.303 C 
BRANCH  85  86
ATOM     86  C   UNL A   1      33.107  26.070  25.872  1.00  0.00     0.044 A 
ATOM     87  C   UNL A   1      31.774  25.806  26.308  1.00  0.00     0.051 A 
ATOM     88  C   UNL A   1      33.110  27.417  25.559  1.00  0.00     0.204 A 
ATOM     89  C   UNL A   1      31.062  26.971  26.143  1.00  0.00     0.195 A 
ATOM     90  O   UNL A   1      31.876  27.960  25.701  1.00  0.00    -0.472 OA
ENDBRANCH  85  86
ENDBRANCH  76  85
ENDBRANCH  72  74
ENDBRANCH  71  72
ENDBRANCH  70  71
ENDBRANCH  69  70
ENDBRANCH  68  69
ENDBRANCH   1  68
TORSDOF 19
ENDMDL
