MODEL 1
REMARK VINA RESULT:     -11.5      0.000      0.000
REMARK SMILES Cc1ccc(N2C(=O)C[C@H](Sc3ccccc3C(=O)OCCOCCOC(=O)c3ccc(-c4c5nc(c(-c6ccc(S(=O)(=O)[O-])cc6)c6ccc([nH]6)c(-c6ccc(S(=O)(=O)[O-])cc6)c6nc(c(-c7ccc(S(=O)(=O)[O-])cc7)c7ccc4[nH]7)C=C6)C=C5)cc3)C2=O)cc1
REMARK SMILES IDX 23 1 22 2 21 3 20 4 18 5 19 6 17 7 12 8 13 9 14 10 16 11
REMARK SMILES IDX 15 12 11 13 10 14 6 15 7 16 89 17 8 18 9 19 90 20 5 21 1 22
REMARK SMILES IDX 2 23 3 24 92 25 4 26 91 27 24 28 25 29 26 30 27 31 28 32
REMARK SMILES IDX 29 33 30 34 88 35 31 36 87 37 32 38 33 39 34 40 81 41 35 42
REMARK SMILES IDX 86 43 80 44 82 45 36 46 85 47 79 48 78 49 37 51 67 52 48 53
REMARK SMILES IDX 66 54 49 55 52 56 65 57 83 58 50 59 51 60 64 62 84 63 53 64
REMARK SMILES IDX 38 65 39 66 47 67 40 68 46 69 41 70 42 71 43 72 44 73 45 74
REMARK SMILES IDX 68 75 69 76 77 77 70 78 76 79 71 80 72 81 73 82 74 83 75 84
REMARK SMILES IDX 54 85 55 86 63 87 56 88 62 89 57 90 58 91 59 92 60 93 61 94
REMARK H PARENT 82 50 52 61
REMARK Flexibility Score: inf
ROOT
ATOM      1  O   UNL A   1      34.409  25.456  25.420  1.00  0.00    -0.374 OA
ENDROOT
BRANCH   1   2
ATOM      2  C   UNL A   1      33.652  26.382  26.168  1.00  0.00     0.202 C 
BRANCH   2   3
ATOM      3  C   UNL A   1      33.603  27.535  25.253  1.00  0.00     0.261 C 
BRANCH   3   4
ATOM      4  O   UNL A   1      33.931  27.165  23.884  1.00  0.00    -0.460 OA
BRANCH   4   5
ATOM      5  C   UNL A   1      33.530  27.870  22.782  1.00  0.00     0.339 C 
ATOM      6  O   UNL A   1      34.203  28.287  21.878  1.00  0.00    -0.246 OA
BRANCH   5   7
ATOM      7  C   UNL A   1      32.058  28.021  22.859  1.00  0.00     0.073 A 
ATOM      8  C   UNL A   1      31.165  26.942  22.707  1.00  0.00     0.023 A 
ATOM      9  C   UNL A   1      29.802  27.199  22.940  1.00  0.00     0.016 A 
ATOM     10  C   UNL A   1      29.344  28.468  23.314  1.00  0.00     0.001 A 
ATOM     11  C   UNL A   1      31.571  29.313  23.146  1.00  0.00     0.017 A 
ATOM     12  C   UNL A   1      30.226  29.534  23.391  1.00  0.00     0.001 A 
BRANCH   8  13
ATOM     13  S   UNL A   1      31.551  25.333  21.997  1.00  0.00    -0.111 SA
BRANCH  13  14
ATOM     14  C   UNL A   1      32.089  24.260  23.366  1.00  0.00     0.151 C 
ATOM     15  N   UNL A   1      32.310  22.012  23.908  1.00  0.00    -0.250 N 
ATOM     16  C   UNL A   1      31.432  22.535  24.832  1.00  0.00     0.235 C 
ATOM     17  C   UNL A   1      32.744  22.955  23.006  1.00  0.00     0.247 C 
ATOM     18  O   UNL A   1      30.986  22.002  25.838  1.00  0.00    -0.274 OA
ATOM     19  C   UNL A   1      30.964  23.864  24.306  1.00  0.00     0.126 C 
ATOM     20  O   UNL A   1      33.642  22.811  22.187  1.00  0.00    -0.273 OA
BRANCH  15  21
ATOM     21  C   UNL A   1      32.700  20.658  23.862  1.00  0.00     0.052 A 
ATOM     22  C   UNL A   1      34.002  16.550  23.696  1.00  0.00     0.044 C 
ATOM     23  C   UNL A   1      33.578  17.988  23.734  1.00  0.00    -0.051 A 
ATOM     24  C   UNL A   1      32.497  18.424  22.958  1.00  0.00     0.005 A 
ATOM     25  C   UNL A   1      34.221  18.899  24.576  1.00  0.00     0.005 A 
ATOM     26  C   UNL A   1      32.088  19.761  22.987  1.00  0.00     0.027 A 
ATOM     27  C   UNL A   1      33.756  20.212  24.671  1.00  0.00     0.027 A 
ENDBRANCH  15  21
ENDBRANCH  13  14
ENDBRANCH   8  13
ENDBRANCH   5   7
ENDBRANCH   4   5
ENDBRANCH   3   4
ENDBRANCH   2   3
ENDBRANCH   1   2
BRANCH   1  28
ATOM     28  C   UNL A   1      34.512  24.241  26.084  1.00  0.00     0.202 C 
BRANCH  28  29
ATOM     29  C   UNL A   1      35.545  23.374  25.394  1.00  0.00     0.261 C 
BRANCH  29  30
ATOM     30  O   UNL A   1      36.825  24.056  25.347  1.00  0.00    -0.460 OA
BRANCH  30  31
ATOM     31  C   UNL A   1      37.950  23.348  25.682  1.00  0.00     0.338 C 
ATOM     32  O   UNL A   1      38.255  22.282  25.173  1.00  0.00    -0.246 OA
BRANCH  31  33
ATOM     33  C   UNL A   1      38.863  24.131  26.570  1.00  0.00     0.060 A 
ATOM     34  C   UNL A   1      38.664  24.226  27.961  1.00  0.00     0.016 A 
ATOM     35  C   UNL A   1      39.858  24.893  25.975  1.00  0.00     0.016 A 
ATOM     36  C   UNL A   1      39.323  25.223  28.712  1.00  0.00     0.010 A 
ATOM     37  C   UNL A   1      40.463  25.901  26.707  1.00  0.00     0.010 A 
ATOM     38  C   UNL A   1      40.159  26.127  28.062  1.00  0.00    -0.014 A 
BRANCH  38  39
ATOM     39  C   UNL A   1      40.788  27.331  28.644  1.00  0.00     0.031 A 
ATOM     40  C   UNL A   1      39.949  28.542  28.717  1.00  0.00     0.074 A 
ATOM     41  C   UNL A   1      41.952  27.303  29.351  1.00  0.00     0.049 A 
ATOM     42  N   UNL A   1      40.403  29.701  29.030  1.00  0.00    -0.248 NA
ATOM     43  C   UNL A   1      38.521  28.573  28.394  1.00  0.00     0.031 C 
ATOM     44  C   UNL A   1      42.433  28.172  30.434  1.00  0.00     0.029 A 
ATOM     45  N   UNL A   1      42.987  26.375  29.296  1.00  0.00    -0.354 N 
ATOM     46  C   UNL A   1      39.323  30.475  29.367  1.00  0.00     0.074 A 
ATOM     47  C   UNL A   1      38.190  29.809  28.778  1.00  0.00     0.031 C 
ATOM     48  C   UNL A   1      43.737  27.910  30.683  1.00  0.00     0.029 A 
ATOM     49  C   UNL A   1      44.191  26.957  29.675  1.00  0.00     0.049 A 
ATOM     50  H   UNL A   1      42.882  25.434  29.024  1.00  0.00     0.167 HD
ATOM     51  C   UNL A   1      39.517  31.485  30.260  1.00  0.00     0.031 A 
ATOM     52  C   UNL A   1      45.198  27.051  28.766  1.00  0.00     0.031 A 
ATOM     53  C   UNL A   1      40.951  31.632  30.588  1.00  0.00     0.049 A 
ATOM     54  C   UNL A   1      45.376  28.514  28.452  1.00  0.00     0.074 A 
ATOM     55  C   UNL A   1      41.714  31.434  31.727  1.00  0.00     0.029 A 
ATOM     56  N   UNL A   1      41.868  31.720  29.540  1.00  0.00    -0.354 N 
ATOM     57  N   UNL A   1      44.513  29.414  28.837  1.00  0.00    -0.248 NA
ATOM     58  C   UNL A   1      46.487  29.103  27.727  1.00  0.00     0.031 C 
ATOM     59  C   UNL A   1      43.093  31.386  31.336  1.00  0.00     0.029 A 
ATOM     60  C   UNL A   1      43.177  31.587  29.967  1.00  0.00     0.049 A 
ATOM     61  H   UNL A   1      41.612  31.862  28.600  1.00  0.00     0.167 HD
ATOM     62  C   UNL A   1      44.945  30.660  28.544  1.00  0.00     0.074 A 
ATOM     63  C   UNL A   1      46.145  30.408  27.753  1.00  0.00     0.031 C 
ATOM     64  C   UNL A   1      44.269  31.760  28.999  1.00  0.00     0.031 A 
BRANCH  51  65
ATOM     65  C   UNL A   1      38.400  32.205  30.994  1.00  0.00    -0.014 A 
ATOM     66  C   UNL A   1      38.324  32.111  32.397  1.00  0.00     0.010 A 
ATOM     67  C   UNL A   1      37.372  32.955  30.380  1.00  0.00     0.010 A 
ATOM     68  C   UNL A   1      37.290  32.715  33.136  1.00  0.00     0.020 A 
ATOM     69  C   UNL A   1      36.340  33.575  31.102  1.00  0.00     0.020 A 
ATOM     70  C   UNL A   1      36.305  33.449  32.482  1.00  0.00     0.054 A 
BRANCH  70  71
ATOM     71  S   UNL A   1      34.995  34.245  33.448  1.00  0.00     0.124 S 
ATOM     72  O   UNL A   1      35.185  33.661  34.774  1.00  0.00    -0.237 OA
ATOM     73  O   UNL A   1      35.330  35.661  33.327  1.00  0.00    -0.237 OA
ATOM     74  O   UNL A   1      33.765  33.840  32.768  1.00  0.00    -0.744 OA
ENDBRANCH  70  71
ENDBRANCH  51  65
BRANCH  52  75
ATOM     75  C   UNL A   1      45.286  25.868  27.825  1.00  0.00    -0.014 A 
ATOM     76  C   UNL A   1      45.581  24.587  28.359  1.00  0.00     0.010 A 
ATOM     77  C   UNL A   1      44.658  25.905  26.564  1.00  0.00     0.010 A 
ATOM     78  C   UNL A   1      45.161  23.399  27.717  1.00  0.00     0.020 A 
ATOM     79  C   UNL A   1      44.207  24.723  25.935  1.00  0.00     0.020 A 
ATOM     80  C   UNL A   1      44.428  23.477  26.530  1.00  0.00     0.054 A 
BRANCH  80  81
ATOM     81  S   UNL A   1      43.492  22.006  25.955  1.00  0.00     0.124 S 
ATOM     82  O   UNL A   1      42.635  22.558  24.915  1.00  0.00    -0.237 OA
ATOM     83  O   UNL A   1      44.552  21.112  25.486  1.00  0.00    -0.237 OA
ATOM     84  O   UNL A   1      42.813  21.550  27.163  1.00  0.00    -0.744 OA
ENDBRANCH  80  81
ENDBRANCH  52  75
BRANCH  64  85
ATOM     85  C   UNL A   1      44.554  33.151  28.519  1.00  0.00    -0.014 A 
ATOM     86  C   UNL A   1      44.216  33.620  27.249  1.00  0.00     0.010 A 
ATOM     87  C   UNL A   1      45.200  34.055  29.395  1.00  0.00     0.010 A 
ATOM     88  C   UNL A   1      44.363  34.969  26.927  1.00  0.00     0.020 A 
ATOM     89  C   UNL A   1      45.388  35.392  29.075  1.00  0.00     0.020 A 
ATOM     90  C   UNL A   1      44.928  35.848  27.851  1.00  0.00     0.054 A 
BRANCH  90  91
ATOM     91  S   UNL A   1      45.094  37.585  27.411  1.00  0.00     0.124 S 
ATOM     92  O   UNL A   1      43.743  37.920  26.969  1.00  0.00    -0.237 OA
ATOM     93  O   UNL A   1      45.508  38.179  28.679  1.00  0.00    -0.237 OA
ATOM     94  O   UNL A   1      46.109  37.585  26.360  1.00  0.00    -0.744 OA
ENDBRANCH  90  91
ENDBRANCH  64  85
ENDBRANCH  38  39
ENDBRANCH  31  33
ENDBRANCH  30  31
ENDBRANCH  29  30
ENDBRANCH  28  29
ENDBRANCH   1  28
TORSDOF 20
ENDMDL
MODEL 2
REMARK VINA RESULT:     -11.2      2.292      5.026
REMARK SMILES Cc1ccc(N2C(=O)C[C@H](Sc3ccccc3C(=O)OCCOCCOC(=O)c3ccc(-c4c5nc(c(-c6ccc(S(=O)(=O)[O-])cc6)c6ccc([nH]6)c(-c6ccc(S(=O)(=O)[O-])cc6)c6nc(c(-c7ccc(S(=O)(=O)[O-])cc7)c7ccc4[nH]7)C=C6)C=C5)cc3)C2=O)cc1
REMARK SMILES IDX 23 1 22 2 21 3 20 4 18 5 19 6 17 7 12 8 13 9 14 10 16 11
REMARK SMILES IDX 15 12 11 13 10 14 6 15 7 16 89 17 8 18 9 19 90 20 5 21 1 22
REMARK SMILES IDX 2 23 3 24 92 25 4 26 91 27 24 28 25 29 26 30 27 31 28 32
REMARK SMILES IDX 29 33 30 34 88 35 31 36 87 37 32 38 33 39 34 40 81 41 35 42
REMARK SMILES IDX 86 43 80 44 82 45 36 46 85 47 79 48 78 49 37 51 67 52 48 53
REMARK SMILES IDX 66 54 49 55 52 56 65 57 83 58 50 59 51 60 64 62 84 63 53 64
REMARK SMILES IDX 38 65 39 66 47 67 40 68 46 69 41 70 42 71 43 72 44 73 45 74
REMARK SMILES IDX 68 75 69 76 77 77 70 78 76 79 71 80 72 81 73 82 74 83 75 84
REMARK SMILES IDX 54 85 55 86 63 87 56 88 62 89 57 90 58 91 59 92 60 93 61 94
REMARK H PARENT 82 50 52 61
REMARK Flexibility Score: inf
ROOT
ATOM      1  O   UNL A   1      37.283  22.533  24.729  1.00  0.00    -0.374 OA
ENDROOT
BRANCH   1   2
ATOM      2  C   UNL A   1      36.798  23.676  25.400  1.00  0.00     0.202 C 
BRANCH   2   3
ATOM      3  C   UNL A   1      35.482  23.859  24.764  1.00  0.00     0.261 C 
BRANCH   3   4
ATOM      4  O   UNL A   1      34.404  23.926  25.739  1.00  0.00    -0.460 OA
BRANCH   4   5
ATOM      5  C   UNL A   1      34.039  22.888  26.552  1.00  0.00     0.339 C 
ATOM      6  O   UNL A   1      34.132  22.809  27.748  1.00  0.00    -0.246 OA
BRANCH   5   7
ATOM      7  C   UNL A   1      33.452  21.832  25.694  1.00  0.00     0.073 A 
ATOM      8  C   UNL A   1      32.224  21.983  25.020  1.00  0.00     0.023 A 
ATOM      9  C   UNL A   1      31.850  20.960  24.130  1.00  0.00     0.016 A 
ATOM     10  C   UNL A   1      32.660  19.839  23.914  1.00  0.00     0.001 A 
ATOM     11  C   UNL A   1      34.212  20.655  25.534  1.00  0.00     0.017 A 
ATOM     12  C   UNL A   1      33.830  19.672  24.636  1.00  0.00     0.001 A 
BRANCH   8  13
ATOM     13  S   UNL A   1      30.964  23.221  25.368  1.00  0.00    -0.111 SA
BRANCH  13  14
ATOM     14  C   UNL A   1      31.468  24.750  24.517  1.00  0.00     0.151 C 
ATOM     15  N   UNL A   1      30.565  26.711  23.660  1.00  0.00    -0.250 N 
ATOM     16  C   UNL A   1      31.156  26.073  22.592  1.00  0.00     0.235 C 
ATOM     17  C   UNL A   1      30.697  26.003  24.831  1.00  0.00     0.247 C 
ATOM     18  O   UNL A   1      31.338  26.502  21.461  1.00  0.00    -0.274 OA
ATOM     19  C   UNL A   1      31.412  24.650  23.003  1.00  0.00     0.126 C 
ATOM     20  O   UNL A   1      30.415  26.403  25.953  1.00  0.00    -0.273 OA
BRANCH  15  21
ATOM     21  C   UNL A   1      29.870  27.935  23.568  1.00  0.00     0.052 A 
ATOM     22  C   UNL A   1      27.723  31.654  23.174  1.00  0.00     0.044 C 
ATOM     23  C   UNL A   1      28.474  30.360  23.275  1.00  0.00    -0.051 A 
ATOM     24  C   UNL A   1      29.786  30.343  23.765  1.00  0.00     0.005 A 
ATOM     25  C   UNL A   1      27.863  29.152  22.930  1.00  0.00     0.005 A 
ATOM     26  C   UNL A   1      30.496  29.144  23.868  1.00  0.00     0.027 A 
ATOM     27  C   UNL A   1      28.541  27.946  23.118  1.00  0.00     0.027 A 
ENDBRANCH  15  21
ENDBRANCH  13  14
ENDBRANCH   8  13
ENDBRANCH   5   7
ENDBRANCH   4   5
ENDBRANCH   3   4
ENDBRANCH   2   3
ENDBRANCH   1   2
BRANCH   1  28
ATOM     28  C   UNL A   1      37.574  21.513  25.626  1.00  0.00     0.202 C 
BRANCH  28  29
ATOM     29  C   UNL A   1      39.073  21.432  25.827  1.00  0.00     0.261 C 
BRANCH  29  30
ATOM     30  O   UNL A   1      39.492  22.345  26.874  1.00  0.00    -0.460 OA
BRANCH  30  31
ATOM     31  C   UNL A   1      40.655  23.048  26.696  1.00  0.00     0.338 C 
ATOM     32  O   UNL A   1      41.656  22.579  26.179  1.00  0.00    -0.246 OA
BRANCH  31  33
ATOM     33  C   UNL A   1      40.486  24.501  27.001  1.00  0.00     0.060 A 
ATOM     34  C   UNL A   1      40.720  25.506  26.042  1.00  0.00     0.016 A 
ATOM     35  C   UNL A   1      40.217  24.868  28.312  1.00  0.00     0.016 A 
ATOM     36  C   UNL A   1      40.881  26.851  26.437  1.00  0.00     0.010 A 
ATOM     37  C   UNL A   1      40.426  26.180  28.701  1.00  0.00     0.010 A 
ATOM     38  C   UNL A   1      40.825  27.175  27.790  1.00  0.00    -0.014 A 
BRANCH  38  39
ATOM     39  C   UNL A   1      41.140  28.484  28.402  1.00  0.00     0.031 A 
ATOM     40  C   UNL A   1      40.037  29.460  28.473  1.00  0.00     0.074 A 
ATOM     41  C   UNL A   1      42.265  28.718  29.134  1.00  0.00     0.049 A 
ATOM     42  N   UNL A   1      40.198  30.688  28.811  1.00  0.00    -0.248 NA
ATOM     43  C   UNL A   1      38.649  29.158  28.118  1.00  0.00     0.031 C 
ATOM     44  C   UNL A   1      42.506  29.656  30.239  1.00  0.00     0.029 A 
ATOM     45  N   UNL A   1      43.491  28.062  29.089  1.00  0.00    -0.354 N 
ATOM     46  C   UNL A   1      38.960  31.178  29.135  1.00  0.00     0.074 A 
ATOM     47  C   UNL A   1      38.028  30.274  28.512  1.00  0.00     0.031 C 
ATOM     48  C   UNL A   1      43.830  29.706  30.514  1.00  0.00     0.029 A 
ATOM     49  C   UNL A   1      44.516  28.906  29.504  1.00  0.00     0.049 A 
ATOM     50  H   UNL A   1      43.616  27.129  28.802  1.00  0.00     0.167 HD
ATOM     51  C   UNL A   1      38.893  32.189  30.045  1.00  0.00     0.031 A 
ATOM     52  C   UNL A   1      45.489  29.253  28.618  1.00  0.00     0.031 A 
ATOM     53  C   UNL A   1      40.245  32.665  30.407  1.00  0.00     0.049 A 
ATOM     54  C   UNL A   1      45.320  30.721  28.328  1.00  0.00     0.074 A 
ATOM     55  C   UNL A   1      41.012  32.632  31.560  1.00  0.00     0.029 A 
ATOM     56  N   UNL A   1      41.134  32.987  29.381  1.00  0.00    -0.354 N 
ATOM     57  N   UNL A   1      44.262  31.384  28.706  1.00  0.00    -0.248 NA
ATOM     58  C   UNL A   1      46.274  31.570  27.636  1.00  0.00     0.031 C 
ATOM     59  C   UNL A   1      42.370  32.918  31.199  1.00  0.00     0.029 A 
ATOM     60  C   UNL A   1      42.429  33.158  29.836  1.00  0.00     0.049 A 
ATOM     61  H   UNL A   1      40.869  33.081  28.438  1.00  0.00     0.167 HD
ATOM     62  C   UNL A   1      44.391  32.703  28.439  1.00  0.00     0.074 A 
ATOM     63  C   UNL A   1      45.632  32.756  27.672  1.00  0.00     0.031 C 
ATOM     64  C   UNL A   1      43.467  33.603  28.894  1.00  0.00     0.031 A 
BRANCH  51  65
ATOM     65  C   UNL A   1      37.623  32.611  30.764  1.00  0.00    -0.014 A 
ATOM     66  C   UNL A   1      37.440  33.967  31.101  1.00  0.00     0.010 A 
ATOM     67  C   UNL A   1      36.590  31.740  31.173  1.00  0.00     0.010 A 
ATOM     68  C   UNL A   1      36.310  34.419  31.806  1.00  0.00     0.020 A 
ATOM     69  C   UNL A   1      35.449  32.175  31.865  1.00  0.00     0.020 A 
ATOM     70  C   UNL A   1      35.316  33.518  32.181  1.00  0.00     0.054 A 
BRANCH  70  71
ATOM     71  S   UNL A   1      33.853  34.119  33.063  1.00  0.00     0.124 S 
ATOM     72  O   UNL A   1      33.194  32.877  33.459  1.00  0.00    -0.237 OA
ATOM     73  O   UNL A   1      34.439  34.898  34.151  1.00  0.00    -0.237 OA
ATOM     74  O   UNL A   1      33.136  34.903  32.058  1.00  0.00    -0.744 OA
ENDBRANCH  70  71
ENDBRANCH  51  65
BRANCH  52  75
ATOM     75  C   UNL A   1      45.871  28.141  27.663  1.00  0.00    -0.014 A 
ATOM     76  C   UNL A   1      45.256  28.092  26.385  1.00  0.00     0.010 A 
ATOM     77  C   UNL A   1      47.093  27.456  27.811  1.00  0.00     0.010 A 
ATOM     78  C   UNL A   1      45.894  27.488  25.276  1.00  0.00     0.020 A 
ATOM     79  C   UNL A   1      47.750  26.880  26.700  1.00  0.00     0.020 A 
ATOM     80  C   UNL A   1      47.165  26.929  25.430  1.00  0.00     0.054 A 
BRANCH  80  81
ATOM     81  S   UNL A   1      48.178  26.578  23.940  1.00  0.00     0.124 S 
ATOM     82  O   UNL A   1      47.872  25.180  23.666  1.00  0.00    -0.237 OA
ATOM     83  O   UNL A   1      47.658  27.536  22.963  1.00  0.00    -0.237 OA
ATOM     84  O   UNL A   1      49.538  26.856  24.388  1.00  0.00    -0.744 OA
ENDBRANCH  80  81
ENDBRANCH  52  75
BRANCH  64  85
ATOM     85  C   UNL A   1      43.423  35.030  28.440  1.00  0.00    -0.014 A 
ATOM     86  C   UNL A   1      43.052  35.426  27.154  1.00  0.00     0.010 A 
ATOM     87  C   UNL A   1      43.773  36.049  29.357  1.00  0.00     0.010 A 
ATOM     88  C   UNL A   1      42.875  36.776  26.849  1.00  0.00     0.020 A 
ATOM     89  C   UNL A   1      43.639  37.396  29.057  1.00  0.00     0.020 A 
ATOM     90  C   UNL A   1      43.151  37.749  27.810  1.00  0.00     0.054 A 
BRANCH  90  91
ATOM     91  S   UNL A   1      42.904  39.481  27.389  1.00  0.00     0.124 S 
ATOM     92  O   UNL A   1      43.139  40.144  28.669  1.00  0.00    -0.237 OA
ATOM     93  O   UNL A   1      43.929  39.693  26.372  1.00  0.00    -0.237 OA
ATOM     94  O   UNL A   1      41.525  39.532  26.908  1.00  0.00    -0.744 OA
ENDBRANCH  90  91
ENDBRANCH  64  85
ENDBRANCH  38  39
ENDBRANCH  31  33
ENDBRANCH  30  31
ENDBRANCH  29  30
ENDBRANCH  28  29
ENDBRANCH   1  28
TORSDOF 20
ENDMDL
MODEL 3
REMARK VINA RESULT:     -11.0      2.789      5.902
REMARK SMILES Cc1ccc(N2C(=O)C[C@H](Sc3ccccc3C(=O)OCCOCCOC(=O)c3ccc(-c4c5nc(c(-c6ccc(S(=O)(=O)[O-])cc6)c6ccc([nH]6)c(-c6ccc(S(=O)(=O)[O-])cc6)c6nc(c(-c7ccc(S(=O)(=O)[O-])cc7)c7ccc4[nH]7)C=C6)C=C5)cc3)C2=O)cc1
REMARK SMILES IDX 23 1 22 2 21 3 20 4 18 5 19 6 17 7 12 8 13 9 14 10 16 11
REMARK SMILES IDX 15 12 11 13 10 14 6 15 7 16 89 17 8 18 9 19 90 20 5 21 1 22
REMARK SMILES IDX 2 23 3 24 92 25 4 26 91 27 24 28 25 29 26 30 27 31 28 32
REMARK SMILES IDX 29 33 30 34 88 35 31 36 87 37 32 38 33 39 34 40 81 41 35 42
REMARK SMILES IDX 86 43 80 44 82 45 36 46 85 47 79 48 78 49 37 51 67 52 48 53
REMARK SMILES IDX 66 54 49 55 52 56 65 57 83 58 50 59 51 60 64 62 84 63 53 64
REMARK SMILES IDX 38 65 39 66 47 67 40 68 46 69 41 70 42 71 43 72 44 73 45 74
REMARK SMILES IDX 68 75 69 76 77 77 70 78 76 79 71 80 72 81 73 82 74 83 75 84
REMARK SMILES IDX 54 85 55 86 63 87 56 88 62 89 57 90 58 91 59 92 60 93 61 94
REMARK H PARENT 82 50 52 61
REMARK Flexibility Score: inf
ROOT
ATOM      1  O   UNL A   1      34.393  24.390  23.597  1.00  0.00    -0.374 OA
ENDROOT
BRANCH   1   2
ATOM      2  C   UNL A   1      34.189  25.052  24.827  1.00  0.00     0.202 C 
BRANCH   2   3
ATOM      3  C   UNL A   1      33.058  24.295  25.389  1.00  0.00     0.261 C 
BRANCH   3   4
ATOM      4  O   UNL A   1      31.776  24.774  24.895  1.00  0.00    -0.460 OA
BRANCH   4   5
ATOM      5  C   UNL A   1      30.890  25.503  25.640  1.00  0.00     0.339 C 
ATOM      6  O   UNL A   1      30.374  25.207  26.684  1.00  0.00    -0.246 OA
BRANCH   5   7
ATOM      7  C   UNL A   1      30.678  26.794  24.945  1.00  0.00     0.073 A 
ATOM      8  C   UNL A   1      31.447  27.945  25.208  1.00  0.00     0.023 A 
ATOM      9  C   UNL A   1      31.233  29.063  24.381  1.00  0.00     0.016 A 
ATOM     10  C   UNL A   1      30.301  29.039  23.337  1.00  0.00     0.001 A 
ATOM     11  C   UNL A   1      29.679  26.817  23.949  1.00  0.00     0.017 A 
ATOM     12  C   UNL A   1      29.503  27.924  23.137  1.00  0.00     0.001 A 
BRANCH   8  13
ATOM     13  S   UNL A   1      32.491  28.222  26.649  1.00  0.00    -0.111 SA
BRANCH  13  14
ATOM     14  C   UNL A   1      33.132  29.922  26.524  1.00  0.00     0.151 C 
ATOM     15  N   UNL A   1      34.251  31.517  27.787  1.00  0.00    -0.250 N 
ATOM     16  C   UNL A   1      33.041  32.086  27.454  1.00  0.00     0.235 C 
ATOM     17  C   UNL A   1      34.389  30.245  27.285  1.00  0.00     0.247 C 
ATOM     18  O   UNL A   1      32.677  33.241  27.621  1.00  0.00    -0.274 OA
ATOM     19  C   UNL A   1      32.141  30.980  26.977  1.00  0.00     0.126 C 
ATOM     20  O   UNL A   1      35.412  29.574  27.286  1.00  0.00    -0.273 OA
BRANCH  15  21
ATOM     21  C   UNL A   1      35.232  32.147  28.582  1.00  0.00     0.052 A 
ATOM     22  C   UNL A   1      38.150  34.157  31.039  1.00  0.00     0.044 C 
ATOM     23  C   UNL A   1      37.117  33.489  30.182  1.00  0.00    -0.051 A 
ATOM     24  C   UNL A   1      37.409  33.163  28.852  1.00  0.00     0.005 A 
ATOM     25  C   UNL A   1      35.871  33.140  30.709  1.00  0.00     0.005 A 
ATOM     26  C   UNL A   1      36.457  32.537  28.042  1.00  0.00     0.027 A 
ATOM     27  C   UNL A   1      34.954  32.435  29.927  1.00  0.00     0.027 A 
ENDBRANCH  15  21
ENDBRANCH  13  14
ENDBRANCH   8  13
ENDBRANCH   5   7
ENDBRANCH   4   5
ENDBRANCH   3   4
ENDBRANCH   2   3
ENDBRANCH   1   2
BRANCH   1  28
ATOM     28  C   UNL A   1      34.587  23.028  23.789  1.00  0.00     0.202 C 
BRANCH  28  29
ATOM     29  C   UNL A   1      36.031  22.679  23.495  1.00  0.00     0.261 C 
BRANCH  29  30
ATOM     30  O   UNL A   1      36.503  21.662  24.417  1.00  0.00    -0.460 OA
BRANCH  30  31
ATOM     31  C   UNL A   1      36.644  21.999  25.738  1.00  0.00     0.338 C 
ATOM     32  O   UNL A   1      35.893  21.612  26.619  1.00  0.00    -0.246 OA
BRANCH  31  33
ATOM     33  C   UNL A   1      37.936  22.702  26.003  1.00  0.00     0.060 A 
ATOM     34  C   UNL A   1      39.040  22.056  26.591  1.00  0.00     0.016 A 
ATOM     35  C   UNL A   1      37.993  24.071  25.780  1.00  0.00     0.016 A 
ATOM     36  C   UNL A   1      40.106  22.807  27.132  1.00  0.00     0.010 A 
ATOM     37  C   UNL A   1      39.016  24.805  26.356  1.00  0.00     0.010 A 
ATOM     38  C   UNL A   1      40.048  24.197  27.095  1.00  0.00    -0.014 A 
BRANCH  38  39
ATOM     39  C   UNL A   1      40.972  25.142  27.758  1.00  0.00     0.031 A 
ATOM     40  C   UNL A   1      40.408  26.446  28.154  1.00  0.00     0.074 A 
ATOM     41  C   UNL A   1      42.185  24.777  28.261  1.00  0.00     0.049 A 
ATOM     42  N   UNL A   1      41.121  27.428  28.573  1.00  0.00    -0.248 NA
ATOM     43  C   UNL A   1      38.987  26.787  28.066  1.00  0.00     0.031 C 
ATOM     44  C   UNL A   1      42.959  25.330  29.381  1.00  0.00     0.029 A 
ATOM     45  N   UNL A   1      42.998  23.709  27.897  1.00  0.00    -0.354 N 
ATOM     46  C   UNL A   1      40.267  28.302  29.195  1.00  0.00     0.074 A 
ATOM     47  C   UNL A   1      38.961  27.968  28.691  1.00  0.00     0.031 C 
ATOM     48  C   UNL A   1      44.205  24.802  29.378  1.00  0.00     0.029 A 
ATOM     49  C   UNL A   1      44.331  23.989  28.173  1.00  0.00     0.049 A 
ATOM     50  H   UNL A   1      42.674  22.870  27.497  1.00  0.00     0.167 HD
ATOM     51  C   UNL A   1      40.768  29.078  30.197  1.00  0.00     0.031 A 
ATOM     52  C   UNL A   1      45.218  24.073  27.144  1.00  0.00     0.031 A 
ATOM     53  C   UNL A   1      42.232  28.906  30.317  1.00  0.00     0.049 A 
ATOM     54  C   UNL A   1      45.645  25.514  27.045  1.00  0.00     0.074 A 
ATOM     55  C   UNL A   1      43.073  28.368  31.276  1.00  0.00     0.029 A 
ATOM     56  N   UNL A   1      43.013  29.027  29.166  1.00  0.00    -0.354 N 
ATOM     57  N   UNL A   1      45.034  26.464  27.699  1.00  0.00    -0.248 NA
ATOM     58  C   UNL A   1      46.755  26.024  26.259  1.00  0.00     0.031 C 
ATOM     59  C   UNL A   1      44.356  28.152  30.672  1.00  0.00     0.029 A 
ATOM     60  C   UNL A   1      44.309  28.587  29.357  1.00  0.00     0.049 A 
ATOM     61  H   UNL A   1      42.677  29.385  28.313  1.00  0.00     0.167 HD
ATOM     62  C   UNL A   1      45.668  27.648  27.546  1.00  0.00     0.074 A 
ATOM     63  C   UNL A   1      46.688  27.341  26.548  1.00  0.00     0.031 C 
ATOM     64  C   UNL A   1      45.288  28.744  28.271  1.00  0.00     0.031 A 
BRANCH  51  65
ATOM     65  C   UNL A   1      39.916  29.833  31.201  1.00  0.00    -0.014 A 
ATOM     66  C   UNL A   1      40.535  30.736  32.089  1.00  0.00     0.010 A 
ATOM     67  C   UNL A   1      38.521  29.685  31.362  1.00  0.00     0.010 A 
ATOM     68  C   UNL A   1      39.812  31.435  33.073  1.00  0.00     0.020 A 
ATOM     69  C   UNL A   1      37.783  30.383  32.330  1.00  0.00     0.020 A 
ATOM     70  C   UNL A   1      38.436  31.256  33.185  1.00  0.00     0.054 A 
BRANCH  70  71
ATOM     71  S   UNL A   1      37.515  32.183  34.440  1.00  0.00     0.124 S 
ATOM     72  O   UNL A   1      37.718  31.374  35.639  1.00  0.00    -0.237 OA
ATOM     73  O   UNL A   1      38.187  33.479  34.431  1.00  0.00    -0.237 OA
ATOM     74  O   UNL A   1      36.144  32.194  33.930  1.00  0.00    -0.744 OA
ENDBRANCH  70  71
ENDBRANCH  51  65
BRANCH  52  75
ATOM     75  C   UNL A   1      44.950  23.090  26.024  1.00  0.00    -0.014 A 
ATOM     76  C   UNL A   1      46.043  22.613  25.253  1.00  0.00     0.010 A 
ATOM     77  C   UNL A   1      43.775  22.313  26.016  1.00  0.00     0.010 A 
ATOM     78  C   UNL A   1      46.002  21.357  24.604  1.00  0.00     0.020 A 
ATOM     79  C   UNL A   1      43.741  21.043  25.397  1.00  0.00     0.020 A 
ATOM     80  C   UNL A   1      44.865  20.554  24.724  1.00  0.00     0.054 A 
BRANCH  80  81
ATOM     81  S   UNL A   1      44.976  18.772  24.297  1.00  0.00     0.124 S 
ATOM     82  O   UNL A   1      43.751  18.228  24.868  1.00  0.00    -0.237 OA
ATOM     83  O   UNL A   1      45.031  18.793  22.835  1.00  0.00    -0.237 OA
ATOM     84  O   UNL A   1      46.217  18.353  24.938  1.00  0.00    -0.744 OA
ENDBRANCH  80  81
ENDBRANCH  52  75
BRANCH  64  85
ATOM     85  C   UNL A   1      45.785  30.128  27.982  1.00  0.00    -0.014 A 
ATOM     86  C   UNL A   1      46.946  30.668  28.536  1.00  0.00     0.010 A 
ATOM     87  C   UNL A   1      45.047  30.945  27.094  1.00  0.00     0.010 A 
ATOM     88  C   UNL A   1      47.437  31.898  28.098  1.00  0.00     0.020 A 
ATOM     89  C   UNL A   1      45.503  32.188  26.677  1.00  0.00     0.020 A 
ATOM     90  C   UNL A   1      46.721  32.638  27.156  1.00  0.00     0.054 A 
BRANCH  90  91
ATOM     91  S   UNL A   1      47.385  34.216  26.603  1.00  0.00     0.124 S 
ATOM     92  O   UNL A   1      46.231  34.822  25.944  1.00  0.00    -0.237 OA
ATOM     93  O   UNL A   1      47.786  34.833  27.864  1.00  0.00    -0.237 OA
ATOM     94  O   UNL A   1      48.483  33.843  25.713  1.00  0.00    -0.744 OA
ENDBRANCH  90  91
ENDBRANCH  64  85
ENDBRANCH  38  39
ENDBRANCH  31  33
ENDBRANCH  30  31
ENDBRANCH  29  30
ENDBRANCH  28  29
ENDBRANCH   1  28
TORSDOF 20
ENDMDL
