MODEL 1
REMARK VINA RESULT:     -11.4      0.000      0.000
REMARK SMILES COC(=O)c1ccc2c(c1)=N[C@H](c1cn(CCC(=O)OCCOCCOC(=O)c3ccc(-c4c5nc(c(-c6ccc(S(=O)(=O)[O-])cc6)c6ccc([nH]6)c(-c6ccc(S(=O)(=O)[O-])cc6)c6nc(c(-c7ccc(S(=O)(=O)[O-])cc7)c7ccc4[nH]7)C=C6)C=C5)cc3)c3ccccc13)N=2
REMARK SMILES IDX 22 1 21 2 20 3 18 4 19 5 17 6 16 7 15 8 13 9 14 10 94 11
REMARK SMILES IDX 89 12 93 13 90 14 92 15 91 16 12 17 5 18 6 19 10 20 7 21
REMARK SMILES IDX 9 22 8 23 11 24 95 25 3 26 4 27 2 28 1 29 23 30 24 31 25 32
REMARK SMILES IDX 26 33 27 34 28 35 29 36 30 37 88 38 31 39 87 40 32 41 33 42
REMARK SMILES IDX 34 43 81 44 35 45 86 46 80 47 82 48 36 49 85 50 79 51 78 52
REMARK SMILES IDX 37 54 67 55 48 56 66 57 49 58 52 59 65 60 83 61 50 62 51 63
REMARK SMILES IDX 64 65 84 66 53 67 38 68 39 69 47 70 40 71 46 72 41 73 42 74
REMARK SMILES IDX 43 75 44 76 45 77 68 78 69 79 77 80 70 81 76 82 71 83 72 84
REMARK SMILES IDX 73 85 74 86 75 87 54 88 55 89 63 90 56 91 62 92 57 93 58 94
REMARK SMILES IDX 59 95 60 96 61 97
REMARK H PARENT 82 53 52 64
REMARK Flexibility Score: inf
ROOT
ATOM      1  C   UNL A   1      33.518  31.662  27.931  1.00  0.00     0.202 C 
ENDROOT
BRANCH   1   2
ATOM      2  C   UNL A   1      32.440  31.499  26.854  1.00  0.00     0.261 C 
BRANCH   2   3
ATOM      3  O   UNL A   1      32.758  30.432  25.938  1.00  0.00    -0.463 OA
BRANCH   3   4
ATOM      4  C   UNL A   1      31.790  29.515  25.703  1.00  0.00     0.307 C 
ATOM      5  O   UNL A   1      31.021  29.520  24.750  1.00  0.00    -0.252 OA
BRANCH   4   6
ATOM      6  C   UNL A   1      31.798  28.419  26.739  1.00  0.00     0.144 C 
BRANCH   6   7
ATOM      7  C   UNL A   1      33.127  27.664  26.824  1.00  0.00     0.134 C 
BRANCH   7   8
ATOM      8  N   UNL A   1      33.147  26.448  26.031  1.00  0.00    -0.346 N 
ATOM      9  C   UNL A   1      33.361  25.154  24.276  1.00  0.00     0.024 A 
ATOM     10  C   UNL A   1      34.037  26.120  25.032  1.00  0.00     0.094 A 
ATOM     11  C   UNL A   1      31.961  25.336  24.661  1.00  0.00     0.007 A 
ATOM     12  C   UNL A   1      32.238  25.418  26.035  1.00  0.00     0.048 A 
ATOM     13  C   UNL A   1      30.805  24.611  24.337  1.00  0.00     0.011 A 
ATOM     14  C   UNL A   1      32.089  24.258  26.812  1.00  0.00     0.027 A 
ATOM     15  C   UNL A   1      30.627  23.432  25.046  1.00  0.00     0.001 A 
ATOM     16  C   UNL A   1      31.380  23.209  26.201  1.00  0.00     0.002 A 
BRANCH   9  17
ATOM     17  C   UNL A   1      33.990  24.028  23.477  1.00  0.00     0.255 C 
ATOM     18  C   UNL A   1      32.983  19.629  24.092  1.00  0.00     0.062 A 
ATOM     19  C   UNL A   1      32.151  19.915  22.928  1.00  0.00     0.018 A 
ATOM     20  C   UNL A   1      33.730  20.583  24.681  1.00  0.00     0.046 A 
ATOM     21  C   UNL A   1      32.089  21.124  22.344  1.00  0.00     0.031 A 
ATOM     22  C   UNL A   1      33.741  21.933  24.090  1.00  0.00     0.087 A 
ATOM     23  C   UNL A   1      32.915  22.209  22.900  1.00  0.00     0.086 A 
ATOM     24  N   UNL A   1      34.436  22.958  24.443  1.00  0.00    -0.252 NA
ATOM     25  N   UNL A   1      33.067  23.415  22.477  1.00  0.00    -0.252 NA
BRANCH  18  26
ATOM     26  C   UNL A   1      33.053  18.262  24.707  1.00  0.00     0.337 C 
ATOM     27  O   UNL A   1      32.230  17.824  25.496  1.00  0.00    -0.246 OA
BRANCH  26  28
ATOM     28  O   UNL A   1      34.178  17.612  24.306  1.00  0.00    -0.465 OA
ATOM     29  C   UNL A   1      34.408  16.361  24.966  1.00  0.00     0.282 C 
ENDBRANCH  26  28
ENDBRANCH  18  26
ENDBRANCH   9  17
ENDBRANCH   7   8
ENDBRANCH   6   7
ENDBRANCH   4   6
ENDBRANCH   3   4
ENDBRANCH   2   3
ENDBRANCH   1   2
BRANCH   1  30
ATOM     30  O   UNL A   1      34.712  32.350  27.525  1.00  0.00    -0.374 OA
BRANCH  30  31
ATOM     31  C   UNL A   1      34.810  33.691  28.004  1.00  0.00     0.202 C 
BRANCH  31  32
ATOM     32  C   UNL A   1      34.267  33.905  29.422  1.00  0.00     0.261 C 
BRANCH  32  33
ATOM     33  O   UNL A   1      35.315  33.713  30.381  1.00  0.00    -0.460 OA
BRANCH  33  34
ATOM     34  C   UNL A   1      35.064  32.820  31.369  1.00  0.00     0.338 C 
ATOM     35  O   UNL A   1      33.988  32.573  31.885  1.00  0.00    -0.246 OA
BRANCH  34  36
ATOM     36  C   UNL A   1      36.280  31.994  31.500  1.00  0.00     0.060 A 
ATOM     37  C   UNL A   1      37.530  32.591  31.573  1.00  0.00     0.016 A 
ATOM     38  C   UNL A   1      36.177  30.621  31.309  1.00  0.00     0.016 A 
ATOM     39  C   UNL A   1      38.667  31.870  31.243  1.00  0.00     0.010 A 
ATOM     40  C   UNL A   1      37.332  29.873  31.073  1.00  0.00     0.010 A 
ATOM     41  C   UNL A   1      38.574  30.503  30.950  1.00  0.00    -0.014 A 
BRANCH  41  42
ATOM     42  C   UNL A   1      39.826  29.795  30.613  1.00  0.00     0.031 A 
ATOM     43  C   UNL A   1      40.736  29.524  31.777  1.00  0.00     0.074 A 
ATOM     44  C   UNL A   1      40.144  29.311  29.391  1.00  0.00     0.049 A 
ATOM     45  N   UNL A   1      41.980  29.855  31.926  1.00  0.00    -0.248 NA
ATOM     46  C   UNL A   1      40.133  28.917  32.977  1.00  0.00     0.031 C 
ATOM     47  C   UNL A   1      39.317  29.280  28.181  1.00  0.00     0.029 A 
ATOM     48  N   UNL A   1      41.258  28.618  29.003  1.00  0.00    -0.354 N 
ATOM     49  C   UNL A   1      42.366  29.359  33.171  1.00  0.00     0.074 A 
ATOM     50  C   UNL A   1      41.161  28.917  33.824  1.00  0.00     0.031 C 
ATOM     51  C   UNL A   1      39.821  28.373  27.315  1.00  0.00     0.029 A 
ATOM     52  C   UNL A   1      41.088  27.888  27.829  1.00  0.00     0.049 A 
ATOM     53  H   UNL A   1      42.104  28.633  29.508  1.00  0.00     0.167 HD
ATOM     54  C   UNL A   1      43.669  29.185  33.536  1.00  0.00     0.031 A 
ATOM     55  C   UNL A   1      41.893  26.907  27.343  1.00  0.00     0.031 A 
ATOM     56  C   UNL A   1      44.572  29.950  32.726  1.00  0.00     0.049 A 
ATOM     57  C   UNL A   1      43.225  27.080  27.963  1.00  0.00     0.074 A 
ATOM     58  C   UNL A   1      44.778  31.297  32.512  1.00  0.00     0.029 A 
ATOM     59  N   UNL A   1      45.235  29.301  31.715  1.00  0.00    -0.354 N 
ATOM     60  N   UNL A   1      44.012  28.088  27.719  1.00  0.00    -0.248 NA
ATOM     61  C   UNL A   1      43.516  26.329  29.171  1.00  0.00     0.031 C 
ATOM     62  C   UNL A   1      45.125  31.399  31.135  1.00  0.00     0.029 A 
ATOM     63  C   UNL A   1      45.171  30.108  30.609  1.00  0.00     0.049 A 
ATOM     64  H   UNL A   1      45.673  28.421  31.773  1.00  0.00     0.167 HD
ATOM     65  C   UNL A   1      44.609  28.365  28.939  1.00  0.00     0.074 A 
ATOM     66  C   UNL A   1      44.334  27.195  29.771  1.00  0.00     0.031 C 
ATOM     67  C   UNL A   1      45.041  29.621  29.250  1.00  0.00     0.031 A 
BRANCH  54  68
ATOM     68  C   UNL A   1      44.131  28.081  34.456  1.00  0.00    -0.014 A 
ATOM     69  C   UNL A   1      43.957  26.716  34.145  1.00  0.00     0.010 A 
ATOM     70  C   UNL A   1      44.971  28.379  35.549  1.00  0.00     0.010 A 
ATOM     71  C   UNL A   1      44.545  25.699  34.896  1.00  0.00     0.020 A 
ATOM     72  C   UNL A   1      45.606  27.365  36.284  1.00  0.00     0.020 A 
ATOM     73  C   UNL A   1      45.376  26.030  35.959  1.00  0.00     0.054 A 
BRANCH  73  74
ATOM     74  S   UNL A   1      46.188  24.680  36.848  1.00  0.00     0.124 S 
ATOM     75  O   UNL A   1      47.072  24.135  35.820  1.00  0.00    -0.237 OA
ATOM     76  O   UNL A   1      46.851  25.381  37.943  1.00  0.00    -0.237 OA
ATOM     77  O   UNL A   1      45.081  23.814  37.243  1.00  0.00    -0.744 OA
ENDBRANCH  73  74
ENDBRANCH  54  68
BRANCH  55  78
ATOM     78  C   UNL A   1      41.472  25.597  26.776  1.00  0.00    -0.014 A 
ATOM     79  C   UNL A   1      40.249  25.020  27.175  1.00  0.00     0.010 A 
ATOM     80  C   UNL A   1      42.409  24.765  26.129  1.00  0.00     0.010 A 
ATOM     81  C   UNL A   1      40.010  23.649  27.027  1.00  0.00     0.020 A 
ATOM     82  C   UNL A   1      42.176  23.387  25.980  1.00  0.00     0.020 A 
ATOM     83  C   UNL A   1      40.993  22.833  26.471  1.00  0.00     0.054 A 
BRANCH  83  84
ATOM     84  S   UNL A   1      40.735  21.034  26.506  1.00  0.00     0.124 S 
ATOM     85  O   UNL A   1      41.877  20.551  25.734  1.00  0.00    -0.237 OA
ATOM     86  O   UNL A   1      40.777  20.737  27.936  1.00  0.00    -0.237 OA
ATOM     87  O   UNL A   1      39.432  20.858  25.874  1.00  0.00    -0.744 OA
ENDBRANCH  83  84
ENDBRANCH  55  78
BRANCH  67  88
ATOM     88  C   UNL A   1      45.142  30.666  28.159  1.00  0.00    -0.014 A 
ATOM     89  C   UNL A   1      46.419  31.199  27.900  1.00  0.00     0.010 A 
ATOM     90  C   UNL A   1      44.029  31.267  27.538  1.00  0.00     0.010 A 
ATOM     91  C   UNL A   1      46.582  32.321  27.087  1.00  0.00     0.020 A 
ATOM     92  C   UNL A   1      44.189  32.380  26.694  1.00  0.00     0.020 A 
ATOM     93  C   UNL A   1      45.465  32.914  26.497  1.00  0.00     0.054 A 
BRANCH  93  94
ATOM     94  S   UNL A   1      45.723  34.407  25.498  1.00  0.00     0.124 S 
ATOM     95  O   UNL A   1      44.919  34.128  24.311  1.00  0.00    -0.237 OA
ATOM     96  O   UNL A   1      45.209  35.466  26.363  1.00  0.00    -0.237 OA
ATOM     97  O   UNL A   1      47.167  34.439  25.274  1.00  0.00    -0.744 OA
ENDBRANCH  93  94
ENDBRANCH  67  88
ENDBRANCH  41  42
ENDBRANCH  34  36
ENDBRANCH  33  34
ENDBRANCH  32  33
ENDBRANCH  31  32
ENDBRANCH  30  31
ENDBRANCH   1  30
TORSDOF 22
ENDMDL
MODEL 2
REMARK VINA RESULT:     -11.4      3.312      8.649
REMARK SMILES COC(=O)c1ccc2c(c1)=N[C@H](c1cn(CCC(=O)OCCOCCOC(=O)c3ccc(-c4c5nc(c(-c6ccc(S(=O)(=O)[O-])cc6)c6ccc([nH]6)c(-c6ccc(S(=O)(=O)[O-])cc6)c6nc(c(-c7ccc(S(=O)(=O)[O-])cc7)c7ccc4[nH]7)C=C6)C=C5)cc3)c3ccccc13)N=2
REMARK SMILES IDX 22 1 21 2 20 3 18 4 19 5 17 6 16 7 15 8 13 9 14 10 94 11
REMARK SMILES IDX 89 12 93 13 90 14 92 15 91 16 12 17 5 18 6 19 10 20 7 21
REMARK SMILES IDX 9 22 8 23 11 24 95 25 3 26 4 27 2 28 1 29 23 30 24 31 25 32
REMARK SMILES IDX 26 33 27 34 28 35 29 36 30 37 88 38 31 39 87 40 32 41 33 42
REMARK SMILES IDX 34 43 81 44 35 45 86 46 80 47 82 48 36 49 85 50 79 51 78 52
REMARK SMILES IDX 37 54 67 55 48 56 66 57 49 58 52 59 65 60 83 61 50 62 51 63
REMARK SMILES IDX 64 65 84 66 53 67 38 68 39 69 47 70 40 71 46 72 41 73 42 74
REMARK SMILES IDX 43 75 44 76 45 77 68 78 69 79 77 80 70 81 76 82 71 83 72 84
REMARK SMILES IDX 73 85 74 86 75 87 54 88 55 89 63 90 56 91 62 92 57 93 58 94
REMARK SMILES IDX 59 95 60 96 61 97
REMARK H PARENT 82 53 52 64
REMARK Flexibility Score: inf
ROOT
ATOM      1  C   UNL A   1      32.631  20.736  25.598  1.00  0.00     0.202 C 
ENDROOT
BRANCH   1   2
ATOM      2  C   UNL A   1      31.749  21.949  25.288  1.00  0.00     0.261 C 
BRANCH   2   3
ATOM      3  O   UNL A   1      30.477  21.871  25.962  1.00  0.00    -0.463 OA
BRANCH   3   4
ATOM      4  C   UNL A   1      30.203  22.835  26.873  1.00  0.00     0.307 C 
ATOM      5  O   UNL A   1      29.486  22.702  27.857  1.00  0.00    -0.252 OA
BRANCH   4   6
ATOM      6  C   UNL A   1      30.945  24.113  26.571  1.00  0.00     0.144 C 
BRANCH   6   7
ATOM      7  C   UNL A   1      30.047  25.235  26.046  1.00  0.00     0.134 C 
BRANCH   7   8
ATOM      8  N   UNL A   1      30.791  26.355  25.496  1.00  0.00    -0.346 N 
ATOM      9  C   UNL A   1      31.728  28.333  25.387  1.00  0.00     0.024 A 
ATOM     10  C   UNL A   1      31.688  27.164  26.158  1.00  0.00     0.094 A 
ATOM     11  C   UNL A   1      30.508  28.254  24.583  1.00  0.00     0.007 A 
ATOM     12  C   UNL A   1      30.692  26.905  24.241  1.00  0.00     0.048 A 
ATOM     13  C   UNL A   1      30.024  29.063  23.544  1.00  0.00     0.011 A 
ATOM     14  C   UNL A   1      31.285  26.609  23.002  1.00  0.00     0.027 A 
ATOM     15  C   UNL A   1      30.605  28.842  22.303  1.00  0.00     0.001 A 
ATOM     16  C   UNL A   1      31.350  27.680  22.094  1.00  0.00     0.002 A 
BRANCH   9  17
ATOM     17  C   UNL A   1      32.902  29.282  25.245  1.00  0.00     0.255 C 
ATOM     18  C   UNL A   1      34.799  31.490  28.747  1.00  0.00     0.062 A 
ATOM     19  C   UNL A   1      35.745  30.388  28.605  1.00  0.00     0.018 A 
ATOM     20  C   UNL A   1      33.707  31.592  27.965  1.00  0.00     0.046 A 
ATOM     21  C   UNL A   1      35.620  29.422  27.679  1.00  0.00     0.031 A 
ATOM     22  C   UNL A   1      33.504  30.588  26.906  1.00  0.00     0.087 A 
ATOM     23  C   UNL A   1      34.477  29.490  26.753  1.00  0.00     0.086 A 
ATOM     24  N   UNL A   1      32.582  30.544  26.009  1.00  0.00    -0.252 NA
ATOM     25  N   UNL A   1      34.189  28.725  25.759  1.00  0.00    -0.252 NA
BRANCH  18  26
ATOM     26  C   UNL A   1      34.980  32.569  29.774  1.00  0.00     0.337 C 
ATOM     27  O   UNL A   1      35.013  32.369  30.979  1.00  0.00    -0.246 OA
BRANCH  26  28
ATOM     28  O   UNL A   1      35.046  33.791  29.180  1.00  0.00    -0.465 OA
ATOM     29  C   UNL A   1      36.318  34.440  29.296  1.00  0.00     0.282 C 
ENDBRANCH  26  28
ENDBRANCH  18  26
ENDBRANCH   9  17
ENDBRANCH   7   8
ENDBRANCH   6   7
ENDBRANCH   4   6
ENDBRANCH   3   4
ENDBRANCH   2   3
ENDBRANCH   1   2
BRANCH   1  30
ATOM     30  O   UNL A   1      33.597  20.912  26.647  1.00  0.00    -0.374 OA
BRANCH  30  31
ATOM     31  C   UNL A   1      34.836  21.474  26.216  1.00  0.00     0.202 C 
BRANCH  31  32
ATOM     32  C   UNL A   1      35.570  20.659  25.143  1.00  0.00     0.261 C 
BRANCH  32  33
ATOM     33  O   UNL A   1      36.987  20.791  25.314  1.00  0.00    -0.460 OA
BRANCH  33  34
ATOM     34  C   UNL A   1      37.542  21.934  24.843  1.00  0.00     0.338 C 
ATOM     35  O   UNL A   1      37.301  22.491  23.785  1.00  0.00    -0.246 OA
BRANCH  34  36
ATOM     36  C   UNL A   1      38.274  22.537  25.974  1.00  0.00     0.060 A 
ATOM     37  C   UNL A   1      37.983  23.828  26.389  1.00  0.00     0.016 A 
ATOM     38  C   UNL A   1      39.408  21.891  26.455  1.00  0.00     0.016 A 
ATOM     39  C   UNL A   1      38.920  24.556  27.105  1.00  0.00     0.010 A 
ATOM     40  C   UNL A   1      40.307  22.593  27.259  1.00  0.00     0.010 A 
ATOM     41  C   UNL A   1      40.117  23.955  27.517  1.00  0.00    -0.014 A 
BRANCH  41  42
ATOM     42  C   UNL A   1      41.066  24.788  28.282  1.00  0.00     0.031 A 
ATOM     43  C   UNL A   1      40.626  26.206  28.513  1.00  0.00     0.074 A 
ATOM     44  C   UNL A   1      42.213  24.345  28.848  1.00  0.00     0.049 A 
ATOM     45  N   UNL A   1      41.245  27.304  28.212  1.00  0.00    -0.248 NA
ATOM     46  C   UNL A   1      39.261  26.412  29.029  1.00  0.00     0.031 C 
ATOM     47  C   UNL A   1      42.718  22.972  28.924  1.00  0.00     0.029 A 
ATOM     48  N   UNL A   1      43.126  25.037  29.597  1.00  0.00    -0.354 N 
ATOM     49  C   UNL A   1      40.421  28.343  28.646  1.00  0.00     0.074 A 
ATOM     50  C   UNL A   1      39.165  27.740  29.011  1.00  0.00     0.031 C 
ATOM     51  C   UNL A   1      43.654  22.890  29.896  1.00  0.00     0.029 A 
ATOM     52  C   UNL A   1      43.935  24.226  30.388  1.00  0.00     0.049 A 
ATOM     53  H   UNL A   1      43.203  26.018  29.578  1.00  0.00     0.167 HD
ATOM     54  C   UNL A   1      40.864  29.619  28.838  1.00  0.00     0.031 A 
ATOM     55  C   UNL A   1      44.730  24.610  31.421  1.00  0.00     0.031 A 
ATOM     56  C   UNL A   1      42.096  29.881  28.151  1.00  0.00     0.049 A 
ATOM     57  C   UNL A   1      45.006  26.054  31.253  1.00  0.00     0.074 A 
ATOM     58  C   UNL A   1      42.478  29.913  26.826  1.00  0.00     0.029 A 
ATOM     59  N   UNL A   1      43.258  29.843  28.878  1.00  0.00    -0.354 N 
ATOM     60  N   UNL A   1      45.725  26.547  30.286  1.00  0.00    -0.248 NA
ATOM     61  C   UNL A   1      44.141  26.996  31.940  1.00  0.00     0.031 C 
ATOM     62  C   UNL A   1      43.805  29.399  26.816  1.00  0.00     0.029 A 
ATOM     63  C   UNL A   1      44.175  29.144  28.137  1.00  0.00     0.049 A 
ATOM     64  H   UNL A   1      43.406  30.242  29.766  1.00  0.00     0.167 HD
ATOM     65  C   UNL A   1      45.095  27.736  29.957  1.00  0.00     0.074 A 
ATOM     66  C   UNL A   1      44.182  28.002  31.066  1.00  0.00     0.031 C 
ATOM     67  C   UNL A   1      45.174  28.258  28.698  1.00  0.00     0.031 A 
BRANCH  54  68
ATOM     68  C   UNL A   1      40.310  30.537  29.900  1.00  0.00    -0.014 A 
ATOM     69  C   UNL A   1      39.148  31.312  29.697  1.00  0.00     0.010 A 
ATOM     70  C   UNL A   1      40.802  30.466  31.220  1.00  0.00     0.010 A 
ATOM     71  C   UNL A   1      38.530  32.014  30.731  1.00  0.00     0.020 A 
ATOM     72  C   UNL A   1      40.161  31.131  32.278  1.00  0.00     0.020 A 
ATOM     73  C   UNL A   1      39.035  31.911  32.022  1.00  0.00     0.054 A 
BRANCH  73  74
ATOM     74  S   UNL A   1      38.148  32.766  33.346  1.00  0.00     0.124 S 
ATOM     75  O   UNL A   1      37.651  33.953  32.654  1.00  0.00    -0.237 OA
ATOM     76  O   UNL A   1      37.133  31.788  33.726  1.00  0.00    -0.237 OA
ATOM     77  O   UNL A   1      39.181  33.013  34.348  1.00  0.00    -0.744 OA
ENDBRANCH  73  74
ENDBRANCH  54  68
BRANCH  55  78
ATOM     78  C   UNL A   1      44.862  23.950  32.749  1.00  0.00    -0.014 A 
ATOM     79  C   UNL A   1      46.048  24.103  33.494  1.00  0.00     0.010 A 
ATOM     80  C   UNL A   1      43.986  22.908  33.118  1.00  0.00     0.010 A 
ATOM     81  C   UNL A   1      46.398  23.195  34.499  1.00  0.00     0.020 A 
ATOM     82  C   UNL A   1      44.332  21.991  34.125  1.00  0.00     0.020 A 
ATOM     83  C   UNL A   1      45.558  22.118  34.779  1.00  0.00     0.054 A 
BRANCH  83  84
ATOM     84  S   UNL A   1      46.154  20.842  35.927  1.00  0.00     0.124 S 
ATOM     85  O   UNL A   1      46.051  21.523  37.214  1.00  0.00    -0.237 OA
ATOM     86  O   UNL A   1      45.199  19.757  35.715  1.00  0.00    -0.237 OA
ATOM     87  O   UNL A   1      47.513  20.570  35.469  1.00  0.00    -0.744 OA
ENDBRANCH  83  84
ENDBRANCH  55  78
BRANCH  67  88
ATOM     88  C   UNL A   1      46.190  27.701  27.723  1.00  0.00    -0.014 A 
ATOM     89  C   UNL A   1      47.298  28.514  27.419  1.00  0.00     0.010 A 
ATOM     90  C   UNL A   1      45.995  26.527  26.967  1.00  0.00     0.010 A 
ATOM     91  C   UNL A   1      48.160  28.197  26.369  1.00  0.00     0.020 A 
ATOM     92  C   UNL A   1      46.876  26.187  25.926  1.00  0.00     0.020 A 
ATOM     93  C   UNL A   1      47.938  27.042  25.619  1.00  0.00     0.054 A 
BRANCH  93  94
ATOM     94  S   UNL A   1      49.051  26.706  24.226  1.00  0.00     0.124 S 
ATOM     95  O   UNL A   1      49.369  28.051  23.752  1.00  0.00    -0.237 OA
ATOM     96  O   UNL A   1      50.156  25.992  24.861  1.00  0.00    -0.237 OA
ATOM     97  O   UNL A   1      48.242  25.903  23.312  1.00  0.00    -0.744 OA
ENDBRANCH  93  94
ENDBRANCH  67  88
ENDBRANCH  41  42
ENDBRANCH  34  36
ENDBRANCH  33  34
ENDBRANCH  32  33
ENDBRANCH  31  32
ENDBRANCH  30  31
ENDBRANCH   1  30
TORSDOF 22
ENDMDL
MODEL 3
REMARK VINA RESULT:     -10.1      1.293      2.014
REMARK SMILES COC(=O)c1ccc2c(c1)=N[C@H](c1cn(CCC(=O)OCCOCCOC(=O)c3ccc(-c4c5nc(c(-c6ccc(S(=O)(=O)[O-])cc6)c6ccc([nH]6)c(-c6ccc(S(=O)(=O)[O-])cc6)c6nc(c(-c7ccc(S(=O)(=O)[O-])cc7)c7ccc4[nH]7)C=C6)C=C5)cc3)c3ccccc13)N=2
REMARK SMILES IDX 22 1 21 2 20 3 18 4 19 5 17 6 16 7 15 8 13 9 14 10 94 11
REMARK SMILES IDX 89 12 93 13 90 14 92 15 91 16 12 17 5 18 6 19 10 20 7 21
REMARK SMILES IDX 9 22 8 23 11 24 95 25 3 26 4 27 2 28 1 29 23 30 24 31 25 32
REMARK SMILES IDX 26 33 27 34 28 35 29 36 30 37 88 38 31 39 87 40 32 41 33 42
REMARK SMILES IDX 34 43 81 44 35 45 86 46 80 47 82 48 36 49 85 50 79 51 78 52
REMARK SMILES IDX 37 54 67 55 48 56 66 57 49 58 52 59 65 60 83 61 50 62 51 63
REMARK SMILES IDX 64 65 84 66 53 67 38 68 39 69 47 70 40 71 46 72 41 73 42 74
REMARK SMILES IDX 43 75 44 76 45 77 68 78 69 79 77 80 70 81 76 82 71 83 72 84
REMARK SMILES IDX 73 85 74 86 75 87 54 88 55 89 63 90 56 91 62 92 57 93 58 94
REMARK SMILES IDX 59 95 60 96 61 97
REMARK H PARENT 82 53 52 64
REMARK Flexibility Score: inf
ROOT
ATOM      1  C   UNL A   1      36.475  31.734  28.345  1.00  0.00     0.202 C 
ENDROOT
BRANCH   1   2
ATOM      2  C   UNL A   1      35.641  30.818  27.444  1.00  0.00     0.261 C 
BRANCH   2   3
ATOM      3  O   UNL A   1      34.369  30.496  28.042  1.00  0.00    -0.463 OA
BRANCH   3   4
ATOM      4  C   UNL A   1      33.299  31.224  27.641  1.00  0.00     0.307 C 
ATOM      5  O   UNL A   1      33.210  32.444  27.690  1.00  0.00    -0.252 OA
BRANCH   4   6
ATOM      6  C   UNL A   1      32.218  30.350  27.055  1.00  0.00     0.144 C 
BRANCH   6   7
ATOM      7  C   UNL A   1      32.440  28.854  27.296  1.00  0.00     0.134 C 
BRANCH   7   8
ATOM      8  N   UNL A   1      32.218  28.046  26.110  1.00  0.00    -0.346 N 
ATOM      9  C   UNL A   1      32.507  26.445  24.641  1.00  0.00     0.024 A 
ATOM     10  C   UNL A   1      32.305  26.675  26.008  1.00  0.00     0.094 A 
ATOM     11  C   UNL A   1      32.957  27.743  24.140  1.00  0.00     0.007 A 
ATOM     12  C   UNL A   1      31.972  28.472  24.827  1.00  0.00     0.048 A 
ATOM     13  C   UNL A   1      33.223  28.197  22.839  1.00  0.00     0.011 A 
ATOM     14  C   UNL A   1      30.808  28.834  24.130  1.00  0.00     0.027 A 
ATOM     15  C   UNL A   1      32.104  28.532  22.089  1.00  0.00     0.001 A 
ATOM     16  C   UNL A   1      30.877  28.706  22.732  1.00  0.00     0.002 A 
BRANCH   9  17
ATOM     17  C   UNL A   1      32.084  25.217  23.859  1.00  0.00     0.255 C 
ATOM     18  C   UNL A   1      33.623  21.019  24.730  1.00  0.00     0.062 A 
ATOM     19  C   UNL A   1      32.335  20.959  25.412  1.00  0.00     0.018 A 
ATOM     20  C   UNL A   1      34.048  22.139  24.114  1.00  0.00     0.046 A 
ATOM     21  C   UNL A   1      31.472  21.989  25.453  1.00  0.00     0.031 A 
ATOM     22  C   UNL A   1      33.153  23.310  24.089  1.00  0.00     0.087 A 
ATOM     23  C   UNL A   1      31.843  23.235  24.761  1.00  0.00     0.086 A 
ATOM     24  N   UNL A   1      33.327  24.440  23.496  1.00  0.00    -0.252 NA
ATOM     25  N   UNL A   1      31.160  24.316  24.611  1.00  0.00    -0.252 NA
BRANCH  18  26
ATOM     26  C   UNL A   1      34.554  19.844  24.679  1.00  0.00     0.337 C 
ATOM     27  O   UNL A   1      35.738  19.894  24.979  1.00  0.00    -0.246 OA
BRANCH  26  28
ATOM     28  O   UNL A   1      33.913  18.743  24.203  1.00  0.00    -0.465 OA
ATOM     29  C   UNL A   1      34.599  17.508  24.438  1.00  0.00     0.282 C 
ENDBRANCH  26  28
ENDBRANCH  18  26
ENDBRANCH   9  17
ENDBRANCH   7   8
ENDBRANCH   6   7
ENDBRANCH   4   6
ENDBRANCH   3   4
ENDBRANCH   2   3
ENDBRANCH   1   2
BRANCH   1  30
ATOM     30  O   UNL A   1      36.133  33.129  28.311  1.00  0.00    -0.374 OA
BRANCH  30  31
ATOM     31  C   UNL A   1      36.132  33.765  29.589  1.00  0.00     0.202 C 
BRANCH  31  32
ATOM     32  C   UNL A   1      34.774  33.771  30.301  1.00  0.00     0.261 C 
BRANCH  32  33
ATOM     33  O   UNL A   1      34.611  32.561  31.053  1.00  0.00    -0.460 OA
BRANCH  33  34
ATOM     34  C   UNL A   1      35.070  32.583  32.327  1.00  0.00     0.338 C 
ATOM     35  O   UNL A   1      34.489  33.002  33.314  1.00  0.00    -0.246 OA
BRANCH  34  36
ATOM     36  C   UNL A   1      36.280  31.739  32.348  1.00  0.00     0.060 A 
ATOM     37  C   UNL A   1      37.517  32.292  32.642  1.00  0.00     0.016 A 
ATOM     38  C   UNL A   1      36.201  30.447  31.838  1.00  0.00     0.016 A 
ATOM     39  C   UNL A   1      38.679  31.657  32.233  1.00  0.00     0.010 A 
ATOM     40  C   UNL A   1      37.375  29.764  31.516  1.00  0.00     0.010 A 
ATOM     41  C   UNL A   1      38.618  30.396  31.627  1.00  0.00    -0.014 A 
BRANCH  41  42
ATOM     42  C   UNL A   1      39.895  29.774  31.223  1.00  0.00     0.031 A 
ATOM     43  C   UNL A   1      40.845  29.481  32.350  1.00  0.00     0.074 A 
ATOM     44  C   UNL A   1      40.209  29.380  29.967  1.00  0.00     0.049 A 
ATOM     45  N   UNL A   1      42.073  29.866  32.494  1.00  0.00    -0.248 NA
ATOM     46  C   UNL A   1      40.300  28.773  33.523  1.00  0.00     0.031 C 
ATOM     47  C   UNL A   1      39.357  29.379  28.775  1.00  0.00     0.029 A 
ATOM     48  N   UNL A   1      41.347  28.770  29.516  1.00  0.00    -0.354 N 
ATOM     49  C   UNL A   1      42.513  29.316  33.699  1.00  0.00     0.074 A 
ATOM     50  C   UNL A   1      41.346  28.775  34.348  1.00  0.00     0.031 C 
ATOM     51  C   UNL A   1      39.885  28.553  27.845  1.00  0.00     0.029 A 
ATOM     52  C   UNL A   1      41.187  28.104  28.304  1.00  0.00     0.049 A 
ATOM     53  H   UNL A   1      42.202  28.798  30.004  1.00  0.00     0.167 HD
ATOM     54  C   UNL A   1      43.830  29.188  34.027  1.00  0.00     0.031 A 
ATOM     55  C   UNL A   1      42.028  27.196  27.743  1.00  0.00     0.031 A 
ATOM     56  C   UNL A   1      44.675  30.045  33.246  1.00  0.00     0.049 A 
ATOM     57  C   UNL A   1      43.364  27.400  28.345  1.00  0.00     0.074 A 
ATOM     58  C   UNL A   1      44.809  31.412  33.110  1.00  0.00     0.029 A 
ATOM     59  N   UNL A   1      45.346  29.493  32.185  1.00  0.00    -0.354 N 
ATOM     60  N   UNL A   1      44.094  28.459  28.147  1.00  0.00    -0.248 NA
ATOM     61  C   UNL A   1      43.719  26.594  29.500  1.00  0.00     0.031 C 
ATOM     62  C   UNL A   1      45.118  31.613  31.735  1.00  0.00     0.029 A 
ATOM     63  C   UNL A   1      45.216  30.360  31.131  1.00  0.00     0.049 A 
ATOM     64  H   UNL A   1      45.829  28.635  32.180  1.00  0.00     0.167 HD
ATOM     65  C   UNL A   1      44.704  28.693  29.370  1.00  0.00     0.074 A 
ATOM     66  C   UNL A   1      44.507  27.463  30.134  1.00  0.00     0.031 C 
ATOM     67  C   UNL A   1      45.080  29.949  29.748  1.00  0.00     0.031 A 
BRANCH  54  68
ATOM     68  C   UNL A   1      44.368  28.057  34.868  1.00  0.00    -0.014 A 
ATOM     69  C   UNL A   1      45.573  27.391  34.558  1.00  0.00     0.010 A 
ATOM     70  C   UNL A   1      43.802  27.787  36.132  1.00  0.00     0.010 A 
ATOM     71  C   UNL A   1      46.166  26.478  35.429  1.00  0.00     0.020 A 
ATOM     72  C   UNL A   1      44.415  26.905  37.036  1.00  0.00     0.020 A 
ATOM     73  C   UNL A   1      45.587  26.246  36.671  1.00  0.00     0.054 A 
BRANCH  73  74
ATOM     74  S   UNL A   1      46.439  25.122  37.803  1.00  0.00     0.124 S 
ATOM     75  O   UNL A   1      45.997  23.817  37.317  1.00  0.00    -0.237 OA
ATOM     76  O   UNL A   1      47.843  25.440  37.563  1.00  0.00    -0.237 OA
ATOM     77  O   UNL A   1      45.929  25.505  39.116  1.00  0.00    -0.744 OA
ENDBRANCH  73  74
ENDBRANCH  54  68
BRANCH  55  78
ATOM     78  C   UNL A   1      41.660  25.902  27.106  1.00  0.00    -0.014 A 
ATOM     79  C   UNL A   1      40.564  25.165  27.597  1.00  0.00     0.010 A 
ATOM     80  C   UNL A   1      42.575  25.235  26.265  1.00  0.00     0.010 A 
ATOM     81  C   UNL A   1      40.438  23.794  27.345  1.00  0.00     0.020 A 
ATOM     82  C   UNL A   1      42.456  23.858  26.009  1.00  0.00     0.020 A 
ATOM     83  C   UNL A   1      41.409  23.139  26.590  1.00  0.00     0.054 A 
BRANCH  83  84
ATOM     84  S   UNL A   1      41.331  21.327  26.477  1.00  0.00     0.124 S 
ATOM     85  O   UNL A   1      42.224  21.056  25.353  1.00  0.00    -0.237 OA
ATOM     86  O   UNL A   1      41.827  20.908  27.785  1.00  0.00    -0.237 OA
ATOM     87  O   UNL A   1      39.918  21.055  26.233  1.00  0.00    -0.744 OA
ENDBRANCH  83  84
ENDBRANCH  55  78
BRANCH  67  88
ATOM     88  C   UNL A   1      45.104  31.061  28.720  1.00  0.00    -0.014 A 
ATOM     89  C   UNL A   1      43.904  31.769  28.516  1.00  0.00     0.010 A 
ATOM     90  C   UNL A   1      46.175  31.293  27.835  1.00  0.00     0.010 A 
ATOM     91  C   UNL A   1      43.757  32.644  27.440  1.00  0.00     0.020 A 
ATOM     92  C   UNL A   1      46.044  32.196  26.766  1.00  0.00     0.020 A 
ATOM     93  C   UNL A   1      44.823  32.845  26.563  1.00  0.00     0.054 A 
BRANCH  93  94
ATOM     94  S   UNL A   1      44.562  33.947  25.145  1.00  0.00     0.124 S 
ATOM     95  O   UNL A   1      44.194  33.009  24.086  1.00  0.00    -0.237 OA
ATOM     96  O   UNL A   1      43.482  34.817  25.608  1.00  0.00    -0.237 OA
ATOM     97  O   UNL A   1      45.853  34.608  24.966  1.00  0.00    -0.744 OA
ENDBRANCH  93  94
ENDBRANCH  67  88
ENDBRANCH  41  42
ENDBRANCH  34  36
ENDBRANCH  33  34
ENDBRANCH  32  33
ENDBRANCH  31  32
ENDBRANCH  30  31
ENDBRANCH   1  30
TORSDOF 22
ENDMDL
