MODEL 1
REMARK VINA RESULT:     -11.1      0.000      0.000
REMARK SMILES COc1cccc([C@@H]2CC(c3cccc(C)c3)=NN2C(=O)CCC(=O)OCCOCCOC(=O)c2ccc(-c3c4nc(c(-c5ccc(S(=O)(=O)[O-])cc5)c5ccc([nH]5)c(-c5ccc(S(=O)(=O)[O-])cc5)c5nc(c(-c6ccc(S(=O)(=O)[O-])cc6)c6ccc3[nH]6)C=C5)C=C4)cc2)c1
REMARK SMILES IDX 28 1 27 2 26 3 24 4 25 5 23 6 22 7 20 8 21 9 19 10 8 11 9 12
REMARK SMILES IDX 10 13 18 14 7 15 3 16 4 17 95 18 5 19 6 20 2 21 1 22 11 23
REMARK SMILES IDX 12 24 17 25 13 26 15 27 14 28 16 29 29 30 30 31 31 32 32 33
REMARK SMILES IDX 33 34 34 35 35 36 36 37 94 38 37 39 93 40 38 41 39 42 40 43
REMARK SMILES IDX 87 44 41 45 92 46 86 47 88 48 42 49 91 50 85 51 84 52 43 54
REMARK SMILES IDX 73 55 54 56 72 57 55 58 58 59 71 60 89 61 56 62 57 63 70 65
REMARK SMILES IDX 90 66 59 67 44 68 45 69 53 70 46 71 52 72 47 73 48 74 49 75
REMARK SMILES IDX 50 76 51 77 74 78 75 79 83 80 76 81 82 82 77 83 78 84 79 85
REMARK SMILES IDX 80 86 81 87 60 88 61 89 69 90 62 91 68 92 63 93 64 94 65 95
REMARK SMILES IDX 66 96 67 97
REMARK H PARENT 88 53 58 64
REMARK Flexibility Score: inf
ROOT
ATOM      1  C   UNL A   1      34.505  32.397  29.536  1.00  0.00     0.202 C 
ENDROOT
BRANCH   1   2
ATOM      2  C   UNL A   1      34.404  32.219  27.977  1.00  0.00     0.261 C 
BRANCH   2   3
ATOM      3  O   UNL A   1      34.801  30.951  27.484  1.00  0.00    -0.463 OA
BRANCH   3   4
ATOM      4  C   UNL A   1      33.803  30.172  27.043  1.00  0.00     0.306 C 
ATOM      5  O   UNL A   1      32.652  30.522  26.862  1.00  0.00    -0.252 OA
BRANCH   4   6
ATOM      6  C   UNL A   1      34.344  28.816  26.753  1.00  0.00     0.132 C 
BRANCH   6   7
ATOM      7  C   UNL A   1      33.508  27.972  25.799  1.00  0.00     0.114 C 
BRANCH   7   8
ATOM      8  C   UNL A   1      33.561  27.941  24.220  1.00  0.00     0.243 C 
ATOM      9  O   UNL A   1      34.415  28.706  23.737  1.00  0.00    -0.273 OA
BRANCH   8  10
ATOM     10  N   UNL A   1      32.635  27.199  23.423  1.00  0.00    -0.225 N 
ATOM     11  C   UNL A   1      30.924  26.834  23.301  1.00  0.00     0.147 C 
ATOM     12  C   UNL A   1      30.875  25.348  23.594  1.00  0.00     0.091 C 
ATOM     13  C   UNL A   1      32.339  25.056  23.724  1.00  0.00     0.071 C 
ATOM     14  N   UNL A   1      33.225  25.945  23.435  1.00  0.00    -0.174 NA
BRANCH  11  15
ATOM     15  C   UNL A   1      29.526  27.769  23.019  1.00  0.00    -0.019 A 
ATOM     16  C   UNL A   1      28.632  30.043  22.481  1.00  0.00     0.119 A 
ATOM     17  C   UNL A   1      27.368  29.772  22.978  1.00  0.00     0.046 A 
ATOM     18  C   UNL A   1      29.649  29.043  22.400  1.00  0.00     0.052 A 
ATOM     19  C   UNL A   1      27.127  28.506  23.421  1.00  0.00     0.004 A 
ATOM     20  C   UNL A   1      28.189  27.575  23.453  1.00  0.00     0.006 A 
BRANCH  16  21
ATOM     21  O   UNL A   1      28.808  31.352  22.114  1.00  0.00    -0.497 OA
ATOM     22  C   UNL A   1      28.230  31.657  20.852  1.00  0.00     0.278 C 
ENDBRANCH  16  21
ENDBRANCH  11  15
BRANCH  13  23
ATOM     23  C   UNL A   1      32.785  23.903  24.468  1.00  0.00    -0.002 A 
ATOM     24  C   UNL A   1      33.447  24.250  25.636  1.00  0.00     0.010 A 
ATOM     25  C   UNL A   1      32.463  22.595  24.154  1.00  0.00     0.013 A 
ATOM     26  C   UNL A   1      33.628  23.282  26.583  1.00  0.00     0.001 A 
ATOM     27  C   UNL A   1      32.710  21.611  25.112  1.00  0.00    -0.050 A 
ATOM     28  C   UNL A   1      33.208  21.980  26.364  1.00  0.00     0.003 A 
ATOM     29  C   UNL A   1      32.407  20.173  24.850  1.00  0.00     0.044 C 
ENDBRANCH  13  23
ENDBRANCH   8  10
ENDBRANCH   7   8
ENDBRANCH   6   7
ENDBRANCH   4   6
ENDBRANCH   3   4
ENDBRANCH   2   3
ENDBRANCH   1   2
BRANCH   1  30
ATOM     30  O   UNL A   1      34.786  33.702  30.071  1.00  0.00    -0.374 OA
BRANCH  30  31
ATOM     31  C   UNL A   1      35.049  34.198  31.388  1.00  0.00     0.202 C 
BRANCH  31  32
ATOM     32  C   UNL A   1      36.156  33.393  32.541  1.00  0.00     0.261 C 
BRANCH  32  33
ATOM     33  O   UNL A   1      36.819  31.886  32.532  1.00  0.00    -0.460 OA
BRANCH  33  34
ATOM     34  C   UNL A   1      36.826  30.675  31.845  1.00  0.00     0.338 C 
ATOM     35  O   UNL A   1      35.906  29.862  31.754  1.00  0.00    -0.246 OA
BRANCH  34  36
ATOM     36  C   UNL A   1      37.951  30.183  30.972  1.00  0.00     0.060 A 
ATOM     37  C   UNL A   1      38.908  29.336  31.586  1.00  0.00     0.016 A 
ATOM     38  C   UNL A   1      38.351  30.797  29.785  1.00  0.00     0.016 A 
ATOM     39  C   UNL A   1      40.125  28.987  30.990  1.00  0.00     0.010 A 
ATOM     40  C   UNL A   1      39.628  30.508  29.211  1.00  0.00     0.010 A 
ATOM     41  C   UNL A   1      40.516  29.584  29.792  1.00  0.00    -0.014 A 
BRANCH  41  42
ATOM     42  C   UNL A   1      41.874  29.220  29.276  1.00  0.00     0.031 A 
ATOM     43  C   UNL A   1      42.035  28.005  28.416  1.00  0.00     0.074 A 
ATOM     44  C   UNL A   1      42.914  30.070  29.419  1.00  0.00     0.049 A 
ATOM     45  N   UNL A   1      43.141  27.536  27.910  1.00  0.00    -0.248 NA
ATOM     46  C   UNL A   1      40.857  27.154  28.186  1.00  0.00     0.031 C 
ATOM     47  C   UNL A   1      42.933  31.183  30.344  1.00  0.00     0.029 A 
ATOM     48  N   UNL A   1      44.092  30.229  28.729  1.00  0.00    -0.354 N 
ATOM     49  C   UNL A   1      42.833  26.260  27.463  1.00  0.00     0.074 A 
ATOM     50  C   UNL A   1      41.407  26.086  27.620  1.00  0.00     0.031 C 
ATOM     51  C   UNL A   1      43.856  32.078  29.954  1.00  0.00     0.029 A 
ATOM     52  C   UNL A   1      44.669  31.482  28.909  1.00  0.00     0.049 A 
ATOM     53  H   UNL A   1      44.488  29.527  28.163  1.00  0.00     0.167 HD
ATOM     54  C   UNL A   1      43.715  25.302  27.091  1.00  0.00     0.031 A 
ATOM     55  C   UNL A   1      45.759  32.039  28.332  1.00  0.00     0.031 A 
ATOM     56  C   UNL A   1      45.131  25.560  27.008  1.00  0.00     0.049 A 
ATOM     57  C   UNL A   1      46.673  31.027  27.688  1.00  0.00     0.074 A 
ATOM     58  C   UNL A   1      46.175  24.683  26.790  1.00  0.00     0.029 A 
ATOM     59  N   UNL A   1      45.693  26.830  27.126  1.00  0.00    -0.354 N 
ATOM     60  N   UNL A   1      46.423  29.765  27.416  1.00  0.00    -0.248 NA
ATOM     61  C   UNL A   1      48.059  31.438  27.442  1.00  0.00     0.031 C 
ATOM     62  C   UNL A   1      47.366  25.423  26.783  1.00  0.00     0.029 A 
ATOM     63  C   UNL A   1      47.060  26.768  26.943  1.00  0.00     0.049 A 
ATOM     64  H   UNL A   1      45.188  27.654  27.313  1.00  0.00     0.167 HD
ATOM     65  C   UNL A   1      47.643  29.202  27.088  1.00  0.00     0.074 A 
ATOM     66  C   UNL A   1      48.606  30.290  27.063  1.00  0.00     0.031 C 
ATOM     67  C   UNL A   1      47.960  27.896  26.909  1.00  0.00     0.031 A 
BRANCH  54  68
ATOM     68  C   UNL A   1      43.173  23.909  26.926  1.00  0.00    -0.014 A 
ATOM     69  C   UNL A   1      43.034  23.035  28.016  1.00  0.00     0.010 A 
ATOM     70  C   UNL A   1      42.873  23.436  25.633  1.00  0.00     0.010 A 
ATOM     71  C   UNL A   1      42.659  21.702  27.813  1.00  0.00     0.020 A 
ATOM     72  C   UNL A   1      42.472  22.112  25.428  1.00  0.00     0.020 A 
ATOM     73  C   UNL A   1      42.389  21.246  26.520  1.00  0.00     0.054 A 
BRANCH  73  74
ATOM     74  S   UNL A   1      41.917  19.509  26.287  1.00  0.00     0.124 S 
ATOM     75  O   UNL A   1      42.674  19.148  25.091  1.00  0.00    -0.237 OA
ATOM     76  O   UNL A   1      42.369  18.885  27.527  1.00  0.00    -0.237 OA
ATOM     77  O   UNL A   1      40.467  19.564  26.114  1.00  0.00    -0.744 OA
ENDBRANCH  73  74
ENDBRANCH  54  68
BRANCH  55  78
ATOM     78  C   UNL A   1      46.178  33.477  28.496  1.00  0.00    -0.014 A 
ATOM     79  C   UNL A   1      46.110  34.381  27.412  1.00  0.00     0.010 A 
ATOM     80  C   UNL A   1      46.684  33.973  29.712  1.00  0.00     0.010 A 
ATOM     81  C   UNL A   1      46.534  35.718  27.542  1.00  0.00     0.020 A 
ATOM     82  C   UNL A   1      47.051  35.318  29.868  1.00  0.00     0.020 A 
ATOM     83  C   UNL A   1      46.996  36.179  28.776  1.00  0.00     0.054 A 
BRANCH  83  84
ATOM     84  S   UNL A   1      47.505  37.914  28.964  1.00  0.00     0.124 S 
ATOM     85  O   UNL A   1      46.243  38.623  28.778  1.00  0.00    -0.237 OA
ATOM     86  O   UNL A   1      48.055  37.948  30.318  1.00  0.00    -0.237 OA
ATOM     87  O   UNL A   1      48.489  38.095  27.898  1.00  0.00    -0.744 OA
ENDBRANCH  83  84
ENDBRANCH  55  78
BRANCH  67  88
ATOM     88  C   UNL A   1      49.400  27.606  26.632  1.00  0.00    -0.014 A 
ATOM     89  C   UNL A   1      49.908  27.629  25.322  1.00  0.00     0.010 A 
ATOM     90  C   UNL A   1      50.259  27.357  27.715  1.00  0.00     0.010 A 
ATOM     91  C   UNL A   1      51.262  27.383  25.097  1.00  0.00     0.020 A 
ATOM     92  C   UNL A   1      51.614  27.132  27.494  1.00  0.00     0.020 A 
ATOM     93  C   UNL A   1      52.105  27.137  26.186  1.00  0.00     0.054 A 
BRANCH  93  94
ATOM     94  S   UNL A   1      53.870  26.869  25.882  1.00  0.00     0.124 S 
ATOM     95  O   UNL A   1      54.245  28.096  25.184  1.00  0.00    -0.237 OA
ATOM     96  O   UNL A   1      54.410  26.721  27.231  1.00  0.00    -0.237 OA
ATOM     97  O   UNL A   1      53.898  25.655  25.069  1.00  0.00    -0.744 OA
ENDBRANCH  93  94
ENDBRANCH  67  88
ENDBRANCH  41  42
ENDBRANCH  34  36
ENDBRANCH  33  34
ENDBRANCH  32  33
ENDBRANCH  31  32
ENDBRANCH  30  31
ENDBRANCH   1  30
TORSDOF 23
ENDMDL
MODEL 2
REMARK VINA RESULT:     -10.8      1.943      2.559
REMARK SMILES COc1cccc([C@@H]2CC(c3cccc(C)c3)=NN2C(=O)CCC(=O)OCCOCCOC(=O)c2ccc(-c3c4nc(c(-c5ccc(S(=O)(=O)[O-])cc5)c5ccc([nH]5)c(-c5ccc(S(=O)(=O)[O-])cc5)c5nc(c(-c6ccc(S(=O)(=O)[O-])cc6)c6ccc3[nH]6)C=C5)C=C4)cc2)c1
REMARK SMILES IDX 28 1 27 2 26 3 24 4 25 5 23 6 22 7 20 8 21 9 19 10 8 11 9 12
REMARK SMILES IDX 10 13 18 14 7 15 3 16 4 17 95 18 5 19 6 20 2 21 1 22 11 23
REMARK SMILES IDX 12 24 17 25 13 26 15 27 14 28 16 29 29 30 30 31 31 32 32 33
REMARK SMILES IDX 33 34 34 35 35 36 36 37 94 38 37 39 93 40 38 41 39 42 40 43
REMARK SMILES IDX 87 44 41 45 92 46 86 47 88 48 42 49 91 50 85 51 84 52 43 54
REMARK SMILES IDX 73 55 54 56 72 57 55 58 58 59 71 60 89 61 56 62 57 63 70 65
REMARK SMILES IDX 90 66 59 67 44 68 45 69 53 70 46 71 52 72 47 73 48 74 49 75
REMARK SMILES IDX 50 76 51 77 74 78 75 79 83 80 76 81 82 82 77 83 78 84 79 85
REMARK SMILES IDX 80 86 81 87 60 88 61 89 69 90 62 91 68 92 63 93 64 94 65 95
REMARK SMILES IDX 66 96 67 97
REMARK H PARENT 88 53 58 64
REMARK Flexibility Score: inf
ROOT
ATOM      1  C   UNL A   1      34.233  33.312  29.731  1.00  0.00     0.202 C 
ENDROOT
BRANCH   1   2
ATOM      2  C   UNL A   1      34.126  32.794  28.250  1.00  0.00     0.261 C 
BRANCH   2   3
ATOM      3  O   UNL A   1      33.984  31.391  28.107  1.00  0.00    -0.463 OA
BRANCH   3   4
ATOM      4  C   UNL A   1      35.118  30.727  27.840  1.00  0.00     0.306 C 
ATOM      5  O   UNL A   1      36.207  31.230  27.636  1.00  0.00    -0.252 OA
BRANCH   4   6
ATOM      6  C   UNL A   1      34.843  29.266  27.890  1.00  0.00     0.132 C 
BRANCH   6   7
ATOM      7  C   UNL A   1      34.388  28.644  26.577  1.00  0.00     0.114 C 
BRANCH   7   8
ATOM      8  C   UNL A   1      32.981  28.774  25.869  1.00  0.00     0.243 C 
ATOM      9  O   UNL A   1      32.064  29.100  26.644  1.00  0.00    -0.273 OA
BRANCH   8  10
ATOM     10  N   UNL A   1      32.763  28.432  24.498  1.00  0.00    -0.225 N 
ATOM     11  C   UNL A   1      31.500  27.886  23.410  1.00  0.00     0.147 C 
ATOM     12  C   UNL A   1      31.974  26.504  23.012  1.00  0.00     0.091 C 
ATOM     13  C   UNL A   1      33.295  26.463  23.719  1.00  0.00     0.071 C 
ATOM     14  N   UNL A   1      33.777  27.510  24.292  1.00  0.00    -0.174 NA
BRANCH  11  15
ATOM     15  C   UNL A   1      30.021  28.547  22.879  1.00  0.00    -0.019 A 
ATOM     16  C   UNL A   1      28.856  30.589  22.021  1.00  0.00     0.119 A 
ATOM     17  C   UNL A   1      27.597  30.148  22.393  1.00  0.00     0.046 A 
ATOM     18  C   UNL A   1      30.020  29.771  22.156  1.00  0.00     0.052 A 
ATOM     19  C   UNL A   1      27.504  28.897  22.928  1.00  0.00     0.004 A 
ATOM     20  C   UNL A   1      28.686  28.165  23.173  1.00  0.00     0.006 A 
BRANCH  16  21
ATOM     21  O   UNL A   1      28.869  31.876  21.550  1.00  0.00    -0.497 OA
ATOM     22  C   UNL A   1      27.953  32.085  20.483  1.00  0.00     0.278 C 
ENDBRANCH  16  21
ENDBRANCH  11  15
BRANCH  13  23
ATOM     23  C   UNL A   1      33.903  25.196  24.046  1.00  0.00    -0.002 A 
ATOM     24  C   UNL A   1      33.445  24.165  23.240  1.00  0.00     0.010 A 
ATOM     25  C   UNL A   1      34.939  25.034  24.949  1.00  0.00     0.013 A 
ATOM     26  C   UNL A   1      34.161  23.001  23.218  1.00  0.00     0.001 A 
ATOM     27  C   UNL A   1      35.620  23.816  24.953  1.00  0.00    -0.050 A 
ATOM     28  C   UNL A   1      35.283  22.837  24.015  1.00  0.00     0.003 A 
ATOM     29  C   UNL A   1      36.740  23.551  25.904  1.00  0.00     0.044 C 
ENDBRANCH  13  23
ENDBRANCH   8  10
ENDBRANCH   7   8
ENDBRANCH   6   7
ENDBRANCH   4   6
ENDBRANCH   3   4
ENDBRANCH   2   3
ENDBRANCH   1   2
BRANCH   1  30
ATOM     30  O   UNL A   1      34.496  32.367  30.782  1.00  0.00    -0.374 OA
BRANCH  30  31
ATOM     31  C   UNL A   1      35.433  32.322  31.863  1.00  0.00     0.202 C 
BRANCH  31  32
ATOM     32  C   UNL A   1      36.309  30.837  32.346  1.00  0.00     0.261 C 
BRANCH  32  33
ATOM     33  O   UNL A   1      37.534  30.604  33.421  1.00  0.00    -0.460 OA
BRANCH  33  34
ATOM     34  C   UNL A   1      38.720  31.159  33.897  1.00  0.00     0.338 C 
ATOM     35  O   UNL A   1      38.850  31.973  34.811  1.00  0.00    -0.246 OA
BRANCH  34  36
ATOM     36  C   UNL A   1      40.101  30.766  33.442  1.00  0.00     0.060 A 
ATOM     37  C   UNL A   1      40.500  31.216  32.157  1.00  0.00     0.016 A 
ATOM     38  C   UNL A   1      40.827  29.696  33.966  1.00  0.00     0.016 A 
ATOM     39  C   UNL A   1      41.641  30.751  31.496  1.00  0.00     0.010 A 
ATOM     40  C   UNL A   1      41.946  29.159  33.257  1.00  0.00     0.010 A 
ATOM     41  C   UNL A   1      42.379  29.695  32.030  1.00  0.00    -0.014 A 
BRANCH  41  42
ATOM     42  C   UNL A   1      43.530  29.201  31.208  1.00  0.00     0.031 A 
ATOM     43  C   UNL A   1      43.288  28.182  30.138  1.00  0.00     0.074 A 
ATOM     44  C   UNL A   1      44.739  29.796  31.290  1.00  0.00     0.049 A 
ATOM     45  N   UNL A   1      44.174  27.631  29.356  1.00  0.00    -0.248 NA
ATOM     46  C   UNL A   1      41.932  27.628  29.998  1.00  0.00     0.031 C 
ATOM     47  C   UNL A   1      45.143  30.672  32.371  1.00  0.00     0.029 A 
ATOM     48  N   UNL A   1      45.804  29.874  30.424  1.00  0.00    -0.354 N 
ATOM     49  C   UNL A   1      43.530  26.554  28.767  1.00  0.00     0.074 A 
ATOM     50  C   UNL A   1      42.142  26.618  29.163  1.00  0.00     0.031 C 
ATOM     51  C   UNL A   1      46.168  31.441  31.969  1.00  0.00     0.029 A 
ATOM     52  C   UNL A   1      46.661  30.934  30.701  1.00  0.00     0.049 A 
ATOM     53  H   UNL A   1      45.945  29.243  29.681  1.00  0.00     0.167 HD
ATOM     54  C   UNL A   1      44.114  25.548  28.073  1.00  0.00     0.031 A 
ATOM     55  C   UNL A   1      47.744  31.388  30.028  1.00  0.00     0.031 A 
ATOM     56  C   UNL A   1      45.523  25.551  27.765  1.00  0.00     0.049 A 
ATOM     57  C   UNL A   1      48.305  30.379  29.058  1.00  0.00     0.074 A 
ATOM     58  C   UNL A   1      46.304  24.560  27.204  1.00  0.00     0.029 A 
ATOM     59  N   UNL A   1      46.360  26.643  27.988  1.00  0.00    -0.354 N 
ATOM     60  N   UNL A   1      47.748  29.268  28.628  1.00  0.00    -0.248 NA
ATOM     61  C   UNL A   1      49.693  30.569  28.624  1.00  0.00     0.031 C 
ATOM     62  C   UNL A   1      47.612  25.053  27.094  1.00  0.00     0.029 A 
ATOM     63  C   UNL A   1      47.636  26.369  27.537  1.00  0.00     0.049 A 
ATOM     64  H   UNL A   1      46.081  27.489  28.406  1.00  0.00     0.167 HD
ATOM     65  C   UNL A   1      48.750  28.570  27.980  1.00  0.00     0.074 A 
ATOM     66  C   UNL A   1      49.912  29.443  27.956  1.00  0.00     0.031 C 
ATOM     67  C   UNL A   1      48.744  27.294  27.523  1.00  0.00     0.031 A 
BRANCH  54  68
ATOM     68  C   UNL A   1      43.263  24.343  27.781  1.00  0.00    -0.014 A 
ATOM     69  C   UNL A   1      43.275  23.209  28.609  1.00  0.00     0.010 A 
ATOM     70  C   UNL A   1      42.493  24.314  26.601  1.00  0.00     0.010 A 
ATOM     71  C   UNL A   1      42.580  22.053  28.238  1.00  0.00     0.020 A 
ATOM     72  C   UNL A   1      41.775  23.170  26.239  1.00  0.00     0.020 A 
ATOM     73  C   UNL A   1      41.842  22.037  27.051  1.00  0.00     0.054 A 
BRANCH  73  74
ATOM     74  S   UNL A   1      40.961  20.518  26.590  1.00  0.00     0.124 S 
ATOM     75  O   UNL A   1      41.863  19.934  25.600  1.00  0.00    -0.237 OA
ATOM     76  O   UNL A   1      40.874  19.801  27.860  1.00  0.00    -0.237 OA
ATOM     77  O   UNL A   1      39.687  21.002  26.064  1.00  0.00    -0.744 OA
ENDBRANCH  73  74
ENDBRANCH  54  68
BRANCH  55  78
ATOM     78  C   UNL A   1      48.486  32.658  30.352  1.00  0.00    -0.014 A 
ATOM     79  C   UNL A   1      49.461  32.688  31.374  1.00  0.00     0.010 A 
ATOM     80  C   UNL A   1      48.221  33.869  29.685  1.00  0.00     0.010 A 
ATOM     81  C   UNL A   1      50.136  33.878  31.712  1.00  0.00     0.020 A 
ATOM     82  C   UNL A   1      48.929  35.045  29.973  1.00  0.00     0.020 A 
ATOM     83  C   UNL A   1      49.868  35.049  31.002  1.00  0.00     0.054 A 
BRANCH  83  84
ATOM     84  S   UNL A   1      50.764  36.580  31.402  1.00  0.00     0.124 S 
ATOM     85  O   UNL A   1      51.794  36.608  30.370  1.00  0.00    -0.237 OA
ATOM     86  O   UNL A   1      49.727  37.604  31.289  1.00  0.00    -0.237 OA
ATOM     87  O   UNL A   1      51.246  36.343  32.762  1.00  0.00    -0.744 OA
ENDBRANCH  83  84
ENDBRANCH  55  78
BRANCH  67  88
ATOM     88  C   UNL A   1      50.026  26.807  26.929  1.00  0.00    -0.014 A 
ATOM     89  C   UNL A   1      51.042  26.267  27.735  1.00  0.00     0.010 A 
ATOM     90  C   UNL A   1      50.183  26.852  25.535  1.00  0.00     0.010 A 
ATOM     91  C   UNL A   1      52.216  25.794  27.149  1.00  0.00     0.020 A 
ATOM     92  C   UNL A   1      51.345  26.361  24.946  1.00  0.00     0.020 A 
ATOM     93  C   UNL A   1      52.358  25.844  25.758  1.00  0.00     0.054 A 
BRANCH  93  94
ATOM     94  S   UNL A   1      53.867  25.180  25.009  1.00  0.00     0.124 S 
ATOM     95  O   UNL A   1      53.972  25.974  23.788  1.00  0.00    -0.237 OA
ATOM     96  O   UNL A   1      54.878  25.453  26.027  1.00  0.00    -0.237 OA
ATOM     97  O   UNL A   1      53.557  23.766  24.809  1.00  0.00    -0.744 OA
ENDBRANCH  93  94
ENDBRANCH  67  88
ENDBRANCH  41  42
ENDBRANCH  34  36
ENDBRANCH  33  34
ENDBRANCH  32  33
ENDBRANCH  31  32
ENDBRANCH  30  31
ENDBRANCH   1  30
TORSDOF 23
ENDMDL
MODEL 3
REMARK VINA RESULT:     -10.5      1.553      4.076
REMARK SMILES COc1cccc([C@@H]2CC(c3cccc(C)c3)=NN2C(=O)CCC(=O)OCCOCCOC(=O)c2ccc(-c3c4nc(c(-c5ccc(S(=O)(=O)[O-])cc5)c5ccc([nH]5)c(-c5ccc(S(=O)(=O)[O-])cc5)c5nc(c(-c6ccc(S(=O)(=O)[O-])cc6)c6ccc3[nH]6)C=C5)C=C4)cc2)c1
REMARK SMILES IDX 28 1 27 2 26 3 24 4 25 5 23 6 22 7 20 8 21 9 19 10 8 11 9 12
REMARK SMILES IDX 10 13 18 14 7 15 3 16 4 17 95 18 5 19 6 20 2 21 1 22 11 23
REMARK SMILES IDX 12 24 17 25 13 26 15 27 14 28 16 29 29 30 30 31 31 32 32 33
REMARK SMILES IDX 33 34 34 35 35 36 36 37 94 38 37 39 93 40 38 41 39 42 40 43
REMARK SMILES IDX 87 44 41 45 92 46 86 47 88 48 42 49 91 50 85 51 84 52 43 54
REMARK SMILES IDX 73 55 54 56 72 57 55 58 58 59 71 60 89 61 56 62 57 63 70 65
REMARK SMILES IDX 90 66 59 67 44 68 45 69 53 70 46 71 52 72 47 73 48 74 49 75
REMARK SMILES IDX 50 76 51 77 74 78 75 79 83 80 76 81 82 82 77 83 78 84 79 85
REMARK SMILES IDX 80 86 81 87 60 88 61 89 69 90 62 91 68 92 63 93 64 94 65 95
REMARK SMILES IDX 66 96 67 97
REMARK H PARENT 88 53 58 64
REMARK Flexibility Score: inf
ROOT
ATOM      1  C   UNL A   1      34.826  32.711  29.483  1.00  0.00     0.202 C 
ENDROOT
BRANCH   1   2
ATOM      2  C   UNL A   1      34.636  31.497  28.504  1.00  0.00     0.261 C 
BRANCH   2   3
ATOM      3  O   UNL A   1      33.757  31.727  27.416  1.00  0.00    -0.463 OA
BRANCH   3   4
ATOM      4  C   UNL A   1      32.915  30.721  27.139  1.00  0.00     0.306 C 
ATOM      5  O   UNL A   1      31.759  30.838  26.781  1.00  0.00    -0.252 OA
BRANCH   4   6
ATOM      6  C   UNL A   1      33.642  29.431  27.286  1.00  0.00     0.132 C 
BRANCH   6   7
ATOM      7  C   UNL A   1      34.239  28.870  26.003  1.00  0.00     0.114 C 
BRANCH   7   8
ATOM      8  C   UNL A   1      33.510  28.060  24.858  1.00  0.00     0.243 C 
ATOM      9  O   UNL A   1      33.960  28.293  23.721  1.00  0.00    -0.273 OA
BRANCH   8  10
ATOM     10  N   UNL A   1      32.365  27.237  25.093  1.00  0.00    -0.225 N 
ATOM     11  C   UNL A   1      31.554  25.813  24.465  1.00  0.00     0.147 C 
ATOM     12  C   UNL A   1      30.246  26.373  23.947  1.00  0.00     0.091 C 
ATOM     13  C   UNL A   1      30.386  27.806  24.365  1.00  0.00     0.071 C 
ATOM     14  N   UNL A   1      31.357  28.188  25.119  1.00  0.00    -0.174 NA
BRANCH  11  15
ATOM     15  C   UNL A   1      31.985  24.171  24.311  1.00  0.00    -0.019 A 
ATOM     16  C   UNL A   1      33.723  22.435  24.786  1.00  0.00     0.119 A 
ATOM     17  C   UNL A   1      33.274  21.572  23.799  1.00  0.00     0.046 A 
ATOM     18  C   UNL A   1      33.037  23.645  25.110  1.00  0.00     0.052 A 
ATOM     19  C   UNL A   1      32.151  21.935  23.115  1.00  0.00     0.004 A 
ATOM     20  C   UNL A   1      31.571  23.198  23.365  1.00  0.00     0.006 A 
BRANCH  16  21
ATOM     21  O   UNL A   1      34.888  22.026  25.381  1.00  0.00    -0.497 OA
ATOM     22  C   UNL A   1      34.791  21.954  26.797  1.00  0.00     0.278 C 
ENDBRANCH  16  21
ENDBRANCH  11  15
BRANCH  13  23
ATOM     23  C   UNL A   1      29.636  28.835  23.688  1.00  0.00    -0.002 A 
ATOM     24  C   UNL A   1      28.526  28.333  23.026  1.00  0.00     0.010 A 
ATOM     25  C   UNL A   1      29.887  30.191  23.801  1.00  0.00     0.013 A 
ATOM     26  C   UNL A   1      27.563  29.216  22.627  1.00  0.00     0.001 A 
ATOM     27  C   UNL A   1      28.917  31.079  23.334  1.00  0.00    -0.050 A 
ATOM     28  C   UNL A   1      27.713  30.579  22.833  1.00  0.00     0.003 A 
ATOM     29  C   UNL A   1      29.113  32.557  23.403  1.00  0.00     0.044 C 
ENDBRANCH  13  23
ENDBRANCH   8  10
ENDBRANCH   7   8
ENDBRANCH   6   7
ENDBRANCH   4   6
ENDBRANCH   3   4
ENDBRANCH   2   3
ENDBRANCH   1   2
BRANCH   1  30
ATOM     30  O   UNL A   1      34.717  32.488  30.900  1.00  0.00    -0.374 OA
BRANCH  30  31
ATOM     31  C   UNL A   1      35.518  31.790  31.858  1.00  0.00     0.202 C 
BRANCH  31  32
ATOM     32  C   UNL A   1      36.870  32.551  32.753  1.00  0.00     0.261 C 
BRANCH  32  33
ATOM     33  O   UNL A   1      38.124  31.888  33.587  1.00  0.00    -0.460 OA
BRANCH  33  34
ATOM     34  C   UNL A   1      38.917  30.747  33.688  1.00  0.00     0.338 C 
ATOM     35  O   UNL A   1      38.963  29.950  34.625  1.00  0.00    -0.246 OA
BRANCH  34  36
ATOM     36  C   UNL A   1      39.799  30.208  32.593  1.00  0.00     0.060 A 
ATOM     37  C   UNL A   1      40.818  29.303  32.984  1.00  0.00     0.016 A 
ATOM     38  C   UNL A   1      39.968  30.816  31.349  1.00  0.00     0.016 A 
ATOM     39  C   UNL A   1      41.856  28.897  32.138  1.00  0.00     0.010 A 
ATOM     40  C   UNL A   1      41.074  30.468  30.512  1.00  0.00     0.010 A 
ATOM     41  C   UNL A   1      42.013  29.490  30.886  1.00  0.00    -0.014 A 
BRANCH  41  42
ATOM     42  C   UNL A   1      43.206  29.061  30.089  1.00  0.00     0.031 A 
ATOM     43  C   UNL A   1      43.071  27.942  29.102  1.00  0.00     0.074 A 
ATOM     44  C   UNL A   1      44.345  29.787  30.110  1.00  0.00     0.049 A 
ATOM     45  N   UNL A   1      44.007  27.432  28.353  1.00  0.00    -0.248 NA
ATOM     46  C   UNL A   1      41.783  27.237  29.022  1.00  0.00     0.031 C 
ATOM     47  C   UNL A   1      44.656  30.782  31.115  1.00  0.00     0.029 A 
ATOM     48  N   UNL A   1      45.390  29.913  29.226  1.00  0.00    -0.354 N 
ATOM     49  C   UNL A   1      43.482  26.250  27.855  1.00  0.00     0.074 A 
ATOM     50  C   UNL A   1      42.097  26.194  28.264  1.00  0.00     0.031 C 
ATOM     51  C   UNL A   1      45.589  31.624  30.643  1.00  0.00     0.029 A 
ATOM     52  C   UNL A   1      46.128  31.077  29.410  1.00  0.00     0.049 A 
ATOM     53  H   UNL A   1      45.595  29.246  28.531  1.00  0.00     0.167 HD
ATOM     54  C   UNL A   1      44.168  25.262  27.232  1.00  0.00     0.031 A 
ATOM     55  C   UNL A   1      47.152  31.592  28.691  1.00  0.00     0.031 A 
ATOM     56  C   UNL A   1      45.566  25.394  26.906  1.00  0.00     0.049 A 
ATOM     57  C   UNL A   1      47.815  30.578  27.792  1.00  0.00     0.074 A 
ATOM     58  C   UNL A   1      46.447  24.452  26.411  1.00  0.00     0.029 A 
ATOM     59  N   UNL A   1      46.281  26.583  27.034  1.00  0.00    -0.354 N 
ATOM     60  N   UNL A   1      47.379  29.384  27.455  1.00  0.00    -0.248 NA
ATOM     61  C   UNL A   1      49.172  30.883  27.327  1.00  0.00     0.031 C 
ATOM     62  C   UNL A   1      47.694  25.073  26.247  1.00  0.00     0.029 A 
ATOM     63  C   UNL A   1      47.577  26.414  26.589  1.00  0.00     0.049 A 
ATOM     64  H   UNL A   1      45.914  27.424  27.391  1.00  0.00     0.167 HD
ATOM     65  C   UNL A   1      48.448  28.751  26.848  1.00  0.00     0.074 A 
ATOM     66  C   UNL A   1      49.508  29.739  26.744  1.00  0.00     0.031 C 
ATOM     67  C   UNL A   1      48.578  27.450  26.490  1.00  0.00     0.031 A 
BRANCH  54  68
ATOM     68  C   UNL A   1      43.451  23.954  27.044  1.00  0.00    -0.014 A 
ATOM     69  C   UNL A   1      43.215  23.416  25.768  1.00  0.00     0.010 A 
ATOM     70  C   UNL A   1      42.926  23.288  28.169  1.00  0.00     0.010 A 
ATOM     71  C   UNL A   1      42.426  22.271  25.616  1.00  0.00     0.020 A 
ATOM     72  C   UNL A   1      42.158  22.128  28.024  1.00  0.00     0.020 A 
ATOM     73  C   UNL A   1      41.894  21.639  26.744  1.00  0.00     0.054 A 
BRANCH  73  74
ATOM     74  S   UNL A   1      40.864  20.163  26.514  1.00  0.00     0.124 S 
ATOM     75  O   UNL A   1      41.602  19.436  25.484  1.00  0.00    -0.237 OA
ATOM     76  O   UNL A   1      40.876  19.554  27.842  1.00  0.00    -0.237 OA
ATOM     77  O   UNL A   1      39.573  20.702  26.092  1.00  0.00    -0.744 OA
ENDBRANCH  73  74
ENDBRANCH  54  68
BRANCH  55  78
ATOM     78  C   UNL A   1      47.754  32.956  28.907  1.00  0.00    -0.014 A 
ATOM     79  C   UNL A   1      47.362  34.056  28.112  1.00  0.00     0.010 A 
ATOM     80  C   UNL A   1      48.749  33.189  29.876  1.00  0.00     0.010 A 
ATOM     81  C   UNL A   1      47.944  35.329  28.279  1.00  0.00     0.020 A 
ATOM     82  C   UNL A   1      49.291  34.465  30.090  1.00  0.00     0.020 A 
ATOM     83  C   UNL A   1      48.902  35.525  29.275  1.00  0.00     0.054 A 
BRANCH  83  84
ATOM     84  S   UNL A   1      49.628  37.172  29.525  1.00  0.00     0.124 S 
ATOM     85  O   UNL A   1      50.997  36.975  29.060  1.00  0.00    -0.237 OA
ATOM     86  O   UNL A   1      48.792  38.028  28.686  1.00  0.00    -0.237 OA
ATOM     87  O   UNL A   1      49.480  37.391  30.963  1.00  0.00    -0.744 OA
ENDBRANCH  83  84
ENDBRANCH  55  78
BRANCH  67  88
ATOM     88  C   UNL A   1      49.902  27.060  25.918  1.00  0.00    -0.014 A 
ATOM     89  C   UNL A   1      50.194  27.257  24.558  1.00  0.00     0.010 A 
ATOM     90  C   UNL A   1      50.880  26.533  26.777  1.00  0.00     0.010 A 
ATOM     91  C   UNL A   1      51.448  26.910  24.058  1.00  0.00     0.020 A 
ATOM     92  C   UNL A   1      52.140  26.204  26.284  1.00  0.00     0.020 A 
ATOM     93  C   UNL A   1      52.412  26.386  24.926  1.00  0.00     0.054 A 
BRANCH  93  94
ATOM     94  S   UNL A   1      54.053  25.988  24.272  1.00  0.00     0.124 S 
ATOM     95  O   UNL A   1      54.314  24.687  24.883  1.00  0.00    -0.237 OA
ATOM     96  O   UNL A   1      53.828  25.972  22.829  1.00  0.00    -0.237 OA
ATOM     97  O   UNL A   1      54.891  27.083  24.754  1.00  0.00    -0.744 OA
ENDBRANCH  93  94
ENDBRANCH  67  88
ENDBRANCH  41  42
ENDBRANCH  34  36
ENDBRANCH  33  34
ENDBRANCH  32  33
ENDBRANCH  31  32
ENDBRANCH  30  31
ENDBRANCH   1  30
TORSDOF 23
ENDMDL
