MODEL 1
REMARK VINA RESULT:      -8.8      0.000      0.000
REMARK SMILES CCCO[C@@H]1CCC[C@]([NH3+])(C(=O)OCCOCCOC(=O)c2ccc(-c3c4nc(c(-c5ccc(S(=O)(=O)[O-])cc5)c5ccc([nH]5)c(-c5ccc(S(=O)(=O)[O-])cc5)c5nc(c(-c6ccc(S(=O)(=O)[O-])cc6)c6ccc3[nH]6)C=C5)C=C4)cc2)C1
REMARK SMILES IDX 16 1 15 2 14 3 13 4 11 5 12 6 9 7 5 8 6 9 82 10 7 11 8 12
REMARK SMILES IDX 4 13 3 14 2 15 1 16 10 17 17 21 18 22 19 23 20 24 21 25
REMARK SMILES IDX 22 26 23 27 81 28 24 29 80 30 25 31 26 32 27 33 74 34 28 35
REMARK SMILES IDX 79 36 73 37 75 38 29 39 78 40 72 41 71 42 30 44 60 45 41 46
REMARK SMILES IDX 59 47 42 48 45 49 58 50 76 51 43 52 44 53 57 55 77 56 46 57
REMARK SMILES IDX 31 58 32 59 40 60 33 61 39 62 34 63 35 64 36 65 37 66 38 67
REMARK SMILES IDX 61 68 62 69 70 70 63 71 69 72 64 73 65 74 66 75 67 76 68 77
REMARK SMILES IDX 47 78 48 79 56 80 49 81 55 82 50 83 51 84 52 85 53 86 54 87
REMARK H PARENT 10 18 10 19 10 20 75 43 45 54
REMARK Flexibility Score: inf
ROOT
ATOM      1  O   UNL A   1      32.163  28.176  24.664  1.00  0.00    -0.374 OA
ENDROOT
BRANCH   1   2
ATOM      2  C   UNL A   1      32.962  28.741  23.629  1.00  0.00     0.202 C 
BRANCH   2   3
ATOM      3  C   UNL A   1      33.293  27.896  22.394  1.00  0.00     0.261 C 
BRANCH   3   4
ATOM      4  O   UNL A   1      32.311  26.887  22.095  1.00  0.00    -0.459 OA
BRANCH   4   5
ATOM      5  C   UNL A   1      32.859  25.658  21.869  1.00  0.00     0.368 C 
ATOM      6  O   UNL A   1      33.362  25.337  20.797  1.00  0.00    -0.245 OA
BRANCH   5   7
ATOM      7  C   UNL A   1      32.824  24.731  23.126  1.00  0.00     0.195 C 
ATOM      8  C   UNL A   1      34.793  23.632  24.521  1.00  0.00     0.125 C 
ATOM      9  C   UNL A   1      34.282  22.267  24.065  1.00  0.00     0.032 C 
ATOM     10  C   UNL A   1      34.209  24.852  23.807  1.00  0.00     0.113 C 
ATOM     11  C   UNL A   1      32.797  22.268  23.748  1.00  0.00     0.010 C 
ATOM     12  C   UNL A   1      32.490  23.304  22.672  1.00  0.00     0.081 C 
BRANCH   8  13
ATOM     13  O   UNL A   1      36.230  23.571  24.596  1.00  0.00    -0.378 OA
BRANCH  13  14
ATOM     14  C   UNL A   1      36.958  22.426  24.150  1.00  0.00     0.160 C 
BRANCH  14  15
ATOM     15  C   UNL A   1      37.903  21.787  25.175  1.00  0.00     0.025 C 
ATOM     16  C   UNL A   1      38.602  22.724  26.147  1.00  0.00     0.006 C 
ENDBRANCH  14  15
ENDBRANCH  13  14
ENDBRANCH   8  13
BRANCH   7  17
ATOM     17  N   UNL A   1      31.773  25.150  24.092  1.00  0.00    -0.343 N 
ATOM     18  H   UNL A   1      30.960  24.542  23.994  1.00  0.00     0.345 HD
ATOM     19  H   UNL A   1      31.501  26.114  23.902  1.00  0.00     0.345 HD
ATOM     20  H   UNL A   1      32.137  25.080  25.042  1.00  0.00     0.345 HD
ENDBRANCH   7  17
ENDBRANCH   5   7
ENDBRANCH   4   5
ENDBRANCH   3   4
ENDBRANCH   2   3
ENDBRANCH   1   2
BRANCH   1  21
ATOM     21  C   UNL A   1      32.052  28.868  25.903  1.00  0.00     0.202 C 
BRANCH  21  22
ATOM     22  C   UNL A   1      32.727  28.279  27.149  1.00  0.00     0.261 C 
BRANCH  22  23
ATOM     23  O   UNL A   1      34.145  28.515  27.192  1.00  0.00    -0.460 OA
BRANCH  23  24
ATOM     24  C   UNL A   1      34.489  29.738  27.668  1.00  0.00     0.338 C 
ATOM     25  O   UNL A   1      33.741  30.691  27.857  1.00  0.00    -0.246 OA
BRANCH  24  26
ATOM     26  C   UNL A   1      35.880  29.736  28.149  1.00  0.00     0.060 A 
ATOM     27  C   UNL A   1      36.884  30.013  27.211  1.00  0.00     0.016 A 
ATOM     28  C   UNL A   1      36.208  29.378  29.458  1.00  0.00     0.016 A 
ATOM     29  C   UNL A   1      38.223  29.878  27.561  1.00  0.00     0.010 A 
ATOM     30  C   UNL A   1      37.556  29.228  29.804  1.00  0.00     0.010 A 
ATOM     31  C   UNL A   1      38.565  29.436  28.846  1.00  0.00    -0.014 A 
BRANCH  31  32
ATOM     32  C   UNL A   1      39.964  29.027  29.114  1.00  0.00     0.031 A 
ATOM     33  C   UNL A   1      40.894  30.016  29.765  1.00  0.00     0.074 A 
ATOM     34  C   UNL A   1      40.384  27.780  28.835  1.00  0.00     0.049 A 
ATOM     35  N   UNL A   1      42.151  29.877  30.093  1.00  0.00    -0.248 NA
ATOM     36  C   UNL A   1      40.330  31.337  30.091  1.00  0.00     0.031 C 
ATOM     37  C   UNL A   1      39.561  26.721  28.251  1.00  0.00     0.029 A 
ATOM     38  N   UNL A   1      41.613  27.196  29.007  1.00  0.00    -0.354 N 
ATOM     39  C   UNL A   1      42.532  31.091  30.655  1.00  0.00     0.074 A 
ATOM     40  C   UNL A   1      41.380  31.963  30.602  1.00  0.00     0.031 C 
ATOM     41  C   UNL A   1      40.314  25.616  28.106  1.00  0.00     0.029 A 
ATOM     42  C   UNL A   1      41.674  25.899  28.558  1.00  0.00     0.049 A 
ATOM     43  H   UNL A   1      42.378  27.663  29.415  1.00  0.00     0.167 HD
ATOM     44  C   UNL A   1      43.732  31.444  31.172  1.00  0.00     0.031 A 
ATOM     45  C   UNL A   1      42.715  25.045  28.501  1.00  0.00     0.031 A 
ATOM     46  C   UNL A   1      44.878  30.576  31.216  1.00  0.00     0.049 A 
ATOM     47  C   UNL A   1      44.058  25.484  29.024  1.00  0.00     0.074 A 
ATOM     48  C   UNL A   1      46.135  30.837  31.734  1.00  0.00     0.029 A 
ATOM     49  N   UNL A   1      44.909  29.282  30.720  1.00  0.00    -0.354 N 
ATOM     50  N   UNL A   1      44.395  26.628  29.573  1.00  0.00    -0.248 NA
ATOM     51  C   UNL A   1      45.159  24.516  28.927  1.00  0.00     0.031 C 
ATOM     52  C   UNL A   1      46.942  29.717  31.502  1.00  0.00     0.029 A 
ATOM     53  C   UNL A   1      46.170  28.740  30.894  1.00  0.00     0.049 A 
ATOM     54  H   UNL A   1      44.146  28.817  30.305  1.00  0.00     0.167 HD
ATOM     55  C   UNL A   1      45.739  26.505  29.910  1.00  0.00     0.074 A 
ATOM     56  C   UNL A   1      46.149  25.173  29.516  1.00  0.00     0.031 C 
ATOM     57  C   UNL A   1      46.560  27.411  30.496  1.00  0.00     0.031 A 
BRANCH  44  58
ATOM     58  C   UNL A   1      43.878  32.845  31.701  1.00  0.00    -0.014 A 
ATOM     59  C   UNL A   1      43.654  33.141  33.057  1.00  0.00     0.010 A 
ATOM     60  C   UNL A   1      44.292  33.874  30.834  1.00  0.00     0.010 A 
ATOM     61  C   UNL A   1      43.814  34.446  33.532  1.00  0.00     0.020 A 
ATOM     62  C   UNL A   1      44.476  35.175  31.310  1.00  0.00     0.020 A 
ATOM     63  C   UNL A   1      44.223  35.456  32.653  1.00  0.00     0.054 A 
BRANCH  63  64
ATOM     64  S   UNL A   1      44.455  37.134  33.303  1.00  0.00     0.124 S 
ATOM     65  O   UNL A   1      43.082  37.534  33.598  1.00  0.00    -0.237 OA
ATOM     66  O   UNL A   1      45.309  36.912  34.467  1.00  0.00    -0.237 OA
ATOM     67  O   UNL A   1      45.088  37.849  32.197  1.00  0.00    -0.744 OA
ENDBRANCH  63  64
ENDBRANCH  44  58
BRANCH  45  68
ATOM     68  C   UNL A   1      42.538  23.695  27.899  1.00  0.00    -0.014 A 
ATOM     69  C   UNL A   1      42.958  23.429  26.585  1.00  0.00     0.010 A 
ATOM     70  C   UNL A   1      41.937  22.666  28.646  1.00  0.00     0.010 A 
ATOM     71  C   UNL A   1      42.764  22.163  26.022  1.00  0.00     0.020 A 
ATOM     72  C   UNL A   1      41.764  21.393  28.097  1.00  0.00     0.020 A 
ATOM     73  C   UNL A   1      42.168  21.153  26.783  1.00  0.00     0.054 A 
BRANCH  73  74
ATOM     74  S   UNL A   1      41.966  19.505  26.051  1.00  0.00     0.124 S 
ATOM     75  O   UNL A   1      40.523  19.440  25.842  1.00  0.00    -0.237 OA
ATOM     76  O   UNL A   1      42.778  19.596  24.840  1.00  0.00    -0.237 OA
ATOM     77  O   UNL A   1      42.493  18.610  27.079  1.00  0.00    -0.744 OA
ENDBRANCH  73  74
ENDBRANCH  45  68
BRANCH  57  78
ATOM     78  C   UNL A   1      47.976  26.986  30.779  1.00  0.00    -0.014 A 
ATOM     79  C   UNL A   1      49.019  27.283  29.887  1.00  0.00     0.010 A 
ATOM     80  C   UNL A   1      48.272  26.329  31.988  1.00  0.00     0.010 A 
ATOM     81  C   UNL A   1      50.331  26.906  30.184  1.00  0.00     0.020 A 
ATOM     82  C   UNL A   1      49.586  25.974  32.302  1.00  0.00     0.020 A 
ATOM     83  C   UNL A   1      50.607  26.252  31.389  1.00  0.00     0.054 A 
BRANCH  83  84
ATOM     84  S   UNL A   1      52.323  25.811  31.774  1.00  0.00     0.124 S 
ATOM     85  O   UNL A   1      52.985  26.018  30.488  1.00  0.00    -0.237 OA
ATOM     86  O   UNL A   1      52.675  26.766  32.822  1.00  0.00    -0.237 OA
ATOM     87  O   UNL A   1      52.235  24.420  32.212  1.00  0.00    -0.744 OA
ENDBRANCH  83  84
ENDBRANCH  57  78
ENDBRANCH  31  32
ENDBRANCH  24  26
ENDBRANCH  23  24
ENDBRANCH  22  23
ENDBRANCH  21  22
ENDBRANCH   1  21
TORSDOF 21
ENDMDL
MODEL 2
REMARK VINA RESULT:      -8.6      5.075     10.637
REMARK SMILES CCCO[C@@H]1CCC[C@]([NH3+])(C(=O)OCCOCCOC(=O)c2ccc(-c3c4nc(c(-c5ccc(S(=O)(=O)[O-])cc5)c5ccc([nH]5)c(-c5ccc(S(=O)(=O)[O-])cc5)c5nc(c(-c6ccc(S(=O)(=O)[O-])cc6)c6ccc3[nH]6)C=C5)C=C4)cc2)C1
REMARK SMILES IDX 16 1 15 2 14 3 13 4 11 5 12 6 9 7 5 8 6 9 82 10 7 11 8 12
REMARK SMILES IDX 4 13 3 14 2 15 1 16 10 17 17 21 18 22 19 23 20 24 21 25
REMARK SMILES IDX 22 26 23 27 81 28 24 29 80 30 25 31 26 32 27 33 74 34 28 35
REMARK SMILES IDX 79 36 73 37 75 38 29 39 78 40 72 41 71 42 30 44 60 45 41 46
REMARK SMILES IDX 59 47 42 48 45 49 58 50 76 51 43 52 44 53 57 55 77 56 46 57
REMARK SMILES IDX 31 58 32 59 40 60 33 61 39 62 34 63 35 64 36 65 37 66 38 67
REMARK SMILES IDX 61 68 62 69 70 70 63 71 69 72 64 73 65 74 66 75 67 76 68 77
REMARK SMILES IDX 47 78 48 79 56 80 49 81 55 82 50 83 51 84 52 85 53 86 54 87
REMARK H PARENT 10 18 10 19 10 20 75 43 45 54
REMARK Flexibility Score: inf
ROOT
ATOM      1  O   UNL A   1      36.062  23.627  26.100  1.00  0.00    -0.374 OA
ENDROOT
BRANCH   1   2
ATOM      2  C   UNL A   1      35.100  22.615  26.382  1.00  0.00     0.202 C 
BRANCH   2   3
ATOM      3  C   UNL A   1      33.717  23.024  26.900  1.00  0.00     0.261 C 
BRANCH   3   4
ATOM      4  O   UNL A   1      33.181  24.203  26.272  1.00  0.00    -0.459 OA
BRANCH   4   5
ATOM      5  C   UNL A   1      31.822  24.283  26.357  1.00  0.00     0.368 C 
ATOM      6  O   UNL A   1      31.194  23.956  27.360  1.00  0.00    -0.245 OA
BRANCH   5   7
ATOM      7  C   UNL A   1      31.161  24.877  25.072  1.00  0.00     0.195 C 
ATOM      8  C   UNL A   1      31.882  26.917  23.540  1.00  0.00     0.125 C 
ATOM      9  C   UNL A   1      30.601  27.626  23.973  1.00  0.00     0.032 C 
ATOM     10  C   UNL A   1      32.267  25.662  24.326  1.00  0.00     0.113 C 
ATOM     11  C   UNL A   1      29.496  26.660  24.366  1.00  0.00     0.010 C 
ATOM     12  C   UNL A   1      29.971  25.749  25.492  1.00  0.00     0.081 C 
BRANCH   8  13
ATOM     13  O   UNL A   1      32.914  27.910  23.390  1.00  0.00    -0.378 OA
BRANCH  13  14
ATOM     14  C   UNL A   1      33.160  28.897  24.392  1.00  0.00     0.160 C 
BRANCH  14  15
ATOM     15  C   UNL A   1      33.795  28.392  25.694  1.00  0.00     0.025 C 
ATOM     16  C   UNL A   1      32.918  28.393  26.935  1.00  0.00     0.006 C 
ENDBRANCH  14  15
ENDBRANCH  13  14
ENDBRANCH   8  13
BRANCH   7  17
ATOM     17  N   UNL A   1      30.639  23.809  24.177  1.00  0.00    -0.343 N 
ATOM     18  H   UNL A   1      30.849  22.896  24.579  1.00  0.00     0.345 HD
ATOM     19  H   UNL A   1      31.081  23.887  23.261  1.00  0.00     0.345 HD
ATOM     20  H   UNL A   1      29.630  23.913  24.077  1.00  0.00     0.345 HD
ENDBRANCH   7  17
ENDBRANCH   5   7
ENDBRANCH   4   5
ENDBRANCH   3   4
ENDBRANCH   2   3
ENDBRANCH   1   2
BRANCH   1  21
ATOM     21  C   UNL A   1      37.445  23.313  26.223  1.00  0.00     0.202 C 
BRANCH  21  22
ATOM     22  C   UNL A   1      38.485  24.410  25.958  1.00  0.00     0.261 C 
BRANCH  22  23
ATOM     23  O   UNL A   1      39.416  24.584  27.040  1.00  0.00    -0.460 OA
BRANCH  23  24
ATOM     24  C   UNL A   1      40.182  25.700  26.938  1.00  0.00     0.338 C 
ATOM     25  O   UNL A   1      40.915  26.006  26.004  1.00  0.00    -0.246 OA
BRANCH  24  26
ATOM     26  C   UNL A   1      39.871  26.644  28.023  1.00  0.00     0.060 A 
ATOM     27  C   UNL A   1      40.434  27.926  27.941  1.00  0.00     0.016 A 
ATOM     28  C   UNL A   1      39.129  26.263  29.143  1.00  0.00     0.016 A 
ATOM     29  C   UNL A   1      40.305  28.814  29.004  1.00  0.00     0.010 A 
ATOM     30  C   UNL A   1      39.014  27.153  30.217  1.00  0.00     0.010 A 
ATOM     31  C   UNL A   1      39.637  28.414  30.168  1.00  0.00    -0.014 A 
BRANCH  31  32
ATOM     32  C   UNL A   1      39.753  29.252  31.384  1.00  0.00     0.031 A 
ATOM     33  C   UNL A   1      40.908  29.014  32.320  1.00  0.00     0.074 A 
ATOM     34  C   UNL A   1      38.876  30.244  31.624  1.00  0.00     0.049 A 
ATOM     35  N   UNL A   1      41.208  29.625  33.436  1.00  0.00    -0.248 NA
ATOM     36  C   UNL A   1      41.852  27.948  31.945  1.00  0.00     0.031 C 
ATOM     37  C   UNL A   1      37.748  30.602  30.766  1.00  0.00     0.029 A 
ATOM     38  N   UNL A   1      38.802  31.134  32.665  1.00  0.00    -0.354 N 
ATOM     39  C   UNL A   1      42.367  29.014  33.901  1.00  0.00     0.074 A 
ATOM     40  C   UNL A   1      42.703  27.969  32.960  1.00  0.00     0.031 C 
ATOM     41  C   UNL A   1      37.087  31.633  31.322  1.00  0.00     0.029 A 
ATOM     42  C   UNL A   1      37.728  31.987  32.587  1.00  0.00     0.049 A 
ATOM     43  H   UNL A   1      39.458  31.158  33.400  1.00  0.00     0.167 HD
ATOM     44  C   UNL A   1      43.087  29.300  35.011  1.00  0.00     0.031 A 
ATOM     45  C   UNL A   1      37.300  32.932  33.447  1.00  0.00     0.031 A 
ATOM     46  C   UNL A   1      42.745  30.336  35.948  1.00  0.00     0.049 A 
ATOM     47  C   UNL A   1      38.084  33.188  34.708  1.00  0.00     0.074 A 
ATOM     48  C   UNL A   1      43.421  30.714  37.096  1.00  0.00     0.029 A 
ATOM     49  N   UNL A   1      41.632  31.154  35.851  1.00  0.00    -0.354 N 
ATOM     50  N   UNL A   1      39.191  32.617  35.121  1.00  0.00    -0.248 NA
ATOM     51  C   UNL A   1      37.566  34.223  35.614  1.00  0.00     0.031 C 
ATOM     52  C   UNL A   1      42.685  31.727  37.720  1.00  0.00     0.029 A 
ATOM     53  C   UNL A   1      41.584  32.018  36.930  1.00  0.00     0.049 A 
ATOM     54  H   UNL A   1      40.971  31.125  35.121  1.00  0.00     0.167 HD
ATOM     55  C   UNL A   1      39.514  33.241  36.322  1.00  0.00     0.074 A 
ATOM     56  C   UNL A   1      38.495  34.242  36.561  1.00  0.00     0.031 C 
ATOM     57  C   UNL A   1      40.562  33.010  37.151  1.00  0.00     0.031 A 
BRANCH  44  58
ATOM     58  C   UNL A   1      44.301  28.457  35.291  1.00  0.00    -0.014 A 
ATOM     59  C   UNL A   1      45.573  28.829  34.822  1.00  0.00     0.010 A 
ATOM     60  C   UNL A   1      44.173  27.296  36.077  1.00  0.00     0.010 A 
ATOM     61  C   UNL A   1      46.692  28.041  35.110  1.00  0.00     0.020 A 
ATOM     62  C   UNL A   1      45.293  26.519  36.387  1.00  0.00     0.020 A 
ATOM     63  C   UNL A   1      46.543  26.889  35.890  1.00  0.00     0.054 A 
BRANCH  63  64
ATOM     64  S   UNL A   1      48.016  25.903  36.277  1.00  0.00     0.124 S 
ATOM     65  O   UNL A   1      49.093  26.851  36.004  1.00  0.00    -0.237 OA
ATOM     66  O   UNL A   1      47.817  25.568  37.685  1.00  0.00    -0.237 OA
ATOM     67  O   UNL A   1      47.931  24.775  35.353  1.00  0.00    -0.744 OA
ENDBRANCH  63  64
ENDBRANCH  44  58
BRANCH  45  68
ATOM     68  C   UNL A   1      36.051  33.688  33.161  1.00  0.00    -0.014 A 
ATOM     69  C   UNL A   1      36.094  34.943  32.529  1.00  0.00     0.010 A 
ATOM     70  C   UNL A   1      34.804  33.150  33.528  1.00  0.00     0.010 A 
ATOM     71  C   UNL A   1      34.915  35.654  32.287  1.00  0.00     0.020 A 
ATOM     72  C   UNL A   1      33.621  33.846  33.265  1.00  0.00     0.020 A 
ATOM     73  C   UNL A   1      33.686  35.100  32.657  1.00  0.00     0.054 A 
BRANCH  73  74
ATOM     74  S   UNL A   1      32.163  36.019  32.293  1.00  0.00     0.124 S 
ATOM     75  O   UNL A   1      32.224  37.104  33.266  1.00  0.00    -0.237 OA
ATOM     76  O   UNL A   1      32.355  36.407  30.898  1.00  0.00    -0.237 OA
ATOM     77  O   UNL A   1      31.109  35.032  32.517  1.00  0.00    -0.744 OA
ENDBRANCH  73  74
ENDBRANCH  45  68
BRANCH  57  78
ATOM     78  C   UNL A   1      40.682  33.874  38.378  1.00  0.00    -0.014 A 
ATOM     79  C   UNL A   1      41.373  35.096  38.345  1.00  0.00     0.010 A 
ATOM     80  C   UNL A   1      40.039  33.480  39.567  1.00  0.00     0.010 A 
ATOM     81  C   UNL A   1      41.446  35.897  39.488  1.00  0.00     0.020 A 
ATOM     82  C   UNL A   1      40.087  34.290  40.704  1.00  0.00     0.020 A 
ATOM     83  C   UNL A   1      40.803  35.488  40.661  1.00  0.00     0.054 A 
BRANCH  83  84
ATOM     84  S   UNL A   1      40.874  36.565  42.119  1.00  0.00     0.124 S 
ATOM     85  O   UNL A   1      41.732  37.650  41.652  1.00  0.00    -0.237 OA
ATOM     86  O   UNL A   1      39.472  36.918  42.327  1.00  0.00    -0.237 OA
ATOM     87  O   UNL A   1      41.455  35.711  43.152  1.00  0.00    -0.744 OA
ENDBRANCH  83  84
ENDBRANCH  57  78
ENDBRANCH  31  32
ENDBRANCH  24  26
ENDBRANCH  23  24
ENDBRANCH  22  23
ENDBRANCH  21  22
ENDBRANCH   1  21
TORSDOF 21
ENDMDL
MODEL 3
REMARK VINA RESULT:      -8.4      2.906      9.442
REMARK SMILES CCCO[C@@H]1CCC[C@]([NH3+])(C(=O)OCCOCCOC(=O)c2ccc(-c3c4nc(c(-c5ccc(S(=O)(=O)[O-])cc5)c5ccc([nH]5)c(-c5ccc(S(=O)(=O)[O-])cc5)c5nc(c(-c6ccc(S(=O)(=O)[O-])cc6)c6ccc3[nH]6)C=C5)C=C4)cc2)C1
REMARK SMILES IDX 16 1 15 2 14 3 13 4 11 5 12 6 9 7 5 8 6 9 82 10 7 11 8 12
REMARK SMILES IDX 4 13 3 14 2 15 1 16 10 17 17 21 18 22 19 23 20 24 21 25
REMARK SMILES IDX 22 26 23 27 81 28 24 29 80 30 25 31 26 32 27 33 74 34 28 35
REMARK SMILES IDX 79 36 73 37 75 38 29 39 78 40 72 41 71 42 30 44 60 45 41 46
REMARK SMILES IDX 59 47 42 48 45 49 58 50 76 51 43 52 44 53 57 55 77 56 46 57
REMARK SMILES IDX 31 58 32 59 40 60 33 61 39 62 34 63 35 64 36 65 37 66 38 67
REMARK SMILES IDX 61 68 62 69 70 70 63 71 69 72 64 73 65 74 66 75 67 76 68 77
REMARK SMILES IDX 47 78 48 79 56 80 49 81 55 82 50 83 51 84 52 85 53 86 54 87
REMARK H PARENT 10 18 10 19 10 20 75 43 45 54
REMARK Flexibility Score: inf
ROOT
ATOM      1  O   UNL A   1      34.189  22.859  26.402  1.00  0.00    -0.374 OA
ENDROOT
BRANCH   1   2
ATOM      2  C   UNL A   1      33.094  22.900  25.493  1.00  0.00     0.202 C 
BRANCH   2   3
ATOM      3  C   UNL A   1      31.682  23.153  26.035  1.00  0.00     0.261 C 
BRANCH   3   4
ATOM      4  O   UNL A   1      30.684  23.317  25.011  1.00  0.00    -0.459 OA
BRANCH   4   5
ATOM      5  C   UNL A   1      30.942  24.366  24.178  1.00  0.00     0.368 C 
ATOM      6  O   UNL A   1      31.469  24.232  23.077  1.00  0.00    -0.245 OA
BRANCH   5   7
ATOM      7  C   UNL A   1      30.452  25.736  24.746  1.00  0.00     0.195 C 
ATOM      8  C   UNL A   1      29.775  27.981  23.509  1.00  0.00     0.125 C 
ATOM      9  C   UNL A   1      30.974  28.650  24.180  1.00  0.00     0.032 C 
ATOM     10  C   UNL A   1      29.709  26.455  23.595  1.00  0.00     0.113 C 
ATOM     11  C   UNL A   1      31.360  27.989  25.492  1.00  0.00     0.010 C 
ATOM     12  C   UNL A   1      31.669  26.513  25.266  1.00  0.00     0.081 C 
BRANCH   8  13
ATOM     13  O   UNL A   1      29.626  28.547  22.193  1.00  0.00    -0.378 OA
BRANCH  13  14
ATOM     14  C   UNL A   1      29.491  29.954  21.991  1.00  0.00     0.160 C 
BRANCH  14  15
ATOM     15  C   UNL A   1      28.064  30.513  22.067  1.00  0.00     0.025 C 
ATOM     16  C   UNL A   1      27.642  31.152  23.380  1.00  0.00     0.006 C 
ENDBRANCH  14  15
ENDBRANCH  13  14
ENDBRANCH   8  13
BRANCH   7  17
ATOM     17  N   UNL A   1      29.516  25.557  25.889  1.00  0.00    -0.343 N 
ATOM     18  H   UNL A   1      29.036  24.662  25.797  1.00  0.00     0.345 HD
ATOM     19  H   UNL A   1      28.830  26.312  25.889  1.00  0.00     0.345 HD
ATOM     20  H   UNL A   1      30.040  25.573  26.763  1.00  0.00     0.345 HD
ENDBRANCH   7  17
ENDBRANCH   5   7
ENDBRANCH   4   5
ENDBRANCH   3   4
ENDBRANCH   2   3
ENDBRANCH   1   2
BRANCH   1  21
ATOM     21  C   UNL A   1      35.419  22.286  25.971  1.00  0.00     0.202 C 
BRANCH  21  22
ATOM     22  C   UNL A   1      36.290  23.057  24.969  1.00  0.00     0.261 C 
BRANCH  22  23
ATOM     23  O   UNL A   1      37.171  24.005  25.595  1.00  0.00    -0.460 OA
BRANCH  23  24
ATOM     24  C   UNL A   1      38.323  23.465  26.068  1.00  0.00     0.338 C 
ATOM     25  O   UNL A   1      38.785  22.363  25.792  1.00  0.00    -0.246 OA
BRANCH  24  26
ATOM     26  C   UNL A   1      39.095  24.466  26.822  1.00  0.00     0.060 A 
ATOM     27  C   UNL A   1      38.796  24.616  28.183  1.00  0.00     0.016 A 
ATOM     28  C   UNL A   1      40.021  25.305  26.199  1.00  0.00     0.016 A 
ATOM     29  C   UNL A   1      39.379  25.645  28.916  1.00  0.00     0.010 A 
ATOM     30  C   UNL A   1      40.594  26.348  26.934  1.00  0.00     0.010 A 
ATOM     31  C   UNL A   1      40.243  26.547  28.282  1.00  0.00    -0.014 A 
BRANCH  31  32
ATOM     32  C   UNL A   1      40.628  27.789  28.993  1.00  0.00     0.031 A 
ATOM     33  C   UNL A   1      41.993  27.869  29.623  1.00  0.00     0.074 A 
ATOM     34  C   UNL A   1      39.799  28.848  29.031  1.00  0.00     0.049 A 
ATOM     35  N   UNL A   1      42.541  28.851  30.289  1.00  0.00    -0.248 NA
ATOM     36  C   UNL A   1      42.856  26.684  29.478  1.00  0.00     0.031 C 
ATOM     37  C   UNL A   1      38.473  28.907  28.415  1.00  0.00     0.029 A 
ATOM     38  N   UNL A   1      39.954  30.079  29.614  1.00  0.00    -0.354 N 
ATOM     39  C   UNL A   1      43.806  28.402  30.651  1.00  0.00     0.074 A 
ATOM     40  C   UNL A   1      43.937  27.051  30.152  1.00  0.00     0.031 C 
ATOM     41  C   UNL A   1      37.932  30.113  28.662  1.00  0.00     0.029 A 
ATOM     42  C   UNL A   1      38.859  30.897  29.476  1.00  0.00     0.049 A 
ATOM     43  H   UNL A   1      40.774  30.351  30.088  1.00  0.00     0.167 HD
ATOM     44  C   UNL A   1      44.773  29.058  31.335  1.00  0.00     0.031 A 
ATOM     45  C   UNL A   1      38.623  32.130  29.967  1.00  0.00     0.031 A 
ATOM     46  C   UNL A   1      44.636  30.399  31.836  1.00  0.00     0.049 A 
ATOM     47  C   UNL A   1      39.691  32.815  30.780  1.00  0.00     0.074 A 
ATOM     48  C   UNL A   1      45.565  31.157  32.529  1.00  0.00     0.029 A 
ATOM     49  N   UNL A   1      43.499  31.180  31.705  1.00  0.00    -0.354 N 
ATOM     50  N   UNL A   1      40.891  32.385  31.094  1.00  0.00    -0.248 NA
ATOM     51  C   UNL A   1      39.377  34.153  31.298  1.00  0.00     0.031 C 
ATOM     52  C   UNL A   1      44.969  32.378  32.862  1.00  0.00     0.029 A 
ATOM     53  C   UNL A   1      43.691  32.402  32.326  1.00  0.00     0.049 A 
ATOM     54  H   UNL A   1      42.676  30.906  31.238  1.00  0.00     0.167 HD
ATOM     55  C   UNL A   1      41.482  33.411  31.824  1.00  0.00     0.074 A 
ATOM     56  C   UNL A   1      40.515  34.487  31.892  1.00  0.00     0.031 C 
ATOM     57  C   UNL A   1      42.716  33.462  32.383  1.00  0.00     0.031 A 
BRANCH  44  58
ATOM     58  C   UNL A   1      46.054  28.320  31.612  1.00  0.00    -0.014 A 
ATOM     59  C   UNL A   1      46.211  27.539  32.771  1.00  0.00     0.010 A 
ATOM     60  C   UNL A   1      47.101  28.370  30.673  1.00  0.00     0.010 A 
ATOM     61  C   UNL A   1      47.403  26.844  32.999  1.00  0.00     0.020 A 
ATOM     62  C   UNL A   1      48.285  27.659  30.886  1.00  0.00     0.020 A 
ATOM     63  C   UNL A   1      48.433  26.911  32.055  1.00  0.00     0.054 A 
BRANCH  63  64
ATOM     64  S   UNL A   1      49.957  25.974  32.360  1.00  0.00     0.124 S 
ATOM     65  O   UNL A   1      50.662  26.844  33.297  1.00  0.00    -0.237 OA
ATOM     66  O   UNL A   1      49.456  24.722  32.922  1.00  0.00    -0.237 OA
ATOM     67  O   UNL A   1      50.565  25.861  31.037  1.00  0.00    -0.744 OA
ENDBRANCH  63  64
ENDBRANCH  44  58
BRANCH  45  68
ATOM     68  C   UNL A   1      37.310  32.788  29.728  1.00  0.00    -0.014 A 
ATOM     69  C   UNL A   1      37.041  33.444  28.514  1.00  0.00     0.010 A 
ATOM     70  C   UNL A   1      36.319  32.763  30.726  1.00  0.00     0.010 A 
ATOM     71  C   UNL A   1      35.812  34.079  28.311  1.00  0.00     0.020 A 
ATOM     72  C   UNL A   1      35.080  33.374  30.517  1.00  0.00     0.020 A 
ATOM     73  C   UNL A   1      34.839  34.040  29.315  1.00  0.00     0.054 A 
BRANCH  73  74
ATOM     74  S   UNL A   1      33.233  34.830  29.013  1.00  0.00     0.124 S 
ATOM     75  O   UNL A   1      32.621  33.917  28.053  1.00  0.00    -0.237 OA
ATOM     76  O   UNL A   1      32.633  34.844  30.345  1.00  0.00    -0.237 OA
ATOM     77  O   UNL A   1      33.595  36.145  28.488  1.00  0.00    -0.744 OA
ENDBRANCH  73  74
ENDBRANCH  45  68
BRANCH  57  78
ATOM     78  C   UNL A   1      43.107  34.731  33.092  1.00  0.00    -0.014 A 
ATOM     79  C   UNL A   1      42.924  34.879  34.477  1.00  0.00     0.010 A 
ATOM     80  C   UNL A   1      43.722  35.767  32.365  1.00  0.00     0.010 A 
ATOM     81  C   UNL A   1      43.323  36.054  35.119  1.00  0.00     0.020 A 
ATOM     82  C   UNL A   1      44.146  36.933  33.008  1.00  0.00     0.020 A 
ATOM     83  C   UNL A   1      43.930  37.075  34.381  1.00  0.00     0.054 A 
BRANCH  83  84
ATOM     84  S   UNL A   1      44.478  38.573  35.244  1.00  0.00     0.124 S 
ATOM     85  O   UNL A   1      43.734  39.616  34.543  1.00  0.00    -0.237 OA
ATOM     86  O   UNL A   1      44.062  38.322  36.621  1.00  0.00    -0.237 OA
ATOM     87  O   UNL A   1      45.923  38.587  35.029  1.00  0.00    -0.744 OA
ENDBRANCH  83  84
ENDBRANCH  57  78
ENDBRANCH  31  32
ENDBRANCH  24  26
ENDBRANCH  23  24
ENDBRANCH  22  23
ENDBRANCH  21  22
ENDBRANCH   1  21
TORSDOF 21
ENDMDL
