MODEL 1
REMARK VINA RESULT:     -10.6      0.000      0.000
REMARK SMILES CC(=O)OCC1=C(C(=O)OCCOCCOC(=O)c2ccc(-c3c4nc(c(-c5ccc(S(=O)(=O)[O-])cc5)c5ccc([nH]5)c(-c5ccc(S(=O)(=O)[O-])cc5)c5nc(c(-c6ccc(S(=O)(=O)[O-])cc6)c6ccc3[nH]6)C=C5)C=C4)cc2)N2C(=O)[C@H](NC(=O)C3CCCCC3)[C@@H]2SC1
REMARK SMILES IDX 13 1 12 2 11 3 10 4 8 5 9 6 7 7 6 8 94 9 79 10 93 11 80 12
REMARK SMILES IDX 92 13 81 14 82 15 5 16 4 17 2 18 1 19 3 20 83 21 84 22 85 24
REMARK SMILES IDX 86 25 87 26 91 27 88 28 90 29 89 30 14 31 15 32 16 33 17 34
REMARK SMILES IDX 18 35 19 36 20 37 78 38 21 39 77 40 22 41 23 42 24 43 71 44
REMARK SMILES IDX 25 45 76 46 70 47 72 48 26 49 75 50 69 51 68 52 27 54 57 55
REMARK SMILES IDX 38 56 56 57 39 58 42 59 55 60 73 61 40 62 41 63 54 65 74 66
REMARK SMILES IDX 43 67 28 68 29 69 37 70 30 71 36 72 31 73 32 74 33 75 34 76
REMARK SMILES IDX 35 77 58 78 59 79 67 80 60 81 66 82 61 83 62 84 63 85 64 86
REMARK SMILES IDX 65 87 44 88 45 89 53 90 46 91 52 92 47 93 48 94 49 95 50 96
REMARK SMILES IDX 51 97
REMARK H PARENT 83 23 72 53 42 64
REMARK Flexibility Score: inf
ROOT
ATOM      1  O   UNL A   1      33.546  29.307  27.667  1.00  0.00    -0.374 OA
ENDROOT
BRANCH   1   2
ATOM      2  C   UNL A   1      33.256  28.193  26.816  1.00  0.00     0.202 C 
BRANCH   2   3
ATOM      3  C   UNL A   1      31.884  27.550  27.032  1.00  0.00     0.261 C 
BRANCH   3   4
ATOM      4  O   UNL A   1      31.957  26.170  26.642  1.00  0.00    -0.459 OA
BRANCH   4   5
ATOM      5  C   UNL A   1      30.797  25.644  26.187  1.00  0.00     0.355 C 
ATOM      6  O   UNL A   1      29.673  25.883  26.593  1.00  0.00    -0.244 OA
BRANCH   5   7
ATOM      7  C   UNL A   1      31.100  24.803  24.988  1.00  0.00     0.134 C 
ATOM      8  C   UNL A   1      31.026  25.287  23.727  1.00  0.00     0.008 C 
ATOM      9  C   UNL A   1      31.566  24.534  22.520  1.00  0.00     0.108 C 
ATOM     10  N   UNL A   1      31.518  23.533  25.225  1.00  0.00    -0.289 N 
ATOM     11  S   UNL A   1      32.678  23.141  22.908  1.00  0.00    -0.129 SA
ATOM     12  C   UNL A   1      31.821  22.759  26.281  1.00  0.00     0.253 C 
ATOM     13  C   UNL A   1      31.613  22.506  24.215  1.00  0.00     0.181 C 
ATOM     14  O   UNL A   1      31.781  22.934  27.478  1.00  0.00    -0.272 OA
ATOM     15  C   UNL A   1      32.229  21.591  25.317  1.00  0.00     0.205 C 
BRANCH   8  16
ATOM     16  C   UNL A   1      30.468  26.661  23.401  1.00  0.00     0.267 C 
BRANCH  16  17
ATOM     17  O   UNL A   1      31.513  27.647  23.509  1.00  0.00    -0.461 OA
BRANCH  17  18
ATOM     18  C   UNL A   1      31.105  28.944  23.570  1.00  0.00     0.302 C 
ATOM     19  C   UNL A   1      30.509  29.380  22.266  1.00  0.00     0.139 C 
ATOM     20  O   UNL A   1      31.233  29.682  24.535  1.00  0.00    -0.253 OA
ENDBRANCH  17  18
ENDBRANCH  16  17
ENDBRANCH   8  16
BRANCH  15  21
ATOM     21  N   UNL A   1      33.678  21.304  25.256  1.00  0.00    -0.342 N 
ATOM     22  C   UNL A   1      34.411  20.210  24.934  1.00  0.00     0.223 C 
ATOM     23  H   UNL A   1      34.234  22.080  25.501  1.00  0.00     0.164 HD
ATOM     24  O   UNL A   1      35.640  20.365  24.981  1.00  0.00    -0.275 OA
BRANCH  22  25
ATOM     25  C   UNL A   1      33.859  18.832  24.541  1.00  0.00     0.078 C 
ATOM     26  C   UNL A   1      34.819  17.730  24.106  1.00  0.00     0.013 C 
ATOM     27  C   UNL A   1      32.945  18.337  25.683  1.00  0.00     0.013 C 
ATOM     28  C   UNL A   1      34.115  16.410  23.794  1.00  0.00     0.001 C 
ATOM     29  C   UNL A   1      32.258  17.012  25.361  1.00  0.00     0.001 C 
ATOM     30  C   UNL A   1      33.264  15.941  24.965  1.00  0.00     0.000 C 
ENDBRANCH  22  25
ENDBRANCH  15  21
ENDBRANCH   5   7
ENDBRANCH   4   5
ENDBRANCH   3   4
ENDBRANCH   2   3
ENDBRANCH   1   2
BRANCH   1  31
ATOM     31  C   UNL A   1      33.802  30.564  27.044  1.00  0.00     0.202 C 
BRANCH  31  32
ATOM     32  C   UNL A   1      33.046  31.769  27.618  1.00  0.00     0.261 C 
BRANCH  32  33
ATOM     33  O   UNL A   1      33.762  33.006  27.453  1.00  0.00    -0.460 OA
BRANCH  33  34
ATOM     34  C   UNL A   1      33.690  33.833  28.526  1.00  0.00     0.338 C 
ATOM     35  O   UNL A   1      32.795  34.623  28.785  1.00  0.00    -0.246 OA
BRANCH  34  36
ATOM     36  C   UNL A   1      34.792  33.561  29.469  1.00  0.00     0.060 A 
ATOM     37  C   UNL A   1      36.042  34.110  29.163  1.00  0.00     0.016 A 
ATOM     38  C   UNL A   1      34.640  32.713  30.570  1.00  0.00     0.016 A 
ATOM     39  C   UNL A   1      37.160  33.765  29.919  1.00  0.00     0.010 A 
ATOM     40  C   UNL A   1      35.765  32.364  31.327  1.00  0.00     0.010 A 
ATOM     41  C   UNL A   1      37.037  32.855  30.978  1.00  0.00    -0.014 A 
BRANCH  41  42
ATOM     42  C   UNL A   1      38.269  32.318  31.607  1.00  0.00     0.031 A 
ATOM     43  C   UNL A   1      38.647  32.776  32.991  1.00  0.00     0.074 A 
ATOM     44  C   UNL A   1      39.005  31.379  30.984  1.00  0.00     0.049 A 
ATOM     45  N   UNL A   1      39.636  32.382  33.752  1.00  0.00    -0.248 NA
ATOM     46  C   UNL A   1      37.796  33.812  33.599  1.00  0.00     0.031 C 
ATOM     47  C   UNL A   1      38.727  30.829  29.658  1.00  0.00     0.029 A 
ATOM     48  N   UNL A   1      40.133  30.714  31.395  1.00  0.00    -0.354 N 
ATOM     49  C   UNL A   1      39.527  33.118  34.926  1.00  0.00     0.074 A 
ATOM     50  C   UNL A   1      38.397  34.007  34.764  1.00  0.00     0.031 C 
ATOM     51  C   UNL A   1      39.659  29.904  29.366  1.00  0.00     0.029 A 
ATOM     52  C   UNL A   1      40.605  29.809  30.476  1.00  0.00     0.049 A 
ATOM     53  H   UNL A   1      40.563  30.871  32.267  1.00  0.00     0.167 HD
ATOM     54  C   UNL A   1      40.290  33.053  36.044  1.00  0.00     0.031 A 
ATOM     55  C   UNL A   1      41.680  28.995  30.523  1.00  0.00     0.031 A 
ATOM     56  C   UNL A   1      41.421  32.179  36.204  1.00  0.00     0.049 A 
ATOM     57  C   UNL A   1      42.539  28.972  31.759  1.00  0.00     0.074 A 
ATOM     58  C   UNL A   1      42.251  32.036  37.303  1.00  0.00     0.029 A 
ATOM     59  N   UNL A   1      41.884  31.301  35.237  1.00  0.00    -0.354 N 
ATOM     60  N   UNL A   1      42.404  29.657  32.870  1.00  0.00    -0.248 NA
ATOM     61  C   UNL A   1      43.684  28.052  31.753  1.00  0.00     0.031 C 
ATOM     62  C   UNL A   1      43.244  31.104  36.983  1.00  0.00     0.029 A 
ATOM     63  C   UNL A   1      42.998  30.625  35.706  1.00  0.00     0.049 A 
ATOM     64  H   UNL A   1      41.480  31.175  34.348  1.00  0.00     0.167 HD
ATOM     65  C   UNL A   1      43.429  29.224  33.707  1.00  0.00     0.074 A 
ATOM     66  C   UNL A   1      44.168  28.215  32.976  1.00  0.00     0.031 C 
ATOM     67  C   UNL A   1      43.726  29.623  34.968  1.00  0.00     0.031 A 
BRANCH  54  68
ATOM     68  C   UNL A   1      39.937  33.981  37.175  1.00  0.00    -0.014 A 
ATOM     69  C   UNL A   1      40.293  35.342  37.138  1.00  0.00     0.010 A 
ATOM     70  C   UNL A   1      39.213  33.494  38.277  1.00  0.00     0.010 A 
ATOM     71  C   UNL A   1      39.968  36.188  38.203  1.00  0.00     0.020 A 
ATOM     72  C   UNL A   1      38.864  34.342  39.332  1.00  0.00     0.020 A 
ATOM     73  C   UNL A   1      39.260  35.680  39.296  1.00  0.00     0.054 A 
BRANCH  73  74
ATOM     74  S   UNL A   1      38.841  36.800  40.660  1.00  0.00     0.124 S 
ATOM     75  O   UNL A   1      38.215  37.914  39.951  1.00  0.00    -0.237 OA
ATOM     76  O   UNL A   1      37.942  35.991  41.478  1.00  0.00    -0.237 OA
ATOM     77  O   UNL A   1      40.134  37.100  41.270  1.00  0.00    -0.744 OA
ENDBRANCH  73  74
ENDBRANCH  54  68
BRANCH  55  78
ATOM     78  C   UNL A   1      42.000  28.126  29.358  1.00  0.00    -0.014 A 
ATOM     79  C   UNL A   1      41.342  26.898  29.175  1.00  0.00     0.010 A 
ATOM     80  C   UNL A   1      42.969  28.531  28.422  1.00  0.00     0.010 A 
ATOM     81  C   UNL A   1      41.658  26.082  28.084  1.00  0.00     0.020 A 
ATOM     82  C   UNL A   1      43.269  27.730  27.317  1.00  0.00     0.020 A 
ATOM     83  C   UNL A   1      42.620  26.505  27.161  1.00  0.00     0.054 A 
BRANCH  83  84
ATOM     84  S   UNL A   1      42.978  25.458  25.723  1.00  0.00     0.124 S 
ATOM     85  O   UNL A   1      41.835  25.731  24.857  1.00  0.00    -0.237 OA
ATOM     86  O   UNL A   1      44.262  25.981  25.263  1.00  0.00    -0.237 OA
ATOM     87  O   UNL A   1      43.030  24.111  26.289  1.00  0.00    -0.744 OA
ENDBRANCH  83  84
ENDBRANCH  55  78
BRANCH  67  88
ATOM     88  C   UNL A   1      44.875  28.938  35.658  1.00  0.00    -0.014 A 
ATOM     89  C   UNL A   1      44.695  27.736  36.366  1.00  0.00     0.010 A 
ATOM     90  C   UNL A   1      46.166  29.489  35.563  1.00  0.00     0.010 A 
ATOM     91  C   UNL A   1      45.778  27.120  37.000  1.00  0.00     0.020 A 
ATOM     92  C   UNL A   1      47.255  28.864  36.175  1.00  0.00     0.020 A 
ATOM     93  C   UNL A   1      47.051  27.693  36.906  1.00  0.00     0.054 A 
BRANCH  93  94
ATOM     94  S   UNL A   1      48.446  26.865  37.718  1.00  0.00     0.124 S 
ATOM     95  O   UNL A   1      49.368  27.976  37.941  1.00  0.00    -0.237 OA
ATOM     96  O   UNL A   1      47.835  26.304  38.920  1.00  0.00    -0.237 OA
ATOM     97  O   UNL A   1      48.884  25.880  36.732  1.00  0.00    -0.744 OA
ENDBRANCH  93  94
ENDBRANCH  67  88
ENDBRANCH  41  42
ENDBRANCH  34  36
ENDBRANCH  33  34
ENDBRANCH  32  33
ENDBRANCH  31  32
ENDBRANCH   1  31
TORSDOF 22
ENDMDL
MODEL 2
REMARK VINA RESULT:     -10.2      5.906     11.579
REMARK SMILES CC(=O)OCC1=C(C(=O)OCCOCCOC(=O)c2ccc(-c3c4nc(c(-c5ccc(S(=O)(=O)[O-])cc5)c5ccc([nH]5)c(-c5ccc(S(=O)(=O)[O-])cc5)c5nc(c(-c6ccc(S(=O)(=O)[O-])cc6)c6ccc3[nH]6)C=C5)C=C4)cc2)N2C(=O)[C@H](NC(=O)C3CCCCC3)[C@@H]2SC1
REMARK SMILES IDX 13 1 12 2 11 3 10 4 8 5 9 6 7 7 6 8 94 9 79 10 93 11 80 12
REMARK SMILES IDX 92 13 81 14 82 15 5 16 4 17 2 18 1 19 3 20 83 21 84 22 85 24
REMARK SMILES IDX 86 25 87 26 91 27 88 28 90 29 89 30 14 31 15 32 16 33 17 34
REMARK SMILES IDX 18 35 19 36 20 37 78 38 21 39 77 40 22 41 23 42 24 43 71 44
REMARK SMILES IDX 25 45 76 46 70 47 72 48 26 49 75 50 69 51 68 52 27 54 57 55
REMARK SMILES IDX 38 56 56 57 39 58 42 59 55 60 73 61 40 62 41 63 54 65 74 66
REMARK SMILES IDX 43 67 28 68 29 69 37 70 30 71 36 72 31 73 32 74 33 75 34 76
REMARK SMILES IDX 35 77 58 78 59 79 67 80 60 81 66 82 61 83 62 84 63 85 64 86
REMARK SMILES IDX 65 87 44 88 45 89 53 90 46 91 52 92 47 93 48 94 49 95 50 96
REMARK SMILES IDX 51 97
REMARK H PARENT 83 23 72 53 42 64
REMARK Flexibility Score: inf
ROOT
ATOM      1  O   UNL A   1      37.312  22.344  25.684  1.00  0.00    -0.374 OA
ENDROOT
BRANCH   1   2
ATOM      2  C   UNL A   1      36.951  23.726  25.585  1.00  0.00     0.202 C 
BRANCH   2   3
ATOM      3  C   UNL A   1      35.489  24.042  25.909  1.00  0.00     0.261 C 
BRANCH   3   4
ATOM      4  O   UNL A   1      34.924  24.779  24.814  1.00  0.00    -0.459 OA
BRANCH   4   5
ATOM      5  C   UNL A   1      34.499  24.022  23.777  1.00  0.00     0.355 C 
ATOM      6  O   UNL A   1      35.177  23.300  23.068  1.00  0.00    -0.244 OA
BRANCH   5   7
ATOM      7  C   UNL A   1      33.007  24.105  23.715  1.00  0.00     0.134 C 
ATOM      8  C   UNL A   1      32.207  23.388  24.537  1.00  0.00     0.008 C 
ATOM      9  C   UNL A   1      30.712  23.640  24.662  1.00  0.00     0.108 C 
ATOM     10  N   UNL A   1      32.482  24.990  22.828  1.00  0.00    -0.289 N 
ATOM     11  S   UNL A   1      30.130  25.220  23.960  1.00  0.00    -0.129 SA
ATOM     12  C   UNL A   1      32.921  25.924  21.967  1.00  0.00     0.253 C 
ATOM     13  C   UNL A   1      31.091  25.032  22.448  1.00  0.00     0.181 C 
ATOM     14  O   UNL A   1      34.024  26.294  21.634  1.00  0.00    -0.272 OA
ATOM     15  C   UNL A   1      31.441  26.301  21.611  1.00  0.00     0.205 C 
BRANCH   8  16
ATOM     16  C   UNL A   1      32.734  22.312  25.470  1.00  0.00     0.267 C 
BRANCH  16  17
ATOM     17  O   UNL A   1      32.081  21.060  25.184  1.00  0.00    -0.461 OA
BRANCH  17  18
ATOM     18  C   UNL A   1      32.668  20.286  24.231  1.00  0.00     0.302 C 
ATOM     19  C   UNL A   1      34.064  19.915  24.625  1.00  0.00     0.139 C 
ATOM     20  O   UNL A   1      32.155  19.957  23.171  1.00  0.00    -0.253 OA
ENDBRANCH  17  18
ENDBRANCH  16  17
ENDBRANCH   8  16
BRANCH  15  21
ATOM     21  N   UNL A   1      30.988  27.615  22.114  1.00  0.00    -0.342 N 
ATOM     22  C   UNL A   1      31.335  28.393  23.168  1.00  0.00     0.223 C 
ATOM     23  H   UNL A   1      30.279  28.015  21.559  1.00  0.00     0.164 HD
ATOM     24  O   UNL A   1      30.728  29.471  23.253  1.00  0.00    -0.275 OA
BRANCH  22  25
ATOM     25  C   UNL A   1      32.378  28.051  24.243  1.00  0.00     0.078 C 
ATOM     26  C   UNL A   1      33.483  29.051  24.567  1.00  0.00     0.013 C 
ATOM     27  C   UNL A   1      31.628  27.636  25.527  1.00  0.00     0.013 C 
ATOM     28  C   UNL A   1      34.409  28.579  25.687  1.00  0.00     0.001 C 
ATOM     29  C   UNL A   1      32.566  27.179  26.641  1.00  0.00     0.001 C 
ATOM     30  C   UNL A   1      33.628  28.226  26.944  1.00  0.00     0.000 C 
ENDBRANCH  22  25
ENDBRANCH  15  21
ENDBRANCH   5   7
ENDBRANCH   4   5
ENDBRANCH   3   4
ENDBRANCH   2   3
ENDBRANCH   1   2
BRANCH   1  31
ATOM     31  C   UNL A   1      38.633  22.036  26.124  1.00  0.00     0.202 C 
BRANCH  31  32
ATOM     32  C   UNL A   1      39.185  20.669  25.702  1.00  0.00     0.261 C 
BRANCH  32  33
ATOM     33  O   UNL A   1      40.016  20.068  26.710  1.00  0.00    -0.460 OA
BRANCH  33  34
ATOM     34  C   UNL A   1      41.290  19.831  26.308  1.00  0.00     0.338 C 
ATOM     35  O   UNL A   1      41.708  18.830  25.748  1.00  0.00    -0.246 OA
BRANCH  34  36
ATOM     36  C   UNL A   1      42.129  21.030  26.500  1.00  0.00     0.060 A 
ATOM     37  C   UNL A   1      42.389  21.421  27.818  1.00  0.00     0.016 A 
ATOM     38  C   UNL A   1      42.568  21.812  25.428  1.00  0.00     0.016 A 
ATOM     39  C   UNL A   1      43.038  22.627  28.073  1.00  0.00     0.010 A 
ATOM     40  C   UNL A   1      43.217  23.026  25.686  1.00  0.00     0.010 A 
ATOM     41  C   UNL A   1      43.416  23.459  27.010  1.00  0.00    -0.014 A 
BRANCH  41  42
ATOM     42  C   UNL A   1      43.877  24.837  27.309  1.00  0.00     0.031 A 
ATOM     43  C   UNL A   1      45.327  25.187  27.102  1.00  0.00     0.074 A 
ATOM     44  C   UNL A   1      43.003  25.786  27.692  1.00  0.00     0.049 A 
ATOM     45  N   UNL A   1      45.926  26.343  27.231  1.00  0.00    -0.248 NA
ATOM     46  C   UNL A   1      46.219  24.090  26.692  1.00  0.00     0.031 C 
ATOM     47  C   UNL A   1      41.569  25.583  27.896  1.00  0.00     0.029 A 
ATOM     48  N   UNL A   1      43.197  27.117  27.964  1.00  0.00    -0.354 N 
ATOM     49  C   UNL A   1      47.261  26.115  26.918  1.00  0.00     0.074 A 
ATOM     50  C   UNL A   1      47.392  24.704  26.627  1.00  0.00     0.031 C 
ATOM     51  C   UNL A   1      41.011  26.753  28.257  1.00  0.00     0.029 A 
ATOM     52  C   UNL A   1      42.049  27.780  28.325  1.00  0.00     0.049 A 
ATOM     53  H   UNL A   1      44.077  27.557  27.907  1.00  0.00     0.167 HD
ATOM     54  C   UNL A   1      48.286  27.001  26.865  1.00  0.00     0.031 A 
ATOM     55  C   UNL A   1      41.855  29.068  28.671  1.00  0.00     0.031 A 
ATOM     56  C   UNL A   1      48.161  28.403  27.165  1.00  0.00     0.049 A 
ATOM     57  C   UNL A   1      43.017  30.025  28.647  1.00  0.00     0.074 A 
ATOM     58  C   UNL A   1      49.140  29.380  27.132  1.00  0.00     0.029 A 
ATOM     59  N   UNL A   1      46.987  29.026  27.557  1.00  0.00    -0.354 N 
ATOM     60  N   UNL A   1      44.267  29.796  28.323  1.00  0.00    -0.248 NA
ATOM     61  C   UNL A   1      42.735  31.419  29.019  1.00  0.00     0.031 C 
ATOM     62  C   UNL A   1      48.567  30.587  27.547  1.00  0.00     0.029 A 
ATOM     63  C   UNL A   1      47.219  30.372  27.785  1.00  0.00     0.049 A 
ATOM     64  H   UNL A   1      46.116  28.578  27.656  1.00  0.00     0.167 HD
ATOM     65  C   UNL A   1      44.914  31.025  28.420  1.00  0.00     0.074 A 
ATOM     66  C   UNL A   1      43.915  31.992  28.825  1.00  0.00     0.031 C 
ATOM     67  C   UNL A   1      46.216  31.325  28.188  1.00  0.00     0.031 A 
BRANCH  54  68
ATOM     68  C   UNL A   1      49.642  26.465  26.494  1.00  0.00    -0.014 A 
ATOM     69  C   UNL A   1      50.489  25.895  27.462  1.00  0.00     0.010 A 
ATOM     70  C   UNL A   1      50.065  26.506  25.153  1.00  0.00     0.010 A 
ATOM     71  C   UNL A   1      51.751  25.413  27.102  1.00  0.00     0.020 A 
ATOM     72  C   UNL A   1      51.315  26.003  24.786  1.00  0.00     0.020 A 
ATOM     73  C   UNL A   1      52.158  25.476  25.766  1.00  0.00     0.054 A 
BRANCH  73  74
ATOM     74  S   UNL A   1      53.796  24.835  25.322  1.00  0.00     0.124 S 
ATOM     75  O   UNL A   1      54.555  25.080  26.547  1.00  0.00    -0.237 OA
ATOM     76  O   UNL A   1      53.524  23.432  25.022  1.00  0.00    -0.237 OA
ATOM     77  O   UNL A   1      54.187  25.650  24.175  1.00  0.00    -0.744 OA
ENDBRANCH  73  74
ENDBRANCH  54  68
BRANCH  55  78
ATOM     78  C   UNL A   1      40.497  29.532  29.065  1.00  0.00    -0.014 A 
ATOM     79  C   UNL A   1      39.540  29.864  28.091  1.00  0.00     0.010 A 
ATOM     80  C   UNL A   1      40.156  29.639  30.425  1.00  0.00     0.010 A 
ATOM     81  C   UNL A   1      38.270  30.310  28.471  1.00  0.00     0.020 A 
ATOM     82  C   UNL A   1      38.880  30.060  30.808  1.00  0.00     0.020 A 
ATOM     83  C   UNL A   1      37.948  30.404  29.828  1.00  0.00     0.054 A 
BRANCH  83  84
ATOM     84  S   UNL A   1      36.278  30.933  30.300  1.00  0.00     0.124 S 
ATOM     85  O   UNL A   1      36.001  30.076  31.448  1.00  0.00    -0.237 OA
ATOM     86  O   UNL A   1      36.468  32.351  30.597  1.00  0.00    -0.237 OA
ATOM     87  O   UNL A   1      35.484  30.657  29.105  1.00  0.00    -0.744 OA
ENDBRANCH  83  84
ENDBRANCH  55  78
BRANCH  67  88
ATOM     88  C   UNL A   1      46.629  32.765  28.326  1.00  0.00    -0.014 A 
ATOM     89  C   UNL A   1      47.120  33.275  29.541  1.00  0.00     0.010 A 
ATOM     90  C   UNL A   1      46.560  33.614  27.205  1.00  0.00     0.010 A 
ATOM     91  C   UNL A   1      47.496  34.618  29.643  1.00  0.00     0.020 A 
ATOM     92  C   UNL A   1      46.957  34.951  27.297  1.00  0.00     0.020 A 
ATOM     93  C   UNL A   1      47.404  35.449  28.522  1.00  0.00     0.054 A 
BRANCH  93  94
ATOM     94  S   UNL A   1      47.918  37.183  28.671  1.00  0.00     0.124 S 
ATOM     95  O   UNL A   1      46.962  37.697  29.649  1.00  0.00    -0.237 OA
ATOM     96  O   UNL A   1      49.297  37.072  29.139  1.00  0.00    -0.237 OA
ATOM     97  O   UNL A   1      47.767  37.706  27.316  1.00  0.00    -0.744 OA
ENDBRANCH  93  94
ENDBRANCH  67  88
ENDBRANCH  41  42
ENDBRANCH  34  36
ENDBRANCH  33  34
ENDBRANCH  32  33
ENDBRANCH  31  32
ENDBRANCH   1  31
TORSDOF 22
ENDMDL
MODEL 3
REMARK VINA RESULT:     -10.1      5.848     10.986
REMARK SMILES CC(=O)OCC1=C(C(=O)OCCOCCOC(=O)c2ccc(-c3c4nc(c(-c5ccc(S(=O)(=O)[O-])cc5)c5ccc([nH]5)c(-c5ccc(S(=O)(=O)[O-])cc5)c5nc(c(-c6ccc(S(=O)(=O)[O-])cc6)c6ccc3[nH]6)C=C5)C=C4)cc2)N2C(=O)[C@H](NC(=O)C3CCCCC3)[C@@H]2SC1
REMARK SMILES IDX 13 1 12 2 11 3 10 4 8 5 9 6 7 7 6 8 94 9 79 10 93 11 80 12
REMARK SMILES IDX 92 13 81 14 82 15 5 16 4 17 2 18 1 19 3 20 83 21 84 22 85 24
REMARK SMILES IDX 86 25 87 26 91 27 88 28 90 29 89 30 14 31 15 32 16 33 17 34
REMARK SMILES IDX 18 35 19 36 20 37 78 38 21 39 77 40 22 41 23 42 24 43 71 44
REMARK SMILES IDX 25 45 76 46 70 47 72 48 26 49 75 50 69 51 68 52 27 54 57 55
REMARK SMILES IDX 38 56 56 57 39 58 42 59 55 60 73 61 40 62 41 63 54 65 74 66
REMARK SMILES IDX 43 67 28 68 29 69 37 70 30 71 36 72 31 73 32 74 33 75 34 76
REMARK SMILES IDX 35 77 58 78 59 79 67 80 60 81 66 82 61 83 62 84 63 85 64 86
REMARK SMILES IDX 65 87 44 88 45 89 53 90 46 91 52 92 47 93 48 94 49 95 50 96
REMARK SMILES IDX 51 97
REMARK H PARENT 83 23 72 53 42 64
REMARK Flexibility Score: inf
ROOT
ATOM      1  O   UNL A   1      37.785  22.439  24.819  1.00  0.00    -0.374 OA
ENDROOT
BRANCH   1   2
ATOM      2  C   UNL A   1      36.940  22.292  23.673  1.00  0.00     0.202 C 
BRANCH   2   3
ATOM      3  C   UNL A   1      35.811  23.321  23.562  1.00  0.00     0.261 C 
BRANCH   3   4
ATOM      4  O   UNL A   1      35.773  24.093  24.772  1.00  0.00    -0.459 OA
BRANCH   4   5
ATOM      5  C   UNL A   1      35.054  23.542  25.777  1.00  0.00     0.355 C 
ATOM      6  O   UNL A   1      35.445  23.273  26.899  1.00  0.00    -0.244 OA
BRANCH   5   7
ATOM      7  C   UNL A   1      33.631  23.432  25.331  1.00  0.00     0.134 C 
ATOM      8  C   UNL A   1      32.863  24.518  25.085  1.00  0.00     0.008 C 
ATOM      9  C   UNL A   1      31.508  24.434  24.398  1.00  0.00     0.108 C 
ATOM     10  N   UNL A   1      33.153  22.177  25.122  1.00  0.00    -0.289 N 
ATOM     11  S   UNL A   1      31.160  22.852  23.559  1.00  0.00    -0.129 SA
ATOM     12  C   UNL A   1      33.614  20.915  25.137  1.00  0.00     0.253 C 
ATOM     13  C   UNL A   1      31.757  21.859  24.939  1.00  0.00     0.181 C 
ATOM     14  O   UNL A   1      34.688  20.426  25.403  1.00  0.00    -0.272 OA
ATOM     15  C   UNL A   1      32.210  20.390  24.676  1.00  0.00     0.205 C 
BRANCH   8  16
ATOM     16  C   UNL A   1      33.311  25.934  25.400  1.00  0.00     0.267 C 
BRANCH  16  17
ATOM     17  O   UNL A   1      32.710  26.852  24.465  1.00  0.00    -0.461 OA
BRANCH  17  18
ATOM     18  C   UNL A   1      32.789  28.171  24.790  1.00  0.00     0.302 C 
ATOM     19  C   UNL A   1      31.696  28.557  25.739  1.00  0.00     0.139 C 
ATOM     20  O   UNL A   1      33.611  28.961  24.349  1.00  0.00    -0.253 OA
ENDBRANCH  17  18
ENDBRANCH  16  17
ENDBRANCH   8  16
BRANCH  15  21
ATOM     21  N   UNL A   1      32.153  19.881  23.288  1.00  0.00    -0.342 N 
ATOM     22  C   UNL A   1      32.445  18.692  22.706  1.00  0.00     0.223 C 
ATOM     23  H   UNL A   1      31.831  20.554  22.645  1.00  0.00     0.164 HD
ATOM     24  O   UNL A   1      32.246  18.638  21.484  1.00  0.00    -0.275 OA
BRANCH  22  25
ATOM     25  C   UNL A   1      33.000  17.447  23.416  1.00  0.00     0.078 C 
ATOM     26  C   UNL A   1      34.486  17.368  23.750  1.00  0.00     0.013 C 
ATOM     27  C   UNL A   1      32.145  17.191  24.676  1.00  0.00     0.013 C 
ATOM     28  C   UNL A   1      34.865  16.089  24.494  1.00  0.00     0.001 C 
ATOM     29  C   UNL A   1      32.544  15.916  25.414  1.00  0.00     0.001 C 
ATOM     30  C   UNL A   1      34.028  15.904  25.751  1.00  0.00     0.000 C 
ENDBRANCH  22  25
ENDBRANCH  15  21
ENDBRANCH   5   7
ENDBRANCH   4   5
ENDBRANCH   3   4
ENDBRANCH   2   3
ENDBRANCH   1   2
BRANCH   1  31
ATOM     31  C   UNL A   1      38.275  21.249  25.434  1.00  0.00     0.202 C 
BRANCH  31  32
ATOM     32  C   UNL A   1      39.565  21.391  26.250  1.00  0.00     0.261 C 
BRANCH  32  33
ATOM     33  O   UNL A   1      40.104  20.124  26.666  1.00  0.00    -0.460 OA
BRANCH  33  34
ATOM     34  C   UNL A   1      41.374  19.898  26.244  1.00  0.00     0.338 C 
ATOM     35  O   UNL A   1      41.788  18.907  25.664  1.00  0.00    -0.246 OA
BRANCH  34  36
ATOM     36  C   UNL A   1      42.211  21.097  26.443  1.00  0.00     0.060 A 
ATOM     37  C   UNL A   1      42.457  21.490  27.763  1.00  0.00     0.016 A 
ATOM     38  C   UNL A   1      42.663  21.876  25.375  1.00  0.00     0.016 A 
ATOM     39  C   UNL A   1      43.103  22.697  28.023  1.00  0.00     0.010 A 
ATOM     40  C   UNL A   1      43.309  23.091  25.637  1.00  0.00     0.010 A 
ATOM     41  C   UNL A   1      43.494  23.526  26.963  1.00  0.00    -0.014 A 
BRANCH  41  42
ATOM     42  C   UNL A   1      43.952  24.905  27.264  1.00  0.00     0.031 A 
ATOM     43  C   UNL A   1      45.404  25.254  27.072  1.00  0.00     0.074 A 
ATOM     44  C   UNL A   1      43.074  25.855  27.635  1.00  0.00     0.049 A 
ATOM     45  N   UNL A   1      46.002  26.410  27.205  1.00  0.00    -0.248 NA
ATOM     46  C   UNL A   1      46.301  24.156  26.674  1.00  0.00     0.031 C 
ATOM     47  C   UNL A   1      41.639  25.653  27.824  1.00  0.00     0.029 A 
ATOM     48  N   UNL A   1      43.266  27.187  27.907  1.00  0.00    -0.354 N 
ATOM     49  C   UNL A   1      47.341  26.181  26.907  1.00  0.00     0.074 A 
ATOM     50  C   UNL A   1      47.474  24.769  26.620  1.00  0.00     0.031 C 
ATOM     51  C   UNL A   1      41.077  26.824  28.177  1.00  0.00     0.029 A 
ATOM     52  C   UNL A   1      42.115  27.850  28.254  1.00  0.00     0.049 A 
ATOM     53  H   UNL A   1      44.147  27.626  27.858  1.00  0.00     0.167 HD
ATOM     54  C   UNL A   1      48.366  27.066  26.863  1.00  0.00     0.031 A 
ATOM     55  C   UNL A   1      41.917  29.140  28.595  1.00  0.00     0.031 A 
ATOM     56  C   UNL A   1      48.239  28.468  27.159  1.00  0.00     0.049 A 
ATOM     57  C   UNL A   1      43.080  30.096  28.582  1.00  0.00     0.074 A 
ATOM     58  C   UNL A   1      49.219  29.446  27.135  1.00  0.00     0.029 A 
ATOM     59  N   UNL A   1      47.061  29.093  27.537  1.00  0.00    -0.354 N 
ATOM     60  N   UNL A   1      44.334  29.866  28.272  1.00  0.00    -0.248 NA
ATOM     61  C   UNL A   1      42.795  31.491  28.948  1.00  0.00     0.031 C 
ATOM     62  C   UNL A   1      48.642  30.654  27.541  1.00  0.00     0.029 A 
ATOM     63  C   UNL A   1      47.291  30.439  27.765  1.00  0.00     0.049 A 
ATOM     64  H   UNL A   1      46.189  28.646  27.628  1.00  0.00     0.167 HD
ATOM     65  C   UNL A   1      44.980  31.095  28.374  1.00  0.00     0.074 A 
ATOM     66  C   UNL A   1      43.977  32.063  28.766  1.00  0.00     0.031 C 
ATOM     67  C   UNL A   1      46.285  31.393  28.155  1.00  0.00     0.031 A 
BRANCH  54  68
ATOM     68  C   UNL A   1      49.726  26.529  26.508  1.00  0.00    -0.014 A 
ATOM     69  C   UNL A   1      50.606  26.061  27.501  1.00  0.00     0.010 A 
ATOM     70  C   UNL A   1      50.120  26.465  25.159  1.00  0.00     0.010 A 
ATOM     71  C   UNL A   1      51.871  25.577  27.154  1.00  0.00     0.020 A 
ATOM     72  C   UNL A   1      51.374  25.959  24.807  1.00  0.00     0.020 A 
ATOM     73  C   UNL A   1      52.249  25.535  25.809  1.00  0.00     0.054 A 
BRANCH  73  74
ATOM     74  S   UNL A   1      53.891  24.892  25.384  1.00  0.00     0.124 S 
ATOM     75  O   UNL A   1      53.596  23.494  25.079  1.00  0.00    -0.237 OA
ATOM     76  O   UNL A   1      54.275  25.717  24.242  1.00  0.00    -0.237 OA
ATOM     77  O   UNL A   1      54.673  25.112  26.599  1.00  0.00    -0.744 OA
ENDBRANCH  73  74
ENDBRANCH  54  68
BRANCH  55  78
ATOM     78  C   UNL A   1      40.555  29.604  28.973  1.00  0.00    -0.014 A 
ATOM     79  C   UNL A   1      39.524  29.659  28.021  1.00  0.00     0.010 A 
ATOM     80  C   UNL A   1      40.286  29.993  30.298  1.00  0.00     0.010 A 
ATOM     81  C   UNL A   1      38.250  30.108  28.382  1.00  0.00     0.020 A 
ATOM     82  C   UNL A   1      39.008  30.419  30.669  1.00  0.00     0.020 A 
ATOM     83  C   UNL A   1      38.000  30.484  29.705  1.00  0.00     0.054 A 
BRANCH  83  84
ATOM     84  S   UNL A   1      36.328  31.013  30.168  1.00  0.00     0.124 S 
ATOM     85  O   UNL A   1      36.092  30.245  31.386  1.00  0.00    -0.237 OA
ATOM     86  O   UNL A   1      36.490  32.455  30.348  1.00  0.00    -0.237 OA
ATOM     87  O   UNL A   1      35.518  30.626  29.014  1.00  0.00    -0.744 OA
ENDBRANCH  83  84
ENDBRANCH  55  78
BRANCH  67  88
ATOM     88  C   UNL A   1      46.697  32.834  28.294  1.00  0.00    -0.014 A 
ATOM     89  C   UNL A   1      47.178  33.346  29.512  1.00  0.00     0.010 A 
ATOM     90  C   UNL A   1      46.637  33.682  27.172  1.00  0.00     0.010 A 
ATOM     91  C   UNL A   1      47.553  34.689  29.617  1.00  0.00     0.020 A 
ATOM     92  C   UNL A   1      47.033  35.018  27.266  1.00  0.00     0.020 A 
ATOM     93  C   UNL A   1      47.471  35.518  28.494  1.00  0.00     0.054 A 
BRANCH  93  94
ATOM     94  S   UNL A   1      47.983  37.252  28.645  1.00  0.00     0.124 S 
ATOM     95  O   UNL A   1      49.277  37.127  29.311  1.00  0.00    -0.237 OA
ATOM     96  O   UNL A   1      48.032  37.698  27.254  1.00  0.00    -0.237 OA
ATOM     97  O   UNL A   1      46.923  37.857  29.449  1.00  0.00    -0.744 OA
ENDBRANCH  93  94
ENDBRANCH  67  88
ENDBRANCH  41  42
ENDBRANCH  34  36
ENDBRANCH  33  34
ENDBRANCH  32  33
ENDBRANCH  31  32
ENDBRANCH   1  31
TORSDOF 22
ENDMDL
