MODEL 1
REMARK VINA RESULT:     -11.6      0.000      0.000
REMARK SMILES C[C@]1(Cn2c(=O)[nH]c3cc(C(=O)OCCOCCOC(=O)c4ccc(-c5c6nc(c(-c7ccc(S(=O)(=O)[O-])cc7)c7ccc([nH]7)c(-c7ccc(S(=O)(=O)[O-])cc7)c7nc(c(-c8ccc(S(=O)(=O)[O-])cc8)c8ccc5[nH]8)C=C7)C=C6)cc4)ccc32)CCCO1
REMARK SMILES IDX 17 1 16 2 15 3 14 4 13 5 11 6 12 7 10 8 4 9 5 10 84 11 6 12
REMARK SMILES IDX 7 13 8 14 83 15 9 17 82 18 3 19 2 20 1 21 85 22 88 23 86 24
REMARK SMILES IDX 87 25 18 26 19 27 20 28 21 29 22 30 23 31 81 32 24 33 80 34
REMARK SMILES IDX 25 35 26 36 27 37 74 38 28 39 79 40 73 41 75 42 29 43 78 44
REMARK SMILES IDX 72 45 71 46 30 48 60 49 41 50 59 51 42 52 45 53 58 54 76 55
REMARK SMILES IDX 43 56 44 57 57 59 77 60 46 61 31 62 32 63 40 64 33 65 39 66
REMARK SMILES IDX 34 67 35 68 36 69 37 70 38 71 61 72 62 73 70 74 63 75 69 76
REMARK SMILES IDX 64 77 65 78 66 79 67 80 68 81 47 82 48 83 56 84 49 85 55 86
REMARK SMILES IDX 50 87 51 88 52 89 53 90 54 91
REMARK H PARENT 7 16 75 47 45 58
REMARK Flexibility Score: inf
ROOT
ATOM      1  C   UNL A   1      41.985  21.196  26.327  1.00  0.00     0.202 C 
ENDROOT
BRANCH   1   2
ATOM      2  O   UNL A   1      40.732  21.766  25.941  1.00  0.00    -0.374 OA
BRANCH   2   3
ATOM      3  C   UNL A   1      40.019  22.573  26.872  1.00  0.00     0.202 C 
BRANCH   3   4
ATOM      4  C   UNL A   1      38.818  23.411  26.407  1.00  0.00     0.261 C 
BRANCH   4   5
ATOM      5  O   UNL A   1      37.591  22.688  26.421  1.00  0.00    -0.460 OA
BRANCH   5   6
ATOM      6  C   UNL A   1      37.002  22.651  25.202  1.00  0.00     0.338 C 
ATOM      7  O   UNL A   1      37.389  22.046  24.216  1.00  0.00    -0.246 OA
BRANCH   6   8
ATOM      8  C   UNL A   1      35.681  23.308  25.250  1.00  0.00     0.062 A 
ATOM      9  N   UNL A   1      31.719  24.327  25.501  1.00  0.00    -0.289 N 
ATOM     10  C   UNL A   1      31.393  23.716  26.737  1.00  0.00     0.326 A 
ATOM     11  C   UNL A   1      33.107  24.251  25.317  1.00  0.00     0.069 A 
ATOM     12  O   UNL A   1      30.293  23.575  27.242  1.00  0.00    -0.248 OA
ATOM     13  N   UNL A   1      32.596  23.227  27.266  1.00  0.00    -0.306 N 
ATOM     14  C   UNL A   1      33.615  23.490  26.366  1.00  0.00     0.067 A 
ATOM     15  C   UNL A   1      33.920  24.700  24.299  1.00  0.00     0.029 A 
ATOM     16  H   UNL A   1      32.698  22.772  28.133  1.00  0.00     0.171 HD
ATOM     17  C   UNL A   1      34.895  23.009  26.370  1.00  0.00     0.044 A 
ATOM     18  C   UNL A   1      35.224  24.195  24.249  1.00  0.00     0.018 A 
BRANCH   9  19
ATOM     19  C   UNL A   1      30.745  24.655  24.480  1.00  0.00     0.162 C 
BRANCH  19  20
ATOM     20  C   UNL A   1      30.463  26.176  24.285  1.00  0.00     0.083 C 
ATOM     21  C   UNL A   1      28.983  26.467  23.981  1.00  0.00     0.044 C 
ATOM     22  C   UNL A   1      30.992  27.056  25.418  1.00  0.00     0.039 C 
ATOM     23  O   UNL A   1      31.203  26.650  23.130  1.00  0.00    -0.373 OA
ATOM     24  C   UNL A   1      31.100  28.408  24.753  1.00  0.00     0.031 C 
ATOM     25  C   UNL A   1      31.475  28.055  23.324  1.00  0.00     0.161 C 
ENDBRANCH  19  20
ENDBRANCH   9  19
ENDBRANCH   6   8
ENDBRANCH   5   6
ENDBRANCH   4   5
ENDBRANCH   3   4
ENDBRANCH   2   3
ENDBRANCH   1   2
BRANCH   1  26
ATOM     26  C   UNL A   1      43.275  21.557  25.568  1.00  0.00     0.261 C 
BRANCH  26  27
ATOM     27  O   UNL A   1      43.095  22.694  24.714  1.00  0.00    -0.460 OA
BRANCH  27  28
ATOM     28  C   UNL A   1      43.966  23.717  24.926  1.00  0.00     0.338 C 
ATOM     29  O   UNL A   1      44.964  23.986  24.275  1.00  0.00    -0.246 OA
BRANCH  28  30
ATOM     30  C   UNL A   1      43.276  24.657  25.833  1.00  0.00     0.060 A 
ATOM     31  C   UNL A   1      42.165  25.382  25.402  1.00  0.00     0.016 A 
ATOM     32  C   UNL A   1      43.957  25.013  27.011  1.00  0.00     0.016 A 
ATOM     33  C   UNL A   1      41.784  26.511  26.122  1.00  0.00     0.010 A 
ATOM     34  C   UNL A   1      43.600  26.170  27.701  1.00  0.00     0.010 A 
ATOM     35  C   UNL A   1      42.529  26.938  27.243  1.00  0.00    -0.014 A 
BRANCH  35  36
ATOM     36  C   UNL A   1      41.964  28.020  28.060  1.00  0.00     0.031 A 
ATOM     37  C   UNL A   1      42.878  29.192  28.098  1.00  0.00     0.074 A 
ATOM     38  C   UNL A   1      40.753  28.118  28.652  1.00  0.00     0.049 A 
ATOM     39  N   UNL A   1      43.556  29.614  29.112  1.00  0.00    -0.248 NA
ATOM     40  C   UNL A   1      43.212  29.849  26.826  1.00  0.00     0.031 C 
ATOM     41  C   UNL A   1      39.597  27.229  28.547  1.00  0.00     0.029 A 
ATOM     42  N   UNL A   1      40.278  29.132  29.444  1.00  0.00    -0.354 N 
ATOM     43  C   UNL A   1      44.270  30.714  28.656  1.00  0.00     0.074 A 
ATOM     44  C   UNL A   1      44.148  30.711  27.220  1.00  0.00     0.031 C 
ATOM     45  C   UNL A   1      38.501  27.853  29.050  1.00  0.00     0.029 A 
ATOM     46  C   UNL A   1      38.899  29.121  29.642  1.00  0.00     0.049 A 
ATOM     47  H   UNL A   1      40.866  29.815  29.841  1.00  0.00     0.167 HD
ATOM     48  C   UNL A   1      44.743  31.661  29.509  1.00  0.00     0.031 A 
ATOM     49  C   UNL A   1      38.143  30.096  30.221  1.00  0.00     0.031 A 
ATOM     50  C   UNL A   1      44.750  31.201  30.872  1.00  0.00     0.049 A 
ATOM     51  C   UNL A   1      39.040  30.902  31.082  1.00  0.00     0.074 A 
ATOM     52  C   UNL A   1      45.349  30.147  31.534  1.00  0.00     0.029 A 
ATOM     53  N   UNL A   1      43.744  31.645  31.697  1.00  0.00    -0.354 N 
ATOM     54  N   UNL A   1      39.583  30.458  32.177  1.00  0.00    -0.248 NA
ATOM     55  C   UNL A   1      39.655  32.084  30.502  1.00  0.00     0.031 C 
ATOM     56  C   UNL A   1      44.377  29.706  32.475  1.00  0.00     0.029 A 
ATOM     57  C   UNL A   1      43.277  30.561  32.391  1.00  0.00     0.049 A 
ATOM     58  H   UNL A   1      43.419  32.572  31.774  1.00  0.00     0.167 HD
ATOM     59  C   UNL A   1      40.853  31.011  32.179  1.00  0.00     0.074 A 
ATOM     60  C   UNL A   1      40.811  32.068  31.169  1.00  0.00     0.031 C 
ATOM     61  C   UNL A   1      41.898  30.386  32.796  1.00  0.00     0.031 A 
BRANCH  48  62
ATOM     62  C   UNL A   1      44.866  33.116  29.145  1.00  0.00    -0.014 A 
ATOM     63  C   UNL A   1      46.102  33.749  28.906  1.00  0.00     0.010 A 
ATOM     64  C   UNL A   1      43.704  33.828  28.788  1.00  0.00     0.010 A 
ATOM     65  C   UNL A   1      46.185  35.030  28.363  1.00  0.00     0.020 A 
ATOM     66  C   UNL A   1      43.776  35.095  28.197  1.00  0.00     0.020 A 
ATOM     67  C   UNL A   1      45.019  35.692  28.000  1.00  0.00     0.054 A 
BRANCH  67  68
ATOM     68  S   UNL A   1      45.172  37.315  27.220  1.00  0.00     0.124 S 
ATOM     69  O   UNL A   1      46.117  37.037  26.141  1.00  0.00    -0.237 OA
ATOM     70  O   UNL A   1      43.801  37.591  26.804  1.00  0.00    -0.237 OA
ATOM     71  O   UNL A   1      45.682  38.163  28.294  1.00  0.00    -0.744 OA
ENDBRANCH  67  68
ENDBRANCH  48  62
BRANCH  49  72
ATOM     72  C   UNL A   1      36.828  30.648  29.781  1.00  0.00    -0.014 A 
ATOM     73  C   UNL A   1      36.589  30.881  28.414  1.00  0.00     0.010 A 
ATOM     74  C   UNL A   1      35.970  31.281  30.710  1.00  0.00     0.010 A 
ATOM     75  C   UNL A   1      35.612  31.791  27.992  1.00  0.00     0.020 A 
ATOM     76  C   UNL A   1      34.988  32.199  30.292  1.00  0.00     0.020 A 
ATOM     77  C   UNL A   1      34.850  32.482  28.934  1.00  0.00     0.054 A 
BRANCH  77  78
ATOM     78  S   UNL A   1      33.768  33.823  28.352  1.00  0.00     0.124 S 
ATOM     79  O   UNL A   1      34.685  34.619  27.539  1.00  0.00    -0.237 OA
ATOM     80  O   UNL A   1      32.741  33.100  27.606  1.00  0.00    -0.237 OA
ATOM     81  O   UNL A   1      33.308  34.461  29.582  1.00  0.00    -0.744 OA
ENDBRANCH  77  78
ENDBRANCH  49  72
BRANCH  61  82
ATOM     82  C   UNL A   1      41.634  29.263  33.776  1.00  0.00    -0.014 A 
ATOM     83  C   UNL A   1      41.667  29.602  35.142  1.00  0.00     0.010 A 
ATOM     84  C   UNL A   1      41.559  27.900  33.428  1.00  0.00     0.010 A 
ATOM     85  C   UNL A   1      41.677  28.620  36.132  1.00  0.00     0.020 A 
ATOM     86  C   UNL A   1      41.536  26.905  34.421  1.00  0.00     0.020 A 
ATOM     87  C   UNL A   1      41.624  27.275  35.766  1.00  0.00     0.054 A 
BRANCH  87  88
ATOM     88  S   UNL A   1      41.710  26.037  37.087  1.00  0.00     0.124 S 
ATOM     89  O   UNL A   1      42.842  26.509  37.882  1.00  0.00    -0.237 OA
ATOM     90  O   UNL A   1      40.403  26.162  37.730  1.00  0.00    -0.237 OA
ATOM     91  O   UNL A   1      41.932  24.778  36.380  1.00  0.00    -0.744 OA
ENDBRANCH  87  88
ENDBRANCH  61  82
ENDBRANCH  35  36
ENDBRANCH  28  30
ENDBRANCH  27  28
ENDBRANCH  26  27
ENDBRANCH   1  26
TORSDOF 19
ENDMDL
MODEL 2
REMARK VINA RESULT:     -11.4      2.024      2.771
REMARK SMILES C[C@]1(Cn2c(=O)[nH]c3cc(C(=O)OCCOCCOC(=O)c4ccc(-c5c6nc(c(-c7ccc(S(=O)(=O)[O-])cc7)c7ccc([nH]7)c(-c7ccc(S(=O)(=O)[O-])cc7)c7nc(c(-c8ccc(S(=O)(=O)[O-])cc8)c8ccc5[nH]8)C=C7)C=C6)cc4)ccc32)CCCO1
REMARK SMILES IDX 17 1 16 2 15 3 14 4 13 5 11 6 12 7 10 8 4 9 5 10 84 11 6 12
REMARK SMILES IDX 7 13 8 14 83 15 9 17 82 18 3 19 2 20 1 21 85 22 88 23 86 24
REMARK SMILES IDX 87 25 18 26 19 27 20 28 21 29 22 30 23 31 81 32 24 33 80 34
REMARK SMILES IDX 25 35 26 36 27 37 74 38 28 39 79 40 73 41 75 42 29 43 78 44
REMARK SMILES IDX 72 45 71 46 30 48 60 49 41 50 59 51 42 52 45 53 58 54 76 55
REMARK SMILES IDX 43 56 44 57 57 59 77 60 46 61 31 62 32 63 40 64 33 65 39 66
REMARK SMILES IDX 34 67 35 68 36 69 37 70 38 71 61 72 62 73 70 74 63 75 69 76
REMARK SMILES IDX 64 77 65 78 66 79 67 80 68 81 47 82 48 83 56 84 49 85 55 86
REMARK SMILES IDX 50 87 51 88 52 89 53 90 54 91
REMARK H PARENT 7 16 75 47 45 58
REMARK Flexibility Score: inf
ROOT
ATOM      1  C   UNL A   1      42.262  18.860  26.454  1.00  0.00     0.202 C 
ENDROOT
BRANCH   1   2
ATOM      2  O   UNL A   1      40.951  19.417  26.330  1.00  0.00    -0.374 OA
BRANCH   2   3
ATOM      3  C   UNL A   1      40.810  20.788  25.970  1.00  0.00     0.202 C 
BRANCH   3   4
ATOM      4  C   UNL A   1      39.604  21.597  26.473  1.00  0.00     0.261 C 
BRANCH   4   5
ATOM      5  O   UNL A   1      38.802  22.123  25.420  1.00  0.00    -0.460 OA
BRANCH   5   6
ATOM      6  C   UNL A   1      37.600  21.507  25.333  1.00  0.00     0.338 C 
ATOM      7  O   UNL A   1      37.392  20.309  25.234  1.00  0.00    -0.246 OA
BRANCH   6   8
ATOM      8  C   UNL A   1      36.510  22.474  25.563  1.00  0.00     0.062 A 
ATOM      9  N   UNL A   1      32.970  24.495  26.000  1.00  0.00    -0.289 N 
ATOM     10  C   UNL A   1      32.309  23.625  26.901  1.00  0.00     0.326 A 
ATOM     11  C   UNL A   1      34.299  24.070  25.863  1.00  0.00     0.069 A 
ATOM     12  O   UNL A   1      31.146  23.659  27.269  1.00  0.00    -0.248 OA
ATOM     13  N   UNL A   1      33.243  22.644  27.262  1.00  0.00    -0.306 N 
ATOM     14  C   UNL A   1      34.421  22.878  26.573  1.00  0.00     0.067 A 
ATOM     15  C   UNL A   1      35.348  24.573  25.124  1.00  0.00     0.029 A 
ATOM     16  H   UNL A   1      33.087  21.910  27.901  1.00  0.00     0.171 HD
ATOM     17  C   UNL A   1      35.511  22.062  26.454  1.00  0.00     0.044 A 
ATOM     18  C   UNL A   1      36.463  23.746  24.947  1.00  0.00     0.018 A 
BRANCH   9  19
ATOM     19  C   UNL A   1      32.285  25.432  25.133  1.00  0.00     0.162 C 
BRANCH  19  20
ATOM     20  C   UNL A   1      32.279  26.914  25.619  1.00  0.00     0.083 C 
ATOM     21  C   UNL A   1      32.323  27.917  24.453  1.00  0.00     0.044 C 
ATOM     22  C   UNL A   1      31.157  27.240  26.605  1.00  0.00     0.039 C 
ATOM     23  O   UNL A   1      33.479  27.162  26.397  1.00  0.00    -0.373 OA
ATOM     24  C   UNL A   1      31.689  28.467  27.306  1.00  0.00     0.031 C 
ATOM     25  C   UNL A   1      33.187  28.216  27.338  1.00  0.00     0.161 C 
ENDBRANCH  19  20
ENDBRANCH   9  19
ENDBRANCH   6   8
ENDBRANCH   5   6
ENDBRANCH   4   5
ENDBRANCH   3   4
ENDBRANCH   2   3
ENDBRANCH   1   2
BRANCH   1  26
ATOM     26  C   UNL A   1      43.289  19.019  25.318  1.00  0.00     0.261 C 
BRANCH  26  27
ATOM     27  O   UNL A   1      44.299  19.983  25.638  1.00  0.00    -0.460 OA
BRANCH  27  28
ATOM     28  C   UNL A   1      44.578  20.875  24.649  1.00  0.00     0.338 C 
ATOM     29  O   UNL A   1      44.675  20.647  23.454  1.00  0.00    -0.246 OA
BRANCH  28  30
ATOM     30  C   UNL A   1      44.354  22.213  25.234  1.00  0.00     0.060 A 
ATOM     31  C   UNL A   1      44.935  22.570  26.451  1.00  0.00     0.016 A 
ATOM     32  C   UNL A   1      43.308  22.975  24.684  1.00  0.00     0.016 A 
ATOM     33  C   UNL A   1      44.411  23.654  27.149  1.00  0.00     0.010 A 
ATOM     34  C   UNL A   1      42.758  24.032  25.408  1.00  0.00     0.010 A 
ATOM     35  C   UNL A   1      43.290  24.358  26.655  1.00  0.00    -0.014 A 
BRANCH  35  36
ATOM     36  C   UNL A   1      42.912  25.598  27.343  1.00  0.00     0.031 A 
ATOM     37  C   UNL A   1      43.880  26.687  27.049  1.00  0.00     0.074 A 
ATOM     38  C   UNL A   1      41.811  25.885  28.073  1.00  0.00     0.049 A 
ATOM     39  N   UNL A   1      44.724  27.217  27.869  1.00  0.00    -0.248 NA
ATOM     40  C   UNL A   1      44.051  27.100  25.647  1.00  0.00     0.031 C 
ATOM     41  C   UNL A   1      40.607  25.082  28.287  1.00  0.00     0.029 A 
ATOM     42  N   UNL A   1      41.514  27.049  28.736  1.00  0.00    -0.354 N 
ATOM     43  C   UNL A   1      45.417  28.169  27.133  1.00  0.00     0.074 A 
ATOM     44  C   UNL A   1      45.079  27.940  25.751  1.00  0.00     0.031 C 
ATOM     45  C   UNL A   1      39.634  25.862  28.823  1.00  0.00     0.029 A 
ATOM     46  C   UNL A   1      40.183  27.176  29.125  1.00  0.00     0.049 A 
ATOM     47  H   UNL A   1      42.190  27.741  28.922  1.00  0.00     0.167 HD
ATOM     48  C   UNL A   1      46.063  29.204  27.734  1.00  0.00     0.031 A 
ATOM     49  C   UNL A   1      39.574  28.288  29.626  1.00  0.00     0.031 A 
ATOM     50  C   UNL A   1      46.252  28.975  29.141  1.00  0.00     0.049 A 
ATOM     51  C   UNL A   1      40.631  29.153  30.199  1.00  0.00     0.074 A 
ATOM     52  C   UNL A   1      46.888  28.001  29.885  1.00  0.00     0.029 A 
ATOM     53  N   UNL A   1      45.407  29.624  30.009  1.00  0.00    -0.354 N 
ATOM     54  N   UNL A   1      41.311  28.855  31.268  1.00  0.00    -0.248 NA
ATOM     55  C   UNL A   1      41.212  30.173  29.343  1.00  0.00     0.031 C 
ATOM     56  C   UNL A   1      46.049  27.796  31.015  1.00  0.00     0.029 A 
ATOM     57  C   UNL A   1      44.995  28.707  30.939  1.00  0.00     0.049 A 
ATOM     58  H   UNL A   1      45.146  30.573  29.969  1.00  0.00     0.167 HD
ATOM     59  C   UNL A   1      42.593  29.301  30.995  1.00  0.00     0.074 A 
ATOM     60  C   UNL A   1      42.453  30.178  29.834  1.00  0.00     0.031 C 
ATOM     61  C   UNL A   1      43.686  28.708  31.559  1.00  0.00     0.031 A 
BRANCH  48  62
ATOM     62  C   UNL A   1      46.204  30.567  27.109  1.00  0.00    -0.014 A 
ATOM     63  C   UNL A   1      45.101  31.357  26.727  1.00  0.00     0.010 A 
ATOM     64  C   UNL A   1      47.465  31.193  27.123  1.00  0.00     0.010 A 
ATOM     65  C   UNL A   1      45.241  32.693  26.355  1.00  0.00     0.020 A 
ATOM     66  C   UNL A   1      47.612  32.548  26.798  1.00  0.00     0.020 A 
ATOM     67  C   UNL A   1      46.497  33.285  26.404  1.00  0.00     0.054 A 
BRANCH  67  68
ATOM     68  S   UNL A   1      46.625  35.040  25.995  1.00  0.00     0.124 S 
ATOM     69  O   UNL A   1      47.876  35.078  25.242  1.00  0.00    -0.237 OA
ATOM     70  O   UNL A   1      45.412  35.268  25.217  1.00  0.00    -0.237 OA
ATOM     71  O   UNL A   1      46.662  35.692  27.301  1.00  0.00    -0.744 OA
ENDBRANCH  67  68
ENDBRANCH  48  62
BRANCH  49  72
ATOM     72  C   UNL A   1      38.238  28.859  29.286  1.00  0.00    -0.014 A 
ATOM     73  C   UNL A   1      37.960  29.248  27.963  1.00  0.00     0.010 A 
ATOM     74  C   UNL A   1      37.392  29.357  30.304  1.00  0.00     0.010 A 
ATOM     75  C   UNL A   1      36.954  30.181  27.676  1.00  0.00     0.020 A 
ATOM     76  C   UNL A   1      36.382  30.296  30.022  1.00  0.00     0.020 A 
ATOM     77  C   UNL A   1      36.203  30.737  28.712  1.00  0.00     0.054 A 
BRANCH  77  78
ATOM     78  S   UNL A   1      35.082  32.114  28.320  1.00  0.00     0.124 S 
ATOM     79  O   UNL A   1      34.125  31.477  27.419  1.00  0.00    -0.237 OA
ATOM     80  O   UNL A   1      34.556  32.477  29.634  1.00  0.00    -0.237 OA
ATOM     81  O   UNL A   1      35.954  33.110  27.704  1.00  0.00    -0.744 OA
ENDBRANCH  77  78
ENDBRANCH  49  72
BRANCH  61  82
ATOM     82  C   UNL A   1      43.516  27.784  32.746  1.00  0.00    -0.014 A 
ATOM     83  C   UNL A   1      44.035  26.483  32.606  1.00  0.00     0.010 A 
ATOM     84  C   UNL A   1      42.719  28.068  33.873  1.00  0.00     0.010 A 
ATOM     85  C   UNL A   1      43.733  25.480  33.526  1.00  0.00     0.020 A 
ATOM     86  C   UNL A   1      42.437  27.070  34.821  1.00  0.00     0.020 A 
ATOM     87  C   UNL A   1      42.923  25.775  34.623  1.00  0.00     0.054 A 
BRANCH  87  88
ATOM     88  S   UNL A   1      42.503  24.421  35.752  1.00  0.00     0.124 S 
ATOM     89  O   UNL A   1      43.337  24.716  36.915  1.00  0.00    -0.237 OA
ATOM     90  O   UNL A   1      41.067  24.604  35.954  1.00  0.00    -0.237 OA
ATOM     91  O   UNL A   1      42.873  23.215  35.014  1.00  0.00    -0.744 OA
ENDBRANCH  87  88
ENDBRANCH  61  82
ENDBRANCH  35  36
ENDBRANCH  28  30
ENDBRANCH  27  28
ENDBRANCH  26  27
ENDBRANCH   1  26
TORSDOF 19
ENDMDL
MODEL 3
REMARK VINA RESULT:     -11.1      1.212      1.803
REMARK SMILES C[C@]1(Cn2c(=O)[nH]c3cc(C(=O)OCCOCCOC(=O)c4ccc(-c5c6nc(c(-c7ccc(S(=O)(=O)[O-])cc7)c7ccc([nH]7)c(-c7ccc(S(=O)(=O)[O-])cc7)c7nc(c(-c8ccc(S(=O)(=O)[O-])cc8)c8ccc5[nH]8)C=C7)C=C6)cc4)ccc32)CCCO1
REMARK SMILES IDX 17 1 16 2 15 3 14 4 13 5 11 6 12 7 10 8 4 9 5 10 84 11 6 12
REMARK SMILES IDX 7 13 8 14 83 15 9 17 82 18 3 19 2 20 1 21 85 22 88 23 86 24
REMARK SMILES IDX 87 25 18 26 19 27 20 28 21 29 22 30 23 31 81 32 24 33 80 34
REMARK SMILES IDX 25 35 26 36 27 37 74 38 28 39 79 40 73 41 75 42 29 43 78 44
REMARK SMILES IDX 72 45 71 46 30 48 60 49 41 50 59 51 42 52 45 53 58 54 76 55
REMARK SMILES IDX 43 56 44 57 57 59 77 60 46 61 31 62 32 63 40 64 33 65 39 66
REMARK SMILES IDX 34 67 35 68 36 69 37 70 38 71 61 72 62 73 70 74 63 75 69 76
REMARK SMILES IDX 64 77 65 78 66 79 67 80 68 81 47 82 48 83 56 84 49 85 55 86
REMARK SMILES IDX 50 87 51 88 52 89 53 90 54 91
REMARK H PARENT 7 16 75 47 45 58
REMARK Flexibility Score: inf
ROOT
ATOM      1  C   UNL A   1      43.228  20.485  26.142  1.00  0.00     0.202 C 
ENDROOT
BRANCH   1   2
ATOM      2  O   UNL A   1      42.368  19.382  25.844  1.00  0.00    -0.374 OA
BRANCH   2   3
ATOM      3  C   UNL A   1      40.958  19.554  25.943  1.00  0.00     0.202 C 
BRANCH   3   4
ATOM      4  C   UNL A   1      40.375  20.894  26.420  1.00  0.00     0.261 C 
BRANCH   4   5
ATOM      5  O   UNL A   1      39.098  21.181  25.859  1.00  0.00    -0.460 OA
BRANCH   5   6
ATOM      6  C   UNL A   1      38.702  22.451  26.106  1.00  0.00     0.338 C 
ATOM      7  O   UNL A   1      39.411  23.401  26.395  1.00  0.00    -0.246 OA
BRANCH   6   8
ATOM      8  C   UNL A   1      37.267  22.611  25.797  1.00  0.00     0.062 A 
ATOM      9  N   UNL A   1      33.462  22.528  24.275  1.00  0.00    -0.289 N 
ATOM     10  C   UNL A   1      33.256  21.127  24.224  1.00  0.00     0.326 A 
ATOM     11  C   UNL A   1      34.662  22.779  24.955  1.00  0.00     0.069 A 
ATOM     12  O   UNL A   1      32.333  20.518  23.711  1.00  0.00    -0.248 OA
ATOM     13  N   UNL A   1      34.372  20.541  24.836  1.00  0.00    -0.306 N 
ATOM     14  C   UNL A   1      35.252  21.543  25.208  1.00  0.00     0.067 A 
ATOM     15  C   UNL A   1      35.301  23.956  25.279  1.00  0.00     0.029 A 
ATOM     16  H   UNL A   1      34.508  19.576  24.978  1.00  0.00     0.171 HD
ATOM     17  C   UNL A   1      36.545  21.422  25.636  1.00  0.00     0.044 A 
ATOM     18  C   UNL A   1      36.638  23.872  25.680  1.00  0.00     0.018 A 
BRANCH   9  19
ATOM     19  C   UNL A   1      32.729  23.482  23.468  1.00  0.00     0.162 C 
BRANCH  19  20
ATOM     20  C   UNL A   1      31.640  24.303  24.224  1.00  0.00     0.083 C 
ATOM     21  C   UNL A   1      30.690  25.044  23.266  1.00  0.00     0.044 C 
ATOM     22  C   UNL A   1      30.872  23.499  25.273  1.00  0.00     0.039 C 
ATOM     23  O   UNL A   1      32.287  25.335  25.013  1.00  0.00    -0.373 OA
ATOM     24  C   UNL A   1      30.339  24.581  26.183  1.00  0.00     0.031 C 
ATOM     25  C   UNL A   1      31.436  25.630  26.141  1.00  0.00     0.161 C 
ENDBRANCH  19  20
ENDBRANCH   9  19
ENDBRANCH   6   8
ENDBRANCH   5   6
ENDBRANCH   4   5
ENDBRANCH   3   4
ENDBRANCH   2   3
ENDBRANCH   1   2
BRANCH   1  26
ATOM     26  C   UNL A   1      43.763  21.385  25.014  1.00  0.00     0.261 C 
BRANCH  26  27
ATOM     27  O   UNL A   1      43.057  22.629  24.937  1.00  0.00    -0.460 OA
BRANCH  27  28
ATOM     28  C   UNL A   1      43.843  23.739  24.945  1.00  0.00     0.338 C 
ATOM     29  O   UNL A   1      44.753  24.006  24.175  1.00  0.00    -0.246 OA
BRANCH  28  30
ATOM     30  C   UNL A   1      43.146  24.725  25.796  1.00  0.00     0.060 A 
ATOM     31  C   UNL A   1      42.199  25.595  25.257  1.00  0.00     0.016 A 
ATOM     32  C   UNL A   1      43.692  24.953  27.072  1.00  0.00     0.016 A 
ATOM     33  C   UNL A   1      41.856  26.737  25.975  1.00  0.00     0.010 A 
ATOM     34  C   UNL A   1      43.378  26.121  27.767  1.00  0.00     0.010 A 
ATOM     35  C   UNL A   1      42.480  27.030  27.208  1.00  0.00    -0.014 A 
BRANCH  35  36
ATOM     36  C   UNL A   1      41.936  28.143  27.995  1.00  0.00     0.031 A 
ATOM     37  C   UNL A   1      42.853  29.314  27.967  1.00  0.00     0.074 A 
ATOM     38  C   UNL A   1      40.739  28.267  28.611  1.00  0.00     0.049 A 
ATOM     39  N   UNL A   1      43.554  29.773  28.948  1.00  0.00    -0.248 NA
ATOM     40  C   UNL A   1      43.158  29.921  26.663  1.00  0.00     0.031 C 
ATOM     41  C   UNL A   1      39.579  27.378  28.566  1.00  0.00     0.029 A 
ATOM     42  N   UNL A   1      40.284  29.312  29.374  1.00  0.00    -0.354 N 
ATOM     43  C   UNL A   1      44.259  30.853  28.433  1.00  0.00     0.074 A 
ATOM     44  C   UNL A   1      44.104  30.795  27.001  1.00  0.00     0.031 C 
ATOM     45  C   UNL A   1      38.496  28.024  29.070  1.00  0.00     0.029 A 
ATOM     46  C   UNL A   1      38.910  29.313  29.604  1.00  0.00     0.049 A 
ATOM     47  H   UNL A   1      40.882  30.009  29.730  1.00  0.00     0.167 HD
ATOM     48  C   UNL A   1      44.753  31.831  29.238  1.00  0.00     0.031 A 
ATOM     49  C   UNL A   1      38.168  30.311  30.162  1.00  0.00     0.031 A 
ATOM     50  C   UNL A   1      44.791  31.424  30.617  1.00  0.00     0.049 A 
ATOM     51  C   UNL A   1      39.086  31.148  30.970  1.00  0.00     0.074 A 
ATOM     52  C   UNL A   1      45.403  30.395  31.305  1.00  0.00     0.029 A 
ATOM     53  N   UNL A   1      43.805  31.902  31.447  1.00  0.00    -0.354 N 
ATOM     54  N   UNL A   1      39.655  30.745  32.069  1.00  0.00    -0.248 NA
ATOM     55  C   UNL A   1      39.691  32.305  30.331  1.00  0.00     0.031 C 
ATOM     56  C   UNL A   1      44.453  29.993  32.285  1.00  0.00     0.029 A 
ATOM     57  C   UNL A   1      43.353  30.847  32.193  1.00  0.00     0.049 A 
ATOM     58  H   UNL A   1      43.484  32.832  31.495  1.00  0.00     0.167 HD
ATOM     59  C   UNL A   1      40.925  31.294  32.020  1.00  0.00     0.074 A 
ATOM     60  C   UNL A   1      40.861  32.312  30.971  1.00  0.00     0.031 C 
ATOM     61  C   UNL A   1      41.983  30.691  32.637  1.00  0.00     0.031 A 
BRANCH  48  62
ATOM     62  C   UNL A   1      44.870  33.271  28.815  1.00  0.00    -0.014 A 
ATOM     63  C   UNL A   1      43.844  33.961  28.138  1.00  0.00     0.010 A 
ATOM     64  C   UNL A   1      45.934  34.044  29.320  1.00  0.00     0.010 A 
ATOM     65  C   UNL A   1      43.880  35.341  27.948  1.00  0.00     0.020 A 
ATOM     66  C   UNL A   1      45.957  35.437  29.178  1.00  0.00     0.020 A 
ATOM     67  C   UNL A   1      44.933  36.074  28.481  1.00  0.00     0.054 A 
BRANCH  67  68
ATOM     68  S   UNL A   1      44.901  37.870  28.287  1.00  0.00     0.124 S 
ATOM     69  O   UNL A   1      45.298  38.024  26.889  1.00  0.00    -0.237 OA
ATOM     70  O   UNL A   1      43.509  38.191  28.587  1.00  0.00    -0.237 OA
ATOM     71  O   UNL A   1      45.876  38.337  29.268  1.00  0.00    -0.744 OA
ENDBRANCH  67  68
ENDBRANCH  48  62
BRANCH  49  72
ATOM     72  C   UNL A   1      36.845  30.849  29.731  1.00  0.00    -0.014 A 
ATOM     73  C   UNL A   1      36.639  31.205  28.386  1.00  0.00     0.010 A 
ATOM     74  C   UNL A   1      35.930  31.350  30.686  1.00  0.00     0.010 A 
ATOM     75  C   UNL A   1      35.635  32.112  28.020  1.00  0.00     0.020 A 
ATOM     76  C   UNL A   1      34.922  32.263  30.325  1.00  0.00     0.020 A 
ATOM     77  C   UNL A   1      34.814  32.674  28.997  1.00  0.00     0.054 A 
BRANCH  77  78
ATOM     78  S   UNL A   1      33.692  34.020  28.510  1.00  0.00     0.124 S 
ATOM     79  O   UNL A   1      33.160  34.450  29.800  1.00  0.00    -0.237 OA
ATOM     80  O   UNL A   1      34.597  34.966  27.861  1.00  0.00    -0.237 OA
ATOM     81  O   UNL A   1      32.732  33.371  27.622  1.00  0.00    -0.744 OA
ENDBRANCH  77  78
ENDBRANCH  49  72
BRANCH  61  82
ATOM     82  C   UNL A   1      41.740  29.607  33.665  1.00  0.00    -0.014 A 
ATOM     83  C   UNL A   1      41.961  29.959  35.010  1.00  0.00     0.010 A 
ATOM     84  C   UNL A   1      41.509  28.252  33.358  1.00  0.00     0.010 A 
ATOM     85  C   UNL A   1      42.002  28.992  36.013  1.00  0.00     0.020 A 
ATOM     86  C   UNL A   1      41.517  27.276  34.369  1.00  0.00     0.020 A 
ATOM     87  C   UNL A   1      41.793  27.652  35.686  1.00  0.00     0.054 A 
BRANCH  87  88
ATOM     88  S   UNL A   1      41.926  26.427  37.016  1.00  0.00     0.124 S 
ATOM     89  O   UNL A   1      42.191  25.195  36.277  1.00  0.00    -0.237 OA
ATOM     90  O   UNL A   1      43.048  26.931  37.806  1.00  0.00    -0.237 OA
ATOM     91  O   UNL A   1      40.628  26.483  37.682  1.00  0.00    -0.744 OA
ENDBRANCH  87  88
ENDBRANCH  61  82
ENDBRANCH  35  36
ENDBRANCH  28  30
ENDBRANCH  27  28
ENDBRANCH  26  27
ENDBRANCH   1  26
TORSDOF 19
ENDMDL
