MODEL 1
REMARK VINA RESULT:     -12.1      0.000      0.000
REMARK SMILES C[C@]1(C(=O)OCCOCCOC(=O)c2ccc(-c3c4nc(c(-c5ccc(S(=O)(=O)[O-])cc5)c5ccc([nH]5)c(-c5ccc(S(=O)(=O)[O-])cc5)c5nc(c(-c6ccc(S(=O)(=O)[O-])cc6)c6ccc3[nH]6)C=C5)C=C4)cc2)[NH2+]C2(C(=O)c3ccccc3C2=O)[C@@H]2C(=O)N(c3ccccc3)C(=O)[C@H]21
REMARK SMILES IDX 9 1 8 2 7 3 6 4 5 5 3 6 4 7 2 8 1 9 74 10 98 11 75 12 86 15
REMARK SMILES IDX 96 16 76 17 84 18 87 19 89 20 97 21 77 22 78 23 83 24 85 25
REMARK SMILES IDX 88 26 79 27 82 28 80 29 81 30 90 31 91 32 95 33 92 34 94 35
REMARK SMILES IDX 93 36 10 37 11 38 12 39 13 40 14 41 15 42 73 43 16 44 72 45
REMARK SMILES IDX 17 46 18 47 19 48 66 49 20 50 71 51 65 52 67 53 21 54 70 55
REMARK SMILES IDX 64 56 63 57 22 59 52 60 33 61 51 62 34 63 37 64 50 65 68 66
REMARK SMILES IDX 35 67 36 68 49 70 69 71 38 72 23 73 24 74 32 75 25 76 31 77
REMARK SMILES IDX 26 78 27 79 28 80 29 81 30 82 53 83 54 84 62 85 55 86 61 87
REMARK SMILES IDX 56 88 57 89 58 90 59 91 60 92 39 93 40 94 48 95 41 96 47 97
REMARK SMILES IDX 42 98 43 99 44 100 45 101 46 102
REMARK H PARENT 74 13 74 14 67 58 37 69
REMARK Flexibility Score: inf
ROOT
ATOM      1  C   UNL A   1      35.968  32.309  28.345  1.00  0.00     0.202 C 
ENDROOT
BRANCH   1   2
ATOM      2  O   UNL A   1      34.852  32.367  27.457  1.00  0.00    -0.374 OA
BRANCH   2   3
ATOM      3  C   UNL A   1      33.578  31.961  27.952  1.00  0.00     0.202 C 
BRANCH   3   4
ATOM      4  C   UNL A   1      32.831  30.864  27.195  1.00  0.00     0.261 C 
BRANCH   4   5
ATOM      5  O   UNL A   1      33.258  29.552  27.584  1.00  0.00    -0.459 OA
BRANCH   5   6
ATOM      6  C   UNL A   1      32.497  28.520  27.126  1.00  0.00     0.368 C 
ATOM      7  O   UNL A   1      31.337  28.318  27.465  1.00  0.00    -0.245 OA
BRANCH   6   8
ATOM      8  C   UNL A   1      33.271  27.621  26.120  1.00  0.00     0.205 C 
ATOM      9  C   UNL A   1      34.718  28.121  26.085  1.00  0.00     0.093 C 
ATOM     10  N   UNL A   1      33.277  26.131  26.473  1.00  0.00    -0.313 N 
ATOM     11  C   UNL A   1      32.596  27.625  24.779  1.00  0.00     0.172 C 
ATOM     12  C   UNL A   1      32.414  25.406  25.442  1.00  0.00     0.237 C 
ATOM     13  H   UNL A   1      32.891  25.994  27.407  1.00  0.00     0.348 HD
ATOM     14  H   UNL A   1      34.229  25.765  26.463  1.00  0.00     0.348 HD
ATOM     15  C   UNL A   1      31.564  26.523  24.946  1.00  0.00     0.177 C 
ATOM     16  C   UNL A   1      31.745  28.724  24.258  1.00  0.00     0.244 C 
ATOM     17  C   UNL A   1      33.275  24.675  24.412  1.00  0.00     0.232 C 
ATOM     18  C   UNL A   1      31.634  24.270  26.097  1.00  0.00     0.232 C 
ATOM     19  C   UNL A   1      30.786  26.705  23.696  1.00  0.00     0.245 C 
ATOM     20  N   UNL A   1      30.734  28.090  23.541  1.00  0.00    -0.250 N 
ATOM     21  O   UNL A   1      31.980  29.907  24.424  1.00  0.00    -0.273 OA
ATOM     22  O   UNL A   1      34.135  25.156  23.691  1.00  0.00    -0.286 OA
ATOM     23  C   UNL A   1      32.993  23.243  24.498  1.00  0.00     0.036 A 
ATOM     24  C   UNL A   1      32.056  23.004  25.493  1.00  0.00     0.036 A 
ATOM     25  O   UNL A   1      30.790  24.348  26.974  1.00  0.00    -0.286 OA
ATOM     26  O   UNL A   1      30.264  25.805  23.064  1.00  0.00    -0.273 OA
ATOM     27  C   UNL A   1      33.561  22.213  23.767  1.00  0.00     0.013 A 
ATOM     28  C   UNL A   1      31.648  21.719  25.807  1.00  0.00     0.013 A 
ATOM     29  C   UNL A   1      33.157  20.908  24.066  1.00  0.00     0.001 A 
ATOM     30  C   UNL A   1      32.210  20.663  25.080  1.00  0.00     0.001 A 
BRANCH  20  31
ATOM     31  C   UNL A   1      29.699  28.811  22.909  1.00  0.00     0.052 A 
ATOM     32  C   UNL A   1      29.999  29.762  21.924  1.00  0.00     0.027 A 
ATOM     33  C   UNL A   1      28.381  28.696  23.365  1.00  0.00     0.027 A 
ATOM     34  C   UNL A   1      29.006  30.598  21.415  1.00  0.00     0.002 A 
ATOM     35  C   UNL A   1      27.397  29.566  22.886  1.00  0.00     0.002 A 
ATOM     36  C   UNL A   1      27.709  30.514  21.913  1.00  0.00     0.000 A 
ENDBRANCH  20  31
ENDBRANCH   6   8
ENDBRANCH   5   6
ENDBRANCH   4   5
ENDBRANCH   3   4
ENDBRANCH   2   3
ENDBRANCH   1   2
BRANCH   1  37
ATOM     37  C   UNL A   1      35.902  31.358  29.546  1.00  0.00     0.261 C 
BRANCH  37  38
ATOM     38  O   UNL A   1      36.293  30.015  29.226  1.00  0.00    -0.460 OA
BRANCH  38  39
ATOM     39  C   UNL A   1      37.074  29.411  30.155  1.00  0.00     0.338 C 
ATOM     40  O   UNL A   1      36.738  29.046  31.268  1.00  0.00    -0.246 OA
BRANCH  39  41
ATOM     41  C   UNL A   1      38.380  29.058  29.559  1.00  0.00     0.060 A 
ATOM     42  C   UNL A   1      38.650  29.263  28.207  1.00  0.00     0.016 A 
ATOM     43  C   UNL A   1      39.371  28.548  30.409  1.00  0.00     0.016 A 
ATOM     44  C   UNL A   1      39.928  28.989  27.714  1.00  0.00     0.010 A 
ATOM     45  C   UNL A   1      40.650  28.287  29.918  1.00  0.00     0.010 A 
ATOM     46  C   UNL A   1      40.948  28.535  28.573  1.00  0.00    -0.014 A 
BRANCH  46  47
ATOM     47  C   UNL A   1      42.356  28.509  28.099  1.00  0.00     0.031 A 
ATOM     48  C   UNL A   1      43.274  29.685  28.250  1.00  0.00     0.074 A 
ATOM     49  C   UNL A   1      42.793  27.386  27.494  1.00  0.00     0.049 A 
ATOM     50  N   UNL A   1      44.552  29.758  27.980  1.00  0.00    -0.248 NA
ATOM     51  C   UNL A   1      42.692  30.938  28.752  1.00  0.00     0.031 C 
ATOM     52  C   UNL A   1      41.966  26.204  27.238  1.00  0.00     0.029 A 
ATOM     53  N   UNL A   1      44.027  27.042  27.005  1.00  0.00    -0.354 N 
ATOM     54  C   UNL A   1      44.937  31.054  28.298  1.00  0.00     0.074 A 
ATOM     55  C   UNL A   1      43.742  31.751  28.729  1.00  0.00     0.031 C 
ATOM     56  C   UNL A   1      42.729  25.246  26.693  1.00  0.00     0.029 A 
ATOM     57  C   UNL A   1      44.087  25.755  26.521  1.00  0.00     0.049 A 
ATOM     58  H   UNL A   1      44.797  27.656  27.001  1.00  0.00     0.167 HD
ATOM     59  C   UNL A   1      46.177  31.597  28.257  1.00  0.00     0.031 A 
ATOM     60  C   UNL A   1      45.116  25.050  26.011  1.00  0.00     0.031 A 
ATOM     61  C   UNL A   1      47.356  30.889  27.812  1.00  0.00     0.049 A 
ATOM     62  C   UNL A   1      46.478  25.682  25.962  1.00  0.00     0.074 A 
ATOM     63  C   UNL A   1      48.666  31.338  27.794  1.00  0.00     0.029 A 
ATOM     64  N   UNL A   1      47.373  29.600  27.297  1.00  0.00    -0.354 N 
ATOM     65  N   UNL A   1      46.847  26.870  26.377  1.00  0.00    -0.248 NA
ATOM     66  C   UNL A   1      47.566  24.875  25.394  1.00  0.00     0.031 C 
ATOM     67  C   UNL A   1      49.458  30.359  27.192  1.00  0.00     0.029 A 
ATOM     68  C   UNL A   1      48.662  29.258  26.915  1.00  0.00     0.049 A 
ATOM     69  H   UNL A   1      46.585  29.015  27.215  1.00  0.00     0.167 HD
ATOM     70  C   UNL A   1      48.212  26.952  26.126  1.00  0.00     0.074 A 
ATOM     71  C   UNL A   1      48.609  25.678  25.563  1.00  0.00     0.031 C 
ATOM     72  C   UNL A   1      49.054  27.996  26.333  1.00  0.00     0.031 A 
BRANCH  59  73
ATOM     73  C   UNL A   1      46.362  33.017  28.734  1.00  0.00    -0.014 A 
ATOM     74  C   UNL A   1      46.532  33.285  30.106  1.00  0.00     0.010 A 
ATOM     75  C   UNL A   1      46.202  34.097  27.846  1.00  0.00     0.010 A 
ATOM     76  C   UNL A   1      46.492  34.598  30.586  1.00  0.00     0.020 A 
ATOM     77  C   UNL A   1      46.195  35.413  28.318  1.00  0.00     0.020 A 
ATOM     78  C   UNL A   1      46.311  35.654  29.689  1.00  0.00     0.054 A 
BRANCH  78  79
ATOM     79  S   UNL A   1      46.204  37.345  30.335  1.00  0.00     0.124 S 
ATOM     80  O   UNL A   1      46.687  37.185  31.703  1.00  0.00    -0.237 OA
ATOM     81  O   UNL A   1      47.083  38.086  29.435  1.00  0.00    -0.237 OA
ATOM     82  O   UNL A   1      44.783  37.669  30.208  1.00  0.00    -0.744 OA
ENDBRANCH  78  79
ENDBRANCH  59  73
BRANCH  60  83
ATOM     83  C   UNL A   1      44.883  23.645  25.573  1.00  0.00    -0.014 A 
ATOM     84  C   UNL A   1      45.235  22.568  26.409  1.00  0.00     0.010 A 
ATOM     85  C   UNL A   1      44.402  23.373  24.280  1.00  0.00     0.010 A 
ATOM     86  C   UNL A   1      45.180  21.254  25.938  1.00  0.00     0.020 A 
ATOM     87  C   UNL A   1      44.308  22.056  23.818  1.00  0.00     0.020 A 
ATOM     88  C   UNL A   1      44.731  21.008  24.639  1.00  0.00     0.054 A 
BRANCH  88  89
ATOM     89  S   UNL A   1      44.740  19.301  24.025  1.00  0.00     0.124 S 
ATOM     90  O   UNL A   1      46.000  18.797  24.565  1.00  0.00    -0.237 OA
ATOM     91  O   UNL A   1      43.530  18.743  24.622  1.00  0.00    -0.237 OA
ATOM     92  O   UNL A   1      44.701  19.459  22.573  1.00  0.00    -0.744 OA
ENDBRANCH  88  89
ENDBRANCH  60  83
BRANCH  72  93
ATOM     93  C   UNL A   1      50.497  27.833  25.920  1.00  0.00    -0.014 A 
ATOM     94  C   UNL A   1      50.905  28.176  24.617  1.00  0.00     0.010 A 
ATOM     95  C   UNL A   1      51.431  27.236  26.788  1.00  0.00     0.010 A 
ATOM     96  C   UNL A   1      52.203  27.895  24.179  1.00  0.00     0.020 A 
ATOM     97  C   UNL A   1      52.741  26.990  26.367  1.00  0.00     0.020 A 
ATOM     98  C   UNL A   1      53.111  27.297  25.056  1.00  0.00     0.054 A 
BRANCH  98  99
ATOM     99  S   UNL A   1      54.783  26.921  24.462  1.00  0.00     0.124 S 
ATOM    100  O   UNL A   1      55.214  25.882  25.394  1.00  0.00    -0.237 OA
ATOM    101  O   UNL A   1      54.543  26.479  23.092  1.00  0.00    -0.237 OA
ATOM    102  O   UNL A   1      55.485  28.197  24.583  1.00  0.00    -0.744 OA
ENDBRANCH  98  99
ENDBRANCH  72  93
ENDBRANCH  46  47
ENDBRANCH  39  41
ENDBRANCH  38  39
ENDBRANCH  37  38
ENDBRANCH   1  37
TORSDOF 18
ENDMDL
MODEL 2
REMARK VINA RESULT:     -12.1      5.981     12.096
REMARK SMILES C[C@]1(C(=O)OCCOCCOC(=O)c2ccc(-c3c4nc(c(-c5ccc(S(=O)(=O)[O-])cc5)c5ccc([nH]5)c(-c5ccc(S(=O)(=O)[O-])cc5)c5nc(c(-c6ccc(S(=O)(=O)[O-])cc6)c6ccc3[nH]6)C=C5)C=C4)cc2)[NH2+]C2(C(=O)c3ccccc3C2=O)[C@@H]2C(=O)N(c3ccccc3)C(=O)[C@H]21
REMARK SMILES IDX 9 1 8 2 7 3 6 4 5 5 3 6 4 7 2 8 1 9 74 10 98 11 75 12 86 15
REMARK SMILES IDX 96 16 76 17 84 18 87 19 89 20 97 21 77 22 78 23 83 24 85 25
REMARK SMILES IDX 88 26 79 27 82 28 80 29 81 30 90 31 91 32 95 33 92 34 94 35
REMARK SMILES IDX 93 36 10 37 11 38 12 39 13 40 14 41 15 42 73 43 16 44 72 45
REMARK SMILES IDX 17 46 18 47 19 48 66 49 20 50 71 51 65 52 67 53 21 54 70 55
REMARK SMILES IDX 64 56 63 57 22 59 52 60 33 61 51 62 34 63 37 64 50 65 68 66
REMARK SMILES IDX 35 67 36 68 49 70 69 71 38 72 23 73 24 74 32 75 25 76 31 77
REMARK SMILES IDX 26 78 27 79 28 80 29 81 30 82 53 83 54 84 62 85 55 86 61 87
REMARK SMILES IDX 56 88 57 89 58 90 59 91 60 92 39 93 40 94 48 95 41 96 47 97
REMARK SMILES IDX 42 98 43 99 44 100 45 101 46 102
REMARK H PARENT 74 13 74 14 67 58 37 69
REMARK Flexibility Score: inf
ROOT
ATOM      1  C   UNL A   1      41.670  22.014  26.081  1.00  0.00     0.202 C 
ENDROOT
BRANCH   1   2
ATOM      2  O   UNL A   1      40.307  22.433  26.027  1.00  0.00    -0.374 OA
BRANCH   2   3
ATOM      3  C   UNL A   1      39.293  21.434  26.110  1.00  0.00     0.202 C 
BRANCH   3   4
ATOM      4  C   UNL A   1      38.080  21.566  25.190  1.00  0.00     0.261 C 
BRANCH   4   5
ATOM      5  O   UNL A   1      37.815  22.929  24.836  1.00  0.00    -0.459 OA
BRANCH   5   6
ATOM      6  C   UNL A   1      36.667  23.150  24.140  1.00  0.00     0.368 C 
ATOM      7  O   UNL A   1      36.496  22.817  22.974  1.00  0.00    -0.245 OA
BRANCH   6   8
ATOM      8  C   UNL A   1      35.591  23.877  24.996  1.00  0.00     0.205 C 
ATOM      9  C   UNL A   1      36.263  24.299  26.306  1.00  0.00     0.093 C 
ATOM     10  N   UNL A   1      34.985  25.118  24.335  1.00  0.00    -0.313 N 
ATOM     11  C   UNL A   1      34.386  23.001  25.188  1.00  0.00     0.172 C 
ATOM     12  C   UNL A   1      33.535  24.794  23.982  1.00  0.00     0.237 C 
ATOM     13  H   UNL A   1      35.505  25.351  23.490  1.00  0.00     0.348 HD
ATOM     14  H   UNL A   1      35.028  25.917  24.969  1.00  0.00     0.348 HD
ATOM     15  C   UNL A   1      33.577  23.307  23.940  1.00  0.00     0.177 C 
ATOM     16  C   UNL A   1      34.399  21.517  25.153  1.00  0.00     0.244 C 
ATOM     17  C   UNL A   1      32.563  25.436  24.973  1.00  0.00     0.232 C 
ATOM     18  C   UNL A   1      33.146  25.447  22.658  1.00  0.00     0.232 C 
ATOM     19  C   UNL A   1      32.517  22.275  24.060  1.00  0.00     0.245 C 
ATOM     20  N   UNL A   1      33.200  21.159  24.544  1.00  0.00    -0.250 N 
ATOM     21  O   UNL A   1      35.287  20.830  25.626  1.00  0.00    -0.273 OA
ATOM     22  O   UNL A   1      32.540  25.291  26.185  1.00  0.00    -0.286 OA
ATOM     23  C   UNL A   1      31.708  26.376  24.249  1.00  0.00     0.036 A 
ATOM     24  C   UNL A   1      32.061  26.398  22.907  1.00  0.00     0.036 A 
ATOM     25  O   UNL A   1      33.621  25.242  21.553  1.00  0.00    -0.286 OA
ATOM     26  O   UNL A   1      31.363  22.419  23.701  1.00  0.00    -0.273 OA
ATOM     27  C   UNL A   1      30.707  27.187  24.755  1.00  0.00     0.013 A 
ATOM     28  C   UNL A   1      31.430  27.242  22.009  1.00  0.00     0.013 A 
ATOM     29  C   UNL A   1      30.054  28.041  23.862  1.00  0.00     0.001 A 
ATOM     30  C   UNL A   1      30.414  28.071  22.501  1.00  0.00     0.001 A 
BRANCH  20  31
ATOM     31  C   UNL A   1      32.854  19.814  24.304  1.00  0.00     0.052 A 
ATOM     32  C   UNL A   1      32.898  18.875  25.344  1.00  0.00     0.027 A 
ATOM     33  C   UNL A   1      32.615  19.370  22.998  1.00  0.00     0.027 A 
ATOM     34  C   UNL A   1      32.725  17.516  25.086  1.00  0.00     0.002 A 
ATOM     35  C   UNL A   1      32.486  18.002  22.736  1.00  0.00     0.002 A 
ATOM     36  C   UNL A   1      32.541  17.079  23.778  1.00  0.00     0.000 A 
ENDBRANCH  20  31
ENDBRANCH   6   8
ENDBRANCH   5   6
ENDBRANCH   4   5
ENDBRANCH   3   4
ENDBRANCH   2   3
ENDBRANCH   1   2
BRANCH   1  37
ATOM     37  C   UNL A   1      42.762  23.017  25.691  1.00  0.00     0.261 C 
BRANCH  37  38
ATOM     38  O   UNL A   1      43.000  24.012  26.697  1.00  0.00    -0.460 OA
BRANCH  38  39
ATOM     39  C   UNL A   1      42.991  25.292  26.248  1.00  0.00     0.338 C 
ATOM     40  O   UNL A   1      43.261  25.673  25.121  1.00  0.00    -0.246 OA
BRANCH  39  41
ATOM     41  C   UNL A   1      42.400  26.179  27.271  1.00  0.00     0.060 A 
ATOM     42  C   UNL A   1      41.369  25.752  28.107  1.00  0.00     0.016 A 
ATOM     43  C   UNL A   1      42.942  27.463  27.415  1.00  0.00     0.016 A 
ATOM     44  C   UNL A   1      40.905  26.605  29.112  1.00  0.00     0.010 A 
ATOM     45  C   UNL A   1      42.486  28.308  28.427  1.00  0.00     0.010 A 
ATOM     46  C   UNL A   1      41.485  27.873  29.304  1.00  0.00    -0.014 A 
BRANCH  46  47
ATOM     47  C   UNL A   1      41.175  28.650  30.532  1.00  0.00     0.031 A 
ATOM     48  C   UNL A   1      41.990  28.527  31.785  1.00  0.00     0.074 A 
ATOM     49  C   UNL A   1      40.104  29.467  30.503  1.00  0.00     0.049 A 
ATOM     50  N   UNL A   1      41.894  29.225  32.888  1.00  0.00    -0.248 NA
ATOM     51  C   UNL A   1      43.032  27.491  31.816  1.00  0.00     0.031 C 
ATOM     52  C   UNL A   1      39.202  29.616  29.357  1.00  0.00     0.029 A 
ATOM     53  N   UNL A   1      39.599  30.335  31.437  1.00  0.00    -0.354 N 
ATOM     54  C   UNL A   1      42.875  28.732  33.739  1.00  0.00     0.074 A 
ATOM     55  C   UNL A   1      43.518  27.635  33.045  1.00  0.00     0.031 C 
ATOM     56  C   UNL A   1      38.293  30.561  29.635  1.00  0.00     0.029 A 
ATOM     57  C   UNL A   1      38.516  31.056  30.990  1.00  0.00     0.049 A 
ATOM     58  H   UNL A   1      39.976  30.433  32.342  1.00  0.00     0.167 HD
ATOM     59  C   UNL A   1      43.217  29.174  34.973  1.00  0.00     0.031 A 
ATOM     60  C   UNL A   1      37.789  32.020  31.588  1.00  0.00     0.031 A 
ATOM     61  C   UNL A   1      42.554  30.261  35.655  1.00  0.00     0.049 A 
ATOM     62  C   UNL A   1      38.180  32.481  32.963  1.00  0.00     0.074 A 
ATOM     63  C   UNL A   1      42.873  30.820  36.882  1.00  0.00     0.029 A 
ATOM     64  N   UNL A   1      41.441  30.945  35.187  1.00  0.00    -0.354 N 
ATOM     65  N   UNL A   1      39.185  32.084  33.707  1.00  0.00    -0.248 NA
ATOM     66  C   UNL A   1      37.356  33.531  33.574  1.00  0.00     0.031 C 
ATOM     67  C   UNL A   1      41.906  31.777  37.193  1.00  0.00     0.029 A 
ATOM     68  C   UNL A   1      41.033  31.885  36.122  1.00  0.00     0.049 A 
ATOM     69  H   UNL A   1      41.005  30.785  34.319  1.00  0.00     0.167 HD
ATOM     70  C   UNL A   1      39.117  32.839  34.872  1.00  0.00     0.074 A 
ATOM     71  C   UNL A   1      37.998  33.746  34.715  1.00  0.00     0.031 C 
ATOM     72  C   UNL A   1      39.904  32.774  35.975  1.00  0.00     0.031 A 
BRANCH  59  73
ATOM     73  C   UNL A   1      44.383  28.522  35.677  1.00  0.00    -0.014 A 
ATOM     74  C   UNL A   1      45.699  28.936  35.395  1.00  0.00     0.010 A 
ATOM     75  C   UNL A   1      44.187  27.392  36.491  1.00  0.00     0.010 A 
ATOM     76  C   UNL A   1      46.793  28.209  35.874  1.00  0.00     0.020 A 
ATOM     77  C   UNL A   1      45.278  26.680  36.999  1.00  0.00     0.020 A 
ATOM     78  C   UNL A   1      46.574  27.076  36.664  1.00  0.00     0.054 A 
BRANCH  78  79
ATOM     79  S   UNL A   1      48.002  26.111  37.227  1.00  0.00     0.124 S 
ATOM     80  O   UNL A   1      47.974  26.330  38.670  1.00  0.00    -0.237 OA
ATOM     81  O   UNL A   1      47.667  24.760  36.784  1.00  0.00    -0.237 OA
ATOM     82  O   UNL A   1      49.128  26.725  36.524  1.00  0.00    -0.744 OA
ENDBRANCH  78  79
ENDBRANCH  59  73
BRANCH  60  83
ATOM     83  C   UNL A   1      36.660  32.644  30.840  1.00  0.00    -0.014 A 
ATOM     84  C   UNL A   1      36.911  33.573  29.812  1.00  0.00     0.010 A 
ATOM     85  C   UNL A   1      35.330  32.390  31.218  1.00  0.00     0.010 A 
ATOM     86  C   UNL A   1      35.863  34.287  29.227  1.00  0.00     0.020 A 
ATOM     87  C   UNL A   1      34.274  33.074  30.607  1.00  0.00     0.020 A 
ATOM     88  C   UNL A   1      34.551  34.043  29.640  1.00  0.00     0.054 A 
BRANCH  88  89
ATOM     89  S   UNL A   1      33.214  35.035  28.919  1.00  0.00     0.124 S 
ATOM     90  O   UNL A   1      33.947  36.182  28.389  1.00  0.00    -0.237 OA
ATOM     91  O   UNL A   1      32.651  34.132  27.921  1.00  0.00    -0.237 OA
ATOM     92  O   UNL A   1      32.347  35.321  30.059  1.00  0.00    -0.744 OA
ENDBRANCH  88  89
ENDBRANCH  60  83
BRANCH  72  93
ATOM     93  C   UNL A   1      39.575  33.686  37.133  1.00  0.00    -0.014 A 
ATOM     94  C   UNL A   1      40.168  34.959  37.223  1.00  0.00     0.010 A 
ATOM     95  C   UNL A   1      38.761  33.239  38.191  1.00  0.00     0.010 A 
ATOM     96  C   UNL A   1      39.984  35.751  38.361  1.00  0.00     0.020 A 
ATOM     97  C   UNL A   1      38.543  34.045  39.312  1.00  0.00     0.020 A 
ATOM     98  C   UNL A   1      39.177  35.285  39.401  1.00  0.00     0.054 A 
BRANCH  98  99
ATOM     99  S   UNL A   1      38.968  36.319  40.878  1.00  0.00     0.124 S 
ATOM    100  O   UNL A   1      40.293  36.255  41.488  1.00  0.00    -0.237 OA
ATOM    101  O   UNL A   1      38.596  37.612  40.312  1.00  0.00    -0.237 OA
ATOM    102  O   UNL A   1      37.906  35.645  41.621  1.00  0.00    -0.744 OA
ENDBRANCH  98  99
ENDBRANCH  72  93
ENDBRANCH  46  47
ENDBRANCH  39  41
ENDBRANCH  38  39
ENDBRANCH  37  38
ENDBRANCH   1  37
TORSDOF 18
ENDMDL
MODEL 3
REMARK VINA RESULT:     -11.9      0.432      7.640
REMARK SMILES C[C@]1(C(=O)OCCOCCOC(=O)c2ccc(-c3c4nc(c(-c5ccc(S(=O)(=O)[O-])cc5)c5ccc([nH]5)c(-c5ccc(S(=O)(=O)[O-])cc5)c5nc(c(-c6ccc(S(=O)(=O)[O-])cc6)c6ccc3[nH]6)C=C5)C=C4)cc2)[NH2+]C2(C(=O)c3ccccc3C2=O)[C@@H]2C(=O)N(c3ccccc3)C(=O)[C@H]21
REMARK SMILES IDX 9 1 8 2 7 3 6 4 5 5 3 6 4 7 2 8 1 9 74 10 98 11 75 12 86 15
REMARK SMILES IDX 96 16 76 17 84 18 87 19 89 20 97 21 77 22 78 23 83 24 85 25
REMARK SMILES IDX 88 26 79 27 82 28 80 29 81 30 90 31 91 32 95 33 92 34 94 35
REMARK SMILES IDX 93 36 10 37 11 38 12 39 13 40 14 41 15 42 73 43 16 44 72 45
REMARK SMILES IDX 17 46 18 47 19 48 66 49 20 50 71 51 65 52 67 53 21 54 70 55
REMARK SMILES IDX 64 56 63 57 22 59 52 60 33 61 51 62 34 63 37 64 50 65 68 66
REMARK SMILES IDX 35 67 36 68 49 70 69 71 38 72 23 73 24 74 32 75 25 76 31 77
REMARK SMILES IDX 26 78 27 79 28 80 29 81 30 82 53 83 54 84 62 85 55 86 61 87
REMARK SMILES IDX 56 88 57 89 58 90 59 91 60 92 39 93 40 94 48 95 41 96 47 97
REMARK SMILES IDX 42 98 43 99 44 100 45 101 46 102
REMARK H PARENT 74 13 74 14 67 58 37 69
REMARK Flexibility Score: inf
ROOT
ATOM      1  C   UNL A   1      35.829  32.206  28.191  1.00  0.00     0.202 C 
ENDROOT
BRANCH   1   2
ATOM      2  O   UNL A   1      34.762  32.028  27.260  1.00  0.00    -0.374 OA
BRANCH   2   3
ATOM      3  C   UNL A   1      33.439  31.886  27.773  1.00  0.00     0.202 C 
BRANCH   3   4
ATOM      4  C   UNL A   1      32.584  30.738  27.241  1.00  0.00     0.261 C 
BRANCH   4   5
ATOM      5  O   UNL A   1      33.104  29.456  27.617  1.00  0.00    -0.459 OA
BRANCH   5   6
ATOM      6  C   UNL A   1      32.392  28.377  27.190  1.00  0.00     0.368 C 
ATOM      7  O   UNL A   1      31.248  28.125  27.544  1.00  0.00    -0.245 OA
BRANCH   6   8
ATOM      8  C   UNL A   1      33.202  27.496  26.196  1.00  0.00     0.205 C 
ATOM      9  C   UNL A   1      34.644  28.012  26.203  1.00  0.00     0.093 C 
ATOM     10  N   UNL A   1      33.215  26.003  26.535  1.00  0.00    -0.313 N 
ATOM     11  C   UNL A   1      32.563  27.507  24.837  1.00  0.00     0.172 C 
ATOM     12  C   UNL A   1      32.387  25.280  25.474  1.00  0.00     0.237 C 
ATOM     13  H   UNL A   1      32.806  25.853  27.457  1.00  0.00     0.348 HD
ATOM     14  H   UNL A   1      34.171  25.648  26.546  1.00  0.00     0.348 HD
ATOM     15  C   UNL A   1      31.538  26.392  24.967  1.00  0.00     0.177 C 
ATOM     16  C   UNL A   1      31.713  28.602  24.305  1.00  0.00     0.244 C 
ATOM     17  C   UNL A   1      33.283  24.567  24.460  1.00  0.00     0.232 C 
ATOM     18  C   UNL A   1      31.603  24.129  26.098  1.00  0.00     0.232 C 
ATOM     19  C   UNL A   1      30.792  26.578  23.698  1.00  0.00     0.245 C 
ATOM     20  N   UNL A   1      30.728  27.964  23.556  1.00  0.00    -0.250 N 
ATOM     21  O   UNL A   1      31.931  29.786  24.488  1.00  0.00    -0.273 OA
ATOM     22  O   UNL A   1      34.156  25.065  23.766  1.00  0.00    -0.286 OA
ATOM     23  C   UNL A   1      33.015  23.132  24.525  1.00  0.00     0.036 A 
ATOM     24  C   UNL A   1      32.054  22.874  25.493  1.00  0.00     0.036 A 
ATOM     25  O   UNL A   1      30.735  24.189  26.953  1.00  0.00    -0.286 OA
ATOM     26  O   UNL A   1      30.295  25.678  23.045  1.00  0.00    -0.273 OA
ATOM     27  C   UNL A   1      33.613  22.115  23.800  1.00  0.00     0.013 A 
ATOM     28  C   UNL A   1      31.652  21.582  25.784  1.00  0.00     0.013 A 
ATOM     29  C   UNL A   1      33.215  20.804  24.076  1.00  0.00     0.001 A 
ATOM     30  C   UNL A   1      32.245  20.538  25.062  1.00  0.00     0.001 A 
BRANCH  20  31
ATOM     31  C   UNL A   1      29.702  28.679  22.904  1.00  0.00     0.052 A 
ATOM     32  C   UNL A   1      30.018  29.690  21.985  1.00  0.00     0.027 A 
ATOM     33  C   UNL A   1      28.367  28.495  23.280  1.00  0.00     0.027 A 
ATOM     34  C   UNL A   1      29.023  30.516  21.464  1.00  0.00     0.002 A 
ATOM     35  C   UNL A   1      27.377  29.354  22.790  1.00  0.00     0.002 A 
ATOM     36  C   UNL A   1      27.706  30.361  21.884  1.00  0.00     0.000 A 
ENDBRANCH  20  31
ENDBRANCH   6   8
ENDBRANCH   5   6
ENDBRANCH   4   5
ENDBRANCH   3   4
ENDBRANCH   2   3
ENDBRANCH   1   2
BRANCH   1  37
ATOM     37  C   UNL A   1      35.882  31.301  29.429  1.00  0.00     0.261 C 
BRANCH  37  38
ATOM     38  O   UNL A   1      36.288  29.958  29.129  1.00  0.00    -0.460 OA
BRANCH  38  39
ATOM     39  C   UNL A   1      37.016  29.352  30.099  1.00  0.00     0.338 C 
ATOM     40  O   UNL A   1      36.629  29.024  31.208  1.00  0.00    -0.246 OA
BRANCH  39  41
ATOM     41  C   UNL A   1      38.330  28.944  29.560  1.00  0.00     0.060 A 
ATOM     42  C   UNL A   1      38.737  29.295  28.273  1.00  0.00     0.016 A 
ATOM     43  C   UNL A   1      39.189  28.225  30.402  1.00  0.00     0.016 A 
ATOM     44  C   UNL A   1      40.022  28.954  27.844  1.00  0.00     0.010 A 
ATOM     45  C   UNL A   1      40.476  27.896  29.977  1.00  0.00     0.010 A 
ATOM     46  C   UNL A   1      40.914  28.285  28.705  1.00  0.00    -0.014 A 
BRANCH  46  47
ATOM     47  C   UNL A   1      42.350  28.173  28.340  1.00  0.00     0.031 A 
ATOM     48  C   UNL A   1      42.926  26.930  27.728  1.00  0.00     0.074 A 
ATOM     49  C   UNL A   1      43.147  29.228  28.600  1.00  0.00     0.049 A 
ATOM     50  N   UNL A   1      44.134  26.739  27.263  1.00  0.00    -0.248 NA
ATOM     51  C   UNL A   1      42.051  25.753  27.635  1.00  0.00     0.031 C 
ATOM     52  C   UNL A   1      42.705  30.464  29.251  1.00  0.00     0.029 A 
ATOM     53  N   UNL A   1      44.476  29.446  28.339  1.00  0.00    -0.354 N 
ATOM     54  C   UNL A   1      44.163  25.429  26.801  1.00  0.00     0.074 A 
ATOM     55  C   UNL A   1      42.866  24.854  27.093  1.00  0.00     0.031 C 
ATOM     56  C   UNL A   1      43.727  31.330  29.286  1.00  0.00     0.029 A 
ATOM     57  C   UNL A   1      44.908  30.702  28.700  1.00  0.00     0.049 A 
ATOM     58  H   UNL A   1      45.065  28.770  27.932  1.00  0.00     0.167 HD
ATOM     59  C   UNL A   1      45.172  24.783  26.169  1.00  0.00     0.031 A 
ATOM     60  C   UNL A   1      46.110  31.295  28.564  1.00  0.00     0.031 A 
ATOM     61  C   UNL A   1      46.464  25.370  25.898  1.00  0.00     0.049 A 
ATOM     62  C   UNL A   1      47.217  30.550  27.874  1.00  0.00     0.074 A 
ATOM     63  C   UNL A   1      47.527  24.811  25.208  1.00  0.00     0.029 A 
ATOM     64  N   UNL A   1      46.877  26.629  26.308  1.00  0.00    -0.354 N 
ATOM     65  N   UNL A   1      47.190  29.353  27.338  1.00  0.00    -0.248 NA
ATOM     66  C   UNL A   1      48.509  31.237  27.753  1.00  0.00     0.031 C 
ATOM     67  C   UNL A   1      48.607  25.694  25.275  1.00  0.00     0.029 A 
ATOM     68  C   UNL A   1      48.194  26.845  25.927  1.00  0.00     0.049 A 
ATOM     69  H   UNL A   1      46.318  27.275  26.797  1.00  0.00     0.167 HD
ATOM     70  C   UNL A   1      48.459  29.146  26.810  1.00  0.00     0.074 A 
ATOM     71  C   UNL A   1      49.215  30.357  27.055  1.00  0.00     0.031 C 
ATOM     72  C   UNL A   1      48.954  28.044  26.191  1.00  0.00     0.031 A 
BRANCH  59  73
ATOM     73  C   UNL A   1      44.935  23.373  25.683  1.00  0.00    -0.014 A 
ATOM     74  C   UNL A   1      45.553  22.288  26.334  1.00  0.00     0.010 A 
ATOM     75  C   UNL A   1      44.235  23.136  24.486  1.00  0.00     0.010 A 
ATOM     76  C   UNL A   1      45.517  21.007  25.776  1.00  0.00     0.020 A 
ATOM     77  C   UNL A   1      44.168  21.851  23.941  1.00  0.00     0.020 A 
ATOM     78  C   UNL A   1      44.833  20.799  24.575  1.00  0.00     0.054 A 
BRANCH  78  79
ATOM     79  S   UNL A   1      44.845  19.143  23.835  1.00  0.00     0.124 S 
ATOM     80  O   UNL A   1      44.510  19.425  22.442  1.00  0.00    -0.237 OA
ATOM     81  O   UNL A   1      46.214  18.696  24.079  1.00  0.00    -0.237 OA
ATOM     82  O   UNL A   1      43.821  18.424  24.591  1.00  0.00    -0.744 OA
ENDBRANCH  78  79
ENDBRANCH  59  73
BRANCH  60  83
ATOM     83  C   UNL A   1      46.284  32.696  29.043  1.00  0.00    -0.014 A 
ATOM     84  C   UNL A   1      46.509  32.962  30.407  1.00  0.00     0.010 A 
ATOM     85  C   UNL A   1      46.125  33.776  28.157  1.00  0.00     0.010 A 
ATOM     86  C   UNL A   1      46.501  34.273  30.888  1.00  0.00     0.020 A 
ATOM     87  C   UNL A   1      46.156  35.093  28.628  1.00  0.00     0.020 A 
ATOM     88  C   UNL A   1      46.308  35.330  29.995  1.00  0.00     0.054 A 
BRANCH  88  89
ATOM     89  S   UNL A   1      46.226  37.019  30.653  1.00  0.00     0.124 S 
ATOM     90  O   UNL A   1      47.477  37.106  31.404  1.00  0.00    -0.237 OA
ATOM     91  O   UNL A   1      46.161  37.829  29.441  1.00  0.00    -0.237 OA
ATOM     92  O   UNL A   1      45.011  37.013  31.463  1.00  0.00    -0.744 OA
ENDBRANCH  88  89
ENDBRANCH  60  83
BRANCH  72  93
ATOM     93  C   UNL A   1      50.399  28.067  25.755  1.00  0.00    -0.014 A 
ATOM     94  C   UNL A   1      50.728  28.259  24.399  1.00  0.00     0.010 A 
ATOM     95  C   UNL A   1      51.431  27.790  26.671  1.00  0.00     0.010 A 
ATOM     96  C   UNL A   1      52.051  28.138  23.964  1.00  0.00     0.020 A 
ATOM     97  C   UNL A   1      52.760  27.708  26.246  1.00  0.00     0.020 A 
ATOM     98  C   UNL A   1      53.058  27.856  24.890  1.00  0.00     0.054 A 
BRANCH  98  99
ATOM     99  S   UNL A   1      54.766  27.682  24.301  1.00  0.00     0.124 S 
ATOM    100  O   UNL A   1      55.478  27.327  25.525  1.00  0.00    -0.237 OA
ATOM    101  O   UNL A   1      54.653  26.619  23.306  1.00  0.00    -0.237 OA
ATOM    102  O   UNL A   1      55.078  29.002  23.758  1.00  0.00    -0.744 OA
ENDBRANCH  98  99
ENDBRANCH  72  93
ENDBRANCH  46  47
ENDBRANCH  39  41
ENDBRANCH  38  39
ENDBRANCH  37  38
ENDBRANCH   1  37
TORSDOF 18
ENDMDL
