MODEL 1
REMARK VINA RESULT:      -9.3      0.000      0.000
REMARK SMILES O=C(CN1CSCC1=O)NCCCC(=O)OCCOCCOC(=O)c1ccc(-c2c3nc(c(-c4ccc(S(=O)(=O)[O-])cc4)c4ccc([nH]4)c(-c4ccc(S(=O)(=O)[O-])cc4)c4nc(c(-c5ccc(S(=O)(=O)[O-])cc5)c5ccc2[nH]5)C=C4)C=C3)cc1
REMARK SMILES IDX 18 1 17 2 16 3 14 4 15 5 13 6 12 7 11 8 10 9 1 10 2 11 3 13
REMARK SMILES IDX 4 14 5 15 8 16 6 17 7 18 9 19 19 20 20 21 21 22 22 23 23 24
REMARK SMILES IDX 24 25 25 26 26 27 84 28 27 29 83 30 28 31 29 32 30 33 77 34
REMARK SMILES IDX 31 35 82 36 76 37 78 38 32 39 81 40 75 41 74 42 33 44 63 45
REMARK SMILES IDX 44 46 62 47 45 48 48 49 61 50 79 51 46 52 47 53 60 55 80 56
REMARK SMILES IDX 49 57 34 58 35 59 43 60 36 61 42 62 37 63 38 64 39 65 40 66
REMARK SMILES IDX 41 67 64 68 65 69 73 70 66 71 72 72 67 73 68 74 69 75 70 76
REMARK SMILES IDX 71 77 50 78 51 79 59 80 52 81 58 82 53 83 54 84 55 85 56 86
REMARK SMILES IDX 57 87
REMARK H PARENT 10 12 78 43 48 54
REMARK Flexibility Score: inf
ROOT
ATOM      1  C   UNL A   1      33.423  27.883  25.663  1.00  0.00     0.202 C 
ENDROOT
BRANCH   1   2
ATOM      2  C   UNL A   1      33.876  26.965  24.523  1.00  0.00     0.261 C 
BRANCH   2   3
ATOM      3  O   UNL A   1      32.938  26.999  23.428  1.00  0.00    -0.463 OA
BRANCH   3   4
ATOM      4  C   UNL A   1      33.076  26.045  22.473  1.00  0.00     0.305 C 
ATOM      5  O   UNL A   1      33.646  26.202  21.401  1.00  0.00    -0.252 OA
BRANCH   4   6
ATOM      6  C   UNL A   1      32.384  24.750  22.844  1.00  0.00     0.124 C 
BRANCH   6   7
ATOM      7  C   UNL A   1      30.915  24.819  23.274  1.00  0.00     0.033 C 
BRANCH   7   8
ATOM      8  C   UNL A   1      30.661  24.926  24.775  1.00  0.00     0.116 C 
BRANCH   8   9
ATOM      9  N   UNL A   1      31.649  24.206  25.547  1.00  0.00    -0.355 N 
ATOM     10  O   UNL A   1      30.228  23.530  27.210  1.00  0.00    -0.273 OA
ATOM     11  C   UNL A   1      31.335  23.488  26.679  1.00  0.00     0.239 C 
ATOM     12  H   UNL A   1      32.587  24.230  25.250  1.00  0.00     0.163 HD
BRANCH  11  13
ATOM     13  C   UNL A   1      32.524  22.780  27.333  1.00  0.00     0.220 C 
BRANCH  13  14
ATOM     14  N   UNL A   1      33.445  22.065  26.448  1.00  0.00    -0.323 N 
ATOM     15  C   UNL A   1      34.826  22.470  26.333  1.00  0.00     0.190 C 
ATOM     16  C   UNL A   1      32.947  21.228  25.462  1.00  0.00     0.233 C 
ATOM     17  S   UNL A   1      35.507  21.703  24.865  1.00  0.00    -0.130 SA
ATOM     18  C   UNL A   1      34.000  20.796  24.469  1.00  0.00     0.171 C 
ATOM     19  O   UNL A   1      31.776  20.872  25.395  1.00  0.00    -0.274 OA
ENDBRANCH  13  14
ENDBRANCH  11  13
ENDBRANCH   8   9
ENDBRANCH   7   8
ENDBRANCH   6   7
ENDBRANCH   4   6
ENDBRANCH   3   4
ENDBRANCH   2   3
ENDBRANCH   1   2
BRANCH   1  20
ATOM     20  O   UNL A   1      32.040  28.246  25.651  1.00  0.00    -0.374 OA
BRANCH  20  21
ATOM     21  C   UNL A   1      31.650  29.331  26.488  1.00  0.00     0.202 C 
BRANCH  21  22
ATOM     22  C   UNL A   1      32.600  30.534  26.527  1.00  0.00     0.261 C 
BRANCH  22  23
ATOM     23  O   UNL A   1      33.521  30.465  27.630  1.00  0.00    -0.460 OA
BRANCH  23  24
ATOM     24  C   UNL A   1      34.371  31.516  27.701  1.00  0.00     0.338 C 
ATOM     25  O   UNL A   1      34.068  32.705  27.676  1.00  0.00    -0.246 OA
BRANCH  24  26
ATOM     26  C   UNL A   1      35.748  31.073  27.984  1.00  0.00     0.060 A 
ATOM     27  C   UNL A   1      35.961  29.691  28.051  1.00  0.00     0.016 A 
ATOM     28  C   UNL A   1      36.782  31.964  28.288  1.00  0.00     0.016 A 
ATOM     29  C   UNL A   1      37.174  29.193  28.513  1.00  0.00     0.010 A 
ATOM     30  C   UNL A   1      38.005  31.460  28.752  1.00  0.00     0.010 A 
ATOM     31  C   UNL A   1      38.184  30.074  28.924  1.00  0.00    -0.014 A 
BRANCH  31  32
ATOM     32  C   UNL A   1      39.314  29.523  29.714  1.00  0.00     0.031 A 
ATOM     33  C   UNL A   1      39.435  29.900  31.170  1.00  0.00     0.074 A 
ATOM     34  C   UNL A   1      40.152  28.614  29.184  1.00  0.00     0.049 A 
ATOM     35  N   UNL A   1      40.265  29.450  32.076  1.00  0.00    -0.248 NA
ATOM     36  C   UNL A   1      38.492  30.915  31.670  1.00  0.00     0.031 C 
ATOM     37  C   UNL A   1      40.118  28.134  27.803  1.00  0.00     0.029 A 
ATOM     38  N   UNL A   1      41.184  27.914  29.758  1.00  0.00    -0.354 N 
ATOM     39  C   UNL A   1      39.944  30.123  33.251  1.00  0.00     0.074 A 
ATOM     40  C   UNL A   1      38.870  31.039  32.934  1.00  0.00     0.031 C 
ATOM     41  C   UNL A   1      41.077  27.206  27.640  1.00  0.00     0.029 A 
ATOM     42  C   UNL A   1      41.802  27.038  28.898  1.00  0.00     0.049 A 
ATOM     43  H   UNL A   1      41.455  28.028  30.697  1.00  0.00     0.167 HD
ATOM     44  C   UNL A   1      40.478  29.983  34.487  1.00  0.00     0.031 A 
ATOM     45  C   UNL A   1      42.831  26.192  29.102  1.00  0.00     0.031 A 
ATOM     46  C   UNL A   1      41.550  29.079  34.808  1.00  0.00     0.049 A 
ATOM     47  C   UNL A   1      43.440  26.084  30.477  1.00  0.00     0.074 A 
ATOM     48  C   UNL A   1      42.159  28.863  36.032  1.00  0.00     0.029 A 
ATOM     49  N   UNL A   1      42.175  28.240  33.898  1.00  0.00    -0.354 N 
ATOM     50  N   UNL A   1      43.107  26.712  31.580  1.00  0.00    -0.248 NA
ATOM     51  C   UNL A   1      44.550  25.135  30.636  1.00  0.00     0.031 C 
ATOM     52  C   UNL A   1      43.184  27.926  35.852  1.00  0.00     0.029 A 
ATOM     53  C   UNL A   1      43.173  27.517  34.528  1.00  0.00     0.049 A 
ATOM     54  H   UNL A   1      41.943  28.168  32.944  1.00  0.00     0.167 HD
ATOM     55  C   UNL A   1      43.947  26.209  32.570  1.00  0.00     0.074 A 
ATOM     56  C   UNL A   1      44.791  25.217  31.937  1.00  0.00     0.031 C 
ATOM     57  C   UNL A   1      44.009  26.534  33.886  1.00  0.00     0.031 A 
BRANCH  44  58
ATOM     58  C   UNL A   1      39.926  30.857  35.583  1.00  0.00    -0.014 A 
ATOM     59  C   UNL A   1      38.652  30.621  36.130  1.00  0.00     0.010 A 
ATOM     60  C   UNL A   1      40.702  31.916  36.087  1.00  0.00     0.010 A 
ATOM     61  C   UNL A   1      38.147  31.454  37.133  1.00  0.00     0.020 A 
ATOM     62  C   UNL A   1      40.213  32.734  37.108  1.00  0.00     0.020 A 
ATOM     63  C   UNL A   1      38.930  32.509  37.612  1.00  0.00     0.054 A 
BRANCH  63  64
ATOM     64  S   UNL A   1      38.258  33.567  38.923  1.00  0.00     0.124 S 
ATOM     65  O   UNL A   1      38.827  32.958  40.123  1.00  0.00    -0.237 OA
ATOM     66  O   UNL A   1      38.786  34.884  38.576  1.00  0.00    -0.237 OA
ATOM     67  O   UNL A   1      36.812  33.423  38.778  1.00  0.00    -0.744 OA
ENDBRANCH  63  64
ENDBRANCH  44  58
BRANCH  45  68
ATOM     68  C   UNL A   1      43.351  25.368  27.977  1.00  0.00    -0.014 A 
ATOM     69  C   UNL A   1      42.808  24.102  27.697  1.00  0.00     0.010 A 
ATOM     70  C   UNL A   1      44.403  25.852  27.179  1.00  0.00     0.010 A 
ATOM     71  C   UNL A   1      43.320  23.327  26.652  1.00  0.00     0.020 A 
ATOM     72  C   UNL A   1      44.900  25.092  26.117  1.00  0.00     0.020 A 
ATOM     73  C   UNL A   1      44.364  23.828  25.868  1.00  0.00     0.054 A 
BRANCH  73  74
ATOM     74  S   UNL A   1      44.983  22.829  24.485  1.00  0.00     0.124 S 
ATOM     75  O   UNL A   1      45.964  23.723  23.879  1.00  0.00    -0.237 OA
ATOM     76  O   UNL A   1      45.528  21.655  25.163  1.00  0.00    -0.237 OA
ATOM     77  O   UNL A   1      43.786  22.576  23.686  1.00  0.00    -0.744 OA
ENDBRANCH  73  74
ENDBRANCH  45  68
BRANCH  57  78
ATOM     78  C   UNL A   1      44.993  25.779  34.739  1.00  0.00    -0.014 A 
ATOM     79  C   UNL A   1      44.776  24.437  35.100  1.00  0.00     0.010 A 
ATOM     80  C   UNL A   1      46.171  26.420  35.168  1.00  0.00     0.010 A 
ATOM     81  C   UNL A   1      45.692  23.768  35.918  1.00  0.00     0.020 A 
ATOM     82  C   UNL A   1      47.103  25.746  35.961  1.00  0.00     0.020 A 
ATOM     83  C   UNL A   1      46.845  24.430  36.350  1.00  0.00     0.054 A 
BRANCH  83  84
ATOM     84  S   UNL A   1      48.023  23.541  37.405  1.00  0.00     0.124 S 
ATOM     85  O   UNL A   1      49.047  23.141  36.444  1.00  0.00    -0.237 OA
ATOM     86  O   UNL A   1      48.431  24.563  38.367  1.00  0.00    -0.237 OA
ATOM     87  O   UNL A   1      47.231  22.449  37.965  1.00  0.00    -0.744 OA
ENDBRANCH  83  84
ENDBRANCH  57  78
ENDBRANCH  31  32
ENDBRANCH  24  26
ENDBRANCH  23  24
ENDBRANCH  22  23
ENDBRANCH  21  22
ENDBRANCH  20  21
ENDBRANCH   1  20
TORSDOF 22
ENDMDL
MODEL 2
REMARK VINA RESULT:      -9.0      5.643     11.241
REMARK SMILES O=C(CN1CSCC1=O)NCCCC(=O)OCCOCCOC(=O)c1ccc(-c2c3nc(c(-c4ccc(S(=O)(=O)[O-])cc4)c4ccc([nH]4)c(-c4ccc(S(=O)(=O)[O-])cc4)c4nc(c(-c5ccc(S(=O)(=O)[O-])cc5)c5ccc2[nH]5)C=C4)C=C3)cc1
REMARK SMILES IDX 18 1 17 2 16 3 14 4 15 5 13 6 12 7 11 8 10 9 1 10 2 11 3 13
REMARK SMILES IDX 4 14 5 15 8 16 6 17 7 18 9 19 19 20 20 21 21 22 22 23 23 24
REMARK SMILES IDX 24 25 25 26 26 27 84 28 27 29 83 30 28 31 29 32 30 33 77 34
REMARK SMILES IDX 31 35 82 36 76 37 78 38 32 39 81 40 75 41 74 42 33 44 63 45
REMARK SMILES IDX 44 46 62 47 45 48 48 49 61 50 79 51 46 52 47 53 60 55 80 56
REMARK SMILES IDX 49 57 34 58 35 59 43 60 36 61 42 62 37 63 38 64 39 65 40 66
REMARK SMILES IDX 41 67 64 68 65 69 73 70 66 71 72 72 67 73 68 74 69 75 70 76
REMARK SMILES IDX 71 77 50 78 51 79 59 80 52 81 58 82 53 83 54 84 55 85 56 86
REMARK SMILES IDX 57 87
REMARK H PARENT 10 12 78 43 48 54
REMARK Flexibility Score: inf
ROOT
ATOM      1  C   UNL A   1      37.182  21.355  24.794  1.00  0.00     0.202 C 
ENDROOT
BRANCH   1   2
ATOM      2  C   UNL A   1      35.659  21.335  24.959  1.00  0.00     0.261 C 
BRANCH   2   3
ATOM      3  O   UNL A   1      35.239  22.250  25.993  1.00  0.00    -0.463 OA
BRANCH   3   4
ATOM      4  C   UNL A   1      33.908  22.326  26.241  1.00  0.00     0.305 C 
ATOM      5  O   UNL A   1      33.387  23.085  27.048  1.00  0.00    -0.252 OA
BRANCH   4   6
ATOM      6  C   UNL A   1      33.111  21.314  25.446  1.00  0.00     0.124 C 
BRANCH   6   7
ATOM      7  C   UNL A   1      32.133  21.840  24.390  1.00  0.00     0.033 C 
BRANCH   7   8
ATOM      8  C   UNL A   1      32.756  22.345  23.091  1.00  0.00     0.116 C 
BRANCH   8   9
ATOM      9  N   UNL A   1      32.136  23.566  22.629  1.00  0.00    -0.355 N 
ATOM     10  O   UNL A   1      34.071  24.773  22.427  1.00  0.00    -0.273 OA
ATOM     11  C   UNL A   1      32.858  24.676  22.253  1.00  0.00     0.239 C 
ATOM     12  H   UNL A   1      31.153  23.606  22.581  1.00  0.00     0.163 HD
BRANCH  11  13
ATOM     13  C   UNL A   1      32.009  25.855  21.773  1.00  0.00     0.220 C 
BRANCH  13  14
ATOM     14  N   UNL A   1      31.800  26.956  22.715  1.00  0.00    -0.323 N 
ATOM     15  C   UNL A   1      32.615  28.146  22.657  1.00  0.00     0.190 C 
ATOM     16  C   UNL A   1      31.072  26.743  23.875  1.00  0.00     0.233 C 
ATOM     17  S   UNL A   1      32.403  29.037  24.196  1.00  0.00    -0.130 SA
ATOM     18  C   UNL A   1      31.188  27.883  24.860  1.00  0.00     0.171 C 
ATOM     19  O   UNL A   1      30.403  25.738  24.088  1.00  0.00    -0.274 OA
ENDBRANCH  13  14
ENDBRANCH  11  13
ENDBRANCH   8   9
ENDBRANCH   7   8
ENDBRANCH   6   7
ENDBRANCH   4   6
ENDBRANCH   3   4
ENDBRANCH   2   3
ENDBRANCH   1   2
BRANCH   1  20
ATOM     20  O   UNL A   1      37.889  22.220  25.685  1.00  0.00    -0.374 OA
BRANCH  20  21
ATOM     21  C   UNL A   1      39.196  21.812  26.080  1.00  0.00     0.202 C 
BRANCH  21  22
ATOM     22  C   UNL A   1      39.569  20.353  25.790  1.00  0.00     0.261 C 
BRANCH  22  23
ATOM     23  O   UNL A   1      40.585  19.863  26.681  1.00  0.00    -0.460 OA
BRANCH  23  24
ATOM     24  C   UNL A   1      41.802  19.727  26.103  1.00  0.00     0.338 C 
ATOM     25  O   UNL A   1      42.141  18.858  25.306  1.00  0.00    -0.246 OA
BRANCH  24  26
ATOM     26  C   UNL A   1      42.675  20.872  26.418  1.00  0.00     0.060 A 
ATOM     27  C   UNL A   1      42.641  21.343  27.737  1.00  0.00     0.016 A 
ATOM     28  C   UNL A   1      43.421  21.545  25.445  1.00  0.00     0.016 A 
ATOM     29  C   UNL A   1      43.271  22.538  28.068  1.00  0.00     0.010 A 
ATOM     30  C   UNL A   1      44.056  22.749  25.782  1.00  0.00     0.010 A 
ATOM     31  C   UNL A   1      43.932  23.280  27.080  1.00  0.00    -0.014 A 
BRANCH  31  32
ATOM     32  C   UNL A   1      44.294  24.687  27.387  1.00  0.00     0.031 A 
ATOM     33  C   UNL A   1      45.734  25.115  27.246  1.00  0.00     0.074 A 
ATOM     34  C   UNL A   1      43.347  25.598  27.674  1.00  0.00     0.049 A 
ATOM     35  N   UNL A   1      46.256  26.311  27.344  1.00  0.00    -0.248 NA
ATOM     36  C   UNL A   1      46.712  24.056  26.947  1.00  0.00     0.031 C 
ATOM     37  C   UNL A   1      41.916  25.323  27.801  1.00  0.00     0.029 A 
ATOM     38  N   UNL A   1      43.450  26.950  27.888  1.00  0.00    -0.354 N 
ATOM     39  C   UNL A   1      47.619  26.148  27.119  1.00  0.00     0.074 A 
ATOM     40  C   UNL A   1      47.849  24.735  26.917  1.00  0.00     0.031 C 
ATOM     41  C   UNL A   1      41.272  26.474  28.057  1.00  0.00     0.029 A 
ATOM     42  C   UNL A   1      42.243  27.564  28.128  1.00  0.00     0.049 A 
ATOM     43  H   UNL A   1      44.306  27.435  27.871  1.00  0.00     0.167 HD
ATOM     44  C   UNL A   1      48.593  27.088  27.067  1.00  0.00     0.031 A 
ATOM     45  C   UNL A   1      41.954  28.858  28.370  1.00  0.00     0.031 A 
ATOM     46  C   UNL A   1      48.372  28.495  27.273  1.00  0.00     0.049 A 
ATOM     47  C   UNL A   1      43.060  29.882  28.351  1.00  0.00     0.074 A 
ATOM     48  C   UNL A   1      49.294  29.526  27.239  1.00  0.00     0.029 A 
ATOM     49  N   UNL A   1      47.142  29.069  27.555  1.00  0.00    -0.354 N 
ATOM     50  N   UNL A   1      44.340  29.711  28.114  1.00  0.00    -0.248 NA
ATOM     51  C   UNL A   1      42.676  31.276  28.611  1.00  0.00     0.031 C 
ATOM     52  C   UNL A   1      48.628  30.719  27.545  1.00  0.00     0.029 A 
ATOM     53  C   UNL A   1      47.282  30.436  27.712  1.00  0.00     0.049 A 
ATOM     54  H   UNL A   1      46.292  28.576  27.630  1.00  0.00     0.167 HD
ATOM     55  C   UNL A   1      44.907  30.982  28.164  1.00  0.00     0.074 A 
ATOM     56  C   UNL A   1      43.829  31.909  28.440  1.00  0.00     0.031 C 
ATOM     57  C   UNL A   1      46.202  31.349  27.990  1.00  0.00     0.031 A 
BRANCH  44  58
ATOM     58  C   UNL A   1      49.998  26.614  26.804  1.00  0.00    -0.014 A 
ATOM     59  C   UNL A   1      50.858  26.262  27.860  1.00  0.00     0.010 A 
ATOM     60  C   UNL A   1      50.456  26.497  25.479  1.00  0.00     0.010 A 
ATOM     61  C   UNL A   1      52.166  25.843  27.597  1.00  0.00     0.020 A 
ATOM     62  C   UNL A   1      51.753  26.052  25.211  1.00  0.00     0.020 A 
ATOM     63  C   UNL A   1      52.606  25.745  26.273  1.00  0.00     0.054 A 
BRANCH  63  64
ATOM     64  S   UNL A   1      54.303  25.186  25.958  1.00  0.00     0.124 S 
ATOM     65  O   UNL A   1      54.080  23.871  25.362  1.00  0.00    -0.237 OA
ATOM     66  O   UNL A   1      54.816  26.209  25.050  1.00  0.00    -0.237 OA
ATOM     67  O   UNL A   1      54.915  25.173  27.284  1.00  0.00    -0.744 OA
ENDBRANCH  63  64
ENDBRANCH  44  58
BRANCH  45  68
ATOM     68  C   UNL A   1      40.549  29.266  28.646  1.00  0.00    -0.014 A 
ATOM     69  C   UNL A   1      39.601  29.340  27.611  1.00  0.00     0.010 A 
ATOM     70  C   UNL A   1      40.156  29.589  29.958  1.00  0.00     0.010 A 
ATOM     71  C   UNL A   1      38.291  29.748  27.878  1.00  0.00     0.020 A 
ATOM     72  C   UNL A   1      38.841  29.972  30.234  1.00  0.00     0.020 A 
ATOM     73  C   UNL A   1      37.919  30.061  29.190  1.00  0.00     0.054 A 
BRANCH  73  74
ATOM     74  S   UNL A   1      36.201  30.540  29.525  1.00  0.00     0.124 S 
ATOM     75  O   UNL A   1      36.189  31.939  29.106  1.00  0.00    -0.237 OA
ATOM     76  O   UNL A   1      35.445  29.620  28.680  1.00  0.00    -0.237 OA
ATOM     77  O   UNL A   1      36.058  30.314  30.961  1.00  0.00    -0.744 OA
ENDBRANCH  73  74
ENDBRANCH  45  68
BRANCH  57  78
ATOM     78  C   UNL A   1      46.517  32.820  28.051  1.00  0.00    -0.014 A 
ATOM     79  C   UNL A   1      46.725  33.576  26.883  1.00  0.00     0.010 A 
ATOM     80  C   UNL A   1      46.583  33.461  29.302  1.00  0.00     0.010 A 
ATOM     81  C   UNL A   1      47.046  34.934  26.968  1.00  0.00     0.020 A 
ATOM     82  C   UNL A   1      46.875  34.825  29.390  1.00  0.00     0.020 A 
ATOM     83  C   UNL A   1      47.128  35.547  28.222  1.00  0.00     0.054 A 
BRANCH  83  84
ATOM     84  S   UNL A   1      47.539  37.312  28.310  1.00  0.00     0.124 S 
ATOM     85  O   UNL A   1      47.823  37.485  29.732  1.00  0.00    -0.237 OA
ATOM     86  O   UNL A   1      48.694  37.420  27.421  1.00  0.00    -0.237 OA
ATOM     87  O   UNL A   1      46.329  37.974  27.830  1.00  0.00    -0.744 OA
ENDBRANCH  83  84
ENDBRANCH  57  78
ENDBRANCH  31  32
ENDBRANCH  24  26
ENDBRANCH  23  24
ENDBRANCH  22  23
ENDBRANCH  21  22
ENDBRANCH  20  21
ENDBRANCH   1  20
TORSDOF 22
ENDMDL
MODEL 3
REMARK VINA RESULT:      -8.9      3.426      4.498
REMARK SMILES O=C(CN1CSCC1=O)NCCCC(=O)OCCOCCOC(=O)c1ccc(-c2c3nc(c(-c4ccc(S(=O)(=O)[O-])cc4)c4ccc([nH]4)c(-c4ccc(S(=O)(=O)[O-])cc4)c4nc(c(-c5ccc(S(=O)(=O)[O-])cc5)c5ccc2[nH]5)C=C4)C=C3)cc1
REMARK SMILES IDX 18 1 17 2 16 3 14 4 15 5 13 6 12 7 11 8 10 9 1 10 2 11 3 13
REMARK SMILES IDX 4 14 5 15 8 16 6 17 7 18 9 19 19 20 20 21 21 22 22 23 23 24
REMARK SMILES IDX 24 25 25 26 26 27 84 28 27 29 83 30 28 31 29 32 30 33 77 34
REMARK SMILES IDX 31 35 82 36 76 37 78 38 32 39 81 40 75 41 74 42 33 44 63 45
REMARK SMILES IDX 44 46 62 47 45 48 48 49 61 50 79 51 46 52 47 53 60 55 80 56
REMARK SMILES IDX 49 57 34 58 35 59 43 60 36 61 42 62 37 63 38 64 39 65 40 66
REMARK SMILES IDX 41 67 64 68 65 69 73 70 66 71 72 72 67 73 68 74 69 75 70 76
REMARK SMILES IDX 71 77 50 78 51 79 59 80 52 81 58 82 53 83 54 84 55 85 56 86
REMARK SMILES IDX 57 87
REMARK H PARENT 10 12 78 43 48 54
REMARK Flexibility Score: inf
ROOT
ATOM      1  C   UNL A   1      34.831  24.315  24.488  1.00  0.00     0.202 C 
ENDROOT
BRANCH   1   2
ATOM      2  C   UNL A   1      33.740  23.609  23.676  1.00  0.00     0.261 C 
BRANCH   2   3
ATOM      3  O   UNL A   1      33.675  22.206  24.008  1.00  0.00    -0.463 OA
BRANCH   3   4
ATOM      4  C   UNL A   1      32.447  21.632  24.000  1.00  0.00     0.305 C 
ATOM      5  O   UNL A   1      31.802  21.366  22.994  1.00  0.00    -0.252 OA
BRANCH   4   6
ATOM      6  C   UNL A   1      31.908  21.398  25.395  1.00  0.00     0.124 C 
BRANCH   6   7
ATOM      7  C   UNL A   1      30.638  22.150  25.809  1.00  0.00     0.033 C 
BRANCH   7   8
ATOM      8  C   UNL A   1      30.832  23.597  26.257  1.00  0.00     0.116 C 
BRANCH   8   9
ATOM      9  N   UNL A   1      30.429  24.540  25.238  1.00  0.00    -0.355 N 
ATOM     10  O   UNL A   1      30.522  26.403  26.566  1.00  0.00    -0.273 OA
ATOM     11  C   UNL A   1      30.380  25.899  25.454  1.00  0.00     0.239 C 
ATOM     12  H   UNL A   1      30.178  24.196  24.351  1.00  0.00     0.163 HD
BRANCH  11  13
ATOM     13  C   UNL A   1      29.950  26.721  24.238  1.00  0.00     0.220 C 
BRANCH  13  14
ATOM     14  N   UNL A   1      31.013  27.269  23.392  1.00  0.00    -0.323 N 
ATOM     15  C   UNL A   1      31.764  26.416  22.501  1.00  0.00     0.190 C 
ATOM     16  C   UNL A   1      31.546  28.517  23.673  1.00  0.00     0.233 C 
ATOM     17  S   UNL A   1      33.236  27.303  21.998  1.00  0.00    -0.130 SA
ATOM     18  C   UNL A   1      32.806  28.807  22.893  1.00  0.00     0.171 C 
ATOM     19  O   UNL A   1      31.053  29.307  24.471  1.00  0.00    -0.274 OA
ENDBRANCH  13  14
ENDBRANCH  11  13
ENDBRANCH   8   9
ENDBRANCH   7   8
ENDBRANCH   6   7
ENDBRANCH   4   6
ENDBRANCH   3   4
ENDBRANCH   2   3
ENDBRANCH   1   2
BRANCH   1  20
ATOM     20  O   UNL A   1      34.366  25.186  25.522  1.00  0.00    -0.374 OA
BRANCH  20  21
ATOM     21  C   UNL A   1      34.578  26.582  25.334  1.00  0.00     0.202 C 
BRANCH  21  22
ATOM     22  C   UNL A   1      33.818  27.519  26.280  1.00  0.00     0.261 C 
BRANCH  22  23
ATOM     23  O   UNL A   1      34.257  28.884  26.165  1.00  0.00    -0.460 OA
BRANCH  23  24
ATOM     24  C   UNL A   1      34.219  29.572  27.331  1.00  0.00     0.338 C 
ATOM     25  O   UNL A   1      33.214  29.944  27.928  1.00  0.00    -0.246 OA
BRANCH  24  26
ATOM     26  C   UNL A   1      35.563  29.698  27.921  1.00  0.00     0.060 A 
ATOM     27  C   UNL A   1      36.595  30.083  27.056  1.00  0.00     0.016 A 
ATOM     28  C   UNL A   1      35.844  29.348  29.246  1.00  0.00     0.016 A 
ATOM     29  C   UNL A   1      37.918  30.027  27.480  1.00  0.00     0.010 A 
ATOM     30  C   UNL A   1      37.179  29.294  29.671  1.00  0.00     0.010 A 
ATOM     31  C   UNL A   1      38.224  29.575  28.770  1.00  0.00    -0.014 A 
BRANCH  31  32
ATOM     32  C   UNL A   1      39.632  29.211  29.069  1.00  0.00     0.031 A 
ATOM     33  C   UNL A   1      40.486  30.183  29.847  1.00  0.00     0.074 A 
ATOM     34  C   UNL A   1      40.114  27.994  28.758  1.00  0.00     0.049 A 
ATOM     35  N   UNL A   1      41.695  30.028  30.320  1.00  0.00    -0.248 NA
ATOM     36  C   UNL A   1      39.893  31.501  30.132  1.00  0.00     0.031 C 
ATOM     37  C   UNL A   1      39.380  26.949  28.044  1.00  0.00     0.029 A 
ATOM     38  N   UNL A   1      41.333  27.425  29.028  1.00  0.00    -0.354 N 
ATOM     39  C   UNL A   1      42.007  31.224  30.960  1.00  0.00     0.074 A 
ATOM     40  C   UNL A   1      40.876  32.107  30.780  1.00  0.00     0.031 C 
ATOM     41  C   UNL A   1      40.161  25.859  27.945  1.00  0.00     0.029 A 
ATOM     42  C   UNL A   1      41.452  26.133  28.573  1.00  0.00     0.049 A 
ATOM     43  H   UNL A   1      42.055  27.896  29.504  1.00  0.00     0.167 HD
ATOM     44  C   UNL A   1      43.124  31.556  31.650  1.00  0.00     0.031 A 
ATOM     45  C   UNL A   1      42.482  25.268  28.658  1.00  0.00     0.031 A 
ATOM     46  C   UNL A   1      44.255  30.684  31.826  1.00  0.00     0.049 A 
ATOM     47  C   UNL A   1      43.733  25.673  29.393  1.00  0.00     0.074 A 
ATOM     48  C   UNL A   1      45.433  30.929  32.510  1.00  0.00     0.029 A 
ATOM     49  N   UNL A   1      44.351  29.400  31.313  1.00  0.00    -0.354 N 
ATOM     50  N   UNL A   1      44.000  26.801  30.011  1.00  0.00    -0.248 NA
ATOM     51  C   UNL A   1      44.813  24.680  29.460  1.00  0.00     0.031 C 
ATOM     52  C   UNL A   1      46.260  29.808  32.372  1.00  0.00     0.029 A 
ATOM     53  C   UNL A   1      45.573  28.845  31.651  1.00  0.00     0.049 A 
ATOM     54  H   UNL A   1      43.652  28.948  30.787  1.00  0.00     0.167 HD
ATOM     55  C   UNL A   1      45.266  26.638  30.567  1.00  0.00     0.074 A 
ATOM     56  C   UNL A   1      45.703  25.300  30.223  1.00  0.00     0.031 C 
ATOM     57  C   UNL A   1      45.998  27.513  31.301  1.00  0.00     0.031 A 
BRANCH  44  58
ATOM     58  C   UNL A   1      43.186  32.940  32.241  1.00  0.00    -0.014 A 
ATOM     59  C   UNL A   1      42.707  33.200  33.538  1.00  0.00     0.010 A 
ATOM     60  C   UNL A   1      43.753  33.990  31.496  1.00  0.00     0.010 A 
ATOM     61  C   UNL A   1      42.756  34.494  34.063  1.00  0.00     0.020 A 
ATOM     62  C   UNL A   1      43.827  35.280  32.029  1.00  0.00     0.020 A 
ATOM     63  C   UNL A   1      43.311  35.528  33.302  1.00  0.00     0.054 A 
BRANCH  63  64
ATOM     64  S   UNL A   1      43.374  37.196  34.011  1.00  0.00     0.124 S 
ATOM     65  O   UNL A   1      44.448  37.066  34.993  1.00  0.00    -0.237 OA
ATOM     66  O   UNL A   1      43.680  38.028  32.851  1.00  0.00    -0.237 OA
ATOM     67  O   UNL A   1      42.038  37.384  34.572  1.00  0.00    -0.744 OA
ENDBRANCH  63  64
ENDBRANCH  44  58
BRANCH  45  68
ATOM     68  C   UNL A   1      42.373  23.920  28.035  1.00  0.00    -0.014 A 
ATOM     69  C   UNL A   1      41.869  22.827  28.761  1.00  0.00     0.010 A 
ATOM     70  C   UNL A   1      42.782  23.726  26.703  1.00  0.00     0.010 A 
ATOM     71  C   UNL A   1      41.794  21.560  28.174  1.00  0.00     0.020 A 
ATOM     72  C   UNL A   1      42.683  22.468  26.104  1.00  0.00     0.020 A 
ATOM     73  C   UNL A   1      42.202  21.389  26.847  1.00  0.00     0.054 A 
BRANCH  73  74
ATOM     74  S   UNL A   1      42.051  19.749  26.086  1.00  0.00     0.124 S 
ATOM     75  O   UNL A   1      40.638  19.713  25.721  1.00  0.00    -0.237 OA
ATOM     76  O   UNL A   1      42.990  19.830  24.970  1.00  0.00    -0.237 OA
ATOM     77  O   UNL A   1      42.446  18.838  27.157  1.00  0.00    -0.744 OA
ENDBRANCH  73  74
ENDBRANCH  45  68
BRANCH  57  78
ATOM     78  C   UNL A   1      47.329  27.037  31.820  1.00  0.00    -0.014 A 
ATOM     79  C   UNL A   1      47.452  26.429  33.082  1.00  0.00     0.010 A 
ATOM     80  C   UNL A   1      48.475  27.181  31.016  1.00  0.00     0.010 A 
ATOM     81  C   UNL A   1      48.704  26.023  33.552  1.00  0.00     0.020 A 
ATOM     82  C   UNL A   1      49.724  26.749  31.470  1.00  0.00     0.020 A 
ATOM     83  C   UNL A   1      49.833  26.194  32.746  1.00  0.00     0.054 A 
BRANCH  83  84
ATOM     84  S   UNL A   1      51.448  25.654  33.373  1.00  0.00     0.124 S 
ATOM     85  O   UNL A   1      51.195  24.252  33.692  1.00  0.00    -0.237 OA
ATOM     86  O   UNL A   1      52.332  25.889  32.233  1.00  0.00    -0.237 OA
ATOM     87  O   UNL A   1      51.682  26.525  34.523  1.00  0.00    -0.744 OA
ENDBRANCH  83  84
ENDBRANCH  57  78
ENDBRANCH  31  32
ENDBRANCH  24  26
ENDBRANCH  23  24
ENDBRANCH  22  23
ENDBRANCH  21  22
ENDBRANCH  20  21
ENDBRANCH   1  20
TORSDOF 22
ENDMDL
