MODEL 1
REMARK VINA RESULT:     -11.0      0.000      0.000
REMARK SMILES CCc1ccc2c(CC(=O)OCCOCCOC(=O)c3ccc(-c4c5nc(c(-c6ccc(S(=O)(=O)[O-])cc6)c6ccc([nH]6)c(-c6ccc(S(=O)(=O)[O-])cc6)c6nc(c(-c7ccc(S(=O)(=O)[O-])cc7)c7ccc4[nH]7)C=C6)C=C5)cc3)c(C(=O)c3cc(C)ccn3)[nH]c2c1
REMARK SMILES IDX 14 1 13 2 12 3 11 4 9 5 10 6 8 7 7 8 3 9 4 10 92 11 5 12
REMARK SMILES IDX 91 13 6 14 90 15 80 16 2 18 1 19 81 20 82 21 83 22 84 23
REMARK SMILES IDX 89 24 85 25 88 26 86 27 87 28 15 29 16 30 17 31 18 32 19 33
REMARK SMILES IDX 20 34 21 35 79 36 22 37 78 38 23 39 24 40 25 41 72 42 26 43
REMARK SMILES IDX 77 44 71 45 73 46 27 47 76 48 70 49 69 50 28 52 58 53 39 54
REMARK SMILES IDX 57 55 40 56 43 57 56 58 74 59 41 60 42 61 55 63 75 64 44 65
REMARK SMILES IDX 29 66 30 67 38 68 31 69 37 70 32 71 33 72 34 73 35 74 36 75
REMARK SMILES IDX 59 76 60 77 68 78 61 79 67 80 62 81 63 82 64 83 65 84 66 85
REMARK SMILES IDX 45 86 46 87 54 88 47 89 53 90 48 91 49 92 50 93 51 94 52 95
REMARK H PARENT 90 17 73 51 43 62
REMARK Flexibility Score: inf
ROOT
ATOM      1  O   UNL A   1      37.111  22.112  25.902  1.00  0.00    -0.374 OA
ENDROOT
BRANCH   1   2
ATOM      2  C   UNL A   1      36.466  23.202  25.246  1.00  0.00     0.202 C 
BRANCH   2   3
ATOM      3  C   UNL A   1      34.940  23.321  25.390  1.00  0.00     0.261 C 
BRANCH   3   4
ATOM      4  O   UNL A   1      34.503  24.486  26.124  1.00  0.00    -0.463 OA
BRANCH   4   5
ATOM      5  C   UNL A   1      33.966  25.478  25.363  1.00  0.00     0.310 C 
ATOM      6  O   UNL A   1      34.236  25.655  24.175  1.00  0.00    -0.252 OA
BRANCH   5   7
ATOM      7  C   UNL A   1      32.922  26.341  26.039  1.00  0.00     0.161 C 
BRANCH   7   8
ATOM      8  C   UNL A   1      31.486  26.251  25.595  1.00  0.00     0.000 A 
ATOM      9  C   UNL A   1      29.109  28.679  23.071  1.00  0.00    -0.046 A 
ATOM     10  C   UNL A   1      30.339  29.220  23.465  1.00  0.00     0.004 A 
ATOM     11  C   UNL A   1      28.696  27.447  23.605  1.00  0.00     0.030 A 
ATOM     12  C   UNL A   1      31.188  28.540  24.351  1.00  0.00     0.011 A 
ATOM     13  C   UNL A   1      29.569  26.772  24.473  1.00  0.00     0.046 A 
ATOM     14  C   UNL A   1      30.814  27.270  24.835  1.00  0.00     0.004 A 
ATOM     15  N   UNL A   1      29.431  25.557  25.099  1.00  0.00    -0.352 N 
ATOM     16  C   UNL A   1      30.635  25.135  25.629  1.00  0.00     0.093 A 
ATOM     17  H   UNL A   1      28.587  25.054  25.162  1.00  0.00     0.167 HD
BRANCH   9  18
ATOM     18  C   UNL A   1      28.299  29.383  22.005  1.00  0.00     0.032 C 
ATOM     19  C   UNL A   1      28.912  30.674  21.481  1.00  0.00     0.009 C 
ENDBRANCH   9  18
BRANCH  16  20
ATOM     20  C   UNL A   1      30.910  23.774  26.099  1.00  0.00     0.227 C 
ATOM     21  O   UNL A   1      30.739  23.415  27.263  1.00  0.00    -0.285 OA
BRANCH  20  22
ATOM     22  C   UNL A   1      31.388  22.739  25.129  1.00  0.00     0.113 A 
ATOM     23  C   UNL A   1      31.754  21.464  25.540  1.00  0.00     0.036 A 
ATOM     24  N   UNL A   1      31.455  23.152  23.838  1.00  0.00    -0.253 NA
ATOM     25  C   UNL A   1      32.250  20.580  24.573  1.00  0.00    -0.047 A 
ATOM     26  C   UNL A   1      31.959  22.297  22.931  1.00  0.00     0.112 A 
ATOM     27  C   UNL A   1      32.643  19.176  24.917  1.00  0.00     0.044 C 
ATOM     28  C   UNL A   1      32.367  21.016  23.249  1.00  0.00     0.023 A 
ENDBRANCH  20  22
ENDBRANCH  16  20
ENDBRANCH   7   8
ENDBRANCH   5   7
ENDBRANCH   4   5
ENDBRANCH   3   4
ENDBRANCH   2   3
ENDBRANCH   1   2
BRANCH   1  29
ATOM     29  C   UNL A   1      38.532  22.056  25.826  1.00  0.00     0.202 C 
BRANCH  29  30
ATOM     30  C   UNL A   1      39.178  20.673  25.725  1.00  0.00     0.261 C 
BRANCH  30  31
ATOM     31  O   UNL A   1      40.091  20.350  26.771  1.00  0.00    -0.460 OA
BRANCH  31  32
ATOM     32  C   UNL A   1      41.345  20.086  26.350  1.00  0.00     0.338 C 
ATOM     33  O   UNL A   1      41.767  19.082  25.795  1.00  0.00    -0.246 OA
BRANCH  32  34
ATOM     34  C   UNL A   1      42.165  21.271  26.588  1.00  0.00     0.060 A 
ATOM     35  C   UNL A   1      42.499  21.585  27.908  1.00  0.00     0.016 A 
ATOM     36  C   UNL A   1      42.515  22.106  25.525  1.00  0.00     0.016 A 
ATOM     37  C   UNL A   1      43.144  22.785  28.177  1.00  0.00     0.010 A 
ATOM     38  C   UNL A   1      43.165  23.308  25.799  1.00  0.00     0.010 A 
ATOM     39  C   UNL A   1      43.441  23.668  27.128  1.00  0.00    -0.014 A 
BRANCH  39  40
ATOM     40  C   UNL A   1      43.915  25.029  27.451  1.00  0.00     0.031 A 
ATOM     41  C   UNL A   1      45.361  25.369  27.226  1.00  0.00     0.074 A 
ATOM     42  C   UNL A   1      43.046  25.953  27.895  1.00  0.00     0.049 A 
ATOM     43  N   UNL A   1      45.977  26.509  27.392  1.00  0.00    -0.248 NA
ATOM     44  C   UNL A   1      46.227  24.277  26.748  1.00  0.00     0.031 C 
ATOM     45  C   UNL A   1      41.620  25.725  28.130  1.00  0.00     0.029 A 
ATOM     46  N   UNL A   1      43.237  27.270  28.220  1.00  0.00    -0.354 N 
ATOM     47  C   UNL A   1      47.301  26.276  27.036  1.00  0.00     0.074 A 
ATOM     48  C   UNL A   1      47.407  24.877  26.683  1.00  0.00     0.031 C 
ATOM     49  C   UNL A   1      41.063  26.868  28.562  1.00  0.00     0.029 A 
ATOM     50  C   UNL A   1      42.094  27.898  28.654  1.00  0.00     0.049 A 
ATOM     51  H   UNL A   1      44.108  27.723  28.149  1.00  0.00     0.167 HD
ATOM     52  C   UNL A   1      48.331  27.154  26.996  1.00  0.00     0.031 A 
ATOM     53  C   UNL A   1      41.909  29.159  29.086  1.00  0.00     0.031 A 
ATOM     54  C   UNL A   1      48.214  28.536  27.375  1.00  0.00     0.049 A 
ATOM     55  C   UNL A   1      43.077  30.107  29.077  1.00  0.00     0.074 A 
ATOM     56  C   UNL A   1      49.189  29.518  27.375  1.00  0.00     0.029 A 
ATOM     57  N   UNL A   1      47.045  29.131  27.833  1.00  0.00    -0.354 N 
ATOM     58  N   UNL A   1      44.316  29.882  28.706  1.00  0.00    -0.248 NA
ATOM     59  C   UNL A   1      42.821  31.481  29.529  1.00  0.00     0.031 C 
ATOM     60  C   UNL A   1      48.622  30.694  27.877  1.00  0.00     0.029 A 
ATOM     61  C   UNL A   1      47.279  30.460  28.138  1.00  0.00     0.049 A 
ATOM     62  H   UNL A   1      46.179  28.674  27.926  1.00  0.00     0.167 HD
ATOM     63  C   UNL A   1      44.985  31.090  28.863  1.00  0.00     0.074 A 
ATOM     64  C   UNL A   1      44.006  32.046  29.345  1.00  0.00     0.031 C 
ATOM     65  C   UNL A   1      46.288  31.386  28.628  1.00  0.00     0.031 A 
BRANCH  52  66
ATOM     66  C   UNL A   1      49.672  26.626  26.558  1.00  0.00    -0.014 A 
ATOM     67  C   UNL A   1      50.104  26.756  25.224  1.00  0.00     0.010 A 
ATOM     68  C   UNL A   1      50.513  25.992  27.490  1.00  0.00     0.010 A 
ATOM     69  C   UNL A   1      51.330  26.219  24.821  1.00  0.00     0.020 A 
ATOM     70  C   UNL A   1      51.752  25.477  27.096  1.00  0.00     0.020 A 
ATOM     71  C   UNL A   1      52.143  25.574  25.759  1.00  0.00     0.054 A 
BRANCH  71  72
ATOM     72  S   UNL A   1      53.727  24.881  25.211  1.00  0.00     0.124 S 
ATOM     73  O   UNL A   1      53.955  25.605  23.962  1.00  0.00    -0.237 OA
ATOM     74  O   UNL A   1      54.627  25.226  26.309  1.00  0.00    -0.237 OA
ATOM     75  O   UNL A   1      53.450  23.455  25.062  1.00  0.00    -0.744 OA
ENDBRANCH  71  72
ENDBRANCH  52  66
BRANCH  53  76
ATOM     76  C   UNL A   1      40.566  29.581  29.566  1.00  0.00    -0.014 A 
ATOM     77  C   UNL A   1      40.279  29.665  30.938  1.00  0.00     0.010 A 
ATOM     78  C   UNL A   1      39.573  29.945  28.636  1.00  0.00     0.010 A 
ATOM     79  C   UNL A   1      39.023  30.097  31.373  1.00  0.00     0.020 A 
ATOM     80  C   UNL A   1      38.325  30.402  29.067  1.00  0.00     0.020 A 
ATOM     81  C   UNL A   1      38.055  30.468  30.434  1.00  0.00     0.054 A 
BRANCH  81  82
ATOM     82  S   UNL A   1      36.456  31.095  31.020  1.00  0.00     0.124 S 
ATOM     83  O   UNL A   1      35.972  29.982  31.830  1.00  0.00    -0.237 OA
ATOM     84  O   UNL A   1      36.839  32.296  31.760  1.00  0.00    -0.237 OA
ATOM     85  O   UNL A   1      35.713  31.343  29.786  1.00  0.00    -0.744 OA
ENDBRANCH  81  82
ENDBRANCH  53  76
BRANCH  65  86
ATOM     86  C   UNL A   1      46.725  32.805  28.875  1.00  0.00    -0.014 A 
ATOM     87  C   UNL A   1      46.728  33.753  27.838  1.00  0.00     0.010 A 
ATOM     88  C   UNL A   1      47.083  33.203  30.175  1.00  0.00     0.010 A 
ATOM     89  C   UNL A   1      47.114  35.072  28.092  1.00  0.00     0.020 A 
ATOM     90  C   UNL A   1      47.445  34.526  30.437  1.00  0.00     0.020 A 
ATOM     91  C   UNL A   1      47.472  35.449  29.389  1.00  0.00     0.054 A 
BRANCH  91  92
ATOM     92  S   UNL A   1      47.930  37.176  29.703  1.00  0.00     0.124 S 
ATOM     93  O   UNL A   1      46.706  37.884  29.337  1.00  0.00    -0.237 OA
ATOM     94  O   UNL A   1      48.250  37.170  31.128  1.00  0.00    -0.237 OA
ATOM     95  O   UNL A   1      49.069  37.399  28.815  1.00  0.00    -0.744 OA
ENDBRANCH  91  92
ENDBRANCH  65  86
ENDBRANCH  39  40
ENDBRANCH  32  34
ENDBRANCH  31  32
ENDBRANCH  30  31
ENDBRANCH  29  30
ENDBRANCH   1  29
TORSDOF 21
ENDMDL
MODEL 2
REMARK VINA RESULT:     -11.0      5.252     10.793
REMARK SMILES CCc1ccc2c(CC(=O)OCCOCCOC(=O)c3ccc(-c4c5nc(c(-c6ccc(S(=O)(=O)[O-])cc6)c6ccc([nH]6)c(-c6ccc(S(=O)(=O)[O-])cc6)c6nc(c(-c7ccc(S(=O)(=O)[O-])cc7)c7ccc4[nH]7)C=C6)C=C5)cc3)c(C(=O)c3cc(C)ccn3)[nH]c2c1
REMARK SMILES IDX 14 1 13 2 12 3 11 4 9 5 10 6 8 7 7 8 3 9 4 10 92 11 5 12
REMARK SMILES IDX 91 13 6 14 90 15 80 16 2 18 1 19 81 20 82 21 83 22 84 23
REMARK SMILES IDX 89 24 85 25 88 26 86 27 87 28 15 29 16 30 17 31 18 32 19 33
REMARK SMILES IDX 20 34 21 35 79 36 22 37 78 38 23 39 24 40 25 41 72 42 26 43
REMARK SMILES IDX 77 44 71 45 73 46 27 47 76 48 70 49 69 50 28 52 58 53 39 54
REMARK SMILES IDX 57 55 40 56 43 57 56 58 74 59 41 60 42 61 55 63 75 64 44 65
REMARK SMILES IDX 29 66 30 67 38 68 31 69 37 70 32 71 33 72 34 73 35 74 36 75
REMARK SMILES IDX 59 76 60 77 68 78 61 79 67 80 62 81 63 82 64 83 65 84 66 85
REMARK SMILES IDX 45 86 46 87 54 88 47 89 53 90 48 91 49 92 50 93 51 94 52 95
REMARK H PARENT 90 17 73 51 43 62
REMARK Flexibility Score: inf
ROOT
ATOM      1  O   UNL A   1      32.161  28.333  25.767  1.00  0.00    -0.374 OA
ENDROOT
BRANCH   1   2
ATOM      2  C   UNL A   1      31.377  27.461  26.580  1.00  0.00     0.202 C 
BRANCH   2   3
ATOM      3  C   UNL A   1      31.360  25.968  26.215  1.00  0.00     0.261 C 
BRANCH   3   4
ATOM      4  O   UNL A   1      32.564  25.255  26.577  1.00  0.00    -0.463 OA
BRANCH   4   5
ATOM      5  C   UNL A   1      32.479  23.900  26.496  1.00  0.00     0.310 C 
ATOM      6  O   UNL A   1      32.023  23.186  27.390  1.00  0.00    -0.252 OA
BRANCH   5   7
ATOM      7  C   UNL A   1      32.907  23.286  25.180  1.00  0.00     0.161 C 
BRANCH   7   8
ATOM      8  C   UNL A   1      34.071  22.332  25.151  1.00  0.00     0.000 A 
ATOM      9  C   UNL A   1      38.175  22.790  26.080  1.00  0.00    -0.046 A 
ATOM     10  C   UNL A   1      37.432  23.973  25.974  1.00  0.00     0.004 A 
ATOM     11  C   UNL A   1      37.563  21.563  25.775  1.00  0.00     0.030 A 
ATOM     12  C   UNL A   1      36.078  23.957  25.609  1.00  0.00     0.011 A 
ATOM     13  C   UNL A   1      36.202  21.566  25.432  1.00  0.00     0.046 A 
ATOM     14  C   UNL A   1      35.438  22.724  25.372  1.00  0.00     0.004 A 
ATOM     15  N   UNL A   1      35.363  20.521  25.126  1.00  0.00    -0.352 N 
ATOM     16  C   UNL A   1      34.044  20.929  25.133  1.00  0.00     0.093 A 
ATOM     17  H   UNL A   1      35.663  19.605  24.928  1.00  0.00     0.167 HD
BRANCH   9  18
ATOM     18  C   UNL A   1      39.588  22.851  26.616  1.00  0.00     0.032 C 
ATOM     19  C   UNL A   1      40.480  21.688  26.210  1.00  0.00     0.009 C 
ENDBRANCH   9  18
BRANCH  16  20
ATOM     20  C   UNL A   1      32.890  20.024  25.138  1.00  0.00     0.227 C 
ATOM     21  O   UNL A   1      31.743  20.395  25.381  1.00  0.00    -0.285 OA
BRANCH  20  22
ATOM     22  C   UNL A   1      33.082  18.579  24.799  1.00  0.00     0.113 A 
ATOM     23  C   UNL A   1      32.536  17.566  25.576  1.00  0.00     0.036 A 
ATOM     24  N   UNL A   1      33.841  18.345  23.699  1.00  0.00    -0.253 NA
ATOM     25  C   UNL A   1      32.819  16.241  25.221  1.00  0.00    -0.047 A 
ATOM     26  C   UNL A   1      34.122  17.067  23.391  1.00  0.00     0.112 A 
ATOM     27  C   UNL A   1      32.252  15.082  25.982  1.00  0.00     0.044 C 
ATOM     28  C   UNL A   1      33.641  15.994  24.116  1.00  0.00     0.023 A 
ENDBRANCH  20  22
ENDBRANCH  16  20
ENDBRANCH   7   8
ENDBRANCH   5   7
ENDBRANCH   4   5
ENDBRANCH   3   4
ENDBRANCH   2   3
ENDBRANCH   1   2
BRANCH   1  29
ATOM     29  C   UNL A   1      31.747  29.694  25.685  1.00  0.00     0.202 C 
BRANCH  29  30
ATOM     30  C   UNL A   1      32.440  30.697  26.610  1.00  0.00     0.261 C 
BRANCH  30  31
ATOM     31  O   UNL A   1      33.775  30.360  26.979  1.00  0.00    -0.460 OA
BRANCH  31  32
ATOM     32  C   UNL A   1      34.454  31.361  27.577  1.00  0.00     0.338 C 
ATOM     33  O   UNL A   1      34.075  32.496  27.826  1.00  0.00    -0.246 OA
BRANCH  32  34
ATOM     34  C   UNL A   1      35.758  30.846  27.986  1.00  0.00     0.060 A 
ATOM     35  C   UNL A   1      35.880  29.474  28.220  1.00  0.00     0.016 A 
ATOM     36  C   UNL A   1      36.815  31.726  28.224  1.00  0.00     0.016 A 
ATOM     37  C   UNL A   1      37.062  28.980  28.757  1.00  0.00     0.010 A 
ATOM     38  C   UNL A   1      38.001  31.227  28.760  1.00  0.00     0.010 A 
ATOM     39  C   UNL A   1      38.109  29.861  29.067  1.00  0.00    -0.014 A 
BRANCH  39  40
ATOM     40  C   UNL A   1      39.261  29.357  29.843  1.00  0.00     0.031 A 
ATOM     41  C   UNL A   1      39.439  29.820  31.261  1.00  0.00     0.074 A 
ATOM     42  C   UNL A   1      40.100  28.464  29.294  1.00  0.00     0.049 A 
ATOM     43  N   UNL A   1      40.343  29.470  32.136  1.00  0.00    -0.248 NA
ATOM     44  C   UNL A   1      38.467  30.809  31.759  1.00  0.00     0.031 C 
ATOM     45  C   UNL A   1      40.001  27.941  27.931  1.00  0.00     0.029 A 
ATOM     46  N   UNL A   1      41.197  27.834  29.819  1.00  0.00    -0.354 N 
ATOM     47  C   UNL A   1      40.049  30.189  33.290  1.00  0.00     0.074 A 
ATOM     48  C   UNL A   1      38.908  31.025  32.990  1.00  0.00     0.031 C 
ATOM     49  C   UNL A   1      41.000  27.067  27.727  1.00  0.00     0.029 A 
ATOM     50  C   UNL A   1      41.817  26.986  28.934  1.00  0.00     0.049 A 
ATOM     51  H   UNL A   1      41.512  27.976  30.741  1.00  0.00     0.167 HD
ATOM     52  C   UNL A   1      40.670  30.146  34.492  1.00  0.00     0.031 A 
ATOM     53  C   UNL A   1      42.926  26.238  29.083  1.00  0.00     0.031 A 
ATOM     54  C   UNL A   1      41.820  29.328  34.766  1.00  0.00     0.049 A 
ATOM     55  C   UNL A   1      43.627  26.238  30.414  1.00  0.00     0.074 A 
ATOM     56  C   UNL A   1      42.531  29.204  35.947  1.00  0.00     0.029 A 
ATOM     57  N   UNL A   1      42.435  28.498  33.837  1.00  0.00    -0.354 N 
ATOM     58  N   UNL A   1      43.319  26.898  31.506  1.00  0.00    -0.248 NA
ATOM     59  C   UNL A   1      44.815  25.384  30.539  1.00  0.00     0.031 C 
ATOM     60  C   UNL A   1      43.604  28.335  35.718  1.00  0.00     0.029 A 
ATOM     61  C   UNL A   1      43.529  27.875  34.411  1.00  0.00     0.049 A 
ATOM     62  H   UNL A   1      42.137  28.372  32.908  1.00  0.00     0.167 HD
ATOM     63  C   UNL A   1      44.264  26.526  32.455  1.00  0.00     0.074 A 
ATOM     64  C   UNL A   1      45.144  25.570  31.811  1.00  0.00     0.031 C 
ATOM     65  C   UNL A   1      44.395  26.935  33.742  1.00  0.00     0.031 A 
BRANCH  52  66
ATOM     66  C   UNL A   1      40.128  31.035  35.581  1.00  0.00    -0.014 A 
ATOM     67  C   UNL A   1      40.881  32.114  36.081  1.00  0.00     0.010 A 
ATOM     68  C   UNL A   1      38.849  30.791  36.112  1.00  0.00     0.010 A 
ATOM     69  C   UNL A   1      40.385  32.902  37.124  1.00  0.00     0.020 A 
ATOM     70  C   UNL A   1      38.338  31.593  37.138  1.00  0.00     0.020 A 
ATOM     71  C   UNL A   1      39.120  32.630  37.652  1.00  0.00     0.054 A 
BRANCH  71  72
ATOM     72  S   UNL A   1      38.499  33.663  39.008  1.00  0.00     0.124 S 
ATOM     73  O   UNL A   1      39.419  33.320  40.091  1.00  0.00    -0.237 OA
ATOM     74  O   UNL A   1      38.638  35.015  38.473  1.00  0.00    -0.237 OA
ATOM     75  O   UNL A   1      37.124  33.206  39.192  1.00  0.00    -0.744 OA
ENDBRANCH  71  72
ENDBRANCH  52  66
BRANCH  53  76
ATOM     76  C   UNL A   1      43.433  25.438  27.935  1.00  0.00    -0.014 A 
ATOM     77  C   UNL A   1      44.169  26.040  26.902  1.00  0.00     0.010 A 
ATOM     78  C   UNL A   1      43.211  24.049  27.898  1.00  0.00     0.010 A 
ATOM     79  C   UNL A   1      44.668  25.269  25.848  1.00  0.00     0.020 A 
ATOM     80  C   UNL A   1      43.731  23.271  26.860  1.00  0.00     0.020 A 
ATOM     81  C   UNL A   1      44.450  23.888  25.836  1.00  0.00     0.054 A 
BRANCH  81  82
ATOM     82  S   UNL A   1      45.168  22.896  24.497  1.00  0.00     0.124 S 
ATOM     83  O   UNL A   1      45.681  21.737  25.219  1.00  0.00    -0.237 OA
ATOM     84  O   UNL A   1      44.014  22.645  23.636  1.00  0.00    -0.237 OA
ATOM     85  O   UNL A   1      46.182  23.778  23.924  1.00  0.00    -0.744 OA
ENDBRANCH  81  82
ENDBRANCH  53  76
BRANCH  65  86
ATOM     86  C   UNL A   1      45.519  26.335  34.542  1.00  0.00    -0.014 A 
ATOM     87  C   UNL A   1      46.758  26.990  34.654  1.00  0.00     0.010 A 
ATOM     88  C   UNL A   1      45.312  25.128  35.232  1.00  0.00     0.010 A 
ATOM     89  C   UNL A   1      47.783  26.429  35.420  1.00  0.00     0.020 A 
ATOM     90  C   UNL A   1      46.325  24.578  36.020  1.00  0.00     0.020 A 
ATOM     91  C   UNL A   1      47.561  25.226  36.097  1.00  0.00     0.054 A 
BRANCH  91  92
ATOM     92  S   UNL A   1      48.892  24.539  37.119  1.00  0.00     0.124 S 
ATOM     93  O   UNL A   1      50.035  25.350  36.712  1.00  0.00    -0.237 OA
ATOM     94  O   UNL A   1      48.408  24.772  38.477  1.00  0.00    -0.237 OA
ATOM     95  O   UNL A   1      48.948  23.135  36.716  1.00  0.00    -0.744 OA
ENDBRANCH  91  92
ENDBRANCH  65  86
ENDBRANCH  39  40
ENDBRANCH  32  34
ENDBRANCH  31  32
ENDBRANCH  30  31
ENDBRANCH  29  30
ENDBRANCH   1  29
TORSDOF 21
ENDMDL
MODEL 3
REMARK VINA RESULT:     -10.8      3.263      9.429
REMARK SMILES CCc1ccc2c(CC(=O)OCCOCCOC(=O)c3ccc(-c4c5nc(c(-c6ccc(S(=O)(=O)[O-])cc6)c6ccc([nH]6)c(-c6ccc(S(=O)(=O)[O-])cc6)c6nc(c(-c7ccc(S(=O)(=O)[O-])cc7)c7ccc4[nH]7)C=C6)C=C5)cc3)c(C(=O)c3cc(C)ccn3)[nH]c2c1
REMARK SMILES IDX 14 1 13 2 12 3 11 4 9 5 10 6 8 7 7 8 3 9 4 10 92 11 5 12
REMARK SMILES IDX 91 13 6 14 90 15 80 16 2 18 1 19 81 20 82 21 83 22 84 23
REMARK SMILES IDX 89 24 85 25 88 26 86 27 87 28 15 29 16 30 17 31 18 32 19 33
REMARK SMILES IDX 20 34 21 35 79 36 22 37 78 38 23 39 24 40 25 41 72 42 26 43
REMARK SMILES IDX 77 44 71 45 73 46 27 47 76 48 70 49 69 50 28 52 58 53 39 54
REMARK SMILES IDX 57 55 40 56 43 57 56 58 74 59 41 60 42 61 55 63 75 64 44 65
REMARK SMILES IDX 29 66 30 67 38 68 31 69 37 70 32 71 33 72 34 73 35 74 36 75
REMARK SMILES IDX 59 76 60 77 68 78 61 79 67 80 62 81 63 82 64 83 65 84 66 85
REMARK SMILES IDX 45 86 46 87 54 88 47 89 53 90 48 91 49 92 50 93 51 94 52 95
REMARK H PARENT 90 17 73 51 43 62
REMARK Flexibility Score: inf
ROOT
ATOM      1  O   UNL A   1      32.996  28.230  27.184  1.00  0.00    -0.374 OA
ENDROOT
BRANCH   1   2
ATOM      2  C   UNL A   1      32.425  26.954  26.900  1.00  0.00     0.202 C 
BRANCH   2   3
ATOM      3  C   UNL A   1      31.044  26.922  26.226  1.00  0.00     0.261 C 
BRANCH   3   4
ATOM      4  O   UNL A   1      30.296  25.709  26.462  1.00  0.00    -0.463 OA
BRANCH   4   5
ATOM      5  C   UNL A   1      31.004  24.557  26.313  1.00  0.00     0.310 C 
ATOM      6  O   UNL A   1      31.364  23.846  27.252  1.00  0.00    -0.252 OA
BRANCH   5   7
ATOM      7  C   UNL A   1      31.272  24.122  24.888  1.00  0.00     0.161 C 
BRANCH   7   8
ATOM      8  C   UNL A   1      32.660  24.255  24.321  1.00  0.00     0.000 A 
ATOM      9  C   UNL A   1      36.212  22.022  24.885  1.00  0.00    -0.046 A 
ATOM     10  C   UNL A   1      35.170  21.760  25.784  1.00  0.00     0.004 A 
ATOM     11  C   UNL A   1      36.065  23.055  23.944  1.00  0.00     0.030 A 
ATOM     12  C   UNL A   1      33.967  22.479  25.741  1.00  0.00     0.011 A 
ATOM     13  C   UNL A   1      34.845  23.748  23.902  1.00  0.00     0.046 A 
ATOM     14  C   UNL A   1      33.784  23.467  24.753  1.00  0.00     0.004 A 
ATOM     15  N   UNL A   1      34.430  24.762  23.072  1.00  0.00    -0.352 N 
ATOM     16  C   UNL A   1      33.067  24.959  23.177  1.00  0.00     0.093 A 
ATOM     17  H   UNL A   1      35.025  25.278  22.482  1.00  0.00     0.167 HD
BRANCH   9  18
ATOM     18  C   UNL A   1      37.428  21.123  24.880  1.00  0.00     0.032 C 
ATOM     19  C   UNL A   1      37.125  19.632  24.869  1.00  0.00     0.009 C 
ENDBRANCH   9  18
BRANCH  16  20
ATOM     20  C   UNL A   1      32.262  25.746  22.238  1.00  0.00     0.227 C 
ATOM     21  O   UNL A   1      32.056  25.404  21.075  1.00  0.00    -0.285 OA
BRANCH  20  22
ATOM     22  C   UNL A   1      31.616  27.014  22.701  1.00  0.00     0.113 A 
ATOM     23  C   UNL A   1      30.240  27.193  22.657  1.00  0.00     0.036 A 
ATOM     24  N   UNL A   1      32.475  27.968  23.139  1.00  0.00    -0.253 NA
ATOM     25  C   UNL A   1      29.726  28.435  23.051  1.00  0.00    -0.047 A 
ATOM     26  C   UNL A   1      31.964  29.162  23.487  1.00  0.00     0.112 A 
ATOM     27  C   UNL A   1      28.253  28.711  23.063  1.00  0.00     0.044 C 
ATOM     28  C   UNL A   1      30.611  29.439  23.457  1.00  0.00     0.023 A 
ENDBRANCH  20  22
ENDBRANCH  16  20
ENDBRANCH   7   8
ENDBRANCH   5   7
ENDBRANCH   4   5
ENDBRANCH   3   4
ENDBRANCH   2   3
ENDBRANCH   1   2
BRANCH   1  29
ATOM     29  C   UNL A   1      32.143  29.365  27.066  1.00  0.00     0.202 C 
BRANCH  29  30
ATOM     30  C   UNL A   1      32.796  30.746  27.142  1.00  0.00     0.261 C 
BRANCH  30  31
ATOM     31  O   UNL A   1      34.222  30.746  27.124  1.00  0.00    -0.460 OA
BRANCH  31  32
ATOM     32  C   UNL A   1      34.790  31.096  28.296  1.00  0.00     0.338 C 
ATOM     33  O   UNL A   1      34.351  31.834  29.166  1.00  0.00    -0.246 OA
BRANCH  32  34
ATOM     34  C   UNL A   1      36.047  30.363  28.430  1.00  0.00     0.060 A 
ATOM     35  C   UNL A   1      36.384  29.861  29.689  1.00  0.00     0.016 A 
ATOM     36  C   UNL A   1      36.917  30.260  27.343  1.00  0.00     0.016 A 
ATOM     37  C   UNL A   1      37.639  29.297  29.880  1.00  0.00     0.010 A 
ATOM     38  C   UNL A   1      38.174  29.690  27.538  1.00  0.00     0.010 A 
ATOM     39  C   UNL A   1      38.552  29.248  28.816  1.00  0.00    -0.014 A 
BRANCH  39  40
ATOM     40  C   UNL A   1      39.950  28.860  29.091  1.00  0.00     0.031 A 
ATOM     41  C   UNL A   1      40.857  29.843  29.774  1.00  0.00     0.074 A 
ATOM     42  C   UNL A   1      40.378  27.627  28.772  1.00  0.00     0.049 A 
ATOM     43  N   UNL A   1      42.098  29.696  30.155  1.00  0.00    -0.248 NA
ATOM     44  C   UNL A   1      40.287  31.170  30.069  1.00  0.00     0.031 C 
ATOM     45  C   UNL A   1      39.569  26.596  28.121  1.00  0.00     0.029 A 
ATOM     46  N   UNL A   1      41.598  27.033  28.959  1.00  0.00    -0.354 N 
ATOM     47  C   UNL A   1      42.458  30.906  30.739  1.00  0.00     0.074 A 
ATOM     48  C   UNL A   1      41.319  31.789  30.625  1.00  0.00     0.031 C 
ATOM     49  C   UNL A   1      40.318  25.492  27.963  1.00  0.00     0.029 A 
ATOM     50  C   UNL A   1      41.659  25.746  28.481  1.00  0.00     0.049 A 
ATOM     51  H   UNL A   1      42.358  27.484  29.393  1.00  0.00     0.167 HD
ATOM     52  C   UNL A   1      43.631  31.243  31.325  1.00  0.00     0.031 A 
ATOM     53  C   UNL A   1      42.688  24.879  28.456  1.00  0.00     0.031 A 
ATOM     54  C   UNL A   1      44.763  30.361  31.406  1.00  0.00     0.049 A 
ATOM     55  C   UNL A   1      43.997  25.290  29.074  1.00  0.00     0.074 A 
ATOM     56  C   UNL A   1      46.002  30.595  31.978  1.00  0.00     0.029 A 
ATOM     57  N   UNL A   1      44.796  29.072  30.890  1.00  0.00    -0.354 N 
ATOM     58  N   UNL A   1      44.313  26.424  29.651  1.00  0.00    -0.248 NA
ATOM     59  C   UNL A   1      45.082  24.299  29.051  1.00  0.00     0.031 C 
ATOM     60  C   UNL A   1      46.799  29.464  31.765  1.00  0.00     0.029 A 
ATOM     61  C   UNL A   1      46.039  28.506  31.110  1.00  0.00     0.049 A 
ATOM     62  H   UNL A   1      44.046  28.627  30.435  1.00  0.00     0.167 HD
ATOM     63  C   UNL A   1      45.629  26.281  30.077  1.00  0.00     0.074 A 
ATOM     64  C   UNL A   1      46.041  24.941  29.704  1.00  0.00     0.031 C 
ATOM     65  C   UNL A   1      46.426  27.173  30.718  1.00  0.00     0.031 A 
BRANCH  52  66
ATOM     66  C   UNL A   1      43.745  32.634  31.890  1.00  0.00    -0.014 A 
ATOM     67  C   UNL A   1      44.225  33.701  31.106  1.00  0.00     0.010 A 
ATOM     68  C   UNL A   1      43.367  32.882  33.222  1.00  0.00     0.010 A 
ATOM     69  C   UNL A   1      44.370  34.977  31.658  1.00  0.00     0.020 A 
ATOM     70  C   UNL A   1      43.486  34.163  33.770  1.00  0.00     0.020 A 
ATOM     71  C   UNL A   1      44.008  35.198  32.990  1.00  0.00     0.054 A 
BRANCH  71  72
ATOM     72  S   UNL A   1      44.210  36.861  33.686  1.00  0.00     0.124 S 
ATOM     73  O   UNL A   1      43.723  37.703  32.595  1.00  0.00    -0.237 OA
ATOM     74  O   UNL A   1      43.361  36.820  34.873  1.00  0.00    -0.237 OA
ATOM     75  O   UNL A   1      45.643  36.956  33.951  1.00  0.00    -0.744 OA
ENDBRANCH  71  72
ENDBRANCH  52  66
BRANCH  53  76
ATOM     76  C   UNL A   1      42.510  23.547  27.819  1.00  0.00    -0.014 A 
ATOM     77  C   UNL A   1      43.075  23.262  26.564  1.00  0.00     0.010 A 
ATOM     78  C   UNL A   1      41.802  22.535  28.496  1.00  0.00     0.010 A 
ATOM     79  C   UNL A   1      42.929  21.994  25.995  1.00  0.00     0.020 A 
ATOM     80  C   UNL A   1      41.676  21.259  27.941  1.00  0.00     0.020 A 
ATOM     81  C   UNL A   1      42.234  20.998  26.689  1.00  0.00     0.054 A 
BRANCH  81  82
ATOM     82  S   UNL A   1      42.118  19.339  25.964  1.00  0.00     0.124 S 
ATOM     83  O   UNL A   1      40.684  19.210  25.728  1.00  0.00    -0.237 OA
ATOM     84  O   UNL A   1      42.948  19.457  24.768  1.00  0.00    -0.237 OA
ATOM     85  O   UNL A   1      42.663  18.472  27.007  1.00  0.00    -0.744 OA
ENDBRANCH  81  82
ENDBRANCH  53  76
BRANCH  65  86
ATOM     86  C   UNL A   1      47.816  26.720  31.071  1.00  0.00    -0.014 A 
ATOM     87  C   UNL A   1      48.897  26.955  30.205  1.00  0.00     0.010 A 
ATOM     88  C   UNL A   1      48.049  26.100  32.312  1.00  0.00     0.010 A 
ATOM     89  C   UNL A   1      50.186  26.547  30.561  1.00  0.00     0.020 A 
ATOM     90  C   UNL A   1      49.339  25.715  32.682  1.00  0.00     0.020 A 
ATOM     91  C   UNL A   1      50.398  25.929  31.797  1.00  0.00     0.054 A 
BRANCH  91  92
ATOM     92  S   UNL A   1      52.086  25.447  32.255  1.00  0.00     0.124 S 
ATOM     93  O   UNL A   1      52.293  26.205  33.485  1.00  0.00    -0.237 OA
ATOM     94  O   UNL A   1      51.973  24.000  32.419  1.00  0.00    -0.237 OA
ATOM     95  O   UNL A   1      52.890  25.877  31.114  1.00  0.00    -0.744 OA
ENDBRANCH  91  92
ENDBRANCH  65  86
ENDBRANCH  39  40
ENDBRANCH  32  34
ENDBRANCH  31  32
ENDBRANCH  30  31
ENDBRANCH  29  30
ENDBRANCH   1  29
TORSDOF 21
ENDMDL
