MODEL 1
REMARK VINA RESULT:      -8.8      0.000      0.000
REMARK SMILES O=C(OCCOCCOC(=O)[C@@H]1CC(=O)N(CCO)C1)c1ccc(-c2c3nc(c(-c4ccc(S(=O)(=O)[O-])cc4)c4ccc([nH]4)c(-c4ccc(S(=O)(=O)[O-])cc4)c4nc(c(-c5ccc(S(=O)(=O)[O-])cc5)c5ccc2[nH]5)C=C4)C=C3)cc1
REMARK SMILES IDX 6 1 5 2 4 3 3 4 2 5 1 6 21 7 22 8 80 9 23 10 79 11 24 12
REMARK SMILES IDX 25 13 26 14 73 15 27 16 78 17 72 18 74 19 28 20 77 21 71 22
REMARK SMILES IDX 70 23 29 25 59 26 40 27 58 28 41 29 44 30 57 31 75 32 42 33
REMARK SMILES IDX 43 34 56 36 76 37 45 38 30 39 31 40 39 41 32 42 38 43 33 44
REMARK SMILES IDX 34 45 35 46 36 47 37 48 60 49 61 50 69 51 62 52 68 53 63 54
REMARK SMILES IDX 64 55 65 56 66 57 67 58 46 59 47 60 55 61 48 62 54 63 49 64
REMARK SMILES IDX 50 65 51 66 52 67 53 68 7 69 8 70 9 71 10 72 11 73 12 74
REMARK SMILES IDX 13 75 20 76 14 77 16 78 15 79 17 80 18 81 19 82
REMARK H PARENT 74 24 44 35 19 83
REMARK Flexibility Score: inf
ROOT
ATOM      1  O   UNL A   1      34.583  30.861  27.258  1.00  0.00    -0.374 OA
ENDROOT
BRANCH   1   2
ATOM      2  C   UNL A   1      34.327  31.589  28.460  1.00  0.00     0.202 C 
BRANCH   2   3
ATOM      3  C   UNL A   1      35.481  32.461  28.962  1.00  0.00     0.261 C 
BRANCH   3   4
ATOM      4  O   UNL A   1      35.965  31.971  30.220  1.00  0.00    -0.460 OA
BRANCH   4   5
ATOM      5  C   UNL A   1      36.524  30.762  30.470  1.00  0.00     0.338 C 
ATOM      6  O   UNL A   1      35.871  29.927  31.092  1.00  0.00    -0.246 OA
BRANCH   5   7
ATOM      7  C   UNL A   1      37.888  30.386  29.999  1.00  0.00     0.060 A 
ATOM      8  C   UNL A   1      38.240  30.224  28.660  1.00  0.00     0.016 A 
ATOM      9  C   UNL A   1      38.899  30.262  30.964  1.00  0.00     0.016 A 
ATOM     10  C   UNL A   1      39.514  29.886  28.276  1.00  0.00     0.010 A 
ATOM     11  C   UNL A   1      40.214  29.971  30.583  1.00  0.00     0.010 A 
ATOM     12  C   UNL A   1      40.512  29.779  29.230  1.00  0.00    -0.014 A 
BRANCH  12  13
ATOM     13  C   UNL A   1      41.819  29.352  28.723  1.00  0.00     0.031 A 
ATOM     14  C   UNL A   1      42.954  30.317  28.820  1.00  0.00     0.074 A 
ATOM     15  C   UNL A   1      41.995  28.049  28.430  1.00  0.00     0.049 A 
ATOM     16  N   UNL A   1      44.198  30.155  28.475  1.00  0.00    -0.248 NA
ATOM     17  C   UNL A   1      42.655  31.637  29.411  1.00  0.00     0.031 C 
ATOM     18  C   UNL A   1      40.950  27.017  28.504  1.00  0.00     0.029 A 
ATOM     19  N   UNL A   1      43.118  27.354  28.082  1.00  0.00    -0.354 N 
ATOM     20  C   UNL A   1      44.825  31.354  28.779  1.00  0.00     0.074 A 
ATOM     21  C   UNL A   1      43.829  32.242  29.332  1.00  0.00     0.031 C 
ATOM     22  C   UNL A   1      41.493  25.819  28.238  1.00  0.00     0.029 A 
ATOM     23  C   UNL A   1      42.894  26.011  27.891  1.00  0.00     0.049 A 
ATOM     24  H   UNL A   1      44.003  27.774  27.979  1.00  0.00     0.167 HD
ATOM     25  C   UNL A   1      46.125  31.674  28.598  1.00  0.00     0.031 A 
ATOM     26  C   UNL A   1      43.728  25.059  27.436  1.00  0.00     0.031 A 
ATOM     27  C   UNL A   1      47.076  30.757  28.033  1.00  0.00     0.049 A 
ATOM     28  C   UNL A   1      45.132  25.486  27.107  1.00  0.00     0.074 A 
ATOM     29  C   UNL A   1      48.397  30.977  27.700  1.00  0.00     0.029 A 
ATOM     30  N   UNL A   1      46.794  29.431  27.725  1.00  0.00    -0.354 N 
ATOM     31  N   UNL A   1      45.701  26.656  27.294  1.00  0.00    -0.248 NA
ATOM     32  C   UNL A   1      46.004  24.479  26.496  1.00  0.00     0.031 C 
ATOM     33  C   UNL A   1      48.898  29.799  27.137  1.00  0.00     0.029 A 
ATOM     34  C   UNL A   1      47.910  28.825  27.185  1.00  0.00     0.049 A 
ATOM     35  H   UNL A   1      45.925  28.990  27.870  1.00  0.00     0.167 HD
ATOM     36  C   UNL A   1      47.004  26.523  26.836  1.00  0.00     0.074 A 
ATOM     37  C   UNL A   1      47.145  25.146  26.399  1.00  0.00     0.031 C 
ATOM     38  C   UNL A   1      47.994  27.448  26.766  1.00  0.00     0.031 A 
BRANCH  25  39
ATOM     39  C   UNL A   1      46.544  33.076  28.934  1.00  0.00    -0.014 A 
ATOM     40  C   UNL A   1      46.444  34.119  27.997  1.00  0.00     0.010 A 
ATOM     41  C   UNL A   1      47.053  33.351  30.215  1.00  0.00     0.010 A 
ATOM     42  C   UNL A   1      46.865  35.411  28.331  1.00  0.00     0.020 A 
ATOM     43  C   UNL A   1      47.450  34.644  30.562  1.00  0.00     0.020 A 
ATOM     44  C   UNL A   1      47.361  35.665  29.614  1.00  0.00     0.054 A 
BRANCH  44  45
ATOM     45  S   UNL A   1      47.854  37.359  30.034  1.00  0.00     0.124 S 
ATOM     46  O   UNL A   1      48.829  37.659  28.989  1.00  0.00    -0.237 OA
ATOM     47  O   UNL A   1      46.591  38.089  29.942  1.00  0.00    -0.237 OA
ATOM     48  O   UNL A   1      48.403  37.237  31.382  1.00  0.00    -0.744 OA
ENDBRANCH  44  45
ENDBRANCH  25  39
BRANCH  26  49
ATOM     49  C   UNL A   1      43.238  23.678  27.158  1.00  0.00    -0.014 A 
ATOM     50  C   UNL A   1      43.260  22.677  28.144  1.00  0.00     0.010 A 
ATOM     51  C   UNL A   1      42.783  23.344  25.866  1.00  0.00     0.010 A 
ATOM     52  C   UNL A   1      42.887  21.364  27.831  1.00  0.00     0.020 A 
ATOM     53  C   UNL A   1      42.373  22.045  25.560  1.00  0.00     0.020 A 
ATOM     54  C   UNL A   1      42.453  21.055  26.539  1.00  0.00     0.054 A 
BRANCH  54  55
ATOM     55  S   UNL A   1      41.995  19.345  26.145  1.00  0.00     0.124 S 
ATOM     56  O   UNL A   1      42.320  18.651  27.388  1.00  0.00    -0.237 OA
ATOM     57  O   UNL A   1      40.572  19.461  25.838  1.00  0.00    -0.237 OA
ATOM     58  O   UNL A   1      42.847  19.015  25.004  1.00  0.00    -0.744 OA
ENDBRANCH  54  55
ENDBRANCH  26  49
BRANCH  38  59
ATOM     59  C   UNL A   1      49.315  26.973  26.231  1.00  0.00    -0.014 A 
ATOM     60  C   UNL A   1      50.173  26.180  27.011  1.00  0.00     0.010 A 
ATOM     61  C   UNL A   1      49.680  27.301  24.913  1.00  0.00     0.010 A 
ATOM     62  C   UNL A   1      51.400  25.761  26.496  1.00  0.00     0.020 A 
ATOM     63  C   UNL A   1      50.887  26.852  24.382  1.00  0.00     0.020 A 
ATOM     64  C   UNL A   1      51.748  26.101  25.186  1.00  0.00     0.054 A 
BRANCH  64  65
ATOM     65  S   UNL A   1      53.334  25.521  24.531  1.00  0.00     0.124 S 
ATOM     66  O   UNL A   1      54.276  26.442  25.160  1.00  0.00    -0.237 OA
ATOM     67  O   UNL A   1      53.390  24.140  25.007  1.00  0.00    -0.237 OA
ATOM     68  O   UNL A   1      53.187  25.669  23.085  1.00  0.00    -0.744 OA
ENDBRANCH  64  65
ENDBRANCH  38  59
ENDBRANCH  12  13
ENDBRANCH   5   7
ENDBRANCH   4   5
ENDBRANCH   3   4
ENDBRANCH   2   3
ENDBRANCH   1   2
BRANCH   1  69
ATOM     69  C   UNL A   1      33.771  29.706  27.015  1.00  0.00     0.202 C 
BRANCH  69  70
ATOM     70  C   UNL A   1      32.635  30.070  26.059  1.00  0.00     0.261 C 
BRANCH  70  71
ATOM     71  O   UNL A   1      31.791  28.918  25.946  1.00  0.00    -0.463 OA
BRANCH  71  72
ATOM     72  C   UNL A   1      31.544  28.528  24.660  1.00  0.00     0.311 C 
ATOM     73  O   UNL A   1      32.142  28.929  23.673  1.00  0.00    -0.252 OA
BRANCH  72  74
ATOM     74  C   UNL A   1      30.531  27.400  24.649  1.00  0.00     0.128 C 
ATOM     75  C   UNL A   1      30.830  26.369  25.734  1.00  0.00     0.117 C 
ATOM     76  C   UNL A   1      30.624  26.604  23.372  1.00  0.00     0.135 C 
ATOM     77  C   UNL A   1      31.834  25.486  25.037  1.00  0.00     0.223 C 
ATOM     78  N   UNL A   1      31.698  25.699  23.672  1.00  0.00    -0.339 N 
ATOM     79  O   UNL A   1      32.599  24.704  25.578  1.00  0.00    -0.275 OA
BRANCH  78  80
ATOM     80  C   UNL A   1      32.616  25.209  22.660  1.00  0.00     0.147 C 
BRANCH  80  81
ATOM     81  C   UNL A   1      33.230  26.330  21.831  1.00  0.00     0.177 C 
BRANCH  81  82
ATOM     82  O   UNL A   1      33.137  26.053  20.433  1.00  0.00    -0.395 OA
ATOM     83  H   UNL A   1      33.949  25.613  20.136  1.00  0.00     0.210 HD
ENDBRANCH  81  82
ENDBRANCH  80  81
ENDBRANCH  78  80
ENDBRANCH  72  74
ENDBRANCH  71  72
ENDBRANCH  70  71
ENDBRANCH  69  70
ENDBRANCH   1  69
TORSDOF 20
ENDMDL
MODEL 2
REMARK VINA RESULT:      -8.8      6.306     13.381
REMARK SMILES O=C(OCCOCCOC(=O)[C@@H]1CC(=O)N(CCO)C1)c1ccc(-c2c3nc(c(-c4ccc(S(=O)(=O)[O-])cc4)c4ccc([nH]4)c(-c4ccc(S(=O)(=O)[O-])cc4)c4nc(c(-c5ccc(S(=O)(=O)[O-])cc5)c5ccc2[nH]5)C=C4)C=C3)cc1
REMARK SMILES IDX 6 1 5 2 4 3 3 4 2 5 1 6 21 7 22 8 80 9 23 10 79 11 24 12
REMARK SMILES IDX 25 13 26 14 73 15 27 16 78 17 72 18 74 19 28 20 77 21 71 22
REMARK SMILES IDX 70 23 29 25 59 26 40 27 58 28 41 29 44 30 57 31 75 32 42 33
REMARK SMILES IDX 43 34 56 36 76 37 45 38 30 39 31 40 39 41 32 42 38 43 33 44
REMARK SMILES IDX 34 45 35 46 36 47 37 48 60 49 61 50 69 51 62 52 68 53 63 54
REMARK SMILES IDX 64 55 65 56 66 57 67 58 46 59 47 60 55 61 48 62 54 63 49 64
REMARK SMILES IDX 50 65 51 66 52 67 53 68 7 69 8 70 9 71 10 72 11 73 12 74
REMARK SMILES IDX 13 75 20 76 14 77 16 78 15 79 17 80 18 81 19 82
REMARK H PARENT 74 24 44 35 19 83
REMARK Flexibility Score: inf
ROOT
ATOM      1  O   UNL A   1      42.135  21.243  27.349  1.00  0.00    -0.374 OA
ENDROOT
BRANCH   1   2
ATOM      2  C   UNL A   1      40.749  21.586  27.364  1.00  0.00     0.202 C 
BRANCH   2   3
ATOM      3  C   UNL A   1      40.372  22.849  26.586  1.00  0.00     0.261 C 
BRANCH   3   4
ATOM      4  O   UNL A   1      41.450  23.795  26.618  1.00  0.00    -0.460 OA
BRANCH   4   5
ATOM      5  C   UNL A   1      41.370  25.137  26.444  1.00  0.00     0.338 C 
ATOM      6  O   UNL A   1      41.482  25.592  25.307  1.00  0.00    -0.246 OA
BRANCH   5   7
ATOM      7  C   UNL A   1      41.124  26.088  27.566  1.00  0.00     0.060 A 
ATOM      8  C   UNL A   1      41.850  27.259  27.778  1.00  0.00     0.016 A 
ATOM      9  C   UNL A   1      40.042  25.822  28.419  1.00  0.00     0.016 A 
ATOM     10  C   UNL A   1      41.578  28.107  28.823  1.00  0.00     0.010 A 
ATOM     11  C   UNL A   1      39.719  26.705  29.455  1.00  0.00     0.010 A 
ATOM     12  C   UNL A   1      40.500  27.849  29.653  1.00  0.00    -0.014 A 
BRANCH  12  13
ATOM     13  C   UNL A   1      40.336  28.779  30.773  1.00  0.00     0.031 A 
ATOM     14  C   UNL A   1      41.347  28.733  31.871  1.00  0.00     0.074 A 
ATOM     15  C   UNL A   1      39.448  29.783  30.644  1.00  0.00     0.049 A 
ATOM     16  N   UNL A   1      41.431  29.475  32.937  1.00  0.00    -0.248 NA
ATOM     17  C   UNL A   1      42.425  27.734  31.740  1.00  0.00     0.031 C 
ATOM     18  C   UNL A   1      38.559  29.983  29.489  1.00  0.00     0.029 A 
ATOM     19  N   UNL A   1      39.189  30.858  31.446  1.00  0.00    -0.354 N 
ATOM     20  C   UNL A   1      42.551  29.018  33.617  1.00  0.00     0.074 A 
ATOM     21  C   UNL A   1      43.116  27.932  32.851  1.00  0.00     0.031 C 
ATOM     22  C   UNL A   1      37.878  31.128  29.649  1.00  0.00     0.029 A 
ATOM     23  C   UNL A   1      38.214  31.691  30.949  1.00  0.00     0.049 A 
ATOM     24  H   UNL A   1      39.656  31.021  32.297  1.00  0.00     0.167 HD
ATOM     25  C   UNL A   1      43.049  29.475  34.787  1.00  0.00     0.031 A 
ATOM     26  C   UNL A   1      37.630  32.761  31.516  1.00  0.00     0.031 A 
ATOM     27  C   UNL A   1      42.443  30.554  35.516  1.00  0.00     0.049 A 
ATOM     28  C   UNL A   1      38.113  33.154  32.885  1.00  0.00     0.074 A 
ATOM     29  C   UNL A   1      42.778  31.054  36.759  1.00  0.00     0.029 A 
ATOM     30  N   UNL A   1      41.369  31.305  35.051  1.00  0.00    -0.354 N 
ATOM     31  N   UNL A   1      39.109  32.650  33.581  1.00  0.00    -0.248 NA
ATOM     32  C   UNL A   1      37.395  34.241  33.554  1.00  0.00     0.031 C 
ATOM     33  C   UNL A   1      41.870  32.071  37.069  1.00  0.00     0.029 A 
ATOM     34  C   UNL A   1      41.014  32.253  35.991  1.00  0.00     0.049 A 
ATOM     35  H   UNL A   1      40.928  31.180  34.180  1.00  0.00     0.167 HD
ATOM     36  C   UNL A   1      39.145  33.370  34.767  1.00  0.00     0.074 A 
ATOM     37  C   UNL A   1      38.095  34.368  34.673  1.00  0.00     0.031 C 
ATOM     38  C   UNL A   1      39.957  33.222  35.843  1.00  0.00     0.031 A 
BRANCH  25  39
ATOM     39  C   UNL A   1      44.233  28.754  35.361  1.00  0.00    -0.014 A 
ATOM     40  C   UNL A   1      45.550  29.144  35.061  1.00  0.00     0.010 A 
ATOM     41  C   UNL A   1      44.020  27.660  36.218  1.00  0.00     0.010 A 
ATOM     42  C   UNL A   1      46.634  28.438  35.593  1.00  0.00     0.020 A 
ATOM     43  C   UNL A   1      45.099  26.967  36.772  1.00  0.00     0.020 A 
ATOM     44  C   UNL A   1      46.401  27.357  36.449  1.00  0.00     0.054 A 
BRANCH  44  45
ATOM     45  S   UNL A   1      47.825  26.490  37.162  1.00  0.00     0.124 S 
ATOM     46  O   UNL A   1      48.040  27.230  38.403  1.00  0.00    -0.237 OA
ATOM     47  O   UNL A   1      47.321  25.128  37.321  1.00  0.00    -0.237 OA
ATOM     48  O   UNL A   1      48.870  26.650  36.153  1.00  0.00    -0.744 OA
ENDBRANCH  44  45
ENDBRANCH  25  39
BRANCH  26  49
ATOM     49  C   UNL A   1      36.477  33.443  30.862  1.00  0.00    -0.014 A 
ATOM     50  C   UNL A   1      36.548  33.903  29.536  1.00  0.00     0.010 A 
ATOM     51  C   UNL A   1      35.297  33.680  31.596  1.00  0.00     0.010 A 
ATOM     52  C   UNL A   1      35.488  34.627  28.976  1.00  0.00     0.020 A 
ATOM     53  C   UNL A   1      34.221  34.367  31.029  1.00  0.00     0.020 A 
ATOM     54  C   UNL A   1      34.334  34.860  29.730  1.00  0.00     0.054 A 
BRANCH  54  55
ATOM     55  S   UNL A   1      32.979  35.819  28.999  1.00  0.00     0.124 S 
ATOM     56  O   UNL A   1      32.355  34.837  28.117  1.00  0.00    -0.237 OA
ATOM     57  O   UNL A   1      32.197  36.207  30.170  1.00  0.00    -0.237 OA
ATOM     58  O   UNL A   1      33.663  36.920  28.323  1.00  0.00    -0.744 OA
ENDBRANCH  54  55
ENDBRANCH  26  49
BRANCH  38  59
ATOM     59  C   UNL A   1      39.751  34.188  36.975  1.00  0.00    -0.014 A 
ATOM     60  C   UNL A   1      38.969  33.845  38.090  1.00  0.00     0.010 A 
ATOM     61  C   UNL A   1      40.381  35.444  36.929  1.00  0.00     0.010 A 
ATOM     62  C   UNL A   1      38.782  34.764  39.123  1.00  0.00     0.020 A 
ATOM     63  C   UNL A   1      40.229  36.349  37.977  1.00  0.00     0.020 A 
ATOM     64  C   UNL A   1      39.413  36.010  39.058  1.00  0.00     0.054 A 
BRANCH  64  65
ATOM     65  S   UNL A   1      39.178  37.173  40.426  1.00  0.00     0.124 S 
ATOM     66  O   UNL A   1      40.549  37.590  40.707  1.00  0.00    -0.237 OA
ATOM     67  O   UNL A   1      38.318  38.195  39.832  1.00  0.00    -0.237 OA
ATOM     68  O   UNL A   1      38.547  36.364  41.465  1.00  0.00    -0.744 OA
ENDBRANCH  64  65
ENDBRANCH  38  59
ENDBRANCH  12  13
ENDBRANCH   5   7
ENDBRANCH   4   5
ENDBRANCH   3   4
ENDBRANCH   2   3
ENDBRANCH   1   2
BRANCH   1  69
ATOM     69  C   UNL A   1      42.540  20.222  26.429  1.00  0.00     0.202 C 
BRANCH  69  70
ATOM     70  C   UNL A   1      43.643  20.760  25.519  1.00  0.00     0.261 C 
BRANCH  70  71
ATOM     71  O   UNL A   1      44.112  21.984  26.099  1.00  0.00    -0.463 OA
BRANCH  71  72
ATOM     72  C   UNL A   1      44.617  22.876  25.195  1.00  0.00     0.311 C 
ATOM     73  O   UNL A   1      44.008  23.334  24.239  1.00  0.00    -0.252 OA
BRANCH  72  74
ATOM     74  C   UNL A   1      45.988  23.344  25.643  1.00  0.00     0.128 C 
ATOM     75  C   UNL A   1      45.994  23.722  27.121  1.00  0.00     0.117 C 
ATOM     76  C   UNL A   1      46.374  24.626  24.950  1.00  0.00     0.135 C 
ATOM     77  C   UNL A   1      45.515  25.151  27.065  1.00  0.00     0.223 C 
ATOM     78  N   UNL A   1      45.719  25.606  25.770  1.00  0.00    -0.339 N 
ATOM     79  O   UNL A   1      45.065  25.793  28.000  1.00  0.00    -0.275 OA
BRANCH  78  80
ATOM     80  C   UNL A   1      45.201  26.854  25.238  1.00  0.00     0.147 C 
BRANCH  80  81
ATOM     81  C   UNL A   1      46.296  27.756  24.685  1.00  0.00     0.177 C 
BRANCH  81  82
ATOM     82  O   UNL A   1      47.188  28.182  25.715  1.00  0.00    -0.395 OA
ATOM     83  H   UNL A   1      48.096  27.934  25.479  1.00  0.00     0.210 HD
ENDBRANCH  81  82
ENDBRANCH  80  81
ENDBRANCH  78  80
ENDBRANCH  72  74
ENDBRANCH  71  72
ENDBRANCH  70  71
ENDBRANCH  69  70
ENDBRANCH   1  69
TORSDOF 20
ENDMDL
MODEL 3
REMARK VINA RESULT:      -8.8      5.387     10.071
REMARK SMILES O=C(OCCOCCOC(=O)[C@@H]1CC(=O)N(CCO)C1)c1ccc(-c2c3nc(c(-c4ccc(S(=O)(=O)[O-])cc4)c4ccc([nH]4)c(-c4ccc(S(=O)(=O)[O-])cc4)c4nc(c(-c5ccc(S(=O)(=O)[O-])cc5)c5ccc2[nH]5)C=C4)C=C3)cc1
REMARK SMILES IDX 6 1 5 2 4 3 3 4 2 5 1 6 21 7 22 8 80 9 23 10 79 11 24 12
REMARK SMILES IDX 25 13 26 14 73 15 27 16 78 17 72 18 74 19 28 20 77 21 71 22
REMARK SMILES IDX 70 23 29 25 59 26 40 27 58 28 41 29 44 30 57 31 75 32 42 33
REMARK SMILES IDX 43 34 56 36 76 37 45 38 30 39 31 40 39 41 32 42 38 43 33 44
REMARK SMILES IDX 34 45 35 46 36 47 37 48 60 49 61 50 69 51 62 52 68 53 63 54
REMARK SMILES IDX 64 55 65 56 66 57 67 58 46 59 47 60 55 61 48 62 54 63 49 64
REMARK SMILES IDX 50 65 51 66 52 67 53 68 7 69 8 70 9 71 10 72 11 73 12 74
REMARK SMILES IDX 13 75 20 76 14 77 16 78 15 79 17 80 18 81 19 82
REMARK H PARENT 74 24 44 35 19 83
REMARK Flexibility Score: inf
ROOT
ATOM      1  O   UNL A   1      31.992  29.320  24.396  1.00  0.00    -0.374 OA
ENDROOT
BRANCH   1   2
ATOM      2  C   UNL A   1      31.850  30.027  25.629  1.00  0.00     0.202 C 
BRANCH   2   3
ATOM      3  C   UNL A   1      32.805  29.604  26.747  1.00  0.00     0.261 C 
BRANCH   3   4
ATOM      4  O   UNL A   1      34.009  30.382  26.696  1.00  0.00    -0.460 OA
BRANCH   4   5
ATOM      5  C   UNL A   1      34.550  31.125  27.692  1.00  0.00     0.338 C 
ATOM      6  O   UNL A   1      34.000  32.176  28.010  1.00  0.00    -0.246 OA
BRANCH   5   7
ATOM      7  C   UNL A   1      35.770  30.709  28.442  1.00  0.00     0.060 A 
ATOM      8  C   UNL A   1      35.811  29.658  29.357  1.00  0.00     0.016 A 
ATOM      9  C   UNL A   1      36.972  31.372  28.150  1.00  0.00     0.016 A 
ATOM     10  C   UNL A   1      36.964  29.308  30.016  1.00  0.00     0.010 A 
ATOM     11  C   UNL A   1      38.165  30.990  28.773  1.00  0.00     0.010 A 
ATOM     12  C   UNL A   1      38.150  29.955  29.713  1.00  0.00    -0.014 A 
BRANCH  12  13
ATOM     13  C   UNL A   1      39.306  29.550  30.517  1.00  0.00     0.031 A 
ATOM     14  C   UNL A   1      40.211  28.503  29.959  1.00  0.00     0.074 A 
ATOM     15  C   UNL A   1      39.636  30.302  31.585  1.00  0.00     0.049 A 
ATOM     16  N   UNL A   1      41.305  28.012  30.464  1.00  0.00    -0.248 NA
ATOM     17  C   UNL A   1      39.851  27.949  28.638  1.00  0.00     0.031 C 
ATOM     18  C   UNL A   1      38.877  31.467  32.065  1.00  0.00     0.029 A 
ATOM     19  N   UNL A   1      40.718  30.250  32.417  1.00  0.00    -0.354 N 
ATOM     20  C   UNL A   1      41.751  27.076  29.543  1.00  0.00     0.074 A 
ATOM     21  C   UNL A   1      40.811  27.058  28.447  1.00  0.00     0.031 C 
ATOM     22  C   UNL A   1      39.538  32.033  33.087  1.00  0.00     0.029 A 
ATOM     23  C   UNL A   1      40.710  31.224  33.388  1.00  0.00     0.049 A 
ATOM     24  H   UNL A   1      41.435  29.581  32.329  1.00  0.00     0.167 HD
ATOM     25  C   UNL A   1      42.853  26.299  29.624  1.00  0.00     0.031 A 
ATOM     26  C   UNL A   1      41.540  31.400  34.431  1.00  0.00     0.031 A 
ATOM     27  C   UNL A   1      43.754  26.347  30.742  1.00  0.00     0.049 A 
ATOM     28  C   UNL A   1      42.675  30.423  34.570  1.00  0.00     0.074 A 
ATOM     29  C   UNL A   1      44.850  25.551  31.006  1.00  0.00     0.029 A 
ATOM     30  N   UNL A   1      43.653  27.261  31.786  1.00  0.00    -0.354 N 
ATOM     31  N   UNL A   1      43.037  29.463  33.749  1.00  0.00    -0.248 NA
ATOM     32  C   UNL A   1      43.505  30.539  35.772  1.00  0.00     0.031 C 
ATOM     33  C   UNL A   1      45.379  25.947  32.238  1.00  0.00     0.029 A 
ATOM     34  C   UNL A   1      44.656  27.035  32.708  1.00  0.00     0.049 A 
ATOM     35  H   UNL A   1      42.968  27.964  31.857  1.00  0.00     0.167 HD
ATOM     36  C   UNL A   1      44.148  28.866  34.330  1.00  0.00     0.074 A 
ATOM     37  C   UNL A   1      44.416  29.602  35.552  1.00  0.00     0.031 C 
ATOM     38  C   UNL A   1      44.876  27.802  33.909  1.00  0.00     0.031 A 
BRANCH  25  39
ATOM     39  C   UNL A   1      43.075  25.299  28.527  1.00  0.00    -0.014 A 
ATOM     40  C   UNL A   1      43.875  25.597  27.409  1.00  0.00     0.010 A 
ATOM     41  C   UNL A   1      42.465  24.035  28.617  1.00  0.00     0.010 A 
ATOM     42  C   UNL A   1      44.044  24.653  26.391  1.00  0.00     0.020 A 
ATOM     43  C   UNL A   1      42.652  23.080  27.615  1.00  0.00     0.020 A 
ATOM     44  C   UNL A   1      43.434  23.399  26.503  1.00  0.00     0.054 A 
BRANCH  44  45
ATOM     45  S   UNL A   1      43.710  22.178  25.191  1.00  0.00     0.124 S 
ATOM     46  O   UNL A   1      43.454  22.965  23.987  1.00  0.00    -0.237 OA
ATOM     47  O   UNL A   1      45.103  21.792  25.405  1.00  0.00    -0.237 OA
ATOM     48  O   UNL A   1      42.727  21.135  25.474  1.00  0.00    -0.744 OA
ENDBRANCH  44  45
ENDBRANCH  25  39
BRANCH  26  49
ATOM     49  C   UNL A   1      41.265  32.442  35.463  1.00  0.00    -0.014 A 
ATOM     50  C   UNL A   1      40.405  32.197  36.547  1.00  0.00     0.010 A 
ATOM     51  C   UNL A   1      41.841  33.722  35.333  1.00  0.00     0.010 A 
ATOM     52  C   UNL A   1      40.088  33.221  37.447  1.00  0.00     0.020 A 
ATOM     53  C   UNL A   1      41.557  34.736  36.251  1.00  0.00     0.020 A 
ATOM     54  C   UNL A   1      40.660  34.487  37.288  1.00  0.00     0.054 A 
BRANCH  54  55
ATOM     55  S   UNL A   1      40.220  35.808  38.450  1.00  0.00     0.124 S 
ATOM     56  O   UNL A   1      41.513  36.133  39.043  1.00  0.00    -0.237 OA
ATOM     57  O   UNL A   1      39.652  36.826  37.570  1.00  0.00    -0.237 OA
ATOM     58  O   UNL A   1      39.262  35.169  39.350  1.00  0.00    -0.744 OA
ENDBRANCH  54  55
ENDBRANCH  26  49
BRANCH  38  59
ATOM     59  C   UNL A   1      46.046  27.411  34.767  1.00  0.00    -0.014 A 
ATOM     60  C   UNL A   1      47.314  27.985  34.571  1.00  0.00     0.010 A 
ATOM     61  C   UNL A   1      45.858  26.481  35.804  1.00  0.00     0.010 A 
ATOM     62  C   UNL A   1      48.388  27.598  35.372  1.00  0.00     0.020 A 
ATOM     63  C   UNL A   1      46.919  26.122  36.631  1.00  0.00     0.020 A 
ATOM     64  C   UNL A   1      48.183  26.668  36.396  1.00  0.00     0.054 A 
BRANCH  64  65
ATOM     65  S   UNL A   1      49.588  26.204  37.441  1.00  0.00     0.124 S 
ATOM     66  O   UNL A   1      50.372  27.435  37.457  1.00  0.00    -0.237 OA
ATOM     67  O   UNL A   1      48.943  25.851  38.703  1.00  0.00    -0.237 OA
ATOM     68  O   UNL A   1      50.197  25.086  36.725  1.00  0.00    -0.744 OA
ENDBRANCH  64  65
ENDBRANCH  38  59
ENDBRANCH  12  13
ENDBRANCH   5   7
ENDBRANCH   4   5
ENDBRANCH   3   4
ENDBRANCH   2   3
ENDBRANCH   1   2
BRANCH   1  69
ATOM     69  C   UNL A   1      32.699  28.075  24.440  1.00  0.00     0.202 C 
BRANCH  69  70
ATOM     70  C   UNL A   1      32.112  27.115  23.406  1.00  0.00     0.261 C 
BRANCH  70  71
ATOM     71  O   UNL A   1      32.356  25.784  23.877  1.00  0.00    -0.463 OA
BRANCH  71  72
ATOM     72  C   UNL A   1      33.475  25.201  23.354  1.00  0.00     0.311 C 
ATOM     73  O   UNL A   1      33.701  25.046  22.163  1.00  0.00    -0.252 OA
BRANCH  72  74
ATOM     74  C   UNL A   1      34.476  24.924  24.459  1.00  0.00     0.128 C 
ATOM     75  C   UNL A   1      35.273  23.651  24.186  1.00  0.00     0.117 C 
ATOM     76  C   UNL A   1      33.775  24.627  25.760  1.00  0.00     0.135 C 
ATOM     77  C   UNL A   1      34.351  22.597  24.745  1.00  0.00     0.223 C 
ATOM     78  N   UNL A   1      33.476  23.230  25.616  1.00  0.00    -0.339 N 
ATOM     79  O   UNL A   1      34.395  21.402  24.498  1.00  0.00    -0.275 OA
BRANCH  78  80
ATOM     80  C   UNL A   1      32.297  22.617  26.200  1.00  0.00     0.147 C 
BRANCH  80  81
ATOM     81  C   UNL A   1      31.092  23.548  26.206  1.00  0.00     0.177 C 
BRANCH  81  82
ATOM     82  O   UNL A   1      30.311  23.380  27.389  1.00  0.00    -0.395 OA
ATOM     83  H   UNL A   1      29.649  24.088  27.443  1.00  0.00     0.210 HD
ENDBRANCH  81  82
ENDBRANCH  80  81
ENDBRANCH  78  80
ENDBRANCH  72  74
ENDBRANCH  71  72
ENDBRANCH  70  71
ENDBRANCH  69  70
ENDBRANCH   1  69
TORSDOF 20
ENDMDL
