MODEL 1
REMARK VINA RESULT:     -11.9      0.000      0.000
REMARK SMILES C[C@H]1c2ccc(O)cc2OC(=O)[C@@H]1CC(=O)N[C@@H](CC1=c2ccccc2=NC1)C(=O)OCCOCCOC(=O)c1ccc(-c2c3nc(c(-c4ccc(S(=O)(=O)[O-])cc4)c4ccc([nH]4)c(-c4ccc(S(=O)(=O)[O-])cc4)c4nc(c(-c5ccc(S(=O)(=O)[O-])cc5)c5ccc2[nH]5)C=C4)C=C3)cc1
REMARK SMILES IDX 33 1 32 2 31 3 29 4 30 5 18 6 17 7 15 8 16 9 14 11 13 12
REMARK SMILES IDX 1 13 2 14 3 15 4 16 9 17 11 18 5 19 8 20 10 21 12 22 6 23
REMARK SMILES IDX 7 24 19 26 20 27 21 28 28 29 22 30 26 31 27 32 23 33 25 34
REMARK SMILES IDX 24 35 34 36 35 37 36 38 37 39 38 40 39 41 40 42 41 43 99 44
REMARK SMILES IDX 42 45 98 46 43 47 44 48 45 49 92 50 46 51 97 52 91 53 93 54
REMARK SMILES IDX 47 55 96 56 90 57 89 58 48 60 78 61 59 62 77 63 60 64 63 65
REMARK SMILES IDX 76 66 94 67 61 68 62 69 75 71 95 72 64 73 49 74 50 75 58 76
REMARK SMILES IDX 51 77 57 78 52 79 53 80 54 81 55 82 56 83 79 84 80 85 88 86
REMARK SMILES IDX 81 87 87 88 82 89 83 90 84 91 85 92 86 93 65 94 66 95 74 96
REMARK SMILES IDX 67 97 73 98 68 99 69 100 70 101 71 102 72 103
REMARK H PARENT 17 10 7 25 93 59 63 70
REMARK Flexibility Score: inf
ROOT
ATOM      1  C   UNL A   1      39.548  21.119  25.981  1.00  0.00     0.202 C 
ENDROOT
BRANCH   1   2
ATOM      2  C   UNL A   1      38.520  22.246  26.050  1.00  0.00     0.261 C 
BRANCH   2   3
ATOM      3  O   UNL A   1      37.257  21.825  25.521  1.00  0.00    -0.462 OA
BRANCH   3   4
ATOM      4  C   UNL A   1      36.351  22.812  25.325  1.00  0.00     0.329 C 
ATOM      5  O   UNL A   1      36.547  23.998  25.566  1.00  0.00    -0.250 OA
BRANCH   4   6
ATOM      6  C   UNL A   1      34.996  22.285  24.843  1.00  0.00     0.196 C 
BRANCH   6   7
ATOM      7  N   UNL A   1      34.588  22.488  23.445  1.00  0.00    -0.342 N 
ATOM      8  C   UNL A   1      33.697  23.368  22.902  1.00  0.00     0.221 C 
ATOM      9  O   UNL A   1      33.219  23.115  21.794  1.00  0.00    -0.275 OA
ATOM     10  H   UNL A   1      35.028  21.894  22.797  1.00  0.00     0.164 HD
BRANCH   8  11
ATOM     11  C   UNL A   1      33.432  24.725  23.549  1.00  0.00     0.116 C 
BRANCH  11  12
ATOM     12  C   UNL A   1      33.345  25.995  22.670  1.00  0.00     0.116 C 
ATOM     13  C   UNL A   1      33.959  28.477  22.431  1.00  0.00     0.014 C 
ATOM     14  C   UNL A   1      33.963  27.248  23.349  1.00  0.00     0.034 C 
ATOM     15  C   UNL A   1      33.183  27.544  24.608  1.00  0.00    -0.001 A 
ATOM     16  C   UNL A   1      33.770  28.104  25.746  1.00  0.00     0.011 A 
ATOM     17  C   UNL A   1      31.831  27.189  24.657  1.00  0.00     0.138 A 
ATOM     18  C   UNL A   1      31.917  26.378  22.379  1.00  0.00     0.315 C 
ATOM     19  C   UNL A   1      33.028  28.225  26.926  1.00  0.00     0.047 A 
ATOM     20  C   UNL A   1      31.094  27.260  25.833  1.00  0.00     0.093 A 
ATOM     21  O   UNL A   1      31.172  26.759  23.492  1.00  0.00    -0.426 OA
ATOM     22  O   UNL A   1      31.417  26.282  21.263  1.00  0.00    -0.251 OA
ATOM     23  C   UNL A   1      31.709  27.772  26.967  1.00  0.00     0.119 A 
BRANCH  23  24
ATOM     24  O   UNL A   1      30.976  27.827  28.116  1.00  0.00    -0.508 OA
ATOM     25  H   UNL A   1      30.551  28.625  28.362  1.00  0.00     0.293 HD
ENDBRANCH  23  24
ENDBRANCH  11  12
ENDBRANCH   8  11
ENDBRANCH   6   7
BRANCH   6  26
ATOM     26  C   UNL A   1      34.754  20.812  25.310  1.00  0.00     0.070 C 
BRANCH  26  27
ATOM     27  C   UNL A   1      33.959  19.857  24.405  1.00  0.00    -0.037 C 
ATOM     28  C   UNL A   1      34.190  18.531  24.461  1.00  0.00     0.001 A 
ATOM     29  C   UNL A   1      32.471  20.044  24.379  1.00  0.00     0.174 C 
ATOM     30  C   UNL A   1      34.250  17.591  23.347  1.00  0.00     0.010 A 
ATOM     31  C   UNL A   1      32.982  18.178  25.280  1.00  0.00     0.065 A 
ATOM     32  N   UNL A   1      32.009  19.035  25.357  1.00  0.00    -0.280 NA
ATOM     33  C   UNL A   1      33.872  16.317  23.579  1.00  0.00     0.001 A 
ATOM     34  C   UNL A   1      33.027  16.808  25.817  1.00  0.00     0.028 A 
ATOM     35  C   UNL A   1      33.468  15.905  24.923  1.00  0.00     0.002 A 
ENDBRANCH  26  27
ENDBRANCH   6  26
ENDBRANCH   4   6
ENDBRANCH   3   4
ENDBRANCH   2   3
ENDBRANCH   1   2
BRANCH   1  36
ATOM     36  O   UNL A   1      40.731  21.297  26.759  1.00  0.00    -0.374 OA
BRANCH  36  37
ATOM     37  C   UNL A   1      41.947  21.580  26.065  1.00  0.00     0.202 C 
BRANCH  37  38
ATOM     38  C   UNL A   1      42.422  23.042  26.010  1.00  0.00     0.261 C 
BRANCH  38  39
ATOM     39  O   UNL A   1      41.412  24.015  26.338  1.00  0.00    -0.460 OA
BRANCH  39  40
ATOM     40  C   UNL A   1      41.770  25.310  26.125  1.00  0.00     0.338 C 
ATOM     41  O   UNL A   1      41.995  25.841  25.051  1.00  0.00    -0.246 OA
BRANCH  40  42
ATOM     42  C   UNL A   1      41.730  26.078  27.383  1.00  0.00     0.060 A 
ATOM     43  C   UNL A   1      42.596  27.152  27.586  1.00  0.00     0.016 A 
ATOM     44  C   UNL A   1      40.715  25.805  28.307  1.00  0.00     0.016 A 
ATOM     45  C   UNL A   1      42.456  27.946  28.730  1.00  0.00     0.010 A 
ATOM     46  C   UNL A   1      40.565  26.611  29.439  1.00  0.00     0.010 A 
ATOM     47  C   UNL A   1      41.428  27.695  29.655  1.00  0.00    -0.014 A 
BRANCH  47  48
ATOM     48  C   UNL A   1      41.172  28.637  30.775  1.00  0.00     0.031 A 
ATOM     49  C   UNL A   1      40.088  29.671  30.694  1.00  0.00     0.074 A 
ATOM     50  C   UNL A   1      41.957  28.571  31.869  1.00  0.00     0.049 A 
ATOM     51  N   UNL A   1      39.712  30.533  31.604  1.00  0.00    -0.248 NA
ATOM     52  C   UNL A   1      39.333  29.756  29.434  1.00  0.00     0.031 C 
ATOM     53  C   UNL A   1      43.060  27.626  32.048  1.00  0.00     0.029 A 
ATOM     54  N   UNL A   1      41.950  29.299  33.034  1.00  0.00    -0.354 N 
ATOM     55  C   UNL A   1      38.668  31.253  31.039  1.00  0.00     0.074 A 
ATOM     56  C   UNL A   1      38.503  30.761  29.686  1.00  0.00     0.031 C 
ATOM     57  C   UNL A   1      43.600  27.807  33.263  1.00  0.00     0.029 A 
ATOM     58  C   UNL A   1      42.911  28.905  33.937  1.00  0.00     0.049 A 
ATOM     59  H   UNL A   1      41.317  30.034  33.207  1.00  0.00     0.167 HD
ATOM     60  C   UNL A   1      37.905  32.217  31.607  1.00  0.00     0.031 A 
ATOM     61  C   UNL A   1      43.206  29.364  35.171  1.00  0.00     0.031 A 
ATOM     62  C   UNL A   1      38.088  32.706  32.953  1.00  0.00     0.049 A 
ATOM     63  C   UNL A   1      42.376  30.471  35.761  1.00  0.00     0.074 A 
ATOM     64  C   UNL A   1      37.327  33.644  33.630  1.00  0.00     0.029 A 
ATOM     65  N   UNL A   1      39.097  32.313  33.819  1.00  0.00    -0.354 N 
ATOM     66  N   UNL A   1      41.335  31.078  35.246  1.00  0.00    -0.248 NA
ATOM     67  C   UNL A   1      42.750  30.949  37.101  1.00  0.00     0.031 C 
ATOM     68  C   UNL A   1      37.922  33.877  34.871  1.00  0.00     0.029 A 
ATOM     69  C   UNL A   1      39.004  33.023  35.006  1.00  0.00     0.049 A 
ATOM     70  H   UNL A   1      39.779  31.631  33.621  1.00  0.00     0.167 HD
ATOM     71  C   UNL A   1      40.919  31.999  36.202  1.00  0.00     0.074 A 
ATOM     72  C   UNL A   1      41.807  31.854  37.336  1.00  0.00     0.031 C 
ATOM     73  C   UNL A   1      39.894  32.884  36.136  1.00  0.00     0.031 A 
BRANCH  60  74
ATOM     74  C   UNL A   1      36.771  32.807  30.805  1.00  0.00    -0.014 A 
ATOM     75  C   UNL A   1      37.012  33.884  29.931  1.00  0.00     0.010 A 
ATOM     76  C   UNL A   1      35.445  32.398  31.034  1.00  0.00     0.010 A 
ATOM     77  C   UNL A   1      35.948  34.564  29.331  1.00  0.00     0.020 A 
ATOM     78  C   UNL A   1      34.380  33.056  30.413  1.00  0.00     0.020 A 
ATOM     79  C   UNL A   1      34.637  34.153  29.586  1.00  0.00     0.054 A 
BRANCH  79  80
ATOM     80  S   UNL A   1      33.267  35.075  28.837  1.00  0.00     0.124 S 
ATOM     81  O   UNL A   1      33.964  36.135  28.116  1.00  0.00    -0.237 OA
ATOM     82  O   UNL A   1      32.620  34.063  28.005  1.00  0.00    -0.237 OA
ATOM     83  O   UNL A   1      32.480  35.516  29.988  1.00  0.00    -0.744 OA
ENDBRANCH  79  80
ENDBRANCH  60  74
BRANCH  61  84
ATOM     84  C   UNL A   1      44.314  28.723  35.936  1.00  0.00    -0.014 A 
ATOM     85  C   UNL A   1      44.146  27.443  36.497  1.00  0.00     0.010 A 
ATOM     86  C   UNL A   1      45.500  29.430  36.193  1.00  0.00     0.010 A 
ATOM     87  C   UNL A   1      45.114  26.911  37.355  1.00  0.00     0.020 A 
ATOM     88  C   UNL A   1      46.486  28.889  37.025  1.00  0.00     0.020 A 
ATOM     89  C   UNL A   1      46.270  27.647  37.627  1.00  0.00     0.054 A 
BRANCH  89  90
ATOM     90  S   UNL A   1      47.474  26.971  38.804  1.00  0.00     0.124 S 
ATOM     91  O   UNL A   1      47.578  28.052  39.779  1.00  0.00    -0.237 OA
ATOM     92  O   UNL A   1      46.812  25.758  39.276  1.00  0.00    -0.237 OA
ATOM     93  O   UNL A   1      48.664  26.749  37.987  1.00  0.00    -0.744 OA
ENDBRANCH  89  90
ENDBRANCH  61  84
BRANCH  73  94
ATOM     94  C   UNL A   1      39.658  33.801  37.311  1.00  0.00    -0.014 A 
ATOM     95  C   UNL A   1      40.303  35.052  37.365  1.00  0.00     0.010 A 
ATOM     96  C   UNL A   1      38.930  33.360  38.430  1.00  0.00     0.010 A 
ATOM     97  C   UNL A   1      40.272  35.817  38.533  1.00  0.00     0.020 A 
ATOM     98  C   UNL A   1      38.870  34.139  39.590  1.00  0.00     0.020 A 
ATOM     99  C   UNL A   1      39.569  35.347  39.644  1.00  0.00     0.054 A 
BRANCH  99 100
ATOM    100  S   UNL A   1      39.603  36.321  41.175  1.00  0.00     0.124 S 
ATOM    101  O   UNL A   1      38.431  35.819  41.886  1.00  0.00    -0.237 OA
ATOM    102  O   UNL A   1      40.894  35.961  41.756  1.00  0.00    -0.237 OA
ATOM    103  O   UNL A   1      39.503  37.702  40.706  1.00  0.00    -0.744 OA
ENDBRANCH  99 100
ENDBRANCH  73  94
ENDBRANCH  47  48
ENDBRANCH  40  42
ENDBRANCH  39  40
ENDBRANCH  38  39
ENDBRANCH  37  38
ENDBRANCH  36  37
ENDBRANCH   1  36
TORSDOF 23
ENDMDL
MODEL 2
REMARK VINA RESULT:     -11.8      1.887      7.996
REMARK SMILES C[C@H]1c2ccc(O)cc2OC(=O)[C@@H]1CC(=O)N[C@@H](CC1=c2ccccc2=NC1)C(=O)OCCOCCOC(=O)c1ccc(-c2c3nc(c(-c4ccc(S(=O)(=O)[O-])cc4)c4ccc([nH]4)c(-c4ccc(S(=O)(=O)[O-])cc4)c4nc(c(-c5ccc(S(=O)(=O)[O-])cc5)c5ccc2[nH]5)C=C4)C=C3)cc1
REMARK SMILES IDX 33 1 32 2 31 3 29 4 30 5 18 6 17 7 15 8 16 9 14 11 13 12
REMARK SMILES IDX 1 13 2 14 3 15 4 16 9 17 11 18 5 19 8 20 10 21 12 22 6 23
REMARK SMILES IDX 7 24 19 26 20 27 21 28 28 29 22 30 26 31 27 32 23 33 25 34
REMARK SMILES IDX 24 35 34 36 35 37 36 38 37 39 38 40 39 41 40 42 41 43 99 44
REMARK SMILES IDX 42 45 98 46 43 47 44 48 45 49 92 50 46 51 97 52 91 53 93 54
REMARK SMILES IDX 47 55 96 56 90 57 89 58 48 60 78 61 59 62 77 63 60 64 63 65
REMARK SMILES IDX 76 66 94 67 61 68 62 69 75 71 95 72 64 73 49 74 50 75 58 76
REMARK SMILES IDX 51 77 57 78 52 79 53 80 54 81 55 82 56 83 79 84 80 85 88 86
REMARK SMILES IDX 81 87 87 88 82 89 83 90 84 91 85 92 86 93 65 94 66 95 74 96
REMARK SMILES IDX 67 97 73 98 68 99 69 100 70 101 71 102 72 103
REMARK H PARENT 17 10 7 25 93 59 63 70
REMARK Flexibility Score: inf
ROOT
ATOM      1  C   UNL A   1      39.625  20.727  25.796  1.00  0.00     0.202 C 
ENDROOT
BRANCH   1   2
ATOM      2  C   UNL A   1      38.758  21.945  26.110  1.00  0.00     0.261 C 
BRANCH   2   3
ATOM      3  O   UNL A   1      37.389  21.706  25.761  1.00  0.00    -0.462 OA
BRANCH   3   4
ATOM      4  C   UNL A   1      36.703  22.790  25.325  1.00  0.00     0.329 C 
ATOM      5  O   UNL A   1      37.130  23.939  25.343  1.00  0.00    -0.250 OA
BRANCH   4   6
ATOM      6  C   UNL A   1      35.280  22.448  24.875  1.00  0.00     0.196 C 
BRANCH   6   7
ATOM      7  N   UNL A   1      34.883  22.665  23.476  1.00  0.00    -0.342 N 
ATOM      8  C   UNL A   1      33.862  23.401  22.950  1.00  0.00     0.221 C 
ATOM      9  O   UNL A   1      33.472  23.138  21.809  1.00  0.00    -0.275 OA
ATOM     10  H   UNL A   1      35.445  22.205  22.812  1.00  0.00     0.164 HD
BRANCH   8  11
ATOM     11  C   UNL A   1      33.330  24.641  23.664  1.00  0.00     0.116 C 
BRANCH  11  12
ATOM     12  C   UNL A   1      31.951  24.598  24.361  1.00  0.00     0.116 C 
ATOM     13  C   UNL A   1      29.724  25.811  24.774  1.00  0.00     0.014 C 
ATOM     14  C   UNL A   1      31.128  25.902  24.162  1.00  0.00     0.034 C 
ATOM     15  C   UNL A   1      31.889  27.047  24.787  1.00  0.00    -0.001 A 
ATOM     16  C   UNL A   1      31.841  28.350  24.282  1.00  0.00     0.011 A 
ATOM     17  C   UNL A   1      32.721  26.782  25.879  1.00  0.00     0.138 A 
ATOM     18  C   UNL A   1      32.081  24.448  25.854  1.00  0.00     0.315 C 
ATOM     19  C   UNL A   1      32.674  29.337  24.819  1.00  0.00     0.047 A 
ATOM     20  C   UNL A   1      33.589  27.738  26.392  1.00  0.00     0.093 A 
ATOM     21  O   UNL A   1      32.687  25.522  26.503  1.00  0.00    -0.426 OA
ATOM     22  O   UNL A   1      31.760  23.426  26.450  1.00  0.00    -0.251 OA
ATOM     23  C   UNL A   1      33.563  29.014  25.845  1.00  0.00     0.119 A 
BRANCH  23  24
ATOM     24  O   UNL A   1      34.426  29.939  26.354  1.00  0.00    -0.508 OA
ATOM     25  H   UNL A   1      34.095  30.731  26.730  1.00  0.00     0.293 HD
ENDBRANCH  23  24
ENDBRANCH  11  12
ENDBRANCH   8  11
ENDBRANCH   6   7
BRANCH   6  26
ATOM     26  C   UNL A   1      34.836  21.041  25.393  1.00  0.00     0.070 C 
BRANCH  26  27
ATOM     27  C   UNL A   1      34.080  20.095  24.446  1.00  0.00    -0.037 C 
ATOM     28  C   UNL A   1      34.214  18.762  24.580  1.00  0.00     0.001 A 
ATOM     29  C   UNL A   1      32.619  20.372  24.250  1.00  0.00     0.174 C 
ATOM     30  C   UNL A   1      34.330  17.768  23.519  1.00  0.00     0.010 A 
ATOM     31  C   UNL A   1      32.906  18.523  25.276  1.00  0.00     0.065 A 
ATOM     32  N   UNL A   1      31.989  19.442  25.212  1.00  0.00    -0.280 NA
ATOM     33  C   UNL A   1      33.844  16.532  23.760  1.00  0.00     0.001 A 
ATOM     34  C   UNL A   1      32.802  17.181  25.870  1.00  0.00     0.028 A 
ATOM     35  C   UNL A   1      33.274  16.210  25.067  1.00  0.00     0.002 A 
ENDBRANCH  26  27
ENDBRANCH   6  26
ENDBRANCH   4   6
ENDBRANCH   3   4
ENDBRANCH   2   3
ENDBRANCH   1   2
BRANCH   1  36
ATOM     36  O   UNL A   1      40.652  20.426  26.739  1.00  0.00    -0.374 OA
BRANCH  36  37
ATOM     37  C   UNL A   1      41.913  19.987  26.231  1.00  0.00     0.202 C 
BRANCH  37  38
ATOM     38  C   UNL A   1      42.938  21.060  25.824  1.00  0.00     0.261 C 
BRANCH  38  39
ATOM     39  O   UNL A   1      42.373  22.218  25.180  1.00  0.00    -0.460 OA
BRANCH  39  40
ATOM     40  C   UNL A   1      43.190  23.304  25.129  1.00  0.00     0.338 C 
ATOM     41  O   UNL A   1      44.079  23.516  24.321  1.00  0.00    -0.246 OA
BRANCH  40  42
ATOM     42  C   UNL A   1      42.784  24.313  26.125  1.00  0.00     0.060 A 
ATOM     43  C   UNL A   1      41.867  23.992  27.125  1.00  0.00     0.016 A 
ATOM     44  C   UNL A   1      43.440  25.549  26.139  1.00  0.00     0.016 A 
ATOM     45  C   UNL A   1      41.593  24.921  28.135  1.00  0.00     0.010 A 
ATOM     46  C   UNL A   1      43.179  26.468  27.158  1.00  0.00     0.010 A 
ATOM     47  C   UNL A   1      42.260  26.158  28.172  1.00  0.00    -0.014 A 
BRANCH  47  48
ATOM     48  C   UNL A   1      42.097  27.071  29.333  1.00  0.00     0.031 A 
ATOM     49  C   UNL A   1      43.021  27.003  30.514  1.00  0.00     0.074 A 
ATOM     50  C   UNL A   1      41.078  27.952  29.326  1.00  0.00     0.049 A 
ATOM     51  N   UNL A   1      43.037  27.761  31.581  1.00  0.00    -0.248 NA
ATOM     52  C   UNL A   1      44.051  25.954  30.503  1.00  0.00     0.031 C 
ATOM     53  C   UNL A   1      40.100  28.089  28.246  1.00  0.00     0.029 A 
ATOM     54  N   UNL A   1      40.694  28.900  30.243  1.00  0.00    -0.354 N 
ATOM     55  C   UNL A   1      44.086  27.294  32.363  1.00  0.00     0.074 A 
ATOM     56  C   UNL A   1      44.651  26.154  31.671  1.00  0.00     0.031 C 
ATOM     57  C   UNL A   1      39.252  29.084  28.545  1.00  0.00     0.029 A 
ATOM     58  C   UNL A   1      39.597  29.634  29.854  1.00  0.00     0.049 A 
ATOM     59  H   UNL A   1      41.160  29.041  31.100  1.00  0.00     0.167 HD
ATOM     60  C   UNL A   1      44.546  27.790  33.537  1.00  0.00     0.031 A 
ATOM     61  C   UNL A   1      38.942  30.640  30.469  1.00  0.00     0.031 A 
ATOM     62  C   UNL A   1      43.966  28.920  34.222  1.00  0.00     0.049 A 
ATOM     63  C   UNL A   1      39.442  31.139  31.797  1.00  0.00     0.074 A 
ATOM     64  C   UNL A   1      44.400  29.523  35.389  1.00  0.00     0.029 A 
ATOM     65  N   UNL A   1      42.832  29.608  33.817  1.00  0.00    -0.354 N 
ATOM     66  N   UNL A   1      40.490  30.744  32.478  1.00  0.00    -0.248 NA
ATOM     67  C   UNL A   1      38.683  32.225  32.435  1.00  0.00     0.031 C 
ATOM     68  C   UNL A   1      43.486  30.521  35.733  1.00  0.00     0.029 A 
ATOM     69  C   UNL A   1      42.528  30.600  34.736  1.00  0.00     0.049 A 
ATOM     70  H   UNL A   1      42.319  29.421  32.998  1.00  0.00     0.167 HD
ATOM     71  C   UNL A   1      40.526  31.542  33.618  1.00  0.00     0.074 A 
ATOM     72  C   UNL A   1      39.407  32.456  33.524  1.00  0.00     0.031 C 
ATOM     73  C   UNL A   1      41.408  31.508  34.646  1.00  0.00     0.031 A 
BRANCH  60  74
ATOM     74  C   UNL A   1      45.757  27.146  34.166  1.00  0.00    -0.014 A 
ATOM     75  C   UNL A   1      47.039  27.680  33.936  1.00  0.00     0.010 A 
ATOM     76  C   UNL A   1      45.641  25.925  34.855  1.00  0.00     0.010 A 
ATOM     77  C   UNL A   1      48.182  26.990  34.349  1.00  0.00     0.020 A 
ATOM     78  C   UNL A   1      46.780  25.246  35.296  1.00  0.00     0.020 A 
ATOM     79  C   UNL A   1      48.045  25.769  35.016  1.00  0.00     0.054 A 
BRANCH  79  80
ATOM     80  S   UNL A   1      49.538  24.863  35.503  1.00  0.00     0.124 S 
ATOM     81  O   UNL A   1      50.424  25.937  35.940  1.00  0.00    -0.237 OA
ATOM     82  O   UNL A   1      49.045  23.980  36.557  1.00  0.00    -0.237 OA
ATOM     83  O   UNL A   1      49.942  24.182  34.273  1.00  0.00    -0.744 OA
ENDBRANCH  79  80
ENDBRANCH  60  74
BRANCH  61  84
ATOM     84  C   UNL A   1      37.772  31.265  29.788  1.00  0.00    -0.014 A 
ATOM     85  C   UNL A   1      37.901  32.511  29.146  1.00  0.00     0.010 A 
ATOM     86  C   UNL A   1      36.503  30.667  29.867  1.00  0.00     0.010 A 
ATOM     87  C   UNL A   1      36.774  33.178  28.657  1.00  0.00     0.020 A 
ATOM     88  C   UNL A   1      35.377  31.316  29.350  1.00  0.00     0.020 A 
ATOM     89  C   UNL A   1      35.516  32.583  28.778  1.00  0.00     0.054 A 
BRANCH  89  90
ATOM     90  S   UNL A   1      34.060  33.502  28.207  1.00  0.00     0.124 S 
ATOM     91  O   UNL A   1      33.563  34.080  29.452  1.00  0.00    -0.237 OA
ATOM     92  O   UNL A   1      34.635  34.451  27.257  1.00  0.00    -0.237 OA
ATOM     93  O   UNL A   1      33.214  32.470  27.616  1.00  0.00    -0.744 OA
ENDBRANCH  89  90
ENDBRANCH  61  84
BRANCH  73  94
ATOM     94  C   UNL A   1      41.216  32.474  35.790  1.00  0.00    -0.014 A 
ATOM     95  C   UNL A   1      40.219  32.232  36.754  1.00  0.00     0.010 A 
ATOM     96  C   UNL A   1      41.911  33.697  35.821  1.00  0.00     0.010 A 
ATOM     97  C   UNL A   1      39.880  33.212  37.689  1.00  0.00     0.020 A 
ATOM     98  C   UNL A   1      41.598  34.668  36.777  1.00  0.00     0.020 A 
ATOM     99  C   UNL A   1      40.561  34.432  37.683  1.00  0.00     0.054 A 
BRANCH  99 100
ATOM    100  S   UNL A   1      40.057  35.720  38.858  1.00  0.00     0.124 S 
ATOM    101  O   UNL A   1      38.973  35.066  39.585  1.00  0.00    -0.237 OA
ATOM    102  O   UNL A   1      41.279  35.952  39.624  1.00  0.00    -0.237 OA
ATOM    103  O   UNL A   1      39.651  36.830  37.998  1.00  0.00    -0.744 OA
ENDBRANCH  99 100
ENDBRANCH  73  94
ENDBRANCH  47  48
ENDBRANCH  40  42
ENDBRANCH  39  40
ENDBRANCH  38  39
ENDBRANCH  37  38
ENDBRANCH  36  37
ENDBRANCH   1  36
TORSDOF 23
ENDMDL
MODEL 3
REMARK VINA RESULT:     -11.7      5.666      8.197
REMARK SMILES C[C@H]1c2ccc(O)cc2OC(=O)[C@@H]1CC(=O)N[C@@H](CC1=c2ccccc2=NC1)C(=O)OCCOCCOC(=O)c1ccc(-c2c3nc(c(-c4ccc(S(=O)(=O)[O-])cc4)c4ccc([nH]4)c(-c4ccc(S(=O)(=O)[O-])cc4)c4nc(c(-c5ccc(S(=O)(=O)[O-])cc5)c5ccc2[nH]5)C=C4)C=C3)cc1
REMARK SMILES IDX 33 1 32 2 31 3 29 4 30 5 18 6 17 7 15 8 16 9 14 11 13 12
REMARK SMILES IDX 1 13 2 14 3 15 4 16 9 17 11 18 5 19 8 20 10 21 12 22 6 23
REMARK SMILES IDX 7 24 19 26 20 27 21 28 28 29 22 30 26 31 27 32 23 33 25 34
REMARK SMILES IDX 24 35 34 36 35 37 36 38 37 39 38 40 39 41 40 42 41 43 99 44
REMARK SMILES IDX 42 45 98 46 43 47 44 48 45 49 92 50 46 51 97 52 91 53 93 54
REMARK SMILES IDX 47 55 96 56 90 57 89 58 48 60 78 61 59 62 77 63 60 64 63 65
REMARK SMILES IDX 76 66 94 67 61 68 62 69 75 71 95 72 64 73 49 74 50 75 58 76
REMARK SMILES IDX 51 77 57 78 52 79 53 80 54 81 55 82 56 83 79 84 80 85 88 86
REMARK SMILES IDX 81 87 87 88 82 89 83 90 84 91 85 92 86 93 65 94 66 95 74 96
REMARK SMILES IDX 67 97 73 98 68 99 69 100 70 101 71 102 72 103
REMARK H PARENT 17 10 7 25 93 59 63 70
REMARK Flexibility Score: inf
ROOT
ATOM      1  C   UNL A   1      37.254  23.201  25.418  1.00  0.00     0.202 C 
ENDROOT
BRANCH   1   2
ATOM      2  C   UNL A   1      35.868  23.194  26.061  1.00  0.00     0.261 C 
BRANCH   2   3
ATOM      3  O   UNL A   1      35.311  21.874  26.071  1.00  0.00    -0.462 OA
BRANCH   3   4
ATOM      4  C   UNL A   1      34.224  21.708  26.861  1.00  0.00     0.329 C 
ATOM      5  O   UNL A   1      34.217  21.853  28.079  1.00  0.00    -0.250 OA
BRANCH   4   6
ATOM      6  C   UNL A   1      32.995  21.227  26.084  1.00  0.00     0.196 C 
BRANCH   6   7
ATOM      7  N   UNL A   1      31.671  21.790  26.390  1.00  0.00    -0.342 N 
ATOM      8  C   UNL A   1      31.312  23.050  26.771  1.00  0.00     0.221 C 
ATOM      9  O   UNL A   1      30.232  23.207  27.346  1.00  0.00    -0.275 OA
ATOM     10  H   UNL A   1      30.924  21.155  26.306  1.00  0.00     0.164 HD
BRANCH   8  11
ATOM     11  C   UNL A   1      32.122  24.269  26.338  1.00  0.00     0.116 C 
BRANCH  11  12
ATOM     12  C   UNL A   1      32.152  24.687  24.850  1.00  0.00     0.116 C 
ATOM     13  C   UNL A   1      33.462  25.879  22.989  1.00  0.00     0.014 C 
ATOM     14  C   UNL A   1      33.390  25.553  24.486  1.00  0.00     0.034 C 
ATOM     15  C   UNL A   1      33.332  26.831  25.289  1.00  0.00    -0.001 A 
ATOM     16  C   UNL A   1      34.478  27.499  25.729  1.00  0.00     0.011 A 
ATOM     17  C   UNL A   1      32.081  27.335  25.657  1.00  0.00     0.138 A 
ATOM     18  C   UNL A   1      30.965  25.537  24.482  1.00  0.00     0.315 C 
ATOM     19  C   UNL A   1      34.359  28.599  26.585  1.00  0.00     0.047 A 
ATOM     20  C   UNL A   1      31.946  28.396  26.543  1.00  0.00     0.093 A 
ATOM     21  O   UNL A   1      30.909  26.776  25.116  1.00  0.00    -0.426 OA
ATOM     22  O   UNL A   1      30.067  25.143  23.746  1.00  0.00    -0.251 OA
ATOM     23  C   UNL A   1      33.097  29.016  27.009  1.00  0.00     0.119 A 
BRANCH  23  24
ATOM     24  O   UNL A   1      32.950  30.051  27.885  1.00  0.00    -0.508 OA
ATOM     25  H   UNL A   1      33.336  30.001  28.738  1.00  0.00     0.293 HD
ENDBRANCH  23  24
ENDBRANCH  11  12
ENDBRANCH   8  11
ENDBRANCH   6   7
BRANCH   6  26
ATOM     26  C   UNL A   1      33.268  21.189  24.545  1.00  0.00     0.070 C 
BRANCH  26  27
ATOM     27  C   UNL A   1      33.531  19.837  23.861  1.00  0.00    -0.037 C 
ATOM     28  C   UNL A   1      33.908  18.775  24.598  1.00  0.00     0.001 A 
ATOM     29  C   UNL A   1      32.480  19.357  22.903  1.00  0.00     0.174 C 
ATOM     30  C   UNL A   1      34.906  17.766  24.256  1.00  0.00     0.010 A 
ATOM     31  C   UNL A   1      32.572  18.092  24.620  1.00  0.00     0.065 A 
ATOM     32  N   UNL A   1      31.677  18.446  23.746  1.00  0.00    -0.280 NA
ATOM     33  C   UNL A   1      34.729  16.520  24.741  1.00  0.00     0.001 A 
ATOM     34  C   UNL A   1      32.496  16.999  25.602  1.00  0.00     0.028 A 
ATOM     35  C   UNL A   1      33.597  16.227  25.619  1.00  0.00     0.002 A 
ENDBRANCH  26  27
ENDBRANCH   6  26
ENDBRANCH   4   6
ENDBRANCH   3   4
ENDBRANCH   2   3
ENDBRANCH   1   2
BRANCH   1  36
ATOM     36  O   UNL A   1      37.814  21.924  25.115  1.00  0.00    -0.374 OA
BRANCH  36  37
ATOM     37  C   UNL A   1      38.971  21.515  25.845  1.00  0.00     0.202 C 
BRANCH  37  38
ATOM     38  C   UNL A   1      39.456  20.065  25.672  1.00  0.00     0.261 C 
BRANCH  38  39
ATOM     39  O   UNL A   1      40.389  19.619  26.674  1.00  0.00    -0.460 OA
BRANCH  39  40
ATOM     40  C   UNL A   1      41.674  19.489  26.249  1.00  0.00     0.338 C 
ATOM     41  O   UNL A   1      42.164  18.530  25.679  1.00  0.00    -0.246 OA
BRANCH  40  42
ATOM     42  C   UNL A   1      42.420  20.747  26.443  1.00  0.00     0.060 A 
ATOM     43  C   UNL A   1      42.886  21.471  25.347  1.00  0.00     0.016 A 
ATOM     44  C   UNL A   1      42.526  21.274  27.735  1.00  0.00     0.016 A 
ATOM     45  C   UNL A   1      43.478  22.723  25.547  1.00  0.00     0.010 A 
ATOM     46  C   UNL A   1      43.101  22.532  27.931  1.00  0.00     0.010 A 
ATOM     47  C   UNL A   1      43.572  23.273  26.838  1.00  0.00    -0.014 A 
BRANCH  47  48
ATOM     48  C   UNL A   1      44.042  24.669  27.032  1.00  0.00     0.031 A 
ATOM     49  C   UNL A   1      43.115  25.744  27.520  1.00  0.00     0.074 A 
ATOM     50  C   UNL A   1      45.321  24.970  26.733  1.00  0.00     0.049 A 
ATOM     51  N   UNL A   1      43.385  26.997  27.783  1.00  0.00    -0.248 NA
ATOM     52  C   UNL A   1      41.708  25.372  27.733  1.00  0.00     0.031 C 
ATOM     53  C   UNL A   1      46.306  24.014  26.225  1.00  0.00     0.029 A 
ATOM     54  N   UNL A   1      46.017  26.152  26.815  1.00  0.00    -0.354 N 
ATOM     55  C   UNL A   1      42.191  27.563  28.209  1.00  0.00     0.074 A 
ATOM     56  C   UNL A   1      41.181  26.528  28.120  1.00  0.00     0.031 C 
ATOM     57  C   UNL A   1      47.484  24.637  26.074  1.00  0.00     0.029 A 
ATOM     58  C   UNL A   1      47.335  26.044  26.436  1.00  0.00     0.049 A 
ATOM     59  H   UNL A   1      45.610  26.997  27.116  1.00  0.00     0.167 HD
ATOM     60  C   UNL A   1      41.967  28.822  28.655  1.00  0.00     0.031 A 
ATOM     61  C   UNL A   1      48.320  26.965  26.388  1.00  0.00     0.031 A 
ATOM     62  C   UNL A   1      42.981  29.847  28.727  1.00  0.00     0.049 A 
ATOM     63  C   UNL A   1      48.034  28.371  26.841  1.00  0.00     0.074 A 
ATOM     64  C   UNL A   1      42.856  31.136  29.216  1.00  0.00     0.029 A 
ATOM     65  N   UNL A   1      44.292  29.712  28.295  1.00  0.00    -0.354 N 
ATOM     66  N   UNL A   1      46.921  28.864  27.326  1.00  0.00    -0.248 NA
ATOM     67  C   UNL A   1      49.135  29.342  26.753  1.00  0.00     0.031 C 
ATOM     68  C   UNL A   1      44.064  31.804  29.005  1.00  0.00     0.029 A 
ATOM     69  C   UNL A   1      44.972  30.908  28.465  1.00  0.00     0.049 A 
ATOM     70  H   UNL A   1      44.682  28.888  27.923  1.00  0.00     0.167 HD
ATOM     71  C   UNL A   1      47.189  30.198  27.615  1.00  0.00     0.074 A 
ATOM     72  C   UNL A   1      48.577  30.429  27.271  1.00  0.00     0.031 C 
ATOM     73  C   UNL A   1      46.354  31.141  28.116  1.00  0.00     0.031 A 
BRANCH  60  74
ATOM     74  C   UNL A   1      40.583  29.183  29.134  1.00  0.00    -0.014 A 
ATOM     75  C   UNL A   1      39.632  29.690  28.228  1.00  0.00     0.010 A 
ATOM     76  C   UNL A   1      40.276  29.167  30.507  1.00  0.00     0.010 A 
ATOM     77  C   UNL A   1      38.417  30.207  28.687  1.00  0.00     0.020 A 
ATOM     78  C   UNL A   1      39.050  29.657  30.968  1.00  0.00     0.020 A 
ATOM     79  C   UNL A   1      38.139  30.198  30.057  1.00  0.00     0.054 A 
BRANCH  79  80
ATOM     80  S   UNL A   1      36.579  30.916  30.640  1.00  0.00     0.124 S 
ATOM     81  O   UNL A   1      36.244  30.054  31.768  1.00  0.00    -0.237 OA
ATOM     82  O   UNL A   1      36.966  32.283  30.981  1.00  0.00    -0.237 OA
ATOM     83  O   UNL A   1      35.695  30.800  29.481  1.00  0.00    -0.744 OA
ENDBRANCH  79  80
ENDBRANCH  60  74
BRANCH  61  84
ATOM     84  C   UNL A   1      49.679  26.549  25.940  1.00  0.00    -0.014 A 
ATOM     85  C   UNL A   1      50.524  25.820  26.800  1.00  0.00     0.010 A 
ATOM     86  C   UNL A   1      50.173  26.966  24.692  1.00  0.00     0.010 A 
ATOM     87  C   UNL A   1      51.855  25.577  26.449  1.00  0.00     0.020 A 
ATOM     88  C   UNL A   1      51.495  26.696  24.324  1.00  0.00     0.020 A 
ATOM     89  C   UNL A   1      52.336  26.032  25.220  1.00  0.00     0.054 A 
BRANCH  89  90
ATOM     90  S   UNL A   1      54.087  25.772  24.821  1.00  0.00     0.124 S 
ATOM     91  O   UNL A   1      54.250  24.349  25.100  1.00  0.00    -0.237 OA
ATOM     92  O   UNL A   1      54.152  26.149  23.411  1.00  0.00    -0.237 OA
ATOM     93  O   UNL A   1      54.784  26.672  25.736  1.00  0.00    -0.744 OA
ENDBRANCH  89  90
ENDBRANCH  61  84
BRANCH  73  94
ATOM     94  C   UNL A   1      46.886  32.538  28.321  1.00  0.00    -0.014 A 
ATOM     95  C   UNL A   1      46.805  33.480  27.277  1.00  0.00     0.010 A 
ATOM     96  C   UNL A   1      47.605  32.869  29.483  1.00  0.00     0.010 A 
ATOM     97  C   UNL A   1      47.480  34.699  27.366  1.00  0.00     0.020 A 
ATOM     98  C   UNL A   1      48.254  34.102  29.590  1.00  0.00     0.020 A 
ATOM     99  C   UNL A   1      48.215  34.995  28.517  1.00  0.00     0.054 A 
BRANCH  99 100
ATOM    100  S   UNL A   1      49.144  36.554  28.583  1.00  0.00     0.124 S 
ATOM    101  O   UNL A   1      48.131  37.496  29.049  1.00  0.00    -0.237 OA
ATOM    102  O   UNL A   1      50.210  36.251  29.535  1.00  0.00    -0.237 OA
ATOM    103  O   UNL A   1      49.589  36.747  27.204  1.00  0.00    -0.744 OA
ENDBRANCH  99 100
ENDBRANCH  73  94
ENDBRANCH  47  48
ENDBRANCH  40  42
ENDBRANCH  39  40
ENDBRANCH  38  39
ENDBRANCH  37  38
ENDBRANCH  36  37
ENDBRANCH   1  36
TORSDOF 23
ENDMDL
