MODEL 1
REMARK VINA RESULT:     -10.5      0.000      0.000
REMARK SMILES NS(=O)(=O)c1ccc(-n2nc(C(=O)OCCOCCOC(=O)c3ccc(-c4c5nc(c(-c6ccc(S(=O)(=O)[O-])cc6)c6ccc([nH]6)c(-c6ccc(S(=O)(=O)[O-])cc6)c6nc(c(-c7ccc(S(=O)(=O)[O-])cc7)c7ccc4[nH]7)C=C6)C=C5)cc3)cc2-c2ccc(Cl)s2)cc1
REMARK SMILES IDX 17 1 16 2 15 3 14 4 12 5 13 6 11 7 9 8 10 9 84 10 83 11 8 12
REMARK SMILES IDX 5 13 6 14 92 15 7 16 91 17 2 18 3 19 4 20 1 21 85 24 86 25
REMARK SMILES IDX 90 26 87 27 88 28 89 29 18 30 19 31 20 32 21 33 22 34 23 35
REMARK SMILES IDX 24 36 82 37 25 38 81 39 26 40 27 41 28 42 75 43 29 44 80 45
REMARK SMILES IDX 74 46 76 47 30 48 79 49 73 50 72 51 31 53 61 54 42 55 60 56
REMARK SMILES IDX 43 57 46 58 59 59 77 60 44 61 45 62 58 64 78 65 47 66 32 67
REMARK SMILES IDX 33 68 41 69 34 70 40 71 35 72 36 73 37 74 38 75 39 76 62 77
REMARK SMILES IDX 63 78 71 79 64 80 70 81 65 82 66 83 67 84 68 85 69 86 48 87
REMARK SMILES IDX 49 88 57 89 50 90 56 91 51 92 52 93 53 94 54 95 55 96
REMARK H PARENT 1 22 1 23 76 52 46 63
REMARK Flexibility Score: inf
ROOT
ATOM      1  O   UNL A   1      33.918  33.673  30.277  1.00  0.00    -0.374 OA
ENDROOT
BRANCH   1   2
ATOM      2  C   UNL A   1      34.652  33.128  29.183  1.00  0.00     0.202 C 
BRANCH   2   3
ATOM      3  C   UNL A   1      34.092  31.921  28.430  1.00  0.00     0.261 C 
BRANCH   3   4
ATOM      4  O   UNL A   1      34.986  31.430  27.423  1.00  0.00    -0.458 OA
BRANCH   4   5
ATOM      5  C   UNL A   1      35.269  30.097  27.524  1.00  0.00     0.358 C 
ATOM      6  O   UNL A   1      36.070  29.616  28.319  1.00  0.00    -0.244 OA
BRANCH   5   7
ATOM      7  C   UNL A   1      34.441  29.287  26.628  1.00  0.00     0.171 A 
ATOM      8  N   UNL A   1      32.871  28.848  25.245  1.00  0.00    -0.231 N 
ATOM      9  N   UNL A   1      33.622  29.862  25.728  1.00  0.00    -0.160 NA
ATOM     10  C   UNL A   1      33.307  27.616  25.705  1.00  0.00     0.085 A 
ATOM     11  C   UNL A   1      34.366  27.877  26.547  1.00  0.00     0.068 A 
BRANCH   8  12
ATOM     12  C   UNL A   1      31.673  29.160  24.563  1.00  0.00     0.065 A 
ATOM     13  C   UNL A   1      29.333  29.802  23.220  1.00  0.00     0.082 A 
ATOM     14  C   UNL A   1      29.743  30.585  24.302  1.00  0.00     0.024 A 
ATOM     15  C   UNL A   1      30.094  28.704  22.799  1.00  0.00     0.024 A 
ATOM     16  C   UNL A   1      30.909  30.254  24.987  1.00  0.00     0.030 A 
ATOM     17  C   UNL A   1      31.290  28.399  23.452  1.00  0.00     0.030 A 
BRANCH  13  18
ATOM     18  S   UNL A   1      27.826  30.158  22.369  1.00  0.00     0.238 S 
ATOM     19  O   UNL A   1      28.060  30.087  20.951  1.00  0.00    -0.207 OA
ATOM     20  O   UNL A   1      27.200  31.299  23.006  1.00  0.00    -0.207 OA
BRANCH  18  21
ATOM     21  N   UNL A   1      26.825  28.850  22.718  1.00  0.00    -0.225 NA
ATOM     22  H   UNL A   1      26.918  28.145  21.986  1.00  0.00     0.137 HD
ATOM     23  H   UNL A   1      25.856  29.167  22.763  1.00  0.00     0.137 HD
ENDBRANCH  18  21
ENDBRANCH  13  18
ENDBRANCH   8  12
BRANCH  10  24
ATOM     24  C   UNL A   1      32.721  26.351  25.374  1.00  0.00     0.054 A 
ATOM     25  C   UNL A   1      33.005  25.593  24.254  1.00  0.00     0.024 A 
ATOM     26  S   UNL A   1      31.559  25.584  26.375  1.00  0.00    -0.122 S 
ATOM     27  C   UNL A   1      32.318  24.343  24.261  1.00  0.00     0.033 A 
ATOM     28  C   UNL A   1      31.516  24.228  25.367  1.00  0.00     0.094 A 
ATOM     29  Cl  UNL A   1      30.542  22.878  25.784  1.00  0.00    -0.072 Cl
ENDBRANCH  10  24
ENDBRANCH   5   7
ENDBRANCH   4   5
ENDBRANCH   3   4
ENDBRANCH   2   3
ENDBRANCH   1   2
BRANCH   1  30
ATOM     30  C   UNL A   1      34.574  34.264  31.398  1.00  0.00     0.202 C 
BRANCH  30  31
ATOM     31  C   UNL A   1      34.578  33.537  32.736  1.00  0.00     0.261 C 
BRANCH  31  32
ATOM     32  O   UNL A   1      34.940  32.177  32.571  1.00  0.00    -0.460 OA
BRANCH  32  33
ATOM     33  C   UNL A   1      36.261  31.943  32.738  1.00  0.00     0.338 C 
ATOM     34  O   UNL A   1      36.949  32.245  33.697  1.00  0.00    -0.246 OA
BRANCH  33  35
ATOM     35  C   UNL A   1      36.778  31.314  31.515  1.00  0.00     0.060 A 
ATOM     36  C   UNL A   1      36.784  29.921  31.566  1.00  0.00     0.016 A 
ATOM     37  C   UNL A   1      37.655  32.045  30.701  1.00  0.00     0.016 A 
ATOM     38  C   UNL A   1      37.942  29.300  31.184  1.00  0.00     0.010 A 
ATOM     39  C   UNL A   1      38.803  31.420  30.302  1.00  0.00     0.010 A 
ATOM     40  C   UNL A   1      38.981  30.101  30.702  1.00  0.00    -0.014 A 
BRANCH  40  41
ATOM     41  C   UNL A   1      40.293  29.514  30.614  1.00  0.00     0.031 A 
ATOM     42  C   UNL A   1      40.964  29.500  31.922  1.00  0.00     0.074 A 
ATOM     43  C   UNL A   1      40.763  28.966  29.480  1.00  0.00     0.049 A 
ATOM     44  N   UNL A   1      41.888  30.302  32.330  1.00  0.00    -0.248 NA
ATOM     45  C   UNL A   1      40.349  28.681  32.979  1.00  0.00     0.031 C 
ATOM     46  C   UNL A   1      40.078  28.681  28.216  1.00  0.00     0.029 A 
ATOM     47  N   UNL A   1      41.988  28.436  29.271  1.00  0.00    -0.354 N 
ATOM     48  C   UNL A   1      42.127  29.924  33.642  1.00  0.00     0.074 A 
ATOM     49  C   UNL A   1      40.991  29.138  34.052  1.00  0.00     0.031 C 
ATOM     50  C   UNL A   1      40.816  27.792  27.506  1.00  0.00     0.029 A 
ATOM     51  C   UNL A   1      42.069  27.556  28.205  1.00  0.00     0.049 A 
ATOM     52  H   UNL A   1      42.765  28.660  29.833  1.00  0.00     0.167 HD
ATOM     53  C   UNL A   1      43.366  30.009  34.194  1.00  0.00     0.031 A 
ATOM     54  C   UNL A   1      43.046  26.623  28.033  1.00  0.00     0.031 A 
ATOM     55  C   UNL A   1      44.252  30.825  33.405  1.00  0.00     0.049 A 
ATOM     56  C   UNL A   1      44.205  27.073  28.864  1.00  0.00     0.074 A 
ATOM     57  C   UNL A   1      44.236  32.145  32.995  1.00  0.00     0.029 A 
ATOM     58  N   UNL A   1      45.112  30.174  32.548  1.00  0.00    -0.354 N 
ATOM     59  N   UNL A   1      44.850  28.188  28.633  1.00  0.00    -0.248 NA
ATOM     60  C   UNL A   1      44.282  26.591  30.240  1.00  0.00     0.031 C 
ATOM     61  C   UNL A   1      44.678  32.112  31.639  1.00  0.00     0.029 A 
ATOM     62  C   UNL A   1      45.014  30.793  31.324  1.00  0.00     0.049 A 
ATOM     63  H   UNL A   1      45.689  29.409  32.771  1.00  0.00     0.167 HD
ATOM     64  C   UNL A   1      45.060  28.758  29.882  1.00  0.00     0.074 A 
ATOM     65  C   UNL A   1      44.737  27.698  30.841  1.00  0.00     0.031 C 
ATOM     66  C   UNL A   1      45.172  30.112  30.053  1.00  0.00     0.031 A 
BRANCH  53  67
ATOM     67  C   UNL A   1      43.858  29.011  35.203  1.00  0.00    -0.014 A 
ATOM     68  C   UNL A   1      44.358  29.473  36.432  1.00  0.00     0.010 A 
ATOM     69  C   UNL A   1      44.082  27.652  34.885  1.00  0.00     0.010 A 
ATOM     70  C   UNL A   1      45.086  28.624  37.275  1.00  0.00     0.020 A 
ATOM     71  C   UNL A   1      44.760  26.788  35.737  1.00  0.00     0.020 A 
ATOM     72  C   UNL A   1      45.289  27.290  36.915  1.00  0.00     0.054 A 
BRANCH  72  73
ATOM     73  S   UNL A   1      46.313  26.232  37.961  1.00  0.00     0.124 S 
ATOM     74  O   UNL A   1      46.155  24.932  37.315  1.00  0.00    -0.237 OA
ATOM     75  O   UNL A   1      47.628  26.852  37.829  1.00  0.00    -0.237 OA
ATOM     76  O   UNL A   1      45.699  26.357  39.280  1.00  0.00    -0.744 OA
ENDBRANCH  72  73
ENDBRANCH  53  67
BRANCH  54  77
ATOM     77  C   UNL A   1      42.803  25.200  27.646  1.00  0.00    -0.014 A 
ATOM     78  C   UNL A   1      42.795  24.149  28.584  1.00  0.00     0.010 A 
ATOM     79  C   UNL A   1      42.327  24.901  26.350  1.00  0.00     0.010 A 
ATOM     80  C   UNL A   1      42.300  22.870  28.245  1.00  0.00     0.020 A 
ATOM     81  C   UNL A   1      41.841  23.635  26.002  1.00  0.00     0.020 A 
ATOM     82  C   UNL A   1      41.812  22.626  26.957  1.00  0.00     0.054 A 
BRANCH  82  83
ATOM     83  S   UNL A   1      41.040  21.028  26.555  1.00  0.00     0.124 S 
ATOM     84  O   UNL A   1      40.750  20.480  27.877  1.00  0.00    -0.237 OA
ATOM     85  O   UNL A   1      39.878  21.426  25.766  1.00  0.00    -0.237 OA
ATOM     86  O   UNL A   1      42.079  20.322  25.807  1.00  0.00    -0.744 OA
ENDBRANCH  82  83
ENDBRANCH  54  77
BRANCH  66  87
ATOM     87  C   UNL A   1      45.229  31.003  28.826  1.00  0.00    -0.014 A 
ATOM     88  C   UNL A   1      44.100  31.342  28.049  1.00  0.00     0.010 A 
ATOM     89  C   UNL A   1      46.432  31.684  28.576  1.00  0.00     0.010 A 
ATOM     90  C   UNL A   1      44.183  32.321  27.044  1.00  0.00     0.020 A 
ATOM     91  C   UNL A   1      46.518  32.670  27.588  1.00  0.00     0.020 A 
ATOM     92  C   UNL A   1      45.394  32.981  26.821  1.00  0.00     0.054 A 
BRANCH  92  93
ATOM     93  S   UNL A   1      45.490  34.283  25.556  1.00  0.00     0.124 S 
ATOM     94  O   UNL A   1      44.898  35.431  26.237  1.00  0.00    -0.237 OA
ATOM     95  O   UNL A   1      46.926  34.376  25.295  1.00  0.00    -0.237 OA
ATOM     96  O   UNL A   1      44.702  33.748  24.446  1.00  0.00    -0.744 OA
ENDBRANCH  92  93
ENDBRANCH  66  87
ENDBRANCH  40  41
ENDBRANCH  33  35
ENDBRANCH  32  33
ENDBRANCH  31  32
ENDBRANCH  30  31
ENDBRANCH   1  30
TORSDOF 21
ENDMDL
MODEL 2
REMARK VINA RESULT:     -10.1      3.160      8.330
REMARK SMILES NS(=O)(=O)c1ccc(-n2nc(C(=O)OCCOCCOC(=O)c3ccc(-c4c5nc(c(-c6ccc(S(=O)(=O)[O-])cc6)c6ccc([nH]6)c(-c6ccc(S(=O)(=O)[O-])cc6)c6nc(c(-c7ccc(S(=O)(=O)[O-])cc7)c7ccc4[nH]7)C=C6)C=C5)cc3)cc2-c2ccc(Cl)s2)cc1
REMARK SMILES IDX 17 1 16 2 15 3 14 4 12 5 13 6 11 7 9 8 10 9 84 10 83 11 8 12
REMARK SMILES IDX 5 13 6 14 92 15 7 16 91 17 2 18 3 19 4 20 1 21 85 24 86 25
REMARK SMILES IDX 90 26 87 27 88 28 89 29 18 30 19 31 20 32 21 33 22 34 23 35
REMARK SMILES IDX 24 36 82 37 25 38 81 39 26 40 27 41 28 42 75 43 29 44 80 45
REMARK SMILES IDX 74 46 76 47 30 48 79 49 73 50 72 51 31 53 61 54 42 55 60 56
REMARK SMILES IDX 43 57 46 58 59 59 77 60 44 61 45 62 58 64 78 65 47 66 32 67
REMARK SMILES IDX 33 68 41 69 34 70 40 71 35 72 36 73 37 74 38 75 39 76 62 77
REMARK SMILES IDX 63 78 71 79 64 80 70 81 65 82 66 83 67 84 68 85 69 86 48 87
REMARK SMILES IDX 49 88 57 89 50 90 56 91 51 92 52 93 53 94 54 95 55 96
REMARK H PARENT 1 22 1 23 76 52 46 63
REMARK Flexibility Score: inf
ROOT
ATOM      1  O   UNL A   1      34.520  35.112  29.065  1.00  0.00    -0.374 OA
ENDROOT
BRANCH   1   2
ATOM      2  C   UNL A   1      34.806  34.027  28.185  1.00  0.00     0.202 C 
BRANCH   2   3
ATOM      3  C   UNL A   1      33.853  32.832  28.133  1.00  0.00     0.261 C 
BRANCH   3   4
ATOM      4  O   UNL A   1      34.393  31.662  28.760  1.00  0.00    -0.458 OA
BRANCH   4   5
ATOM      5  C   UNL A   1      35.111  30.856  27.921  1.00  0.00     0.358 C 
ATOM      6  O   UNL A   1      36.336  30.803  27.890  1.00  0.00    -0.244 OA
BRANCH   5   7
ATOM      7  C   UNL A   1      34.248  29.992  27.114  1.00  0.00     0.171 A 
ATOM      8  N   UNL A   1      32.688  29.479  25.745  1.00  0.00    -0.231 N 
ATOM      9  N   UNL A   1      33.503  30.493  26.111  1.00  0.00    -0.160 NA
ATOM     10  C   UNL A   1      33.012  28.295  26.388  1.00  0.00     0.085 A 
ATOM     11  C   UNL A   1      34.064  28.594  27.227  1.00  0.00     0.068 A 
BRANCH   8  12
ATOM     12  C   UNL A   1      31.539  29.779  24.979  1.00  0.00     0.065 A 
ATOM     13  C   UNL A   1      29.296  30.397  23.469  1.00  0.00     0.082 A 
ATOM     14  C   UNL A   1      29.699  31.263  24.490  1.00  0.00     0.024 A 
ATOM     15  C   UNL A   1      30.016  29.228  23.192  1.00  0.00     0.024 A 
ATOM     16  C   UNL A   1      30.816  30.945  25.258  1.00  0.00     0.030 A 
ATOM     17  C   UNL A   1      31.165  28.933  23.929  1.00  0.00     0.030 A 
BRANCH  13  18
ATOM     18  S   UNL A   1      27.848  30.740  22.516  1.00  0.00     0.238 S 
ATOM     19  O   UNL A   1      28.225  30.919  21.140  1.00  0.00    -0.207 OA
ATOM     20  O   UNL A   1      27.040  31.699  23.241  1.00  0.00    -0.207 OA
BRANCH  18  21
ATOM     21  N   UNL A   1      26.970  29.304  22.552  1.00  0.00    -0.225 NA
ATOM     22  H   UNL A   1      26.912  28.917  21.610  1.00  0.00     0.137 HD
ATOM     23  H   UNL A   1      26.030  29.490  22.902  1.00  0.00     0.137 HD
ENDBRANCH  18  21
ENDBRANCH  13  18
ENDBRANCH   8  12
BRANCH  10  24
ATOM     24  C   UNL A   1      32.338  27.044  26.213  1.00  0.00     0.054 A 
ATOM     25  C   UNL A   1      31.029  26.770  26.561  1.00  0.00     0.024 A 
ATOM     26  S   UNL A   1      33.100  25.680  25.505  1.00  0.00    -0.122 S 
ATOM     27  C   UNL A   1      30.633  25.455  26.175  1.00  0.00     0.033 A 
ATOM     28  C   UNL A   1      31.671  24.780  25.585  1.00  0.00     0.094 A 
ATOM     29  Cl  UNL A   1      31.620  23.189  24.947  1.00  0.00    -0.072 Cl
ENDBRANCH  10  24
ENDBRANCH   5   7
ENDBRANCH   4   5
ENDBRANCH   3   4
ENDBRANCH   2   3
ENDBRANCH   1   2
BRANCH   1  30
ATOM     30  C   UNL A   1      33.229  35.281  29.649  1.00  0.00     0.202 C 
BRANCH  30  31
ATOM     31  C   UNL A   1      33.113  35.782  31.082  1.00  0.00     0.261 C 
BRANCH  31  32
ATOM     32  O   UNL A   1      33.289  34.723  32.005  1.00  0.00    -0.460 OA
BRANCH  32  33
ATOM     33  C   UNL A   1      34.413  34.833  32.749  1.00  0.00     0.338 C 
ATOM     34  O   UNL A   1      34.865  35.843  33.260  1.00  0.00    -0.246 OA
BRANCH  33  35
ATOM     35  C   UNL A   1      35.072  33.519  32.791  1.00  0.00     0.060 A 
ATOM     36  C   UNL A   1      35.719  33.259  33.997  1.00  0.00     0.016 A 
ATOM     37  C   UNL A   1      35.454  32.921  31.582  1.00  0.00     0.016 A 
ATOM     38  C   UNL A   1      37.002  32.791  33.914  1.00  0.00     0.010 A 
ATOM     39  C   UNL A   1      36.729  32.434  31.503  1.00  0.00     0.010 A 
ATOM     40  C   UNL A   1      37.520  32.537  32.641  1.00  0.00    -0.014 A 
BRANCH  40  41
ATOM     41  C   UNL A   1      38.945  32.368  32.519  1.00  0.00     0.031 A 
ATOM     42  C   UNL A   1      39.280  31.154  31.759  1.00  0.00     0.074 A 
ATOM     43  C   UNL A   1      39.821  33.284  32.969  1.00  0.00     0.049 A 
ATOM     44  N   UNL A   1      39.682  30.025  32.235  1.00  0.00    -0.248 NA
ATOM     45  C   UNL A   1      38.860  31.114  30.349  1.00  0.00     0.031 C 
ATOM     46  C   UNL A   1      39.589  34.637  33.482  1.00  0.00     0.029 A 
ATOM     47  N   UNL A   1      41.170  33.206  32.953  1.00  0.00    -0.354 N 
ATOM     48  C   UNL A   1      39.784  29.195  31.130  1.00  0.00     0.074 A 
ATOM     49  C   UNL A   1      39.020  29.820  30.080  1.00  0.00     0.031 C 
ATOM     50  C   UNL A   1      40.758  35.325  33.452  1.00  0.00     0.029 A 
ATOM     51  C   UNL A   1      41.825  34.423  33.046  1.00  0.00     0.049 A 
ATOM     52  H   UNL A   1      41.651  32.350  32.882  1.00  0.00     0.167 HD
ATOM     53  C   UNL A   1      40.734  28.227  31.051  1.00  0.00     0.031 A 
ATOM     54  C   UNL A   1      43.113  34.649  32.670  1.00  0.00     0.031 A 
ATOM     55  C   UNL A   1      41.341  27.962  32.330  1.00  0.00     0.049 A 
ATOM     56  C   UNL A   1      43.784  33.313  32.652  1.00  0.00     0.074 A 
ATOM     57  C   UNL A   1      40.861  27.531  33.552  1.00  0.00     0.029 A 
ATOM     58  N   UNL A   1      42.548  28.571  32.593  1.00  0.00    -0.354 N 
ATOM     59  N   UNL A   1      43.939  32.586  33.729  1.00  0.00    -0.248 NA
ATOM     60  C   UNL A   1      43.773  32.563  31.399  1.00  0.00     0.031 C 
ATOM     61  C   UNL A   1      41.542  28.331  34.516  1.00  0.00     0.029 A 
ATOM     62  C   UNL A   1      42.453  29.145  33.839  1.00  0.00     0.049 A 
ATOM     63  H   UNL A   1      43.333  28.591  31.999  1.00  0.00     0.167 HD
ATOM     64  C   UNL A   1      43.634  31.286  33.344  1.00  0.00     0.074 A 
ATOM     65  C   UNL A   1      43.594  31.326  31.879  1.00  0.00     0.031 C 
ATOM     66  C   UNL A   1      43.135  30.366  34.226  1.00  0.00     0.031 A 
BRANCH  53  67
ATOM     67  C   UNL A   1      41.380  27.849  29.749  1.00  0.00    -0.014 A 
ATOM     68  C   UNL A   1      42.321  28.721  29.176  1.00  0.00     0.010 A 
ATOM     69  C   UNL A   1      40.909  26.788  28.942  1.00  0.00     0.010 A 
ATOM     70  C   UNL A   1      42.730  28.562  27.846  1.00  0.00     0.020 A 
ATOM     71  C   UNL A   1      41.346  26.591  27.637  1.00  0.00     0.020 A 
ATOM     72  C   UNL A   1      42.231  27.502  27.085  1.00  0.00     0.054 A 
BRANCH  72  73
ATOM     73  S   UNL A   1      42.687  27.366  25.342  1.00  0.00     0.124 S 
ATOM     74  O   UNL A   1      44.134  27.194  25.426  1.00  0.00    -0.237 OA
ATOM     75  O   UNL A   1      41.930  26.191  24.918  1.00  0.00    -0.237 OA
ATOM     76  O   UNL A   1      42.236  28.632  24.770  1.00  0.00    -0.744 OA
ENDBRANCH  72  73
ENDBRANCH  53  67
BRANCH  54  77
ATOM     77  C   UNL A   1      43.568  35.819  31.857  1.00  0.00    -0.014 A 
ATOM     78  C   UNL A   1      43.363  35.903  30.466  1.00  0.00     0.010 A 
ATOM     79  C   UNL A   1      44.005  36.993  32.510  1.00  0.00     0.010 A 
ATOM     80  C   UNL A   1      43.552  37.118  29.772  1.00  0.00     0.020 A 
ATOM     81  C   UNL A   1      44.202  38.201  31.829  1.00  0.00     0.020 A 
ATOM     82  C   UNL A   1      43.958  38.265  30.463  1.00  0.00     0.054 A 
BRANCH  82  83
ATOM     83  S   UNL A   1      44.063  39.866  29.604  1.00  0.00     0.124 S 
ATOM     84  O   UNL A   1      44.182  40.808  30.713  1.00  0.00    -0.237 OA
ATOM     85  O   UNL A   1      45.255  39.706  28.777  1.00  0.00    -0.237 OA
ATOM     86  O   UNL A   1      42.804  39.941  28.862  1.00  0.00    -0.744 OA
ENDBRANCH  82  83
ENDBRANCH  54  77
BRANCH  66  87
ATOM     87  C   UNL A   1      43.065  30.724  35.699  1.00  0.00    -0.014 A 
ATOM     88  C   UNL A   1      44.109  30.480  36.617  1.00  0.00     0.010 A 
ATOM     89  C   UNL A   1      41.987  31.521  36.120  1.00  0.00     0.010 A 
ATOM     90  C   UNL A   1      44.062  31.005  37.921  1.00  0.00     0.020 A 
ATOM     91  C   UNL A   1      41.941  32.059  37.410  1.00  0.00     0.020 A 
ATOM     92  C   UNL A   1      42.976  31.795  38.308  1.00  0.00     0.054 A 
BRANCH  92  93
ATOM     93  S   UNL A   1      42.938  32.517  39.975  1.00  0.00     0.124 S 
ATOM     94  O   UNL A   1      42.178  33.747  39.771  1.00  0.00    -0.237 OA
ATOM     95  O   UNL A   1      42.266  31.484  40.761  1.00  0.00    -0.237 OA
ATOM     96  O   UNL A   1      44.350  32.711  40.303  1.00  0.00    -0.744 OA
ENDBRANCH  92  93
ENDBRANCH  66  87
ENDBRANCH  40  41
ENDBRANCH  33  35
ENDBRANCH  32  33
ENDBRANCH  31  32
ENDBRANCH  30  31
ENDBRANCH   1  30
TORSDOF 21
ENDMDL
MODEL 3
REMARK VINA RESULT:     -10.1      2.504      3.591
REMARK SMILES NS(=O)(=O)c1ccc(-n2nc(C(=O)OCCOCCOC(=O)c3ccc(-c4c5nc(c(-c6ccc(S(=O)(=O)[O-])cc6)c6ccc([nH]6)c(-c6ccc(S(=O)(=O)[O-])cc6)c6nc(c(-c7ccc(S(=O)(=O)[O-])cc7)c7ccc4[nH]7)C=C6)C=C5)cc3)cc2-c2ccc(Cl)s2)cc1
REMARK SMILES IDX 17 1 16 2 15 3 14 4 12 5 13 6 11 7 9 8 10 9 84 10 83 11 8 12
REMARK SMILES IDX 5 13 6 14 92 15 7 16 91 17 2 18 3 19 4 20 1 21 85 24 86 25
REMARK SMILES IDX 90 26 87 27 88 28 89 29 18 30 19 31 20 32 21 33 22 34 23 35
REMARK SMILES IDX 24 36 82 37 25 38 81 39 26 40 27 41 28 42 75 43 29 44 80 45
REMARK SMILES IDX 74 46 76 47 30 48 79 49 73 50 72 51 31 53 61 54 42 55 60 56
REMARK SMILES IDX 43 57 46 58 59 59 77 60 44 61 45 62 58 64 78 65 47 66 32 67
REMARK SMILES IDX 33 68 41 69 34 70 40 71 35 72 36 73 37 74 38 75 39 76 62 77
REMARK SMILES IDX 63 78 71 79 64 80 70 81 65 82 66 83 67 84 68 85 69 86 48 87
REMARK SMILES IDX 49 88 57 89 50 90 56 91 51 92 52 93 53 94 54 95 55 96
REMARK H PARENT 1 22 1 23 76 52 46 63
REMARK Flexibility Score: inf
ROOT
ATOM      1  O   UNL A   1      34.637  32.567  30.535  1.00  0.00    -0.374 OA
ENDROOT
BRANCH   1   2
ATOM      2  C   UNL A   1      34.428  33.354  29.364  1.00  0.00     0.202 C 
BRANCH   2   3
ATOM      3  C   UNL A   1      33.750  32.725  28.147  1.00  0.00     0.261 C 
BRANCH   3   4
ATOM      4  O   UNL A   1      34.648  31.936  27.357  1.00  0.00    -0.458 OA
BRANCH   4   5
ATOM      5  C   UNL A   1      34.640  30.603  27.658  1.00  0.00     0.358 C 
ATOM      6  O   UNL A   1      35.373  30.075  28.489  1.00  0.00    -0.244 OA
BRANCH   5   7
ATOM      7  C   UNL A   1      33.593  29.879  26.934  1.00  0.00     0.171 A 
ATOM      8  N   UNL A   1      32.444  28.203  26.273  1.00  0.00    -0.231 N 
ATOM      9  N   UNL A   1      33.261  28.618  27.265  1.00  0.00    -0.160 NA
ATOM     10  C   UNL A   1      32.123  29.230  25.401  1.00  0.00     0.085 A 
ATOM     11  C   UNL A   1      32.804  30.340  25.854  1.00  0.00     0.068 A 
BRANCH   8  12
ATOM     12  C   UNL A   1      32.216  26.816  26.122  1.00  0.00     0.065 A 
ATOM     13  C   UNL A   1      31.791  24.089  25.848  1.00  0.00     0.082 A 
ATOM     14  C   UNL A   1      33.092  24.595  25.769  1.00  0.00     0.024 A 
ATOM     15  C   UNL A   1      30.702  24.940  26.073  1.00  0.00     0.024 A 
ATOM     16  C   UNL A   1      33.304  25.965  25.891  1.00  0.00     0.030 A 
ATOM     17  C   UNL A   1      30.918  26.309  26.246  1.00  0.00     0.030 A 
BRANCH  13  18
ATOM     18  S   UNL A   1      31.481  22.362  25.636  1.00  0.00     0.238 S 
ATOM     19  O   UNL A   1      31.958  21.957  24.341  1.00  0.00    -0.207 OA
ATOM     20  O   UNL A   1      30.140  22.078  26.104  1.00  0.00    -0.207 OA
BRANCH  18  21
ATOM     21  N   UNL A   1      32.505  21.610  26.740  1.00  0.00    -0.225 NA
ATOM     22  H   UNL A   1      31.950  21.085  27.415  1.00  0.00     0.137 HD
ATOM     23  H   UNL A   1      33.055  22.317  27.229  1.00  0.00     0.137 HD
ENDBRANCH  18  21
ENDBRANCH  13  18
ENDBRANCH   8  12
BRANCH  10  24
ATOM     24  C   UNL A   1      31.277  29.110  24.251  1.00  0.00     0.054 A 
ATOM     25  C   UNL A   1      31.380  28.150  23.264  1.00  0.00     0.024 A 
ATOM     26  S   UNL A   1      29.968  30.179  23.957  1.00  0.00    -0.122 S 
ATOM     27  C   UNL A   1      30.332  28.252  22.302  1.00  0.00     0.033 A 
ATOM     28  C   UNL A   1      29.504  29.308  22.585  1.00  0.00     0.094 A 
ATOM     29  Cl  UNL A   1      28.105  29.770  21.706  1.00  0.00    -0.072 Cl
ENDBRANCH  10  24
ENDBRANCH   5   7
ENDBRANCH   4   5
ENDBRANCH   3   4
ENDBRANCH   2   3
ENDBRANCH   1   2
BRANCH   1  30
ATOM     30  C   UNL A   1      35.619  32.919  31.508  1.00  0.00     0.202 C 
BRANCH  30  31
ATOM     31  C   UNL A   1      36.040  31.896  32.555  1.00  0.00     0.261 C 
BRANCH  31  32
ATOM     32  O   UNL A   1      37.308  31.348  32.245  1.00  0.00    -0.460 OA
BRANCH  32  33
ATOM     33  C   UNL A   1      37.256  30.064  31.823  1.00  0.00     0.338 C 
ATOM     34  O   UNL A   1      36.774  29.112  32.411  1.00  0.00    -0.246 OA
BRANCH  33  35
ATOM     35  C   UNL A   1      37.957  29.971  30.535  1.00  0.00     0.060 A 
ATOM     36  C   UNL A   1      38.111  28.664  30.078  1.00  0.00     0.016 A 
ATOM     37  C   UNL A   1      38.826  31.008  30.166  1.00  0.00     0.016 A 
ATOM     38  C   UNL A   1      39.361  28.306  29.654  1.00  0.00     0.010 A 
ATOM     39  C   UNL A   1      40.069  30.652  29.724  1.00  0.00     0.010 A 
ATOM     40  C   UNL A   1      40.350  29.294  29.638  1.00  0.00    -0.014 A 
BRANCH  40  41
ATOM     41  C   UNL A   1      41.720  28.869  29.519  1.00  0.00     0.031 A 
ATOM     42  C   UNL A   1      42.346  28.696  30.838  1.00  0.00     0.074 A 
ATOM     43  C   UNL A   1      42.284  28.577  28.334  1.00  0.00     0.049 A 
ATOM     44  N   UNL A   1      43.163  29.505  31.422  1.00  0.00    -0.248 NA
ATOM     45  C   UNL A   1      41.790  27.647  31.708  1.00  0.00     0.031 C 
ATOM     46  C   UNL A   1      41.675  28.447  27.006  1.00  0.00     0.029 A 
ATOM     47  N   UNL A   1      43.566  28.219  28.101  1.00  0.00    -0.354 N 
ATOM     48  C   UNL A   1      43.399  28.931  32.662  1.00  0.00     0.074 A 
ATOM     49  C   UNL A   1      42.343  27.973  32.874  1.00  0.00     0.031 C 
ATOM     50  C   UNL A   1      42.529  27.776  26.194  1.00  0.00     0.029 A 
ATOM     51  C   UNL A   1      43.777  27.551  26.907  1.00  0.00     0.049 A 
ATOM     52  H   UNL A   1      44.295  28.420  28.732  1.00  0.00     0.167 HD
ATOM     53  C   UNL A   1      44.602  29.044  33.283  1.00  0.00     0.031 A 
ATOM     54  C   UNL A   1      44.855  26.767  26.628  1.00  0.00     0.031 A 
ATOM     55  C   UNL A   1      45.419  30.071  32.689  1.00  0.00     0.049 A 
ATOM     56  C   UNL A   1      45.930  27.181  27.582  1.00  0.00     0.074 A 
ATOM     57  C   UNL A   1      45.273  31.433  32.509  1.00  0.00     0.029 A 
ATOM     58  N   UNL A   1      46.373  29.671  31.779  1.00  0.00    -0.354 N 
ATOM     59  N   UNL A   1      46.457  28.379  27.576  1.00  0.00    -0.248 NA
ATOM     60  C   UNL A   1      46.015  26.477  28.858  1.00  0.00     0.031 C 
ATOM     61  C   UNL A   1      45.759  31.682  31.191  1.00  0.00     0.029 A 
ATOM     62  C   UNL A   1      46.248  30.480  30.674  1.00  0.00     0.049 A 
ATOM     63  H   UNL A   1      47.023  28.941  31.898  1.00  0.00     0.167 HD
ATOM     64  C   UNL A   1      46.563  28.742  28.913  1.00  0.00     0.074 A 
ATOM     65  C   UNL A   1      46.326  27.503  29.660  1.00  0.00     0.031 C 
ATOM     66  C   UNL A   1      46.521  30.050  29.316  1.00  0.00     0.031 A 
BRANCH  53  67
ATOM     67  C   UNL A   1      45.168  27.942  34.132  1.00  0.00    -0.014 A 
ATOM     68  C   UNL A   1      45.669  26.788  33.506  1.00  0.00     0.010 A 
ATOM     69  C   UNL A   1      44.994  27.892  35.534  1.00  0.00     0.010 A 
ATOM     70  C   UNL A   1      45.935  25.629  34.246  1.00  0.00     0.020 A 
ATOM     71  C   UNL A   1      45.302  26.763  36.285  1.00  0.00     0.020 A 
ATOM     72  C   UNL A   1      45.739  25.624  35.629  1.00  0.00     0.054 A 
BRANCH  72  73
ATOM     73  S   UNL A   1      45.989  24.096  36.559  1.00  0.00     0.124 S 
ATOM     74  O   UNL A   1      45.032  24.251  37.650  1.00  0.00    -0.237 OA
ATOM     75  O   UNL A   1      45.663  23.076  35.566  1.00  0.00    -0.237 OA
ATOM     76  O   UNL A   1      47.397  24.156  36.945  1.00  0.00    -0.744 OA
ENDBRANCH  72  73
ENDBRANCH  53  67
BRANCH  54  77
ATOM     77  C   UNL A   1      44.781  25.415  25.994  1.00  0.00    -0.014 A 
ATOM     78  C   UNL A   1      45.872  24.834  25.317  1.00  0.00     0.010 A 
ATOM     79  C   UNL A   1      43.681  24.574  26.270  1.00  0.00     0.010 A 
ATOM     80  C   UNL A   1      45.869  23.466  24.966  1.00  0.00     0.020 A 
ATOM     81  C   UNL A   1      43.666  23.219  25.921  1.00  0.00     0.020 A 
ATOM     82  C   UNL A   1      44.769  22.663  25.285  1.00  0.00     0.054 A 
BRANCH  82  83
ATOM     83  S   UNL A   1      44.818  20.871  24.970  1.00  0.00     0.124 S 
ATOM     84  O   UNL A   1      44.568  20.799  23.533  1.00  0.00    -0.237 OA
ATOM     85  O   UNL A   1      46.167  20.510  25.397  1.00  0.00    -0.237 OA
ATOM     86  O   UNL A   1      43.744  20.344  25.812  1.00  0.00    -0.744 OA
ENDBRANCH  82  83
ENDBRANCH  54  77
BRANCH  66  87
ATOM     87  C   UNL A   1      46.520  31.142  28.263  1.00  0.00    -0.014 A 
ATOM     88  C   UNL A   1      45.345  31.702  27.715  1.00  0.00     0.010 A 
ATOM     89  C   UNL A   1      47.746  31.762  27.972  1.00  0.00     0.010 A 
ATOM     90  C   UNL A   1      45.405  32.838  26.888  1.00  0.00     0.020 A 
ATOM     91  C   UNL A   1      47.811  32.901  27.163  1.00  0.00     0.020 A 
ATOM     92  C   UNL A   1      46.641  33.432  26.620  1.00  0.00     0.054 A 
BRANCH  92  93
ATOM     93  S   UNL A   1      46.715  34.930  25.594  1.00  0.00     0.124 S 
ATOM     94  O   UNL A   1      48.121  34.977  25.201  1.00  0.00    -0.237 OA
ATOM     95  O   UNL A   1      45.770  34.635  24.519  1.00  0.00    -0.237 OA
ATOM     96  O   UNL A   1      46.292  35.996  26.502  1.00  0.00    -0.744 OA
ENDBRANCH  92  93
ENDBRANCH  66  87
ENDBRANCH  40  41
ENDBRANCH  33  35
ENDBRANCH  32  33
ENDBRANCH  31  32
ENDBRANCH  30  31
ENDBRANCH   1  30
TORSDOF 21
ENDMDL
