MODEL 1
REMARK VINA RESULT:     -11.7      0.000      0.000
REMARK SMILES N#Cc1cc2c(nc1N1CC[NH+]([C@H](C(=O)OCCOCCOC(=O)c3ccc(-c4c5nc(c(-c6ccc(S(=O)(=O)[O-])cc6)c6ccc([nH]6)c(-c6ccc(S(=O)(=O)[O-])cc6)c6nc(c(-c7ccc(S(=O)(=O)[O-])cc7)c7ccc4[nH]7)C=C6)C=C5)cc3)c3c[nH]c4cc(Cl)ccc34)CC1)CCCC2
REMARK SMILES IDX 19 1 18 2 17 3 16 4 14 5 15 6 13 7 12 8 9 9 10 10 96 11
REMARK SMILES IDX 11 12 95 13 8 15 3 16 4 17 5 18 7 19 6 20 100 21 97 22 99 23
REMARK SMILES IDX 98 24 2 25 1 26 85 27 86 28 94 29 87 30 88 31 93 32 89 34
REMARK SMILES IDX 92 35 90 36 91 37 20 38 21 39 22 40 23 41 24 42 25 43 26 44
REMARK SMILES IDX 84 45 27 46 83 47 28 48 29 49 30 50 77 51 31 52 82 53 76 54
REMARK SMILES IDX 78 55 32 56 81 57 75 58 74 59 33 61 63 62 44 63 62 64 45 65
REMARK SMILES IDX 48 66 61 67 79 68 46 69 47 70 60 72 80 73 49 74 34 75 35 76
REMARK SMILES IDX 43 77 36 78 42 79 37 80 38 81 39 82 40 83 41 84 64 85 65 86
REMARK SMILES IDX 73 87 66 88 72 89 67 90 68 91 69 92 70 93 71 94 50 95 51 96
REMARK SMILES IDX 59 97 52 98 58 99 53 100 54 101 55 102 56 103 57 104
REMARK H PARENT 12 14 87 33 78 60 48 71
REMARK Flexibility Score: inf
ROOT
ATOM      1  O   UNL A   1      33.705  30.786  26.856  1.00  0.00    -0.374 OA
ENDROOT
BRANCH   1   2
ATOM      2  C   UNL A   1      32.623  30.220  27.593  1.00  0.00     0.202 C 
BRANCH   2   3
ATOM      3  C   UNL A   1      31.782  29.120  26.904  1.00  0.00     0.261 C 
BRANCH   3   4
ATOM      4  O   UNL A   1      32.536  28.011  26.346  1.00  0.00    -0.459 OA
BRANCH   4   5
ATOM      5  C   UNL A   1      32.768  27.988  24.996  1.00  0.00     0.370 C 
ATOM      6  O   UNL A   1      33.475  28.836  24.448  1.00  0.00    -0.245 OA
BRANCH   5   7
ATOM      7  C   UNL A   1      32.137  26.784  24.170  1.00  0.00     0.328 C 
BRANCH   7   8
ATOM      8  N   UNL A   1      32.204  25.543  24.988  1.00  0.00    -0.316 N 
ATOM      9  N   UNL A   1      32.525  22.735  25.484  1.00  0.00    -0.344 N 
ATOM     10  C   UNL A   1      33.652  23.578  25.835  1.00  0.00     0.179 C 
ATOM     11  C   UNL A   1      31.222  23.312  25.776  1.00  0.00     0.179 C 
ATOM     12  C   UNL A   1      33.540  24.938  25.082  1.00  0.00     0.285 C 
ATOM     13  C   UNL A   1      31.049  24.655  25.027  1.00  0.00     0.285 C 
ATOM     14  H   UNL A   1      32.057  25.924  25.923  1.00  0.00     0.349 HD
BRANCH   9  15
ATOM     15  C   UNL A   1      32.636  21.523  24.856  1.00  0.00     0.147 A 
ATOM     16  C   UNL A   1      32.518  21.379  23.474  1.00  0.00     0.095 A 
ATOM     17  C   UNL A   1      32.391  20.122  22.891  1.00  0.00     0.029 A 
ATOM     18  C   UNL A   1      32.573  19.000  23.666  1.00  0.00    -0.025 A 
ATOM     19  N   UNL A   1      32.792  20.421  25.625  1.00  0.00    -0.234 NA
ATOM     20  C   UNL A   1      32.785  19.190  25.031  1.00  0.00     0.046 A 
ATOM     21  C   UNL A   1      32.569  17.662  22.991  1.00  0.00     0.037 C 
ATOM     22  C   UNL A   1      33.112  18.010  25.909  1.00  0.00     0.056 C 
ATOM     23  C   UNL A   1      33.239  16.592  23.837  1.00  0.00     0.005 C 
ATOM     24  C   UNL A   1      32.727  16.672  25.271  1.00  0.00     0.007 C 
BRANCH  16  25
ATOM     25  C   UNL A   1      32.861  22.394  22.564  1.00  0.00     0.103 C 
ATOM     26  N   UNL A   1      32.912  23.415  21.998  1.00  0.00    -0.192 NA
ENDBRANCH  16  25
ENDBRANCH   9  15
ENDBRANCH   7   8
BRANCH   7  27
ATOM     27  C   UNL A   1      30.865  27.033  23.245  1.00  0.00     0.046 A 
ATOM     28  C   UNL A   1      31.091  27.251  21.884  1.00  0.00     0.094 A 
ATOM     29  C   UNL A   1      29.757  27.965  23.336  1.00  0.00     0.009 A 
ATOM     30  N   UNL A   1      31.323  28.640  22.039  1.00  0.00    -0.361 N 
ATOM     31  C   UNL A   1      30.354  29.138  22.900  1.00  0.00     0.047 A 
ATOM     32  C   UNL A   1      28.349  28.003  23.172  1.00  0.00     0.012 A 
ATOM     33  H   UNL A   1      32.043  29.158  21.613  1.00  0.00     0.166 HD
ATOM     34  C   UNL A   1      29.789  30.405  23.083  1.00  0.00     0.047 A 
ATOM     35  C   UNL A   1      27.680  29.250  23.166  1.00  0.00     0.021 A 
ATOM     36  C   UNL A   1      28.406  30.432  23.218  1.00  0.00     0.043 A 
ATOM     37  Cl  UNL A   1      27.606  31.957  23.230  1.00  0.00    -0.084 Cl
ENDBRANCH   7  27
ENDBRANCH   5   7
ENDBRANCH   4   5
ENDBRANCH   3   4
ENDBRANCH   2   3
ENDBRANCH   1   2
BRANCH   1  38
ATOM     38  C   UNL A   1      34.724  31.411  27.624  1.00  0.00     0.202 C 
BRANCH  38  39
ATOM     39  C   UNL A   1      35.145  30.688  28.913  1.00  0.00     0.261 C 
BRANCH  39  40
ATOM     40  O   UNL A   1      36.056  29.588  28.686  1.00  0.00    -0.460 OA
BRANCH  40  41
ATOM     41  C   UNL A   1      36.984  29.355  29.649  1.00  0.00     0.338 C 
ATOM     42  O   UNL A   1      36.832  29.476  30.849  1.00  0.00    -0.246 OA
BRANCH  41  43
ATOM     43  C   UNL A   1      38.267  28.936  29.036  1.00  0.00     0.060 A 
ATOM     44  C   UNL A   1      39.187  28.273  29.837  1.00  0.00     0.016 A 
ATOM     45  C   UNL A   1      38.612  29.283  27.720  1.00  0.00     0.016 A 
ATOM     46  C   UNL A   1      40.477  28.055  29.353  1.00  0.00     0.010 A 
ATOM     47  C   UNL A   1      39.861  28.958  27.197  1.00  0.00     0.010 A 
ATOM     48  C   UNL A   1      40.833  28.431  28.045  1.00  0.00    -0.014 A 
BRANCH  48  49
ATOM     49  C   UNL A   1      42.258  28.423  27.636  1.00  0.00     0.031 A 
ATOM     50  C   UNL A   1      43.121  29.628  27.926  1.00  0.00     0.074 A 
ATOM     51  C   UNL A   1      42.787  27.306  27.103  1.00  0.00     0.049 A 
ATOM     52  N   UNL A   1      44.410  29.776  27.757  1.00  0.00    -0.248 NA
ATOM     53  C   UNL A   1      42.458  30.821  28.488  1.00  0.00     0.031 C 
ATOM     54  C   UNL A   1      42.041  26.084  26.797  1.00  0.00     0.029 A 
ATOM     55  N   UNL A   1      44.080  27.004  26.765  1.00  0.00    -0.354 N 
ATOM     56  C   UNL A   1      44.710  31.058  28.207  1.00  0.00     0.074 A 
ATOM     57  C   UNL A   1      43.465  31.675  28.597  1.00  0.00     0.031 C 
ATOM     58  C   UNL A   1      42.900  25.142  26.375  1.00  0.00     0.029 A 
ATOM     59  C   UNL A   1      44.245  25.709  26.332  1.00  0.00     0.049 A 
ATOM     60  H   UNL A   1      44.819  27.651  26.825  1.00  0.00     0.167 HD
ATOM     61  C   UNL A   1      45.919  31.655  28.317  1.00  0.00     0.031 A 
ATOM     62  C   UNL A   1      45.357  25.055  25.949  1.00  0.00     0.031 A 
ATOM     63  C   UNL A   1      47.155  31.033  27.928  1.00  0.00     0.049 A 
ATOM     64  C   UNL A   1      46.675  25.782  25.994  1.00  0.00     0.074 A 
ATOM     65  C   UNL A   1      48.435  31.551  27.993  1.00  0.00     0.029 A 
ATOM     66  N   UNL A   1      47.267  29.751  27.412  1.00  0.00    -0.354 N 
ATOM     67  N   UNL A   1      46.938  26.987  26.443  1.00  0.00    -0.248 NA
ATOM     68  C   UNL A   1      47.848  25.056  25.489  1.00  0.00     0.031 C 
ATOM     69  C   UNL A   1      49.315  30.607  27.460  1.00  0.00     0.029 A 
ATOM     70  C   UNL A   1      48.592  29.471  27.131  1.00  0.00     0.049 A 
ATOM     71  H   UNL A   1      46.515  29.132  27.266  1.00  0.00     0.167 HD
ATOM     72  C   UNL A   1      48.311  27.149  26.303  1.00  0.00     0.074 A 
ATOM     73  C   UNL A   1      48.825  25.911  25.756  1.00  0.00     0.031 C 
ATOM     74  C   UNL A   1      49.082  28.227  26.595  1.00  0.00     0.031 A 
BRANCH  61  75
ATOM     75  C   UNL A   1      45.985  33.045  28.898  1.00  0.00    -0.014 A 
ATOM     76  C   UNL A   1      45.804  34.175  28.079  1.00  0.00     0.010 A 
ATOM     77  C   UNL A   1      46.101  33.221  30.289  1.00  0.00     0.010 A 
ATOM     78  C   UNL A   1      45.735  35.452  28.640  1.00  0.00     0.020 A 
ATOM     79  C   UNL A   1      46.008  34.496  30.857  1.00  0.00     0.020 A 
ATOM     80  C   UNL A   1      45.823  35.605  30.028  1.00  0.00     0.054 A 
BRANCH  80  81
ATOM     81  S   UNL A   1      45.637  37.266  30.730  1.00  0.00     0.124 S 
ATOM     82  O   UNL A   1      46.760  37.979  30.125  1.00  0.00    -0.237 OA
ATOM     83  O   UNL A   1      44.314  37.663  30.256  1.00  0.00    -0.237 OA
ATOM     84  O   UNL A   1      45.742  37.051  32.170  1.00  0.00    -0.744 OA
ENDBRANCH  80  81
ENDBRANCH  61  75
BRANCH  62  85
ATOM     85  C   UNL A   1      45.281  23.641  25.485  1.00  0.00    -0.014 A 
ATOM     86  C   UNL A   1      45.076  23.341  24.127  1.00  0.00     0.010 A 
ATOM     87  C   UNL A   1      45.379  22.584  26.410  1.00  0.00     0.010 A 
ATOM     88  C   UNL A   1      44.925  22.016  23.709  1.00  0.00     0.020 A 
ATOM     89  C   UNL A   1      45.268  21.257  25.991  1.00  0.00     0.020 A 
ATOM     90  C   UNL A   1      45.020  20.982  24.646  1.00  0.00     0.054 A 
BRANCH  90  91
ATOM     91  S   UNL A   1      44.812  19.272  24.080  1.00  0.00     0.124 S 
ATOM     92  O   UNL A   1      46.098  18.679  24.429  1.00  0.00    -0.237 OA
ATOM     93  O   UNL A   1      43.669  18.819  24.869  1.00  0.00    -0.237 OA
ATOM     94  O   UNL A   1      44.556  19.413  22.648  1.00  0.00    -0.744 OA
ENDBRANCH  90  91
ENDBRANCH  62  85
BRANCH  74  95
ATOM     95  C   UNL A   1      50.564  28.104  26.362  1.00  0.00    -0.014 A 
ATOM     96  C   UNL A   1      51.420  27.613  27.362  1.00  0.00     0.010 A 
ATOM     97  C   UNL A   1      51.097  28.433  25.101  1.00  0.00     0.010 A 
ATOM     98  C   UNL A   1      52.790  27.493  27.119  1.00  0.00     0.020 A 
ATOM     99  C   UNL A   1      52.460  28.278  24.842  1.00  0.00     0.020 A 
ATOM    100  C   UNL A   1      53.301  27.824  25.860  1.00  0.00     0.054 A 
BRANCH 100 101
ATOM    101  S   UNL A   1      55.078  27.627  25.568  1.00  0.00     0.124 S 
ATOM    102  O   UNL A   1      55.642  27.995  26.864  1.00  0.00    -0.237 OA
ATOM    103  O   UNL A   1      55.186  26.214  25.214  1.00  0.00    -0.237 OA
ATOM    104  O   UNL A   1      55.359  28.562  24.481  1.00  0.00    -0.744 OA
ENDBRANCH 100 101
ENDBRANCH  74  95
ENDBRANCH  48  49
ENDBRANCH  41  43
ENDBRANCH  40  41
ENDBRANCH  39  40
ENDBRANCH  38  39
ENDBRANCH   1  38
TORSDOF 21
ENDMDL
MODEL 2
REMARK VINA RESULT:     -11.3      5.267      8.165
REMARK SMILES N#Cc1cc2c(nc1N1CC[NH+]([C@H](C(=O)OCCOCCOC(=O)c3ccc(-c4c5nc(c(-c6ccc(S(=O)(=O)[O-])cc6)c6ccc([nH]6)c(-c6ccc(S(=O)(=O)[O-])cc6)c6nc(c(-c7ccc(S(=O)(=O)[O-])cc7)c7ccc4[nH]7)C=C6)C=C5)cc3)c3c[nH]c4cc(Cl)ccc34)CC1)CCCC2
REMARK SMILES IDX 19 1 18 2 17 3 16 4 14 5 15 6 13 7 12 8 9 9 10 10 96 11
REMARK SMILES IDX 11 12 95 13 8 15 3 16 4 17 5 18 7 19 6 20 100 21 97 22 99 23
REMARK SMILES IDX 98 24 2 25 1 26 85 27 86 28 94 29 87 30 88 31 93 32 89 34
REMARK SMILES IDX 92 35 90 36 91 37 20 38 21 39 22 40 23 41 24 42 25 43 26 44
REMARK SMILES IDX 84 45 27 46 83 47 28 48 29 49 30 50 77 51 31 52 82 53 76 54
REMARK SMILES IDX 78 55 32 56 81 57 75 58 74 59 33 61 63 62 44 63 62 64 45 65
REMARK SMILES IDX 48 66 61 67 79 68 46 69 47 70 60 72 80 73 49 74 34 75 35 76
REMARK SMILES IDX 43 77 36 78 42 79 37 80 38 81 39 82 40 83 41 84 64 85 65 86
REMARK SMILES IDX 73 87 66 88 72 89 67 90 68 91 69 92 70 93 71 94 50 95 51 96
REMARK SMILES IDX 59 97 52 98 58 99 53 100 54 101 55 102 56 103 57 104
REMARK H PARENT 12 14 87 33 78 60 48 71
REMARK Flexibility Score: inf
ROOT
ATOM      1  O   UNL A   1      31.052  27.334  26.693  1.00  0.00    -0.374 OA
ENDROOT
BRANCH   1   2
ATOM      2  C   UNL A   1      31.286  25.934  26.561  1.00  0.00     0.202 C 
BRANCH   2   3
ATOM      3  C   UNL A   1      30.055  25.004  26.467  1.00  0.00     0.261 C 
BRANCH   3   4
ATOM      4  O   UNL A   1      30.334  23.630  26.082  1.00  0.00    -0.459 OA
BRANCH   4   5
ATOM      5  C   UNL A   1      31.504  23.055  26.504  1.00  0.00     0.370 C 
ATOM      6  O   UNL A   1      31.771  22.940  27.701  1.00  0.00    -0.245 OA
BRANCH   5   7
ATOM      7  C   UNL A   1      32.479  22.485  25.385  1.00  0.00     0.328 C 
BRANCH   7   8
ATOM      8  N   UNL A   1      32.593  23.480  24.284  1.00  0.00    -0.316 N 
ATOM      9  N   UNL A   1      32.200  26.000  22.968  1.00  0.00    -0.344 N 
ATOM     10  C   UNL A   1      33.523  25.765  23.513  1.00  0.00     0.179 C 
ATOM     11  C   UNL A   1      31.578  24.833  22.360  1.00  0.00     0.179 C 
ATOM     12  C   UNL A   1      33.452  24.635  24.585  1.00  0.00     0.285 C 
ATOM     13  C   UNL A   1      31.458  23.689  23.394  1.00  0.00     0.285 C 
ATOM     14  H   UNL A   1      33.144  22.953  23.608  1.00  0.00     0.349 HD
BRANCH   9  15
ATOM     15  C   UNL A   1      31.527  27.188  23.066  1.00  0.00     0.147 A 
ATOM     16  C   UNL A   1      32.152  28.377  23.439  1.00  0.00     0.095 A 
ATOM     17  C   UNL A   1      31.411  29.507  23.767  1.00  0.00     0.029 A 
ATOM     18  C   UNL A   1      30.054  29.510  23.541  1.00  0.00    -0.025 A 
ATOM     19  N   UNL A   1      30.189  27.179  22.865  1.00  0.00    -0.234 NA
ATOM     20  C   UNL A   1      29.478  28.327  23.075  1.00  0.00     0.046 A 
ATOM     21  C   UNL A   1      29.297  30.783  23.772  1.00  0.00     0.037 C 
ATOM     22  C   UNL A   1      28.021  28.305  22.693  1.00  0.00     0.056 C 
ATOM     23  C   UNL A   1      27.959  30.793  23.049  1.00  0.00     0.005 C 
ATOM     24  C   UNL A   1      27.233  29.474  23.290  1.00  0.00     0.007 C 
BRANCH  16  25
ATOM     25  C   UNL A   1      33.509  28.645  23.183  1.00  0.00     0.103 C 
ATOM     26  N   UNL A   1      34.494  29.072  22.723  1.00  0.00    -0.192 NA
ENDBRANCH  16  25
ENDBRANCH   9  15
ENDBRANCH   7   8
BRANCH   7  27
ATOM     27  C   UNL A   1      33.765  21.644  25.802  1.00  0.00     0.046 A 
ATOM     28  C   UNL A   1      33.914  21.322  27.152  1.00  0.00     0.094 A 
ATOM     29  C   UNL A   1      35.183  21.844  25.567  1.00  0.00     0.009 A 
ATOM     30  N   UNL A   1      34.537  22.550  27.483  1.00  0.00    -0.361 N 
ATOM     31  C   UNL A   1      35.475  22.828  26.498  1.00  0.00     0.047 A 
ATOM     32  C   UNL A   1      36.341  21.110  25.201  1.00  0.00     0.012 A 
ATOM     33  H   UNL A   1      34.340  23.106  28.271  1.00  0.00     0.166 HD
ATOM     34  C   UNL A   1      36.651  23.587  26.475  1.00  0.00     0.047 A 
ATOM     35  C   UNL A   1      37.613  21.720  25.302  1.00  0.00     0.021 A 
ATOM     36  C   UNL A   1      37.739  22.989  25.850  1.00  0.00     0.043 A 
ATOM     37  Cl  UNL A   1      39.279  23.751  25.963  1.00  0.00    -0.084 Cl
ENDBRANCH   7  27
ENDBRANCH   5   7
ENDBRANCH   4   5
ENDBRANCH   3   4
ENDBRANCH   2   3
ENDBRANCH   1   2
BRANCH   1  38
ATOM     38  C   UNL A   1      32.034  28.065  27.414  1.00  0.00     0.202 C 
BRANCH  38  39
ATOM     39  C   UNL A   1      32.019  29.591  27.228  1.00  0.00     0.261 C 
BRANCH  39  40
ATOM     40  O   UNL A   1      33.255  30.118  26.692  1.00  0.00    -0.460 OA
BRANCH  40  41
ATOM     41  C   UNL A   1      33.850  31.114  27.396  1.00  0.00     0.338 C 
ATOM     42  O   UNL A   1      33.351  32.177  27.715  1.00  0.00    -0.246 OA
BRANCH  41  43
ATOM     43  C   UNL A   1      35.245  30.745  27.731  1.00  0.00     0.060 A 
ATOM     44  C   UNL A   1      35.555  29.396  27.843  1.00  0.00     0.016 A 
ATOM     45  C   UNL A   1      36.217  31.710  28.039  1.00  0.00     0.016 A 
ATOM     46  C   UNL A   1      36.796  29.024  28.360  1.00  0.00     0.010 A 
ATOM     47  C   UNL A   1      37.497  31.337  28.441  1.00  0.00     0.010 A 
ATOM     48  C   UNL A   1      37.759  29.992  28.698  1.00  0.00    -0.014 A 
BRANCH  48  49
ATOM     49  C   UNL A   1      38.961  29.600  29.472  1.00  0.00     0.031 A 
ATOM     50  C   UNL A   1      39.108  30.063  30.902  1.00  0.00     0.074 A 
ATOM     51  C   UNL A   1      39.855  28.756  28.924  1.00  0.00     0.049 A 
ATOM     52  N   UNL A   1      40.019  29.737  31.783  1.00  0.00    -0.248 NA
ATOM     53  C   UNL A   1      38.099  31.008  31.419  1.00  0.00     0.031 C 
ATOM     54  C   UNL A   1      39.795  28.238  27.555  1.00  0.00     0.029 A 
ATOM     55  N   UNL A   1      40.960  28.152  29.463  1.00  0.00    -0.354 N 
ATOM     56  C   UNL A   1      39.682  30.414  32.950  1.00  0.00     0.074 A 
ATOM     57  C   UNL A   1      38.523  31.221  32.656  1.00  0.00     0.031 C 
ATOM     58  C   UNL A   1      40.784  27.346  27.382  1.00  0.00     0.029 A 
ATOM     59  C   UNL A   1      41.574  27.268  28.606  1.00  0.00     0.049 A 
ATOM     60  H   UNL A   1      41.284  28.333  30.374  1.00  0.00     0.167 HD
ATOM     61  C   UNL A   1      40.266  30.343  34.169  1.00  0.00     0.031 A 
ATOM     62  C   UNL A   1      42.651  26.482  28.793  1.00  0.00     0.031 A 
ATOM     63  C   UNL A   1      41.420  29.534  34.455  1.00  0.00     0.049 A 
ATOM     64  C   UNL A   1      43.335  26.500  30.134  1.00  0.00     0.074 A 
ATOM     65  C   UNL A   1      42.094  29.393  35.654  1.00  0.00     0.029 A 
ATOM     66  N   UNL A   1      42.064  28.721  33.535  1.00  0.00    -0.354 N 
ATOM     67  N   UNL A   1      42.986  27.132  31.230  1.00  0.00    -0.248 NA
ATOM     68  C   UNL A   1      44.553  25.689  30.265  1.00  0.00     0.031 C 
ATOM     69  C   UNL A   1      43.182  28.543  35.445  1.00  0.00     0.029 A 
ATOM     70  C   UNL A   1      43.143  28.095  34.134  1.00  0.00     0.049 A 
ATOM     71  H   UNL A   1      41.794  28.606  32.595  1.00  0.00     0.167 HD
ATOM     72  C   UNL A   1      43.926  26.769  32.189  1.00  0.00     0.074 A 
ATOM     73  C   UNL A   1      44.837  25.842  31.551  1.00  0.00     0.031 C 
ATOM     74  C   UNL A   1      44.031  27.169  33.481  1.00  0.00     0.031 A 
BRANCH  61  75
ATOM     75  C   UNL A   1      39.669  31.139  35.301  1.00  0.00    -0.014 A 
ATOM     76  C   UNL A   1      38.547  30.658  36.002  1.00  0.00     0.010 A 
ATOM     77  C   UNL A   1      40.305  32.311  35.750  1.00  0.00     0.010 A 
ATOM     78  C   UNL A   1      38.077  31.332  37.132  1.00  0.00     0.020 A 
ATOM     79  C   UNL A   1      39.852  32.974  36.896  1.00  0.00     0.020 A 
ATOM     80  C   UNL A   1      38.740  32.478  37.581  1.00  0.00     0.054 A 
BRANCH  80  81
ATOM     81  S   UNL A   1      38.159  33.274  39.103  1.00  0.00     0.124 S 
ATOM     82  O   UNL A   1      38.784  32.450  40.135  1.00  0.00    -0.237 OA
ATOM     83  O   UNL A   1      38.692  34.628  38.975  1.00  0.00    -0.237 OA
ATOM     84  O   UNL A   1      36.705  33.167  39.020  1.00  0.00    -0.744 OA
ENDBRANCH  80  81
ENDBRANCH  61  75
BRANCH  62  85
ATOM     85  C   UNL A   1      43.156  25.617  27.690  1.00  0.00    -0.014 A 
ATOM     86  C   UNL A   1      42.722  24.285  27.566  1.00  0.00     0.010 A 
ATOM     87  C   UNL A   1      44.102  26.114  26.774  1.00  0.00     0.010 A 
ATOM     88  C   UNL A   1      43.258  23.455  26.578  1.00  0.00     0.020 A 
ATOM     89  C   UNL A   1      44.612  25.299  25.761  1.00  0.00     0.020 A 
ATOM     90  C   UNL A   1      44.202  23.967  25.683  1.00  0.00     0.054 A 
BRANCH  90  91
ATOM     91  S   UNL A   1      44.889  22.867  24.416  1.00  0.00     0.124 S 
ATOM     92  O   UNL A   1      45.950  23.689  23.845  1.00  0.00    -0.237 OA
ATOM     93  O   UNL A   1      45.329  21.719  25.205  1.00  0.00    -0.237 OA
ATOM     94  O   UNL A   1      43.753  22.611  23.533  1.00  0.00    -0.744 OA
ENDBRANCH  90  91
ENDBRANCH  62  85
BRANCH  74  95
ATOM     95  C   UNL A   1      45.149  26.581  34.300  1.00  0.00    -0.014 A 
ATOM     96  C   UNL A   1      46.325  27.307  34.555  1.00  0.00     0.010 A 
ATOM     97  C   UNL A   1      44.994  25.303  34.871  1.00  0.00     0.010 A 
ATOM     98  C   UNL A   1      47.344  26.749  35.330  1.00  0.00     0.020 A 
ATOM     99  C   UNL A   1      45.994  24.758  35.678  1.00  0.00     0.020 A 
ATOM    100  C   UNL A   1      47.171  25.479  35.888  1.00  0.00     0.054 A 
BRANCH 100 101
ATOM    101  S   UNL A   1      48.499  24.798  36.915  1.00  0.00     0.124 S 
ATOM    102  O   UNL A   1      47.755  24.233  38.038  1.00  0.00    -0.237 OA
ATOM    103  O   UNL A   1      49.123  23.826  36.022  1.00  0.00    -0.237 OA
ATOM    104  O   UNL A   1      49.322  25.962  37.238  1.00  0.00    -0.744 OA
ENDBRANCH 100 101
ENDBRANCH  74  95
ENDBRANCH  48  49
ENDBRANCH  41  43
ENDBRANCH  40  41
ENDBRANCH  39  40
ENDBRANCH  38  39
ENDBRANCH   1  38
TORSDOF 21
ENDMDL
MODEL 3
REMARK VINA RESULT:     -11.0      4.511      7.013
REMARK SMILES N#Cc1cc2c(nc1N1CC[NH+]([C@H](C(=O)OCCOCCOC(=O)c3ccc(-c4c5nc(c(-c6ccc(S(=O)(=O)[O-])cc6)c6ccc([nH]6)c(-c6ccc(S(=O)(=O)[O-])cc6)c6nc(c(-c7ccc(S(=O)(=O)[O-])cc7)c7ccc4[nH]7)C=C6)C=C5)cc3)c3c[nH]c4cc(Cl)ccc34)CC1)CCCC2
REMARK SMILES IDX 19 1 18 2 17 3 16 4 14 5 15 6 13 7 12 8 9 9 10 10 96 11
REMARK SMILES IDX 11 12 95 13 8 15 3 16 4 17 5 18 7 19 6 20 100 21 97 22 99 23
REMARK SMILES IDX 98 24 2 25 1 26 85 27 86 28 94 29 87 30 88 31 93 32 89 34
REMARK SMILES IDX 92 35 90 36 91 37 20 38 21 39 22 40 23 41 24 42 25 43 26 44
REMARK SMILES IDX 84 45 27 46 83 47 28 48 29 49 30 50 77 51 31 52 82 53 76 54
REMARK SMILES IDX 78 55 32 56 81 57 75 58 74 59 33 61 63 62 44 63 62 64 45 65
REMARK SMILES IDX 48 66 61 67 79 68 46 69 47 70 60 72 80 73 49 74 34 75 35 76
REMARK SMILES IDX 43 77 36 78 42 79 37 80 38 81 39 82 40 83 41 84 64 85 65 86
REMARK SMILES IDX 73 87 66 88 72 89 67 90 68 91 69 92 70 93 71 94 50 95 51 96
REMARK SMILES IDX 59 97 52 98 58 99 53 100 54 101 55 102 56 103 57 104
REMARK H PARENT 12 14 87 33 78 60 48 71
REMARK Flexibility Score: inf
ROOT
ATOM      1  O   UNL A   1      31.130  27.421  26.399  1.00  0.00    -0.374 OA
ENDROOT
BRANCH   1   2
ATOM      2  C   UNL A   1      31.354  26.018  26.519  1.00  0.00     0.202 C 
BRANCH   2   3
ATOM      3  C   UNL A   1      30.118  25.090  26.524  1.00  0.00     0.261 C 
BRANCH   3   4
ATOM      4  O   UNL A   1      30.370  23.709  26.148  1.00  0.00    -0.459 OA
BRANCH   4   5
ATOM      5  C   UNL A   1      31.539  23.120  26.554  1.00  0.00     0.370 C 
ATOM      6  O   UNL A   1      31.849  23.056  27.745  1.00  0.00    -0.245 OA
BRANCH   5   7
ATOM      7  C   UNL A   1      32.453  22.466  25.429  1.00  0.00     0.328 C 
BRANCH   7   8
ATOM      8  N   UNL A   1      32.647  23.447  24.327  1.00  0.00    -0.316 N 
ATOM      9  N   UNL A   1      32.292  25.921  22.918  1.00  0.00    -0.344 N 
ATOM     10  C   UNL A   1      33.552  25.761  23.618  1.00  0.00     0.179 C 
ATOM     11  C   UNL A   1      31.802  24.714  22.268  1.00  0.00     0.179 C 
ATOM     12  C   UNL A   1      33.410  24.648  24.699  1.00  0.00     0.285 C 
ATOM     13  C   UNL A   1      31.615  23.583  23.307  1.00  0.00     0.285 C 
ATOM     14  H   UNL A   1      33.298  22.936  23.732  1.00  0.00     0.349 HD
BRANCH   9  15
ATOM     15  C   UNL A   1      31.556  27.076  22.911  1.00  0.00     0.147 A 
ATOM     16  C   UNL A   1      32.143  28.340  22.896  1.00  0.00     0.095 A 
ATOM     17  C   UNL A   1      31.390  29.485  23.134  1.00  0.00     0.029 A 
ATOM     18  C   UNL A   1      30.019  29.387  23.200  1.00  0.00    -0.025 A 
ATOM     19  N   UNL A   1      30.210  26.972  22.998  1.00  0.00    -0.234 NA
ATOM     20  C   UNL A   1      29.462  28.110  23.114  1.00  0.00     0.046 A 
ATOM     21  C   UNL A   1      29.220  30.649  23.319  1.00  0.00     0.037 C 
ATOM     22  C   UNL A   1      27.965  27.950  23.056  1.00  0.00     0.056 C 
ATOM     23  C   UNL A   1      27.771  30.452  22.904  1.00  0.00     0.005 C 
ATOM     24  C   UNL A   1      27.216  29.189  23.554  1.00  0.00     0.007 C 
BRANCH  16  25
ATOM     25  C   UNL A   1      33.397  28.598  22.314  1.00  0.00     0.103 C 
ATOM     26  N   UNL A   1      34.521  28.521  22.007  1.00  0.00    -0.192 NA
ENDBRANCH  16  25
ENDBRANCH   9  15
ENDBRANCH   7   8
BRANCH   7  27
ATOM     27  C   UNL A   1      33.662  21.515  25.839  1.00  0.00     0.046 A 
ATOM     28  C   UNL A   1      33.826  21.230  27.197  1.00  0.00     0.094 A 
ATOM     29  C   UNL A   1      35.084  21.561  25.552  1.00  0.00     0.009 A 
ATOM     30  N   UNL A   1      34.581  22.400  27.457  1.00  0.00    -0.361 N 
ATOM     31  C   UNL A   1      35.506  22.545  26.432  1.00  0.00     0.047 A 
ATOM     32  C   UNL A   1      36.148  20.700  25.179  1.00  0.00     0.012 A 
ATOM     33  H   UNL A   1      34.469  23.003  28.228  1.00  0.00     0.166 HD
ATOM     34  C   UNL A   1      36.750  23.179  26.341  1.00  0.00     0.047 A 
ATOM     35  C   UNL A   1      37.479  21.181  25.215  1.00  0.00     0.021 A 
ATOM     36  C   UNL A   1      37.750  22.450  25.706  1.00  0.00     0.043 A 
ATOM     37  Cl  UNL A   1      39.362  23.056  25.738  1.00  0.00    -0.084 Cl
ENDBRANCH   7  27
ENDBRANCH   5   7
ENDBRANCH   4   5
ENDBRANCH   3   4
ENDBRANCH   2   3
ENDBRANCH   1   2
BRANCH   1  38
ATOM     38  C   UNL A   1      31.510  28.212  27.516  1.00  0.00     0.202 C 
BRANCH  38  39
ATOM     39  C   UNL A   1      31.883  29.673  27.221  1.00  0.00     0.261 C 
BRANCH  39  40
ATOM     40  O   UNL A   1      33.239  30.009  27.597  1.00  0.00    -0.460 OA
BRANCH  40  41
ATOM     41  C   UNL A   1      34.230  29.522  26.808  1.00  0.00     0.338 C 
ATOM     42  O   UNL A   1      34.107  29.054  25.692  1.00  0.00    -0.246 OA
BRANCH  41  43
ATOM     43  C   UNL A   1      35.534  29.615  27.505  1.00  0.00     0.060 A 
ATOM     44  C   UNL A   1      36.639  30.026  26.770  1.00  0.00     0.016 A 
ATOM     45  C   UNL A   1      35.698  29.200  28.836  1.00  0.00     0.016 A 
ATOM     46  C   UNL A   1      37.909  29.921  27.337  1.00  0.00     0.010 A 
ATOM     47  C   UNL A   1      36.953  29.209  29.441  1.00  0.00     0.010 A 
ATOM     48  C   UNL A   1      38.077  29.476  28.661  1.00  0.00    -0.014 A 
BRANCH  48  49
ATOM     49  C   UNL A   1      39.431  29.134  29.160  1.00  0.00     0.031 A 
ATOM     50  C   UNL A   1      40.102  30.040  30.165  1.00  0.00     0.074 A 
ATOM     51  C   UNL A   1      40.000  27.973  28.788  1.00  0.00     0.049 A 
ATOM     52  N   UNL A   1      41.226  29.862  30.810  1.00  0.00    -0.248 NA
ATOM     53  C   UNL A   1      39.423  31.307  30.500  1.00  0.00     0.031 C 
ATOM     54  C   UNL A   1      39.427  27.021  27.835  1.00  0.00     0.029 A 
ATOM     55  N   UNL A   1      41.163  27.377  29.199  1.00  0.00    -0.354 N 
ATOM     56  C   UNL A   1      41.374  30.974  31.634  1.00  0.00     0.074 A 
ATOM     57  C   UNL A   1      40.264  31.855  31.365  1.00  0.00     0.031 C 
ATOM     58  C   UNL A   1      40.209  25.932  27.780  1.00  0.00     0.029 A 
ATOM     59  C   UNL A   1      41.362  26.130  28.654  1.00  0.00     0.049 A 
ATOM     60  H   UNL A   1      41.796  27.800  29.823  1.00  0.00     0.167 HD
ATOM     61  C   UNL A   1      42.333  31.223  32.556  1.00  0.00     0.031 A 
ATOM     62  C   UNL A   1      42.361  25.247  28.843  1.00  0.00     0.031 A 
ATOM     63  C   UNL A   1      43.435  30.338  32.820  1.00  0.00     0.049 A 
ATOM     64  C   UNL A   1      43.462  25.598  29.807  1.00  0.00     0.074 A 
ATOM     65  C   UNL A   1      44.465  30.496  33.729  1.00  0.00     0.029 A 
ATOM     66  N   UNL A   1      43.646  29.125  32.182  1.00  0.00    -0.354 N 
ATOM     67  N   UNL A   1      43.571  26.646  30.591  1.00  0.00    -0.248 NA
ATOM     68  C   UNL A   1      44.572  24.642  29.920  1.00  0.00     0.031 C 
ATOM     69  C   UNL A   1      45.332  29.409  33.600  1.00  0.00     0.029 A 
ATOM     70  C   UNL A   1      44.803  28.537  32.661  1.00  0.00     0.049 A 
ATOM     71  H   UNL A   1      43.061  28.740  31.490  1.00  0.00     0.167 HD
ATOM     72  C   UNL A   1      44.745  26.457  31.311  1.00  0.00     0.074 A 
ATOM     73  C   UNL A   1      45.293  25.184  30.891  1.00  0.00     0.031 C 
ATOM     74  C   UNL A   1      45.324  27.264  32.235  1.00  0.00     0.031 A 
BRANCH  61  75
ATOM     75  C   UNL A   1      42.236  32.486  33.372  1.00  0.00    -0.014 A 
ATOM     76  C   UNL A   1      42.915  33.652  32.973  1.00  0.00     0.010 A 
ATOM     77  C   UNL A   1      41.362  32.548  34.473  1.00  0.00     0.010 A 
ATOM     78  C   UNL A   1      42.719  34.855  33.657  1.00  0.00     0.020 A 
ATOM     79  C   UNL A   1      41.143  33.755  35.144  1.00  0.00     0.020 A 
ATOM     80  C   UNL A   1      41.823  34.903  34.730  1.00  0.00     0.054 A 
BRANCH  80  81
ATOM     81  S   UNL A   1      41.522  36.500  35.535  1.00  0.00     0.124 S 
ATOM     82  O   UNL A   1      40.064  36.533  35.610  1.00  0.00    -0.237 OA
ATOM     83  O   UNL A   1      42.212  36.344  36.813  1.00  0.00    -0.237 OA
ATOM     84  O   UNL A   1      42.119  37.470  34.621  1.00  0.00    -0.744 OA
ENDBRANCH  80  81
ENDBRANCH  61  75
BRANCH  62  85
ATOM     85  C   UNL A   1      42.374  23.951  28.107  1.00  0.00    -0.014 A 
ATOM     86  C   UNL A   1      41.717  22.823  28.628  1.00  0.00     0.010 A 
ATOM     87  C   UNL A   1      43.076  23.832  26.893  1.00  0.00     0.010 A 
ATOM     88  C   UNL A   1      41.799  21.591  27.974  1.00  0.00     0.020 A 
ATOM     89  C   UNL A   1      43.128  22.612  26.216  1.00  0.00     0.020 A 
ATOM     90  C   UNL A   1      42.507  21.493  26.773  1.00  0.00     0.054 A 
BRANCH  90  91
ATOM     91  S   UNL A   1      42.607  19.881  25.948  1.00  0.00     0.124 S 
ATOM     92  O   UNL A   1      41.250  19.718  25.437  1.00  0.00    -0.237 OA
ATOM     93  O   UNL A   1      43.642  20.108  24.943  1.00  0.00    -0.237 OA
ATOM     94  O   UNL A   1      42.983  18.968  27.026  1.00  0.00    -0.744 OA
ENDBRANCH  90  91
ENDBRANCH  62  85
BRANCH  74  95
ATOM     95  C   UNL A   1      46.597  26.782  32.878  1.00  0.00    -0.014 A 
ATOM     96  C   UNL A   1      47.854  27.146  32.367  1.00  0.00     0.010 A 
ATOM     97  C   UNL A   1      46.530  25.998  34.046  1.00  0.00     0.010 A 
ATOM     98  C   UNL A   1      49.023  26.699  32.988  1.00  0.00     0.020 A 
ATOM     99  C   UNL A   1      47.696  25.582  34.691  1.00  0.00     0.020 A 
ATOM    100  C   UNL A   1      48.936  25.922  34.147  1.00  0.00     0.054 A 
BRANCH 100 101
ATOM    101  S   UNL A   1      50.472  25.386  34.946  1.00  0.00     0.124 S 
ATOM    102  O   UNL A   1      50.140  24.026  35.360  1.00  0.00    -0.237 OA
ATOM    103  O   UNL A   1      51.447  25.495  33.865  1.00  0.00    -0.237 OA
ATOM    104  O   UNL A   1      50.649  26.342  36.038  1.00  0.00    -0.744 OA
ENDBRANCH 100 101
ENDBRANCH  74  95
ENDBRANCH  48  49
ENDBRANCH  41  43
ENDBRANCH  40  41
ENDBRANCH  39  40
ENDBRANCH  38  39
ENDBRANCH   1  38
TORSDOF 21
ENDMDL
