MODEL 1
REMARK VINA RESULT:      -8.6      0.000      0.000
REMARK SMILES CS(=O)(=O)c1ccc(C2=NN(c3ccc(C(=O)OCCOCCOC(=O)c4ccc(-c5c6nc(c(-c7ccc(S(=O)(=O)[O-])cc7)c7ccc([nH]7)c(-c7ccc(S(=O)(=O)[O-])cc7)c7nc(c(-c8ccc(S(=O)(=O)[O-])cc8)c8ccc5[nH]8)C=C7)C=C6)cc4)cc3)[C@H](c3cccs3)C2)cc1
REMARK SMILES IDX 21 1 20 2 19 3 18 4 16 5 17 6 15 7 12 8 13 9 88 10 14 11
REMARK SMILES IDX 87 12 11 13 9 14 10 15 95 16 89 17 8 18 5 19 6 20 97 21 7 22
REMARK SMILES IDX 96 23 2 24 1 25 3 26 4 27 90 28 91 29 94 30 92 31 93 32
REMARK SMILES IDX 22 33 23 34 24 35 25 36 26 37 27 38 28 39 86 40 29 41 85 42
REMARK SMILES IDX 30 43 31 44 32 45 79 46 33 47 84 48 78 49 80 50 34 51 83 52
REMARK SMILES IDX 77 53 76 54 35 56 65 57 46 58 64 59 47 60 50 61 63 62 81 63
REMARK SMILES IDX 48 64 49 65 62 67 82 68 51 69 36 70 37 71 45 72 38 73 44 74
REMARK SMILES IDX 39 75 40 76 41 77 42 78 43 79 66 80 67 81 75 82 68 83 74 84
REMARK SMILES IDX 69 85 70 86 71 87 72 88 73 89 52 90 53 91 61 92 54 93 60 94
REMARK SMILES IDX 55 95 56 96 57 97 58 98 59 99
REMARK H PARENT 80 55 50 66
REMARK Flexibility Score: inf
ROOT
ATOM      1  O   UNL A   1      42.985  19.893  25.027  1.00  0.00    -0.374 OA
ENDROOT
BRANCH   1   2
ATOM      2  C   UNL A   1      44.373  19.639  25.248  1.00  0.00     0.202 C 
BRANCH   2   3
ATOM      3  C   UNL A   1      45.342  20.418  24.353  1.00  0.00     0.261 C 
BRANCH   3   4
ATOM      4  O   UNL A   1      46.060  21.400  25.116  1.00  0.00    -0.460 OA
BRANCH   4   5
ATOM      5  C   UNL A   1      45.951  22.675  24.677  1.00  0.00     0.338 C 
ATOM      6  O   UNL A   1      45.522  23.042  23.592  1.00  0.00    -0.246 OA
BRANCH   5   7
ATOM      7  C   UNL A   1      46.331  23.625  25.752  1.00  0.00     0.060 A 
ATOM      8  C   UNL A   1      46.821  25.454  27.827  1.00  0.00     0.060 A 
ATOM      9  C   UNL A   1      46.077  24.296  28.071  1.00  0.00     0.029 A 
ATOM     10  C   UNL A   1      47.405  25.627  26.564  1.00  0.00     0.029 A 
ATOM     11  C   UNL A   1      45.823  23.392  27.038  1.00  0.00     0.018 A 
ATOM     12  C   UNL A   1      47.163  24.724  25.527  1.00  0.00     0.018 A 
BRANCH   8  13
ATOM     13  N   UNL A   1      46.853  26.502  28.749  1.00  0.00    -0.257 N 
ATOM     14  C   UNL A   1      46.300  28.464  29.347  1.00  0.00     0.071 C 
ATOM     15  N   UNL A   1      45.808  27.356  28.883  1.00  0.00    -0.176 NA
ATOM     16  C   UNL A   1      47.801  28.546  29.407  1.00  0.00     0.091 C 
ATOM     17  C   UNL A   1      48.162  27.101  29.051  1.00  0.00     0.154 C 
BRANCH  14  18
ATOM     18  C   UNL A   1      45.455  29.580  29.804  1.00  0.00    -0.002 A 
ATOM     19  C   UNL A   1      43.790  31.666  30.591  1.00  0.00     0.067 A 
ATOM     20  C   UNL A   1      43.573  31.040  29.361  1.00  0.00     0.021 A 
ATOM     21  C   UNL A   1      44.842  31.266  31.424  1.00  0.00     0.021 A 
ATOM     22  C   UNL A   1      44.411  29.997  28.967  1.00  0.00     0.011 A 
ATOM     23  C   UNL A   1      45.671  30.208  31.035  1.00  0.00     0.011 A 
BRANCH  19  24
ATOM     24  S   UNL A   1      42.756  33.034  31.064  1.00  0.00     0.175 S 
ATOM     25  C   UNL A   1      43.586  34.440  30.373  1.00  0.00     0.163 C 
ATOM     26  O   UNL A   1      42.812  33.142  32.511  1.00  0.00    -0.224 OA
ATOM     27  O   UNL A   1      41.488  32.884  30.380  1.00  0.00    -0.224 OA
ENDBRANCH  19  24
ENDBRANCH  14  18
BRANCH  17  28
ATOM     28  C   UNL A   1      48.969  26.327  30.073  1.00  0.00     0.030 A 
ATOM     29  C   UNL A   1      48.757  26.327  31.445  1.00  0.00     0.017 A 
ATOM     30  S   UNL A   1      50.372  25.428  29.674  1.00  0.00    -0.147 S 
ATOM     31  C   UNL A   1      49.764  25.623  32.159  1.00  0.00     0.012 A 
ATOM     32  C   UNL A   1      50.691  25.060  31.312  1.00  0.00     0.065 A 
ENDBRANCH  17  28
ENDBRANCH   8  13
ENDBRANCH   5   7
ENDBRANCH   4   5
ENDBRANCH   3   4
ENDBRANCH   2   3
ENDBRANCH   1   2
BRANCH   1  33
ATOM     33  C   UNL A   1      42.254  20.478  26.107  1.00  0.00     0.202 C 
BRANCH  33  34
ATOM     34  C   UNL A   1      42.816  21.785  26.677  1.00  0.00     0.261 C 
BRANCH  34  35
ATOM     35  O   UNL A   1      41.834  22.837  26.685  1.00  0.00    -0.460 OA
BRANCH  35  36
ATOM     36  C   UNL A   1      42.264  24.018  26.183  1.00  0.00     0.338 C 
ATOM     37  O   UNL A   1      42.808  24.206  25.105  1.00  0.00    -0.246 OA
BRANCH  36  38
ATOM     38  C   UNL A   1      41.827  25.127  27.053  1.00  0.00     0.060 A 
ATOM     39  C   UNL A   1      42.625  26.278  27.080  1.00  0.00     0.016 A 
ATOM     40  C   UNL A   1      40.704  25.025  27.878  1.00  0.00     0.016 A 
ATOM     41  C   UNL A   1      42.336  27.309  27.972  1.00  0.00     0.010 A 
ATOM     42  C   UNL A   1      40.420  26.058  28.778  1.00  0.00     0.010 A 
ATOM     43  C   UNL A   1      41.254  27.188  28.855  1.00  0.00    -0.014 A 
BRANCH  43  44
ATOM     44  C   UNL A   1      41.093  28.172  29.954  1.00  0.00     0.031 A 
ATOM     45  C   UNL A   1      42.047  28.122  31.119  1.00  0.00     0.074 A 
ATOM     46  C   UNL A   1      40.145  29.125  29.895  1.00  0.00     0.049 A 
ATOM     47  N   UNL A   1      42.074  28.862  32.197  1.00  0.00    -0.248 NA
ATOM     48  C   UNL A   1      43.112  27.107  31.060  1.00  0.00     0.031 C 
ATOM     49  C   UNL A   1      39.201  29.315  28.795  1.00  0.00     0.029 A 
ATOM     50  N   UNL A   1      39.825  30.118  30.787  1.00  0.00    -0.354 N 
ATOM     51  C   UNL A   1      43.159  28.409  32.940  1.00  0.00     0.074 A 
ATOM     52  C   UNL A   1      43.742  27.305  32.208  1.00  0.00     0.031 C 
ATOM     53  C   UNL A   1      38.403  30.360  29.080  1.00  0.00     0.029 A 
ATOM     54  C   UNL A   1      38.759  30.891  30.394  1.00  0.00     0.049 A 
ATOM     55  H   UNL A   1      40.314  30.263  31.629  1.00  0.00     0.167 HD
ATOM     56  C   UNL A   1      43.636  28.876  34.118  1.00  0.00     0.031 A 
ATOM     57  C   UNL A   1      38.130  31.899  31.030  1.00  0.00     0.031 A 
ATOM     58  C   UNL A   1      43.048  29.963  34.855  1.00  0.00     0.049 A 
ATOM     59  C   UNL A   1      38.620  32.333  32.389  1.00  0.00     0.074 A 
ATOM     60  C   UNL A   1      43.444  30.493  36.070  1.00  0.00     0.029 A 
ATOM     61  N   UNL A   1      41.940  30.688  34.445  1.00  0.00    -0.354 N 
ATOM     62  N   UNL A   1      39.644  31.889  33.078  1.00  0.00    -0.248 NA
ATOM     63  C   UNL A   1      37.872  33.412  33.051  1.00  0.00     0.031 C 
ATOM     64  C   UNL A   1      42.550  31.512  36.416  1.00  0.00     0.029 A 
ATOM     65  C   UNL A   1      41.631  31.652  35.388  1.00  0.00     0.049 A 
ATOM     66  H   UNL A   1      41.446  30.538  33.606  1.00  0.00     0.167 HD
ATOM     67  C   UNL A   1      39.682  32.660  34.237  1.00  0.00     0.074 A 
ATOM     68  C   UNL A   1      38.588  33.602  34.150  1.00  0.00     0.031 C 
ATOM     69  C   UNL A   1      40.547  32.593  35.280  1.00  0.00     0.031 A 
BRANCH  56  70
ATOM     70  C   UNL A   1      44.854  28.206  34.692  1.00  0.00    -0.014 A 
ATOM     71  C   UNL A   1      44.738  27.029  35.453  1.00  0.00     0.010 A 
ATOM     72  C   UNL A   1      46.134  28.722  34.420  1.00  0.00     0.010 A 
ATOM     73  C   UNL A   1      45.878  26.393  35.952  1.00  0.00     0.020 A 
ATOM     74  C   UNL A   1      47.278  28.075  34.896  1.00  0.00     0.020 A 
ATOM     75  C   UNL A   1      47.141  26.920  35.669  1.00  0.00     0.054 A 
BRANCH  75  76
ATOM     76  S   UNL A   1      48.606  26.048  36.292  1.00  0.00     0.124 S 
ATOM     77  O   UNL A   1      48.214  25.743  37.665  1.00  0.00    -0.237 OA
ATOM     78  O   UNL A   1      48.699  24.898  35.396  1.00  0.00    -0.237 OA
ATOM     79  O   UNL A   1      49.679  27.030  36.154  1.00  0.00    -0.744 OA
ENDBRANCH  75  76
ENDBRANCH  56  70
BRANCH  57  80
ATOM     80  C   UNL A   1      36.945  32.559  30.416  1.00  0.00    -0.014 A 
ATOM     81  C   UNL A   1      37.102  33.559  29.440  1.00  0.00     0.010 A 
ATOM     82  C   UNL A   1      35.647  32.224  30.846  1.00  0.00     0.010 A 
ATOM     83  C   UNL A   1      35.990  34.239  28.935  1.00  0.00     0.020 A 
ATOM     84  C   UNL A   1      34.531  32.880  30.323  1.00  0.00     0.020 A 
ATOM     85  C   UNL A   1      34.711  33.899  29.385  1.00  0.00     0.054 A 
BRANCH  85  86
ATOM     86  S   UNL A   1      33.278  34.788  28.717  1.00  0.00     0.124 S 
ATOM     87  O   UNL A   1      33.911  35.912  28.034  1.00  0.00    -0.237 OA
ATOM     88  O   UNL A   1      32.658  33.788  27.852  1.00  0.00    -0.237 OA
ATOM     89  O   UNL A   1      32.506  35.132  29.909  1.00  0.00    -0.744 OA
ENDBRANCH  85  86
ENDBRANCH  57  80
BRANCH  69  90
ATOM     90  C   UNL A   1      40.382  33.602  36.386  1.00  0.00    -0.014 A 
ATOM     91  C   UNL A   1      39.361  33.476  37.344  1.00  0.00     0.010 A 
ATOM     92  C   UNL A   1      41.299  34.663  36.497  1.00  0.00     0.010 A 
ATOM     93  C   UNL A   1      39.241  34.414  38.374  1.00  0.00     0.020 A 
ATOM     94  C   UNL A   1      41.199  35.586  37.540  1.00  0.00     0.020 A 
ATOM     95  C   UNL A   1      40.161  35.463  38.464  1.00  0.00     0.054 A 
BRANCH  95  96
ATOM     96  S   UNL A   1      40.009  36.644  39.835  1.00  0.00     0.124 S 
ATOM     97  O   UNL A   1      41.405  36.869  40.198  1.00  0.00    -0.237 OA
ATOM     98  O   UNL A   1      39.331  37.776  39.208  1.00  0.00    -0.237 OA
ATOM     99  O   UNL A   1      39.215  35.922  40.826  1.00  0.00    -0.744 OA
ENDBRANCH  95  96
ENDBRANCH  69  90
ENDBRANCH  43  44
ENDBRANCH  36  38
ENDBRANCH  35  36
ENDBRANCH  34  35
ENDBRANCH  33  34
ENDBRANCH   1  33
TORSDOF 21
ENDMDL
MODEL 2
REMARK VINA RESULT:      -7.0      6.444     14.757
REMARK SMILES CS(=O)(=O)c1ccc(C2=NN(c3ccc(C(=O)OCCOCCOC(=O)c4ccc(-c5c6nc(c(-c7ccc(S(=O)(=O)[O-])cc7)c7ccc([nH]7)c(-c7ccc(S(=O)(=O)[O-])cc7)c7nc(c(-c8ccc(S(=O)(=O)[O-])cc8)c8ccc5[nH]8)C=C7)C=C6)cc4)cc3)[C@H](c3cccs3)C2)cc1
REMARK SMILES IDX 21 1 20 2 19 3 18 4 16 5 17 6 15 7 12 8 13 9 88 10 14 11
REMARK SMILES IDX 87 12 11 13 9 14 10 15 95 16 89 17 8 18 5 19 6 20 97 21 7 22
REMARK SMILES IDX 96 23 2 24 1 25 3 26 4 27 90 28 91 29 94 30 92 31 93 32
REMARK SMILES IDX 22 33 23 34 24 35 25 36 26 37 27 38 28 39 86 40 29 41 85 42
REMARK SMILES IDX 30 43 31 44 32 45 79 46 33 47 84 48 78 49 80 50 34 51 83 52
REMARK SMILES IDX 77 53 76 54 35 56 65 57 46 58 64 59 47 60 50 61 63 62 81 63
REMARK SMILES IDX 48 64 49 65 62 67 82 68 51 69 36 70 37 71 45 72 38 73 44 74
REMARK SMILES IDX 39 75 40 76 41 77 42 78 43 79 66 80 67 81 75 82 68 83 74 84
REMARK SMILES IDX 69 85 70 86 71 87 72 88 73 89 52 90 53 91 61 92 54 93 60 94
REMARK SMILES IDX 55 95 56 96 57 97 58 98 59 99
REMARK H PARENT 80 55 50 66
REMARK Flexibility Score: inf
ROOT
ATOM      1  O   UNL A   1      38.358  29.813  28.627  1.00  0.00    -0.374 OA
ENDROOT
BRANCH   1   2
ATOM      2  C   UNL A   1      37.241  29.732  27.740  1.00  0.00     0.202 C 
BRANCH   2   3
ATOM      3  C   UNL A   1      35.914  30.260  28.293  1.00  0.00     0.261 C 
BRANCH   3   4
ATOM      4  O   UNL A   1      35.182  30.961  27.275  1.00  0.00    -0.460 OA
BRANCH   4   5
ATOM      5  C   UNL A   1      33.837  30.820  27.321  1.00  0.00     0.338 C 
ATOM      6  O   UNL A   1      33.020  31.681  27.614  1.00  0.00    -0.246 OA
BRANCH   5   7
ATOM      7  C   UNL A   1      33.444  29.467  26.854  1.00  0.00     0.060 A 
ATOM      8  C   UNL A   1      32.666  27.001  25.757  1.00  0.00     0.060 A 
ATOM      9  C   UNL A   1      33.747  27.702  25.215  1.00  0.00     0.029 A 
ATOM     10  C   UNL A   1      32.053  27.496  26.917  1.00  0.00     0.029 A 
ATOM     11  C   UNL A   1      34.128  28.933  25.752  1.00  0.00     0.018 A 
ATOM     12  C   UNL A   1      32.432  28.723  27.466  1.00  0.00     0.018 A 
BRANCH   8  13
ATOM     13  N   UNL A   1      32.088  25.925  25.080  1.00  0.00    -0.257 N 
ATOM     14  C   UNL A   1      32.218  23.984  24.226  1.00  0.00     0.071 C 
ATOM     15  N   UNL A   1      32.490  24.650  25.306  1.00  0.00    -0.176 NA
ATOM     16  C   UNL A   1      31.755  24.798  23.048  1.00  0.00     0.091 C 
ATOM     17  C   UNL A   1      31.595  26.167  23.715  1.00  0.00     0.154 C 
BRANCH  14  18
ATOM     18  C   UNL A   1      32.336  22.519  24.143  1.00  0.00    -0.002 A 
ATOM     19  C   UNL A   1      32.557  19.758  23.881  1.00  0.00     0.067 A 
ATOM     20  C   UNL A   1      32.220  20.529  22.766  1.00  0.00     0.021 A 
ATOM     21  C   UNL A   1      32.769  20.355  25.129  1.00  0.00     0.021 A 
ATOM     22  C   UNL A   1      32.106  21.913  22.900  1.00  0.00     0.011 A 
ATOM     23  C   UNL A   1      32.672  21.744  25.258  1.00  0.00     0.011 A 
BRANCH  19  24
ATOM     24  S   UNL A   1      32.644  17.989  23.717  1.00  0.00     0.175 S 
ATOM     25  C   UNL A   1      34.323  17.614  24.149  1.00  0.00     0.163 C 
ATOM     26  O   UNL A   1      32.459  17.672  22.312  1.00  0.00    -0.224 OA
ATOM     27  O   UNL A   1      31.783  17.410  24.728  1.00  0.00    -0.224 OA
ENDBRANCH  19  24
ENDBRANCH  14  18
BRANCH  17  28
ATOM     28  C   UNL A   1      30.217  26.795  23.664  1.00  0.00     0.030 A 
ATOM     29  C   UNL A   1      29.055  26.249  24.191  1.00  0.00     0.017 A 
ATOM     30  S   UNL A   1      29.877  28.240  22.808  1.00  0.00    -0.147 S 
ATOM     31  C   UNL A   1      27.893  26.998  23.859  1.00  0.00     0.012 A 
ATOM     32  C   UNL A   1      28.203  28.123  23.130  1.00  0.00     0.065 A 
ENDBRANCH  17  28
ENDBRANCH   8  13
ENDBRANCH   5   7
ENDBRANCH   4   5
ENDBRANCH   3   4
ENDBRANCH   2   3
ENDBRANCH   1   2
BRANCH   1  33
ATOM     33  C   UNL A   1      38.750  28.606  29.285  1.00  0.00     0.202 C 
BRANCH  33  34
ATOM     34  C   UNL A   1      39.061  27.410  28.379  1.00  0.00     0.261 C 
BRANCH  34  35
ATOM     35  O   UNL A   1      40.227  27.636  27.567  1.00  0.00    -0.460 OA
BRANCH  35  36
ATOM     36  C   UNL A   1      40.793  26.514  27.062  1.00  0.00     0.338 C 
ATOM     37  O   UNL A   1      40.233  25.622  26.441  1.00  0.00    -0.246 OA
BRANCH  36  38
ATOM     38  C   UNL A   1      42.260  26.577  27.207  1.00  0.00     0.060 A 
ATOM     39  C   UNL A   1      42.970  25.374  27.112  1.00  0.00     0.016 A 
ATOM     40  C   UNL A   1      42.926  27.770  27.500  1.00  0.00     0.016 A 
ATOM     41  C   UNL A   1      44.340  25.348  27.362  1.00  0.00     0.010 A 
ATOM     42  C   UNL A   1      44.301  27.741  27.759  1.00  0.00     0.010 A 
ATOM     43  C   UNL A   1      45.008  26.525  27.727  1.00  0.00    -0.014 A 
BRANCH  43  44
ATOM     44  C   UNL A   1      46.405  26.452  28.219  1.00  0.00     0.031 A 
ATOM     45  C   UNL A   1      46.647  26.185  29.682  1.00  0.00     0.074 A 
ATOM     46  C   UNL A   1      47.444  26.572  27.373  1.00  0.00     0.049 A 
ATOM     47  N   UNL A   1      47.779  26.107  30.333  1.00  0.00    -0.248 NA
ATOM     48  C   UNL A   1      45.456  25.973  30.522  1.00  0.00     0.031 C 
ATOM     49  C   UNL A   1      47.341  26.773  25.928  1.00  0.00     0.029 A 
ATOM     50  N   UNL A   1      48.795  26.539  27.612  1.00  0.00    -0.354 N 
ATOM     51  C   UNL A   1      47.439  25.832  31.653  1.00  0.00     0.074 A 
ATOM     52  C   UNL A   1      45.994  25.793  31.719  1.00  0.00     0.031 C 
ATOM     53  C   UNL A   1      48.580  26.849  25.409  1.00  0.00     0.029 A 
ATOM     54  C   UNL A   1      49.560  26.735  26.486  1.00  0.00     0.049 A 
ATOM     55  H   UNL A   1      49.181  26.387  28.505  1.00  0.00     0.167 HD
ATOM     56  C   UNL A   1      48.255  25.618  32.712  1.00  0.00     0.031 A 
ATOM     57  C   UNL A   1      50.897  26.831  26.346  1.00  0.00     0.031 A 
ATOM     58  C   UNL A   1      49.691  25.673  32.652  1.00  0.00     0.049 A 
ATOM     59  C   UNL A   1      51.778  26.689  27.562  1.00  0.00     0.074 A 
ATOM     60  C   UNL A   1      50.603  25.495  33.677  1.00  0.00     0.029 A 
ATOM     61  N   UNL A   1      50.425  25.922  31.503  1.00  0.00    -0.354 N 
ATOM     62  N   UNL A   1      51.439  26.435  28.803  1.00  0.00    -0.248 NA
ATOM     63  C   UNL A   1      53.226  26.840  27.353  1.00  0.00     0.031 C 
ATOM     64  C   UNL A   1      51.888  25.678  33.156  1.00  0.00     0.029 A 
ATOM     65  C   UNL A   1      51.777  25.915  31.796  1.00  0.00     0.049 A 
ATOM     66  H   UNL A   1      50.040  26.081  30.610  1.00  0.00     0.167 HD
ATOM     67  C   UNL A   1      52.634  26.360  29.513  1.00  0.00     0.074 A 
ATOM     68  C   UNL A   1      53.702  26.585  28.564  1.00  0.00     0.031 C 
ATOM     69  C   UNL A   1      52.830  26.125  30.835  1.00  0.00     0.031 A 
BRANCH  56  70
ATOM     70  C   UNL A   1      47.610  25.313  34.038  1.00  0.00    -0.014 A 
ATOM     71  C   UNL A   1      47.256  26.348  34.922  1.00  0.00     0.010 A 
ATOM     72  C   UNL A   1      47.302  23.984  34.379  1.00  0.00     0.010 A 
ATOM     73  C   UNL A   1      46.625  26.058  36.135  1.00  0.00     0.020 A 
ATOM     74  C   UNL A   1      46.648  23.691  35.579  1.00  0.00     0.020 A 
ATOM     75  C   UNL A   1      46.324  24.731  36.454  1.00  0.00     0.054 A 
BRANCH  75  76
ATOM     76  S   UNL A   1      45.465  24.387  38.016  1.00  0.00     0.124 S 
ATOM     77  O   UNL A   1      45.636  22.942  38.142  1.00  0.00    -0.237 OA
ATOM     78  O   UNL A   1      46.212  25.194  38.977  1.00  0.00    -0.237 OA
ATOM     79  O   UNL A   1      44.096  24.832  37.764  1.00  0.00    -0.744 OA
ENDBRANCH  75  76
ENDBRANCH  56  70
BRANCH  57  80
ATOM     80  C   UNL A   1      51.500  27.103  25.012  1.00  0.00    -0.014 A 
ATOM     81  C   UNL A   1      52.181  26.094  24.309  1.00  0.00     0.010 A 
ATOM     82  C   UNL A   1      51.439  28.396  24.460  1.00  0.00     0.010 A 
ATOM     83  C   UNL A   1      52.824  26.380  23.101  1.00  0.00     0.020 A 
ATOM     84  C   UNL A   1      52.055  28.681  23.238  1.00  0.00     0.020 A 
ATOM     85  C   UNL A   1      52.762  27.675  22.577  1.00  0.00     0.054 A 
BRANCH  85  86
ATOM     86  S   UNL A   1      53.598  28.029  21.006  1.00  0.00     0.124 S 
ATOM     87  O   UNL A   1      54.757  28.798  21.447  1.00  0.00    -0.237 OA
ATOM     88  O   UNL A   1      53.882  26.693  20.489  1.00  0.00    -0.237 OA
ATOM     89  O   UNL A   1      52.596  28.780  20.251  1.00  0.00    -0.744 OA
ENDBRANCH  85  86
ENDBRANCH  57  80
BRANCH  69  90
ATOM     90  C   UNL A   1      54.251  26.042  31.325  1.00  0.00    -0.014 A 
ATOM     91  C   UNL A   1      54.940  27.186  31.766  1.00  0.00     0.010 A 
ATOM     92  C   UNL A   1      54.887  24.789  31.393  1.00  0.00     0.010 A 
ATOM     93  C   UNL A   1      56.253  27.080  32.236  1.00  0.00     0.020 A 
ATOM     94  C   UNL A   1      56.188  24.676  31.887  1.00  0.00     0.020 A 
ATOM     95  C   UNL A   1      56.868  25.826  32.292  1.00  0.00     0.054 A 
BRANCH  95  96
ATOM     96  S   UNL A   1      58.558  25.710  32.944  1.00  0.00     0.124 S 
ATOM     97  O   UNL A   1      58.337  25.105  34.255  1.00  0.00    -0.237 OA
ATOM     98  O   UNL A   1      59.223  24.858  31.962  1.00  0.00    -0.237 OA
ATOM     99  O   UNL A   1      59.015  27.098  32.967  1.00  0.00    -0.744 OA
ENDBRANCH  95  96
ENDBRANCH  69  90
ENDBRANCH  43  44
ENDBRANCH  36  38
ENDBRANCH  35  36
ENDBRANCH  34  35
ENDBRANCH  33  34
ENDBRANCH   1  33
TORSDOF 21
ENDMDL
MODEL 3
REMARK VINA RESULT:      -6.9      6.402     14.228
REMARK SMILES CS(=O)(=O)c1ccc(C2=NN(c3ccc(C(=O)OCCOCCOC(=O)c4ccc(-c5c6nc(c(-c7ccc(S(=O)(=O)[O-])cc7)c7ccc([nH]7)c(-c7ccc(S(=O)(=O)[O-])cc7)c7nc(c(-c8ccc(S(=O)(=O)[O-])cc8)c8ccc5[nH]8)C=C7)C=C6)cc4)cc3)[C@H](c3cccs3)C2)cc1
REMARK SMILES IDX 21 1 20 2 19 3 18 4 16 5 17 6 15 7 12 8 13 9 88 10 14 11
REMARK SMILES IDX 87 12 11 13 9 14 10 15 95 16 89 17 8 18 5 19 6 20 97 21 7 22
REMARK SMILES IDX 96 23 2 24 1 25 3 26 4 27 90 28 91 29 94 30 92 31 93 32
REMARK SMILES IDX 22 33 23 34 24 35 25 36 26 37 27 38 28 39 86 40 29 41 85 42
REMARK SMILES IDX 30 43 31 44 32 45 79 46 33 47 84 48 78 49 80 50 34 51 83 52
REMARK SMILES IDX 77 53 76 54 35 56 65 57 46 58 64 59 47 60 50 61 63 62 81 63
REMARK SMILES IDX 48 64 49 65 62 67 82 68 51 69 36 70 37 71 45 72 38 73 44 74
REMARK SMILES IDX 39 75 40 76 41 77 42 78 43 79 66 80 67 81 75 82 68 83 74 84
REMARK SMILES IDX 69 85 70 86 71 87 72 88 73 89 52 90 53 91 61 92 54 93 60 94
REMARK SMILES IDX 55 95 56 96 57 97 58 98 59 99
REMARK H PARENT 80 55 50 66
REMARK Flexibility Score: inf
ROOT
ATOM      1  O   UNL A   1      40.801  25.505  27.360  1.00  0.00    -0.374 OA
ENDROOT
BRANCH   1   2
ATOM      2  C   UNL A   1      41.314  24.190  27.579  1.00  0.00     0.202 C 
BRANCH   2   3
ATOM      3  C   UNL A   1      40.302  23.049  27.432  1.00  0.00     0.261 C 
BRANCH   3   4
ATOM      4  O   UNL A   1      39.926  22.879  26.056  1.00  0.00    -0.460 OA
BRANCH   4   5
ATOM      5  C   UNL A   1      39.013  21.908  25.817  1.00  0.00     0.338 C 
ATOM      6  O   UNL A   1      39.129  20.717  26.065  1.00  0.00    -0.246 OA
BRANCH   5   7
ATOM      7  C   UNL A   1      37.758  22.500  25.290  1.00  0.00     0.060 A 
ATOM      8  C   UNL A   1      35.280  23.557  24.495  1.00  0.00     0.060 A 
ATOM      9  C   UNL A   1      35.900  24.017  25.660  1.00  0.00     0.029 A 
ATOM     10  C   UNL A   1      35.966  22.645  23.681  1.00  0.00     0.029 A 
ATOM     11  C   UNL A   1      37.126  23.484  26.063  1.00  0.00     0.018 A 
ATOM     12  C   UNL A   1      37.197  22.112  24.071  1.00  0.00     0.018 A 
BRANCH   8  13
ATOM     13  N   UNL A   1      33.945  23.856  24.218  1.00  0.00    -0.257 N 
ATOM     14  C   UNL A   1      32.311  25.214  24.207  1.00  0.00     0.071 C 
ATOM     15  N   UNL A   1      33.559  25.108  23.867  1.00  0.00    -0.176 NA
ATOM     16  C   UNL A   1      31.748  24.076  25.014  1.00  0.00     0.091 C 
ATOM     17  C   UNL A   1      32.915  23.088  24.935  1.00  0.00     0.154 C 
BRANCH  14  18
ATOM     18  C   UNL A   1      31.476  26.364  23.822  1.00  0.00    -0.002 A 
ATOM     19  C   UNL A   1      29.816  28.488  23.135  1.00  0.00     0.067 A 
ATOM     20  C   UNL A   1      29.250  27.270  23.518  1.00  0.00     0.021 A 
ATOM     21  C   UNL A   1      31.205  28.648  23.079  1.00  0.00     0.021 A 
ATOM     22  C   UNL A   1      30.085  26.205  23.858  1.00  0.00     0.011 A 
ATOM     23  C   UNL A   1      32.040  27.585  23.438  1.00  0.00     0.011 A 
BRANCH  19  24
ATOM     24  S   UNL A   1      28.748  29.824  22.646  1.00  0.00     0.175 S 
ATOM     25  C   UNL A   1      27.140  29.279  23.158  1.00  0.00     0.163 C 
ATOM     26  O   UNL A   1      28.763  29.883  21.195  1.00  0.00    -0.224 OA
ATOM     27  O   UNL A   1      29.100  30.983  23.439  1.00  0.00    -0.224 OA
ENDBRANCH  19  24
ENDBRANCH  14  18
BRANCH  17  28
ATOM     28  C   UNL A   1      32.622  21.734  24.322  1.00  0.00     0.030 A 
ATOM     29  C   UNL A   1      32.825  20.504  24.932  1.00  0.00     0.017 A 
ATOM     30  S   UNL A   1      32.111  21.532  22.699  1.00  0.00    -0.147 S 
ATOM     31  C   UNL A   1      32.597  19.408  24.055  1.00  0.00     0.012 A 
ATOM     32  C   UNL A   1      32.177  19.828  22.814  1.00  0.00     0.065 A 
ENDBRANCH  17  28
ENDBRANCH   8  13
ENDBRANCH   5   7
ENDBRANCH   4   5
ENDBRANCH   3   4
ENDBRANCH   2   3
ENDBRANCH   1   2
BRANCH   1  33
ATOM     33  C   UNL A   1      39.513  25.796  27.906  1.00  0.00     0.202 C 
BRANCH  33  34
ATOM     34  C   UNL A   1      39.444  26.966  28.895  1.00  0.00     0.261 C 
BRANCH  34  35
ATOM     35  O   UNL A   1      40.531  27.891  28.714  1.00  0.00    -0.460 OA
BRANCH  35  36
ATOM     36  C   UNL A   1      40.955  28.497  29.848  1.00  0.00     0.338 C 
ATOM     37  O   UNL A   1      40.366  29.357  30.487  1.00  0.00    -0.246 OA
BRANCH  36  38
ATOM     38  C   UNL A   1      42.186  27.849  30.339  1.00  0.00     0.060 A 
ATOM     39  C   UNL A   1      42.792  28.395  31.477  1.00  0.00     0.016 A 
ATOM     40  C   UNL A   1      42.778  26.776  29.667  1.00  0.00     0.016 A 
ATOM     41  C   UNL A   1      44.021  27.908  31.917  1.00  0.00     0.010 A 
ATOM     42  C   UNL A   1      44.016  26.293  30.107  1.00  0.00     0.010 A 
ATOM     43  C   UNL A   1      44.660  26.880  31.211  1.00  0.00    -0.014 A 
BRANCH  43  44
ATOM     44  C   UNL A   1      46.063  26.529  31.540  1.00  0.00     0.031 A 
ATOM     45  C   UNL A   1      47.178  27.228  30.807  1.00  0.00     0.074 A 
ATOM     46  C   UNL A   1      46.345  25.639  32.509  1.00  0.00     0.049 A 
ATOM     47  N   UNL A   1      48.471  27.060  30.913  1.00  0.00    -0.248 NA
ATOM     48  C   UNL A   1      46.784  28.256  29.828  1.00  0.00     0.031 C 
ATOM     49  C   UNL A   1      45.358  24.939  33.330  1.00  0.00     0.029 A 
ATOM     50  N   UNL A   1      47.552  25.173  32.967  1.00  0.00    -0.354 N 
ATOM     51  C   UNL A   1      49.044  27.961  30.022  1.00  0.00     0.074 A 
ATOM     52  C   UNL A   1      47.959  28.648  29.357  1.00  0.00     0.031 C 
ATOM     53  C   UNL A   1      46.001  24.129  34.191  1.00  0.00     0.029 A 
ATOM     54  C   UNL A   1      47.440  24.229  33.959  1.00  0.00     0.049 A 
ATOM     55  H   UNL A   1      48.418  25.487  32.618  1.00  0.00     0.167 HD
ATOM     56  C   UNL A   1      50.356  28.205  29.788  1.00  0.00     0.031 A 
ATOM     57  C   UNL A   1      48.389  23.513  34.594  1.00  0.00     0.031 A 
ATOM     58  C   UNL A   1      51.436  27.511  30.436  1.00  0.00     0.049 A 
ATOM     59  C   UNL A   1      49.839  23.733  34.241  1.00  0.00     0.074 A 
ATOM     60  C   UNL A   1      52.798  27.671  30.247  1.00  0.00     0.029 A 
ATOM     61  N   UNL A   1      51.279  26.528  31.400  1.00  0.00    -0.354 N 
ATOM     62  N   UNL A   1      50.362  24.586  33.392  1.00  0.00    -0.248 NA
ATOM     63  C   UNL A   1      50.826  22.897  34.939  1.00  0.00     0.031 C 
ATOM     64  C   UNL A   1      53.464  26.754  31.067  1.00  0.00     0.029 A 
ATOM     65  C   UNL A   1      52.517  26.063  31.807  1.00  0.00     0.049 A 
ATOM     66  H   UNL A   1      50.413  26.208  31.745  1.00  0.00     0.167 HD
ATOM     67  C   UNL A   1      51.740  24.412  33.483  1.00  0.00     0.074 A 
ATOM     68  C   UNL A   1      51.969  23.383  34.475  1.00  0.00     0.031 C 
ATOM     69  C   UNL A   1      52.729  25.048  32.807  1.00  0.00     0.031 A 
BRANCH  56  70
ATOM     70  C   UNL A   1      50.697  29.265  28.776  1.00  0.00    -0.014 A 
ATOM     71  C   UNL A   1      50.883  30.603  29.169  1.00  0.00     0.010 A 
ATOM     72  C   UNL A   1      50.893  28.913  27.428  1.00  0.00     0.010 A 
ATOM     73  C   UNL A   1      51.236  31.574  28.228  1.00  0.00     0.020 A 
ATOM     74  C   UNL A   1      51.271  29.876  26.489  1.00  0.00     0.020 A 
ATOM     75  C   UNL A   1      51.429  31.204  26.894  1.00  0.00     0.054 A 
BRANCH  75  76
ATOM     76  S   UNL A   1      51.930  32.477  25.702  1.00  0.00     0.124 S 
ATOM     77  O   UNL A   1      52.774  31.716  24.784  1.00  0.00    -0.237 OA
ATOM     78  O   UNL A   1      50.652  32.924  25.155  1.00  0.00    -0.237 OA
ATOM     79  O   UNL A   1      52.632  33.462  26.521  1.00  0.00    -0.744 OA
ENDBRANCH  75  76
ENDBRANCH  56  70
BRANCH  57  80
ATOM     80  C   UNL A   1      48.014  22.493  35.612  1.00  0.00    -0.014 A 
ATOM     81  C   UNL A   1      47.682  21.181  35.230  1.00  0.00     0.010 A 
ATOM     82  C   UNL A   1      47.935  22.848  36.972  1.00  0.00     0.010 A 
ATOM     83  C   UNL A   1      47.242  20.255  36.180  1.00  0.00     0.020 A 
ATOM     84  C   UNL A   1      47.523  21.917  37.929  1.00  0.00     0.020 A 
ATOM     85  C   UNL A   1      47.159  20.632  37.524  1.00  0.00     0.054 A 
BRANCH  85  86
ATOM     86  S   UNL A   1      46.590  19.417  38.744  1.00  0.00     0.124 S 
ATOM     87  O   UNL A   1      45.647  18.623  37.963  1.00  0.00    -0.237 OA
ATOM     88  O   UNL A   1      47.828  18.741  39.122  1.00  0.00    -0.237 OA
ATOM     89  O   UNL A   1      45.995  20.243  39.794  1.00  0.00    -0.744 OA
ENDBRANCH  85  86
ENDBRANCH  57  80
BRANCH  69  90
ATOM     90  C   UNL A   1      54.150  24.693  33.154  1.00  0.00    -0.014 A 
ATOM     91  C   UNL A   1      54.887  23.783  32.376  1.00  0.00     0.010 A 
ATOM     92  C   UNL A   1      54.773  25.323  34.246  1.00  0.00     0.010 A 
ATOM     93  C   UNL A   1      56.213  23.485  32.706  1.00  0.00     0.020 A 
ATOM     94  C   UNL A   1      56.105  25.049  34.563  1.00  0.00     0.020 A 
ATOM     95  C   UNL A   1      56.812  24.119  33.799  1.00  0.00     0.054 A 
BRANCH  95  96
ATOM     96  S   UNL A   1      58.547  23.746  34.182  1.00  0.00     0.124 S 
ATOM     97  O   UNL A   1      59.249  24.400  33.080  1.00  0.00    -0.237 OA
ATOM     98  O   UNL A   1      58.725  24.363  35.494  1.00  0.00    -0.237 OA
ATOM     99  O   UNL A   1      58.596  22.286  34.174  1.00  0.00    -0.744 OA
ENDBRANCH  95  96
ENDBRANCH  69  90
ENDBRANCH  43  44
ENDBRANCH  36  38
ENDBRANCH  35  36
ENDBRANCH  34  35
ENDBRANCH  33  34
ENDBRANCH   1  33
TORSDOF 21
ENDMDL
