MODEL 1
REMARK VINA RESULT:     -11.5      0.000      0.000
REMARK SMILES Cc1cc(C)c2c(O[C@@H](C)C(=O)OCCOCCOC(=O)c3ccc(-c4c5nc(c(-c6ccc(S(=O)(=O)[O-])cc6)c6ccc([nH]6)c(-c6ccc(S(=O)(=O)[O-])cc6)c6nc(c(-c7ccc(S(=O)(=O)[O-])cc7)c7ccc4[nH]7)C=C6)C=C5)cc3)nsc2n1
REMARK SMILES IDX 17 1 16 2 15 3 14 4 13 5 11 6 12 7 9 8 10 9 8 10 7 11 1 12
REMARK SMILES IDX 2 13 3 14 85 15 4 16 84 17 5 18 6 19 83 20 82 21 18 22 19 23
REMARK SMILES IDX 20 24 21 25 22 26 23 27 81 28 24 29 80 30 25 31 26 32 27 33
REMARK SMILES IDX 74 34 28 35 79 36 73 37 75 38 29 39 78 40 72 41 71 42 30 44
REMARK SMILES IDX 60 45 41 46 59 47 42 48 45 49 58 50 76 51 43 52 44 53 57 55
REMARK SMILES IDX 77 56 46 57 31 58 32 59 40 60 33 61 39 62 34 63 35 64 36 65
REMARK SMILES IDX 37 66 38 67 61 68 62 69 70 70 63 71 69 72 64 73 65 74 66 75
REMARK SMILES IDX 67 76 68 77 47 78 48 79 56 80 49 81 55 82 50 83 51 84 52 85
REMARK SMILES IDX 53 86 54 87
REMARK H PARENT 75 43 45 54
REMARK Flexibility Score: inf
ROOT
ATOM      1  C   UNL A   1      36.300  20.891  25.167  1.00  0.00     0.202 C 
ENDROOT
BRANCH   1   2
ATOM      2  O   UNL A   1      35.460  21.835  24.517  1.00  0.00    -0.374 OA
BRANCH   2   3
ATOM      3  C   UNL A   1      34.047  21.706  24.644  1.00  0.00     0.202 C 
BRANCH   3   4
ATOM      4  C   UNL A   1      33.447  21.924  26.030  1.00  0.00     0.261 C 
BRANCH   4   5
ATOM      5  O   UNL A   1      33.779  23.211  26.581  1.00  0.00    -0.461 OA
BRANCH   5   6
ATOM      6  C   UNL A   1      32.790  24.146  26.601  1.00  0.00     0.347 C 
ATOM      7  O   UNL A   1      31.723  24.025  27.195  1.00  0.00    -0.248 OA
BRANCH   6   8
ATOM      8  C   UNL A   1      33.172  25.402  25.810  1.00  0.00     0.281 C 
ATOM      9  C   UNL A   1      34.384  25.255  24.894  1.00  0.00     0.066 C 
BRANCH   8  10
ATOM     10  O   UNL A   1      33.158  26.667  26.400  1.00  0.00    -0.462 OA
BRANCH  10  11
ATOM     11  C   UNL A   1      32.339  27.665  25.994  1.00  0.00     0.236 A 
ATOM     12  C   UNL A   1      28.921  29.799  21.998  1.00  0.00     0.067 C 
ATOM     13  C   UNL A   1      29.708  29.096  23.061  1.00  0.00     0.039 A 
ATOM     14  C   UNL A   1      29.669  27.719  23.167  1.00  0.00     0.027 A 
ATOM     15  N   UNL A   1      30.366  29.867  23.928  1.00  0.00    -0.240 NA
ATOM     16  C   UNL A   1      30.387  27.033  24.176  1.00  0.00    -0.034 A 
ATOM     17  C   UNL A   1      31.101  29.204  24.837  1.00  0.00     0.147 A 
ATOM     18  C   UNL A   1      30.070  25.558  24.216  1.00  0.00     0.045 C 
ATOM     19  C   UNL A   1      31.258  27.816  25.008  1.00  0.00     0.078 A 
ATOM     20  S   UNL A   1      31.962  30.070  26.013  1.00  0.00    -0.012 S 
ATOM     21  N   UNL A   1      32.735  28.766  26.632  1.00  0.00    -0.153 NA
ENDBRANCH  10  11
ENDBRANCH   8  10
ENDBRANCH   6   8
ENDBRANCH   5   6
ENDBRANCH   4   5
ENDBRANCH   3   4
ENDBRANCH   2   3
ENDBRANCH   1   2
BRANCH   1  22
ATOM     22  C   UNL A   1      37.814  21.082  25.125  1.00  0.00     0.261 C 
BRANCH  22  23
ATOM     23  O   UNL A   1      38.283  22.344  25.580  1.00  0.00    -0.460 OA
BRANCH  23  24
ATOM     24  C   UNL A   1      39.495  22.248  26.181  1.00  0.00     0.338 C 
ATOM     25  O   UNL A   1      40.273  21.315  26.098  1.00  0.00    -0.246 OA
BRANCH  24  26
ATOM     26  C   UNL A   1      39.660  23.352  27.132  1.00  0.00     0.060 A 
ATOM     27  C   UNL A   1      38.710  24.371  27.078  1.00  0.00     0.016 A 
ATOM     28  C   UNL A   1      40.859  23.499  27.845  1.00  0.00     0.016 A 
ATOM     29  C   UNL A   1      39.040  25.599  27.611  1.00  0.00     0.010 A 
ATOM     30  C   UNL A   1      41.180  24.723  28.393  1.00  0.00     0.010 A 
ATOM     31  C   UNL A   1      40.299  25.780  28.205  1.00  0.00    -0.014 A 
BRANCH  31  32
ATOM     32  C   UNL A   1      40.604  27.094  28.730  1.00  0.00     0.031 A 
ATOM     33  C   UNL A   1      41.756  27.720  28.051  1.00  0.00     0.074 A 
ATOM     34  C   UNL A   1      39.925  27.704  29.719  1.00  0.00     0.049 A 
ATOM     35  N   UNL A   1      42.952  27.817  28.519  1.00  0.00    -0.248 NA
ATOM     36  C   UNL A   1      41.627  28.083  26.633  1.00  0.00     0.031 C 
ATOM     37  C   UNL A   1      38.651  27.328  30.331  1.00  0.00     0.029 A 
ATOM     38  N   UNL A   1      40.227  28.875  30.340  1.00  0.00    -0.354 N 
ATOM     39  C   UNL A   1      43.690  28.461  27.539  1.00  0.00     0.074 A 
ATOM     40  C   UNL A   1      42.881  28.435  26.346  1.00  0.00     0.031 C 
ATOM     41  C   UNL A   1      38.182  28.371  31.055  1.00  0.00     0.029 A 
ATOM     42  C   UNL A   1      39.185  29.426  31.073  1.00  0.00     0.049 A 
ATOM     43  H   UNL A   1      41.113  29.298  30.276  1.00  0.00     0.167 HD
ATOM     44  C   UNL A   1      44.802  29.174  27.865  1.00  0.00     0.031 A 
ATOM     45  C   UNL A   1      39.140  30.680  31.600  1.00  0.00     0.031 A 
ATOM     46  C   UNL A   1      45.262  28.861  29.196  1.00  0.00     0.049 A 
ATOM     47  C   UNL A   1      40.549  31.125  31.766  1.00  0.00     0.074 A 
ATOM     48  C   UNL A   1      45.674  27.702  29.826  1.00  0.00     0.029 A 
ATOM     49  N   UNL A   1      44.939  29.748  30.199  1.00  0.00    -0.354 N 
ATOM     50  N   UNL A   1      41.373  30.571  32.614  1.00  0.00    -0.248 NA
ATOM     51  C   UNL A   1      41.179  31.839  30.664  1.00  0.00     0.031 C 
ATOM     52  C   UNL A   1      45.123  27.783  31.137  1.00  0.00     0.029 A 
ATOM     53  C   UNL A   1      44.480  29.017  31.263  1.00  0.00     0.049 A 
ATOM     54  H   UNL A   1      45.022  30.728  30.158  1.00  0.00     0.167 HD
ATOM     55  C   UNL A   1      42.576  30.474  31.926  1.00  0.00     0.074 A 
ATOM     56  C   UNL A   1      42.418  31.347  30.762  1.00  0.00     0.031 C 
ATOM     57  C   UNL A   1      43.479  29.485  32.200  1.00  0.00     0.031 A 
BRANCH  44  58
ATOM     58  C   UNL A   1      45.200  30.443  27.159  1.00  0.00    -0.014 A 
ATOM     59  C   UNL A   1      46.573  30.740  27.041  1.00  0.00     0.010 A 
ATOM     60  C   UNL A   1      44.290  31.480  26.874  1.00  0.00     0.010 A 
ATOM     61  C   UNL A   1      47.009  32.033  26.739  1.00  0.00     0.020 A 
ATOM     62  C   UNL A   1      44.714  32.763  26.528  1.00  0.00     0.020 A 
ATOM     63  C   UNL A   1      46.074  33.040  26.498  1.00  0.00     0.054 A 
BRANCH  63  64
ATOM     64  S   UNL A   1      46.649  34.727  26.207  1.00  0.00     0.124 S 
ATOM     65  O   UNL A   1      45.392  35.454  26.068  1.00  0.00    -0.237 OA
ATOM     66  O   UNL A   1      47.413  35.003  27.421  1.00  0.00    -0.237 OA
ATOM     67  O   UNL A   1      47.446  34.611  24.988  1.00  0.00    -0.744 OA
ENDBRANCH  63  64
ENDBRANCH  44  58
BRANCH  45  68
ATOM     68  C   UNL A   1      37.978  31.612  31.617  1.00  0.00    -0.014 A 
ATOM     69  C   UNL A   1      36.652  31.139  31.526  1.00  0.00     0.010 A 
ATOM     70  C   UNL A   1      38.153  32.958  31.999  1.00  0.00     0.010 A 
ATOM     71  C   UNL A   1      35.559  31.958  31.870  1.00  0.00     0.020 A 
ATOM     72  C   UNL A   1      37.071  33.783  32.333  1.00  0.00     0.020 A 
ATOM     73  C   UNL A   1      35.778  33.271  32.294  1.00  0.00     0.054 A 
BRANCH  73  74
ATOM     74  S   UNL A   1      34.386  34.270  32.907  1.00  0.00     0.124 S 
ATOM     75  O   UNL A   1      34.046  35.083  31.742  1.00  0.00    -0.237 OA
ATOM     76  O   UNL A   1      33.406  33.254  33.277  1.00  0.00    -0.237 OA
ATOM     77  O   UNL A   1      34.961  35.010  34.030  1.00  0.00    -0.744 OA
ENDBRANCH  73  74
ENDBRANCH  45  68
BRANCH  57  78
ATOM     78  C   UNL A   1      43.309  28.646  33.448  1.00  0.00    -0.014 A 
ATOM     79  C   UNL A   1      43.631  29.087  34.745  1.00  0.00     0.010 A 
ATOM     80  C   UNL A   1      42.598  27.439  33.310  1.00  0.00     0.010 A 
ATOM     81  C   UNL A   1      43.251  28.337  35.871  1.00  0.00     0.020 A 
ATOM     82  C   UNL A   1      42.199  26.700  34.425  1.00  0.00     0.020 A 
ATOM     83  C   UNL A   1      42.529  27.150  35.702  1.00  0.00     0.054 A 
BRANCH  83  84
ATOM     84  S   UNL A   1      41.970  26.221  37.159  1.00  0.00     0.124 S 
ATOM     85  O   UNL A   1      40.719  26.891  37.502  1.00  0.00    -0.237 OA
ATOM     86  O   UNL A   1      41.837  24.860  36.645  1.00  0.00    -0.237 OA
ATOM     87  O   UNL A   1      43.052  26.405  38.127  1.00  0.00    -0.744 OA
ENDBRANCH  83  84
ENDBRANCH  57  78
ENDBRANCH  31  32
ENDBRANCH  24  26
ENDBRANCH  23  24
ENDBRANCH  22  23
ENDBRANCH   1  22
TORSDOF 19
ENDMDL
MODEL 2
REMARK VINA RESULT:     -11.3      1.320      2.097
REMARK SMILES Cc1cc(C)c2c(O[C@@H](C)C(=O)OCCOCCOC(=O)c3ccc(-c4c5nc(c(-c6ccc(S(=O)(=O)[O-])cc6)c6ccc([nH]6)c(-c6ccc(S(=O)(=O)[O-])cc6)c6nc(c(-c7ccc(S(=O)(=O)[O-])cc7)c7ccc4[nH]7)C=C6)C=C5)cc3)nsc2n1
REMARK SMILES IDX 17 1 16 2 15 3 14 4 13 5 11 6 12 7 9 8 10 9 8 10 7 11 1 12
REMARK SMILES IDX 2 13 3 14 85 15 4 16 84 17 5 18 6 19 83 20 82 21 18 22 19 23
REMARK SMILES IDX 20 24 21 25 22 26 23 27 81 28 24 29 80 30 25 31 26 32 27 33
REMARK SMILES IDX 74 34 28 35 79 36 73 37 75 38 29 39 78 40 72 41 71 42 30 44
REMARK SMILES IDX 60 45 41 46 59 47 42 48 45 49 58 50 76 51 43 52 44 53 57 55
REMARK SMILES IDX 77 56 46 57 31 58 32 59 40 60 33 61 39 62 34 63 35 64 36 65
REMARK SMILES IDX 37 66 38 67 61 68 62 69 70 70 63 71 69 72 64 73 65 74 66 75
REMARK SMILES IDX 67 76 68 77 47 78 48 79 56 80 49 81 55 82 50 83 51 84 52 85
REMARK SMILES IDX 53 86 54 87
REMARK H PARENT 75 43 45 54
REMARK Flexibility Score: inf
ROOT
ATOM      1  C   UNL A   1      36.991  21.621  25.318  1.00  0.00     0.202 C 
ENDROOT
BRANCH   1   2
ATOM      2  O   UNL A   1      35.838  20.790  25.323  1.00  0.00    -0.374 OA
BRANCH   2   3
ATOM      3  C   UNL A   1      34.583  21.348  24.941  1.00  0.00     0.202 C 
BRANCH   3   4
ATOM      4  C   UNL A   1      34.605  22.484  23.921  1.00  0.00     0.261 C 
BRANCH   4   5
ATOM      5  O   UNL A   1      33.407  22.539  23.128  1.00  0.00    -0.461 OA
BRANCH   5   6
ATOM      6  C   UNL A   1      33.091  23.741  22.572  1.00  0.00     0.347 C 
ATOM      7  O   UNL A   1      33.634  24.221  21.583  1.00  0.00    -0.248 OA
BRANCH   6   8
ATOM      8  C   UNL A   1      31.940  24.431  23.314  1.00  0.00     0.281 C 
ATOM      9  C   UNL A   1      31.052  23.509  24.146  1.00  0.00     0.066 C 
BRANCH   8  10
ATOM     10  O   UNL A   1      31.174  25.427  22.707  1.00  0.00    -0.462 OA
BRANCH  10  11
ATOM     11  C   UNL A   1      31.285  26.740  23.016  1.00  0.00     0.236 A 
ATOM     12  C   UNL A   1      32.047  30.733  26.976  1.00  0.00     0.067 C 
ATOM     13  C   UNL A   1      32.009  29.617  25.977  1.00  0.00     0.039 A 
ATOM     14  C   UNL A   1      32.711  28.449  26.206  1.00  0.00     0.027 A 
ATOM     15  N   UNL A   1      31.342  29.848  24.846  1.00  0.00    -0.240 NA
ATOM     16  C   UNL A   1      32.709  27.388  25.267  1.00  0.00    -0.034 A 
ATOM     17  C   UNL A   1      31.288  28.809  23.995  1.00  0.00     0.147 A 
ATOM     18  C   UNL A   1      33.670  26.285  25.634  1.00  0.00     0.045 C 
ATOM     19  C   UNL A   1      31.847  27.525  24.126  1.00  0.00     0.078 A 
ATOM     20  S   UNL A   1      30.492  28.985  22.507  1.00  0.00    -0.012 S 
ATOM     21  N   UNL A   1      30.621  27.410  22.076  1.00  0.00    -0.153 NA
ENDBRANCH  10  11
ENDBRANCH   8  10
ENDBRANCH   6   8
ENDBRANCH   5   6
ENDBRANCH   4   5
ENDBRANCH   3   4
ENDBRANCH   2   3
ENDBRANCH   1   2
BRANCH   1  22
ATOM     22  C   UNL A   1      38.307  21.075  25.867  1.00  0.00     0.261 C 
BRANCH  22  23
ATOM     23  O   UNL A   1      39.438  21.918  25.692  1.00  0.00    -0.460 OA
BRANCH  23  24
ATOM     24  C   UNL A   1      40.108  22.116  26.854  1.00  0.00     0.338 C 
ATOM     25  O   UNL A   1      40.286  21.296  27.736  1.00  0.00    -0.246 OA
BRANCH  24  26
ATOM     26  C   UNL A   1      40.420  23.541  27.004  1.00  0.00     0.060 A 
ATOM     27  C   UNL A   1      41.581  23.857  27.707  1.00  0.00     0.016 A 
ATOM     28  C   UNL A   1      39.453  24.512  26.703  1.00  0.00     0.016 A 
ATOM     29  C   UNL A   1      41.695  25.121  28.246  1.00  0.00     0.010 A 
ATOM     30  C   UNL A   1      39.576  25.781  27.229  1.00  0.00     0.010 A 
ATOM     31  C   UNL A   1      40.659  26.049  28.056  1.00  0.00    -0.014 A 
BRANCH  31  32
ATOM     32  C   UNL A   1      40.817  27.354  28.662  1.00  0.00     0.031 A 
ATOM     33  C   UNL A   1      41.924  28.125  28.061  1.00  0.00     0.074 A 
ATOM     34  C   UNL A   1      40.051  27.839  29.656  1.00  0.00     0.049 A 
ATOM     35  N   UNL A   1      43.090  28.309  28.579  1.00  0.00    -0.248 NA
ATOM     36  C   UNL A   1      41.807  28.555  26.662  1.00  0.00     0.031 C 
ATOM     37  C   UNL A   1      38.800  27.309  30.198  1.00  0.00     0.029 A 
ATOM     38  N   UNL A   1      40.217  28.997  30.350  1.00  0.00    -0.354 N 
ATOM     39  C   UNL A   1      43.793  29.075  27.664  1.00  0.00     0.074 A 
ATOM     40  C   UNL A   1      43.029  29.041  26.441  1.00  0.00     0.031 C 
ATOM     41  C   UNL A   1      38.209  28.260  30.960  1.00  0.00     0.029 A 
ATOM     42  C   UNL A   1      39.103  29.402  31.072  1.00  0.00     0.049 A 
ATOM     43  H   UNL A   1      41.059  29.505  30.343  1.00  0.00     0.167 HD
ATOM     44  C   UNL A   1      44.819  29.871  28.069  1.00  0.00     0.031 A 
ATOM     45  C   UNL A   1      38.920  30.614  31.664  1.00  0.00     0.031 A 
ATOM     46  C   UNL A   1      45.264  29.527  29.397  1.00  0.00     0.049 A 
ATOM     47  C   UNL A   1      40.273  31.181  31.907  1.00  0.00     0.074 A 
ATOM     48  C   UNL A   1      45.766  28.379  29.979  1.00  0.00     0.029 A 
ATOM     49  N   UNL A   1      44.824  30.321  30.433  1.00  0.00    -0.354 N 
ATOM     50  N   UNL A   1      41.119  30.661  32.753  1.00  0.00    -0.248 NA
ATOM     51  C   UNL A   1      40.865  32.014  30.869  1.00  0.00     0.031 C 
ATOM     52  C   UNL A   1      45.167  28.331  31.271  1.00  0.00     0.029 A 
ATOM     53  C   UNL A   1      44.404  29.490  31.439  1.00  0.00     0.049 A 
ATOM     54  H   UNL A   1      44.813  31.305  30.449  1.00  0.00     0.167 HD
ATOM     55  C   UNL A   1      42.347  30.718  32.107  1.00  0.00     0.074 A 
ATOM     56  C   UNL A   1      42.142  31.637  30.987  1.00  0.00     0.031 C 
ATOM     57  C   UNL A   1      43.333  29.806  32.361  1.00  0.00     0.031 A 
BRANCH  44  58
ATOM     58  C   UNL A   1      45.114  31.210  27.448  1.00  0.00    -0.014 A 
ATOM     59  C   UNL A   1      46.441  31.491  27.065  1.00  0.00     0.010 A 
ATOM     60  C   UNL A   1      44.215  32.293  27.497  1.00  0.00     0.010 A 
ATOM     61  C   UNL A   1      46.863  32.804  26.829  1.00  0.00     0.020 A 
ATOM     62  C   UNL A   1      44.614  33.601  27.220  1.00  0.00     0.020 A 
ATOM     63  C   UNL A   1      45.946  33.851  26.922  1.00  0.00     0.054 A 
BRANCH  63  64
ATOM     64  S   UNL A   1      46.525  35.550  26.713  1.00  0.00     0.124 S 
ATOM     65  O   UNL A   1      47.284  35.763  27.941  1.00  0.00    -0.237 OA
ATOM     66  O   UNL A   1      47.313  35.455  25.487  1.00  0.00    -0.237 OA
ATOM     67  O   UNL A   1      45.290  36.321  26.596  1.00  0.00    -0.744 OA
ENDBRANCH  63  64
ENDBRANCH  44  58
BRANCH  45  68
ATOM     68  C   UNL A   1      37.672  31.429  31.688  1.00  0.00    -0.014 A 
ATOM     69  C   UNL A   1      36.675  31.221  32.663  1.00  0.00     0.010 A 
ATOM     70  C   UNL A   1      37.577  32.603  30.913  1.00  0.00     0.010 A 
ATOM     71  C   UNL A   1      35.670  32.181  32.896  1.00  0.00     0.020 A 
ATOM     72  C   UNL A   1      36.575  33.558  31.131  1.00  0.00     0.020 A 
ATOM     73  C   UNL A   1      35.641  33.356  32.142  1.00  0.00     0.054 A 
BRANCH  73  74
ATOM     74  S   UNL A   1      34.457  34.673  32.561  1.00  0.00     0.124 S 
ATOM     75  O   UNL A   1      35.183  35.438  33.571  1.00  0.00    -0.237 OA
ATOM     76  O   UNL A   1      34.261  35.342  31.278  1.00  0.00    -0.237 OA
ATOM     77  O   UNL A   1      33.291  33.943  33.058  1.00  0.00    -0.744 OA
ENDBRANCH  73  74
ENDBRANCH  45  68
BRANCH  57  78
ATOM     78  C   UNL A   1      43.205  28.884  33.555  1.00  0.00    -0.014 A 
ATOM     79  C   UNL A   1      43.624  29.217  34.856  1.00  0.00     0.010 A 
ATOM     80  C   UNL A   1      42.437  27.718  33.378  1.00  0.00     0.010 A 
ATOM     81  C   UNL A   1      43.284  28.400  35.949  1.00  0.00     0.020 A 
ATOM     82  C   UNL A   1      42.077  26.914  34.461  1.00  0.00     0.020 A 
ATOM     83  C   UNL A   1      42.504  27.257  35.743  1.00  0.00     0.054 A 
BRANCH  83  84
ATOM     84  S   UNL A   1      41.997  26.245  37.163  1.00  0.00     0.124 S 
ATOM     85  O   UNL A   1      41.987  24.896  36.605  1.00  0.00    -0.237 OA
ATOM     86  O   UNL A   1      43.046  26.514  38.144  1.00  0.00    -0.237 OA
ATOM     87  O   UNL A   1      40.680  26.774  37.518  1.00  0.00    -0.744 OA
ENDBRANCH  83  84
ENDBRANCH  57  78
ENDBRANCH  31  32
ENDBRANCH  24  26
ENDBRANCH  23  24
ENDBRANCH  22  23
ENDBRANCH   1  22
TORSDOF 19
ENDMDL
MODEL 3
REMARK VINA RESULT:     -11.2      3.036      9.075
REMARK SMILES Cc1cc(C)c2c(O[C@@H](C)C(=O)OCCOCCOC(=O)c3ccc(-c4c5nc(c(-c6ccc(S(=O)(=O)[O-])cc6)c6ccc([nH]6)c(-c6ccc(S(=O)(=O)[O-])cc6)c6nc(c(-c7ccc(S(=O)(=O)[O-])cc7)c7ccc4[nH]7)C=C6)C=C5)cc3)nsc2n1
REMARK SMILES IDX 17 1 16 2 15 3 14 4 13 5 11 6 12 7 9 8 10 9 8 10 7 11 1 12
REMARK SMILES IDX 2 13 3 14 85 15 4 16 84 17 5 18 6 19 83 20 82 21 18 22 19 23
REMARK SMILES IDX 20 24 21 25 22 26 23 27 81 28 24 29 80 30 25 31 26 32 27 33
REMARK SMILES IDX 74 34 28 35 79 36 73 37 75 38 29 39 78 40 72 41 71 42 30 44
REMARK SMILES IDX 60 45 41 46 59 47 42 48 45 49 58 50 76 51 43 52 44 53 57 55
REMARK SMILES IDX 77 56 46 57 31 58 32 59 40 60 33 61 39 62 34 63 35 64 36 65
REMARK SMILES IDX 37 66 38 67 61 68 62 69 70 70 63 71 69 72 64 73 65 74 66 75
REMARK SMILES IDX 67 76 68 77 47 78 48 79 56 80 49 81 55 82 50 83 51 84 52 85
REMARK SMILES IDX 53 86 54 87
REMARK H PARENT 75 43 45 54
REMARK Flexibility Score: inf
ROOT
ATOM      1  C   UNL A   1      31.781  30.515  26.308  1.00  0.00     0.202 C 
ENDROOT
BRANCH   1   2
ATOM      2  O   UNL A   1      32.150  29.235  25.814  1.00  0.00    -0.374 OA
BRANCH   2   3
ATOM      3  C   UNL A   1      31.512  28.078  26.350  1.00  0.00     0.202 C 
BRANCH   3   4
ATOM      4  C   UNL A   1      32.414  26.971  26.890  1.00  0.00     0.261 C 
BRANCH   4   5
ATOM      5  O   UNL A   1      32.226  25.720  26.206  1.00  0.00    -0.461 OA
BRANCH   5   6
ATOM      6  C   UNL A   1      30.945  25.371  25.901  1.00  0.00     0.347 C 
ATOM      7  O   UNL A   1      29.973  25.574  26.622  1.00  0.00    -0.248 OA
BRANCH   6   8
ATOM      8  C   UNL A   1      30.844  24.712  24.522  1.00  0.00     0.281 C 
ATOM      9  C   UNL A   1      31.136  23.214  24.489  1.00  0.00     0.066 C 
BRANCH   8  10
ATOM     10  O   UNL A   1      31.349  25.331  23.378  1.00  0.00    -0.462 OA
BRANCH  10  11
ATOM     11  C   UNL A   1      31.242  26.661  23.146  1.00  0.00     0.236 A 
ATOM     12  C   UNL A   1      28.091  31.018  21.331  1.00  0.00     0.067 C 
ATOM     13  C   UNL A   1      28.796  29.844  21.937  1.00  0.00     0.039 A 
ATOM     14  C   UNL A   1      28.081  28.857  22.589  1.00  0.00     0.027 A 
ATOM     15  N   UNL A   1      30.129  29.851  21.882  1.00  0.00    -0.240 NA
ATOM     16  C   UNL A   1      28.725  27.748  23.188  1.00  0.00    -0.034 A 
ATOM     17  C   UNL A   1      30.726  28.759  22.391  1.00  0.00     0.147 A 
ATOM     18  C   UNL A   1      27.779  26.887  23.987  1.00  0.00     0.045 C 
ATOM     19  C   UNL A   1      30.142  27.624  22.983  1.00  0.00     0.078 A 
ATOM     20  S   UNL A   1      32.419  28.660  22.407  1.00  0.00    -0.012 S 
ATOM     21  N   UNL A   1      32.478  27.113  22.941  1.00  0.00    -0.153 NA
ENDBRANCH  10  11
ENDBRANCH   8  10
ENDBRANCH   6   8
ENDBRANCH   5   6
ENDBRANCH   4   5
ENDBRANCH   3   4
ENDBRANCH   2   3
ENDBRANCH   1   2
BRANCH   1  22
ATOM     22  C   UNL A   1      32.766  31.294  27.177  1.00  0.00     0.261 C 
BRANCH  22  23
ATOM     23  O   UNL A   1      34.113  30.846  27.124  1.00  0.00    -0.460 OA
BRANCH  23  24
ATOM     24  C   UNL A   1      34.965  31.730  27.701  1.00  0.00     0.338 C 
ATOM     25  O   UNL A   1      34.944  32.941  27.578  1.00  0.00    -0.246 OA
BRANCH  24  26
ATOM     26  C   UNL A   1      36.066  31.003  28.341  1.00  0.00     0.060 A 
ATOM     27  C   UNL A   1      37.087  31.774  28.893  1.00  0.00     0.016 A 
ATOM     28  C   UNL A   1      36.209  29.621  28.147  1.00  0.00     0.016 A 
ATOM     29  C   UNL A   1      38.313  31.180  29.104  1.00  0.00     0.010 A 
ATOM     30  C   UNL A   1      37.431  29.024  28.374  1.00  0.00     0.010 A 
ATOM     31  C   UNL A   1      38.490  29.825  28.780  1.00  0.00    -0.014 A 
BRANCH  31  32
ATOM     32  C   UNL A   1      39.802  29.255  29.000  1.00  0.00     0.031 A 
ATOM     33  C   UNL A   1      40.071  28.989  30.427  1.00  0.00     0.074 A 
ATOM     34  C   UNL A   1      40.694  28.981  28.030  1.00  0.00     0.049 A 
ATOM     35  N   UNL A   1      40.812  29.701  31.206  1.00  0.00    -0.248 NA
ATOM     36  C   UNL A   1      39.277  27.963  31.116  1.00  0.00     0.031 C 
ATOM     37  C   UNL A   1      40.505  28.972  26.580  1.00  0.00     0.029 A 
ATOM     38  N   UNL A   1      41.980  28.563  28.172  1.00  0.00    -0.354 N 
ATOM     39  C   UNL A   1      40.761  29.083  32.445  1.00  0.00     0.074 A 
ATOM     40  C   UNL A   1      39.672  28.140  32.378  1.00  0.00     0.031 C 
ATOM     41  C   UNL A   1      41.555  28.344  26.000  1.00  0.00     0.029 A 
ATOM     42  C   UNL A   1      42.548  28.038  27.019  1.00  0.00     0.049 A 
ATOM     43  H   UNL A   1      42.470  28.628  29.023  1.00  0.00     0.167 HD
ATOM     44  C   UNL A   1      41.778  29.230  33.335  1.00  0.00     0.031 A 
ATOM     45  C   UNL A   1      43.720  27.353  26.935  1.00  0.00     0.031 A 
ATOM     46  C   UNL A   1      42.640  30.330  32.978  1.00  0.00     0.049 A 
ATOM     47  C   UNL A   1      44.538  27.756  28.109  1.00  0.00     0.074 A 
ATOM     48  C   UNL A   1      42.447  31.685  32.791  1.00  0.00     0.029 A 
ATOM     49  N   UNL A   1      43.826  30.022  32.349  1.00  0.00    -0.354 N 
ATOM     50  N   UNL A   1      45.012  28.963  28.263  1.00  0.00    -0.248 NA
ATOM     51  C   UNL A   1      44.415  26.976  29.333  1.00  0.00     0.031 C 
ATOM     52  C   UNL A   1      43.257  32.019  31.668  1.00  0.00     0.029 A 
ATOM     53  C   UNL A   1      43.961  30.875  31.285  1.00  0.00     0.049 A 
ATOM     54  H   UNL A   1      44.460  29.318  32.615  1.00  0.00     0.167 HD
ATOM     55  C   UNL A   1      44.818  29.250  29.609  1.00  0.00     0.074 A 
ATOM     56  C   UNL A   1      44.525  27.958  30.232  1.00  0.00     0.031 C 
ATOM     57  C   UNL A   1      44.630  30.530  30.047  1.00  0.00     0.031 A 
BRANCH  44  58
ATOM     58  C   UNL A   1      42.226  28.130  34.260  1.00  0.00    -0.014 A 
ATOM     59  C   UNL A   1      42.323  28.412  35.637  1.00  0.00     0.010 A 
ATOM     60  C   UNL A   1      42.828  26.941  33.802  1.00  0.00     0.010 A 
ATOM     61  C   UNL A   1      43.061  27.589  36.494  1.00  0.00     0.020 A 
ATOM     62  C   UNL A   1      43.529  26.089  34.656  1.00  0.00     0.020 A 
ATOM     63  C   UNL A   1      43.670  26.439  35.992  1.00  0.00     0.054 A 
BRANCH  63  64
ATOM     64  S   UNL A   1      44.701  25.438  37.086  1.00  0.00     0.124 S 
ATOM     65  O   UNL A   1      46.029  25.990  36.837  1.00  0.00    -0.237 OA
ATOM     66  O   UNL A   1      44.127  25.729  38.397  1.00  0.00    -0.237 OA
ATOM     67  O   UNL A   1      44.488  24.075  36.606  1.00  0.00    -0.744 OA
ENDBRANCH  63  64
ENDBRANCH  44  58
BRANCH  45  68
ATOM     68  C   UNL A   1      44.000  26.138  26.118  1.00  0.00    -0.014 A 
ATOM     69  C   UNL A   1      45.317  25.682  25.903  1.00  0.00     0.010 A 
ATOM     70  C   UNL A   1      42.953  25.260  25.770  1.00  0.00     0.010 A 
ATOM     71  C   UNL A   1      45.571  24.380  25.426  1.00  0.00     0.020 A 
ATOM     72  C   UNL A   1      43.196  23.968  25.287  1.00  0.00     0.020 A 
ATOM     73  C   UNL A   1      44.506  23.522  25.143  1.00  0.00     0.054 A 
BRANCH  73  74
ATOM     74  S   UNL A   1      44.832  21.788  24.700  1.00  0.00     0.124 S 
ATOM     75  O   UNL A   1      46.224  21.616  25.108  1.00  0.00    -0.237 OA
ATOM     76  O   UNL A   1      43.845  21.066  25.498  1.00  0.00    -0.237 OA
ATOM     77  O   UNL A   1      44.603  21.751  23.256  1.00  0.00    -0.744 OA
ENDBRANCH  73  74
ENDBRANCH  45  68
BRANCH  57  78
ATOM     78  C   UNL A   1      44.907  31.687  29.111  1.00  0.00    -0.014 A 
ATOM     79  C   UNL A   1      46.071  32.477  29.157  1.00  0.00     0.010 A 
ATOM     80  C   UNL A   1      44.041  31.836  28.011  1.00  0.00     0.010 A 
ATOM     81  C   UNL A   1      46.356  33.392  28.130  1.00  0.00     0.020 A 
ATOM     82  C   UNL A   1      44.329  32.727  26.976  1.00  0.00     0.020 A 
ATOM     83  C   UNL A   1      45.485  33.504  27.040  1.00  0.00     0.054 A 
BRANCH  83  84
ATOM     84  S   UNL A   1      45.893  34.629  25.674  1.00  0.00     0.124 S 
ATOM     85  O   UNL A   1      47.295  34.317  25.412  1.00  0.00    -0.237 OA
ATOM     86  O   UNL A   1      44.952  34.229  24.631  1.00  0.00    -0.237 OA
ATOM     87  O   UNL A   1      45.654  35.960  26.233  1.00  0.00    -0.744 OA
ENDBRANCH  83  84
ENDBRANCH  57  78
ENDBRANCH  31  32
ENDBRANCH  24  26
ENDBRANCH  23  24
ENDBRANCH  22  23
ENDBRANCH   1  22
TORSDOF 19
ENDMDL
