MODEL 1
REMARK VINA RESULT:     -10.3      0.000      0.000
REMARK SMILES CCOC(=O)C1=NN(c2ccc(Br)cc2F)[C@](C)(C(=O)OCCOCCOC(=O)c2ccc(-c3c4nc(c(-c5ccc(S(=O)(=O)[O-])cc5)c5ccc([nH]5)c(-c5ccc(S(=O)(=O)[O-])cc5)c5nc(c(-c6ccc(S(=O)(=O)[O-])cc6)c6ccc3[nH]6)C=C5)C=C4)cc2)C1
REMARK SMILES IDX 24 1 23 2 22 3 21 4 19 5 20 6 17 7 6 8 7 9 90 10 8 11 18 12
REMARK SMILES IDX 4 13 5 14 3 15 2 16 1 17 9 18 10 19 15 20 11 21 14 22 16 23
REMARK SMILES IDX 12 24 13 25 25 26 26 27 27 28 28 29 29 30 30 31 31 32 89 33
REMARK SMILES IDX 32 34 88 35 33 36 34 37 35 38 82 39 36 40 87 41 81 42 83 43
REMARK SMILES IDX 37 44 86 45 80 46 79 47 38 49 68 50 49 51 67 52 50 53 53 54
REMARK SMILES IDX 66 55 84 56 51 57 52 58 65 60 85 61 54 62 39 63 40 64 48 65
REMARK SMILES IDX 41 66 47 67 42 68 43 69 44 70 45 71 46 72 69 73 70 74 78 75
REMARK SMILES IDX 71 76 77 77 72 78 73 79 74 80 75 81 76 82 55 83 56 84 64 85
REMARK SMILES IDX 57 86 63 87 58 88 59 89 60 90 61 91 62 92
REMARK H PARENT 83 48 53 59
REMARK Flexibility Score: inf
ROOT
ATOM      1  O   UNL A   1      35.184  22.226  24.051  1.00  0.00    -0.374 OA
ENDROOT
BRANCH   1   2
ATOM      2  C   UNL A   1      34.667  23.524  24.352  1.00  0.00     0.202 C 
BRANCH   2   3
ATOM      3  C   UNL A   1      33.535  24.038  23.457  1.00  0.00     0.261 C 
BRANCH   3   4
ATOM      4  O   UNL A   1      32.767  25.071  24.099  1.00  0.00    -0.461 OA
BRANCH   4   5
ATOM      5  C   UNL A   1      32.355  26.081  23.283  1.00  0.00     0.334 C 
ATOM      6  O   UNL A   1      32.895  26.352  22.217  1.00  0.00    -0.249 OA
BRANCH   5   7
ATOM      7  C   UNL A   1      31.065  26.748  23.787  1.00  0.00     0.163 C 
ATOM      8  C   UNL A   1      29.794  28.534  23.086  1.00  0.00     0.149 C 
ATOM      9  N   UNL A   1      30.451  29.024  24.097  1.00  0.00    -0.169 NA
ATOM     10  C   UNL A   1      30.225  27.197  22.582  1.00  0.00     0.108 C 
ATOM     11  N   UNL A   1      31.337  28.045  24.436  1.00  0.00    -0.245 N 
ATOM     12  C   UNL A   1      30.205  25.872  24.716  1.00  0.00     0.050 C 
BRANCH   8  13
ATOM     13  C   UNL A   1      28.631  29.202  22.412  1.00  0.00     0.354 C 
ATOM     14  O   UNL A   1      27.491  28.940  22.744  1.00  0.00    -0.245 OA
BRANCH  13  15
ATOM     15  O   UNL A   1      29.045  30.004  21.417  1.00  0.00    -0.461 OA
BRANCH  15  16
ATOM     16  C   UNL A   1      28.536  31.344  21.473  1.00  0.00     0.230 C 
ATOM     17  C   UNL A   1      28.628  31.911  22.878  1.00  0.00     0.049 C 
ENDBRANCH  15  16
ENDBRANCH  13  15
ENDBRANCH   8  13
BRANCH  11  18
ATOM     18  C   UNL A   1      32.380  28.240  25.330  1.00  0.00     0.097 A 
ATOM     19  C   UNL A   1      33.644  28.627  24.875  1.00  0.00     0.032 A 
ATOM     20  C   UNL A   1      32.166  28.214  26.719  1.00  0.00     0.149 A 
ATOM     21  C   UNL A   1      34.627  29.055  25.775  1.00  0.00     0.018 A 
ATOM     22  C   UNL A   1      33.119  28.671  27.622  1.00  0.00     0.057 A 
ATOM     23  F   UNL A   1      30.997  27.777  27.211  1.00  0.00    -0.205 F 
ATOM     24  C   UNL A   1      34.346  29.105  27.141  1.00  0.00     0.021 A 
ATOM     25  Br  UNL A   1      35.634  29.781  28.346  1.00  0.00    -0.051 Br
ENDBRANCH  11  18
ENDBRANCH   5   7
ENDBRANCH   4   5
ENDBRANCH   3   4
ENDBRANCH   2   3
ENDBRANCH   1   2
BRANCH   1  26
ATOM     26  C   UNL A   1      35.893  21.550  25.085  1.00  0.00     0.202 C 
BRANCH  26  27
ATOM     27  C   UNL A   1      37.419  21.624  25.035  1.00  0.00     0.261 C 
BRANCH  27  28
ATOM     28  O   UNL A   1      37.896  22.717  25.834  1.00  0.00    -0.460 OA
BRANCH  28  29
ATOM     29  C   UNL A   1      39.135  22.508  26.340  1.00  0.00     0.338 C 
ATOM     30  O   UNL A   1      39.891  21.589  26.070  1.00  0.00    -0.246 OA
BRANCH  29  31
ATOM     31  C   UNL A   1      39.558  23.663  27.153  1.00  0.00     0.060 A 
ATOM     32  C   UNL A   1      38.784  24.823  27.033  1.00  0.00     0.016 A 
ATOM     33  C   UNL A   1      40.714  23.653  27.937  1.00  0.00     0.016 A 
ATOM     34  C   UNL A   1      39.229  26.011  27.592  1.00  0.00     0.010 A 
ATOM     35  C   UNL A   1      41.160  24.851  28.504  1.00  0.00     0.010 A 
ATOM     36  C   UNL A   1      40.456  26.045  28.266  1.00  0.00    -0.014 A 
BRANCH  36  37
ATOM     37  C   UNL A   1      41.085  27.365  28.496  1.00  0.00     0.031 A 
ATOM     38  C   UNL A   1      42.416  27.649  27.849  1.00  0.00     0.074 A 
ATOM     39  C   UNL A   1      40.437  28.326  29.175  1.00  0.00     0.049 A 
ATOM     40  N   UNL A   1      43.110  28.757  27.832  1.00  0.00    -0.248 NA
ATOM     41  C   UNL A   1      43.048  26.534  27.123  1.00  0.00     0.031 C 
ATOM     42  C   UNL A   1      39.127  28.178  29.806  1.00  0.00     0.029 A 
ATOM     43  N   UNL A   1      40.792  29.625  29.430  1.00  0.00    -0.354 N 
ATOM     44  C   UNL A   1      44.262  28.470  27.107  1.00  0.00     0.074 A 
ATOM     45  C   UNL A   1      44.192  27.076  26.733  1.00  0.00     0.031 C 
ATOM     46  C   UNL A   1      38.784  29.347  30.373  1.00  0.00     0.029 A 
ATOM     47  C   UNL A   1      39.858  30.314  30.163  1.00  0.00     0.049 A 
ATOM     48  H   UNL A   1      41.636  30.025  29.118  1.00  0.00     0.167 HD
ATOM     49  C   UNL A   1      45.283  29.295  26.773  1.00  0.00     0.031 A 
ATOM     50  C   UNL A   1      39.873  31.583  30.617  1.00  0.00     0.031 A 
ATOM     51  C   UNL A   1      45.349  30.681  27.155  1.00  0.00     0.049 A 
ATOM     52  C   UNL A   1      41.032  32.474  30.266  1.00  0.00     0.074 A 
ATOM     53  C   UNL A   1      46.328  31.612  26.855  1.00  0.00     0.029 A 
ATOM     54  N   UNL A   1      44.400  31.334  27.928  1.00  0.00    -0.354 N 
ATOM     55  N   UNL A   1      42.103  32.196  29.558  1.00  0.00    -0.248 NA
ATOM     56  C   UNL A   1      40.973  33.858  30.754  1.00  0.00     0.031 C 
ATOM     57  C   UNL A   1      46.000  32.811  27.499  1.00  0.00     0.029 A 
ATOM     58  C   UNL A   1      44.781  32.647  28.139  1.00  0.00     0.049 A 
ATOM     59  H   UNL A   1      43.576  30.922  28.276  1.00  0.00     0.167 HD
ATOM     60  C   UNL A   1      42.832  33.379  29.491  1.00  0.00     0.074 A 
ATOM     61  C   UNL A   1      42.070  34.376  30.217  1.00  0.00     0.031 C 
ATOM     62  C   UNL A   1      44.018  33.623  28.878  1.00  0.00     0.031 A 
BRANCH  49  63
ATOM     63  C   UNL A   1      46.430  28.698  25.998  1.00  0.00    -0.014 A 
ATOM     64  C   UNL A   1      47.693  28.496  26.585  1.00  0.00     0.010 A 
ATOM     65  C   UNL A   1      46.238  28.334  24.653  1.00  0.00     0.010 A 
ATOM     66  C   UNL A   1      48.754  27.991  25.828  1.00  0.00     0.020 A 
ATOM     67  C   UNL A   1      47.287  27.799  23.900  1.00  0.00     0.020 A 
ATOM     68  C   UNL A   1      48.546  27.653  24.487  1.00  0.00     0.054 A 
BRANCH  68  69
ATOM     69  S   UNL A   1      49.939  27.003  23.524  1.00  0.00     0.124 S 
ATOM     70  O   UNL A   1      49.269  26.518  22.319  1.00  0.00    -0.237 OA
ATOM     71  O   UNL A   1      50.782  28.181  23.344  1.00  0.00    -0.237 OA
ATOM     72  O   UNL A   1      50.500  25.964  24.383  1.00  0.00    -0.744 OA
ENDBRANCH  68  69
ENDBRANCH  49  63
BRANCH  50  73
ATOM     73  C   UNL A   1      38.742  32.074  31.451  1.00  0.00    -0.014 A 
ATOM     74  C   UNL A   1      38.778  31.971  32.852  1.00  0.00     0.010 A 
ATOM     75  C   UNL A   1      37.632  32.683  30.838  1.00  0.00     0.010 A 
ATOM     76  C   UNL A   1      37.723  32.466  33.624  1.00  0.00     0.020 A 
ATOM     77  C   UNL A   1      36.588  33.203  31.607  1.00  0.00     0.020 A 
ATOM     78  C   UNL A   1      36.638  33.086  32.996  1.00  0.00     0.054 A 
BRANCH  78  79
ATOM     79  S   UNL A   1      35.317  33.791  34.022  1.00  0.00     0.124 S 
ATOM     80  O   UNL A   1      34.128  33.149  33.472  1.00  0.00    -0.237 OA
ATOM     81  O   UNL A   1      35.703  33.366  35.366  1.00  0.00    -0.237 OA
ATOM     82  O   UNL A   1      35.425  35.227  33.776  1.00  0.00    -0.744 OA
ENDBRANCH  78  79
ENDBRANCH  50  73
BRANCH  62  83
ATOM     83  C   UNL A   1      44.544  35.034  28.933  1.00  0.00    -0.014 A 
ATOM     84  C   UNL A   1      44.216  35.982  27.948  1.00  0.00     0.010 A 
ATOM     85  C   UNL A   1      45.370  35.420  30.006  1.00  0.00     0.010 A 
ATOM     86  C   UNL A   1      44.755  37.271  28.001  1.00  0.00     0.020 A 
ATOM     87  C   UNL A   1      45.883  36.717  30.080  1.00  0.00     0.020 A 
ATOM     88  C   UNL A   1      45.592  37.627  29.063  1.00  0.00     0.054 A 
BRANCH  88  89
ATOM     89  S   UNL A   1      46.285  39.302  29.109  1.00  0.00     0.124 S 
ATOM     90  O   UNL A   1      45.291  40.060  28.352  1.00  0.00    -0.237 OA
ATOM     91  O   UNL A   1      46.339  39.589  30.540  1.00  0.00    -0.237 OA
ATOM     92  O   UNL A   1      47.585  39.157  28.458  1.00  0.00    -0.744 OA
ENDBRANCH  88  89
ENDBRANCH  62  83
ENDBRANCH  36  37
ENDBRANCH  29  31
ENDBRANCH  28  29
ENDBRANCH  27  28
ENDBRANCH  26  27
ENDBRANCH   1  26
TORSDOF 21
ENDMDL
MODEL 2
REMARK VINA RESULT:      -9.9      5.294      7.826
REMARK SMILES CCOC(=O)C1=NN(c2ccc(Br)cc2F)[C@](C)(C(=O)OCCOCCOC(=O)c2ccc(-c3c4nc(c(-c5ccc(S(=O)(=O)[O-])cc5)c5ccc([nH]5)c(-c5ccc(S(=O)(=O)[O-])cc5)c5nc(c(-c6ccc(S(=O)(=O)[O-])cc6)c6ccc3[nH]6)C=C5)C=C4)cc2)C1
REMARK SMILES IDX 24 1 23 2 22 3 21 4 19 5 20 6 17 7 6 8 7 9 90 10 8 11 18 12
REMARK SMILES IDX 4 13 5 14 3 15 2 16 1 17 9 18 10 19 15 20 11 21 14 22 16 23
REMARK SMILES IDX 12 24 13 25 25 26 26 27 27 28 28 29 29 30 30 31 31 32 89 33
REMARK SMILES IDX 32 34 88 35 33 36 34 37 35 38 82 39 36 40 87 41 81 42 83 43
REMARK SMILES IDX 37 44 86 45 80 46 79 47 38 49 68 50 49 51 67 52 50 53 53 54
REMARK SMILES IDX 66 55 84 56 51 57 52 58 65 60 85 61 54 62 39 63 40 64 48 65
REMARK SMILES IDX 41 66 47 67 42 68 43 69 44 70 45 71 46 72 69 73 70 74 78 75
REMARK SMILES IDX 71 76 77 77 72 78 73 79 74 80 75 81 76 82 55 83 56 84 64 85
REMARK SMILES IDX 57 86 63 87 58 88 59 89 60 90 61 91 62 92
REMARK H PARENT 83 48 53 59
REMARK Flexibility Score: inf
ROOT
ATOM      1  O   UNL A   1      34.862  29.710  27.027  1.00  0.00    -0.374 OA
ENDROOT
BRANCH   1   2
ATOM      2  C   UNL A   1      33.682  29.197  26.406  1.00  0.00     0.202 C 
BRANCH   2   3
ATOM      3  C   UNL A   1      33.885  28.265  25.207  1.00  0.00     0.261 C 
BRANCH   3   4
ATOM      4  O   UNL A   1      32.857  28.431  24.215  1.00  0.00    -0.461 OA
BRANCH   4   5
ATOM      5  C   UNL A   1      32.828  27.476  23.243  1.00  0.00     0.334 C 
ATOM      6  O   UNL A   1      33.783  26.758  22.972  1.00  0.00    -0.249 OA
BRANCH   5   7
ATOM      7  C   UNL A   1      31.430  27.318  22.624  1.00  0.00     0.163 C 
ATOM      8  C   UNL A   1      29.450  28.477  22.798  1.00  0.00     0.149 C 
ATOM      9  N   UNL A   1      29.243  27.435  23.549  1.00  0.00    -0.169 NA
ATOM     10  C   UNL A   1      30.848  28.708  22.330  1.00  0.00     0.108 C 
ATOM     11  N   UNL A   1      30.452  26.808  23.603  1.00  0.00    -0.245 N 
ATOM     12  C   UNL A   1      31.382  26.460  21.346  1.00  0.00     0.050 C 
BRANCH   8  13
ATOM     13  C   UNL A   1      28.388  29.442  22.356  1.00  0.00     0.354 C 
ATOM     14  O   UNL A   1      28.253  29.714  21.179  1.00  0.00    -0.245 OA
BRANCH  13  15
ATOM     15  O   UNL A   1      27.733  29.957  23.410  1.00  0.00    -0.461 OA
BRANCH  15  16
ATOM     16  C   UNL A   1      27.702  31.390  23.457  1.00  0.00     0.230 C 
ATOM     17  C   UNL A   1      29.057  31.960  23.838  1.00  0.00     0.049 C 
ENDBRANCH  15  16
ENDBRANCH  13  15
ENDBRANCH   8  13
BRANCH  11  18
ATOM     18  C   UNL A   1      30.729  25.767  24.479  1.00  0.00     0.097 A 
ATOM     19  C   UNL A   1      30.853  24.456  24.010  1.00  0.00     0.032 A 
ATOM     20  C   UNL A   1      31.051  26.012  25.825  1.00  0.00     0.149 A 
ATOM     21  C   UNL A   1      31.363  23.447  24.835  1.00  0.00     0.018 A 
ATOM     22  C   UNL A   1      31.593  25.029  26.645  1.00  0.00     0.057 A 
ATOM     23  F   UNL A   1      30.876  27.235  26.346  1.00  0.00    -0.205 F 
ATOM     24  C   UNL A   1      31.760  23.749  26.138  1.00  0.00     0.021 A 
ATOM     25  Br  UNL A   1      32.547  22.413  27.219  1.00  0.00    -0.051 Br
ENDBRANCH  11  18
ENDBRANCH   5   7
ENDBRANCH   4   5
ENDBRANCH   3   4
ENDBRANCH   2   3
ENDBRANCH   1   2
BRANCH   1  26
ATOM     26  C   UNL A   1      34.697  30.758  27.979  1.00  0.00     0.202 C 
BRANCH  26  27
ATOM     27  C   UNL A   1      34.072  32.056  27.471  1.00  0.00     0.261 C 
BRANCH  27  28
ATOM     28  O   UNL A   1      33.279  32.669  28.499  1.00  0.00    -0.460 OA
BRANCH  28  29
ATOM     29  C   UNL A   1      33.766  33.864  28.910  1.00  0.00     0.338 C 
ATOM     30  O   UNL A   1      33.401  34.968  28.542  1.00  0.00    -0.246 OA
BRANCH  29  31
ATOM     31  C   UNL A   1      34.704  33.676  30.032  1.00  0.00     0.060 A 
ATOM     32  C   UNL A   1      35.938  34.327  29.925  1.00  0.00     0.016 A 
ATOM     33  C   UNL A   1      34.433  32.828  31.109  1.00  0.00     0.016 A 
ATOM     34  C   UNL A   1      36.952  34.037  30.824  1.00  0.00     0.010 A 
ATOM     35  C   UNL A   1      35.456  32.538  32.017  1.00  0.00     0.010 A 
ATOM     36  C   UNL A   1      36.738  33.085  31.829  1.00  0.00    -0.014 A 
BRANCH  36  37
ATOM     37  C   UNL A   1      37.923  32.511  32.505  1.00  0.00     0.031 A 
ATOM     38  C   UNL A   1      38.860  31.645  31.701  1.00  0.00     0.074 A 
ATOM     39  C   UNL A   1      38.217  32.839  33.773  1.00  0.00     0.049 A 
ATOM     40  N   UNL A   1      40.002  31.113  32.051  1.00  0.00    -0.248 NA
ATOM     41  C   UNL A   1      38.454  31.342  30.318  1.00  0.00     0.031 C 
ATOM     42  C   UNL A   1      37.408  33.702  34.632  1.00  0.00     0.029 A 
ATOM     43  N   UNL A   1      39.291  32.495  34.553  1.00  0.00    -0.354 N 
ATOM     44  C   UNL A   1      40.443  30.404  30.939  1.00  0.00     0.074 A 
ATOM     45  C   UNL A   1      39.431  30.543  29.917  1.00  0.00     0.031 C 
ATOM     46  C   UNL A   1      38.019  33.826  35.822  1.00  0.00     0.029 A 
ATOM     47  C   UNL A   1      39.247  33.035  35.815  1.00  0.00     0.049 A 
ATOM     48  H   UNL A   1      40.023  31.917  34.239  1.00  0.00     0.167 HD
ATOM     49  C   UNL A   1      41.594  29.707  30.777  1.00  0.00     0.031 A 
ATOM     50  C   UNL A   1      40.101  32.900  36.848  1.00  0.00     0.031 A 
ATOM     51  C   UNL A   1      42.594  29.567  31.802  1.00  0.00     0.049 A 
ATOM     52  C   UNL A   1      41.356  32.092  36.661  1.00  0.00     0.074 A 
ATOM     53  C   UNL A   1      43.804  28.899  31.739  1.00  0.00     0.029 A 
ATOM     54  N   UNL A   1      42.496  30.099  33.080  1.00  0.00    -0.354 N 
ATOM     55  N   UNL A   1      41.773  31.448  35.596  1.00  0.00    -0.248 NA
ATOM     56  C   UNL A   1      42.268  32.015  37.810  1.00  0.00     0.031 C 
ATOM     57  C   UNL A   1      44.409  28.976  32.999  1.00  0.00     0.029 A 
ATOM     58  C   UNL A   1      43.611  29.753  33.824  1.00  0.00     0.049 A 
ATOM     59  H   UNL A   1      41.744  30.643  33.408  1.00  0.00     0.167 HD
ATOM     60  C   UNL A   1      43.011  30.912  35.936  1.00  0.00     0.074 A 
ATOM     61  C   UNL A   1      43.279  31.324  37.300  1.00  0.00     0.031 C 
ATOM     62  C   UNL A   1      43.854  30.157  35.187  1.00  0.00     0.031 A 
BRANCH  49  63
ATOM     63  C   UNL A   1      41.798  29.004  29.459  1.00  0.00    -0.014 A 
ATOM     64  C   UNL A   1      41.370  27.679  29.254  1.00  0.00     0.010 A 
ATOM     65  C   UNL A   1      42.434  29.686  28.406  1.00  0.00     0.010 A 
ATOM     66  C   UNL A   1      41.621  27.033  28.040  1.00  0.00     0.020 A 
ATOM     67  C   UNL A   1      42.659  29.055  27.179  1.00  0.00     0.020 A 
ATOM     68  C   UNL A   1      42.271  27.723  27.012  1.00  0.00     0.054 A 
BRANCH  68  69
ATOM     69  S   UNL A   1      42.589  26.864  25.447  1.00  0.00     0.124 S 
ATOM     70  O   UNL A   1      43.874  26.220  25.714  1.00  0.00    -0.237 OA
ATOM     71  O   UNL A   1      41.445  25.962  25.338  1.00  0.00    -0.237 OA
ATOM     72  O   UNL A   1      42.626  27.940  24.461  1.00  0.00    -0.744 OA
ENDBRANCH  68  69
ENDBRANCH  49  63
BRANCH  50  73
ATOM     73  C   UNL A   1      39.785  33.554  38.148  1.00  0.00    -0.014 A 
ATOM     74  C   UNL A   1      39.073  32.871  39.148  1.00  0.00     0.010 A 
ATOM     75  C   UNL A   1      40.233  34.864  38.399  1.00  0.00     0.010 A 
ATOM     76  C   UNL A   1      38.812  33.487  40.375  1.00  0.00     0.020 A 
ATOM     77  C   UNL A   1      39.998  35.473  39.634  1.00  0.00     0.020 A 
ATOM     78  C   UNL A   1      39.284  34.782  40.613  1.00  0.00     0.054 A 
BRANCH  78  79
ATOM     79  S   UNL A   1      39.002  35.532  42.241  1.00  0.00     0.124 S 
ATOM     80  O   UNL A   1      39.904  34.762  43.091  1.00  0.00    -0.237 OA
ATOM     81  O   UNL A   1      39.381  36.925  42.014  1.00  0.00    -0.237 OA
ATOM     82  O   UNL A   1      37.577  35.313  42.477  1.00  0.00    -0.744 OA
ENDBRANCH  78  79
ENDBRANCH  50  73
BRANCH  62  83
ATOM     83  C   UNL A   1      45.165  29.761  35.816  1.00  0.00    -0.014 A 
ATOM     84  C   UNL A   1      45.267  28.646  36.668  1.00  0.00     0.010 A 
ATOM     85  C   UNL A   1      46.321  30.513  35.533  1.00  0.00     0.010 A 
ATOM     86  C   UNL A   1      46.486  28.329  37.273  1.00  0.00     0.020 A 
ATOM     87  C   UNL A   1      47.548  30.178  36.109  1.00  0.00     0.020 A 
ATOM     88  C   UNL A   1      47.617  29.103  36.995  1.00  0.00     0.054 A 
BRANCH  88  89
ATOM     89  S   UNL A   1      49.188  28.677  37.796  1.00  0.00     0.124 S 
ATOM     90  O   UNL A   1      48.865  28.857  39.209  1.00  0.00    -0.237 OA
ATOM     91  O   UNL A   1      49.402  27.296  37.371  1.00  0.00    -0.237 OA
ATOM     92  O   UNL A   1      50.132  29.646  37.244  1.00  0.00    -0.744 OA
ENDBRANCH  88  89
ENDBRANCH  62  83
ENDBRANCH  36  37
ENDBRANCH  29  31
ENDBRANCH  28  29
ENDBRANCH  27  28
ENDBRANCH  26  27
ENDBRANCH   1  26
TORSDOF 21
ENDMDL
MODEL 3
REMARK VINA RESULT:      -9.9      5.582      8.888
REMARK SMILES CCOC(=O)C1=NN(c2ccc(Br)cc2F)[C@](C)(C(=O)OCCOCCOC(=O)c2ccc(-c3c4nc(c(-c5ccc(S(=O)(=O)[O-])cc5)c5ccc([nH]5)c(-c5ccc(S(=O)(=O)[O-])cc5)c5nc(c(-c6ccc(S(=O)(=O)[O-])cc6)c6ccc3[nH]6)C=C5)C=C4)cc2)C1
REMARK SMILES IDX 24 1 23 2 22 3 21 4 19 5 20 6 17 7 6 8 7 9 90 10 8 11 18 12
REMARK SMILES IDX 4 13 5 14 3 15 2 16 1 17 9 18 10 19 15 20 11 21 14 22 16 23
REMARK SMILES IDX 12 24 13 25 25 26 26 27 27 28 28 29 29 30 30 31 31 32 89 33
REMARK SMILES IDX 32 34 88 35 33 36 34 37 35 38 82 39 36 40 87 41 81 42 83 43
REMARK SMILES IDX 37 44 86 45 80 46 79 47 38 49 68 50 49 51 67 52 50 53 53 54
REMARK SMILES IDX 66 55 84 56 51 57 52 58 65 60 85 61 54 62 39 63 40 64 48 65
REMARK SMILES IDX 41 66 47 67 42 68 43 69 44 70 45 71 46 72 69 73 70 74 78 75
REMARK SMILES IDX 71 76 77 77 72 78 73 79 74 80 75 81 76 82 55 83 56 84 64 85
REMARK SMILES IDX 57 86 63 87 58 88 59 89 60 90 61 91 62 92
REMARK H PARENT 83 48 53 59
REMARK Flexibility Score: inf
ROOT
ATOM      1  O   UNL A   1      34.984  30.251  27.189  1.00  0.00    -0.374 OA
ENDROOT
BRANCH   1   2
ATOM      2  C   UNL A   1      34.098  29.212  27.611  1.00  0.00     0.202 C 
BRANCH   2   3
ATOM      3  C   UNL A   1      32.889  28.932  26.713  1.00  0.00     0.261 C 
BRANCH   3   4
ATOM      4  O   UNL A   1      32.952  27.625  26.117  1.00  0.00    -0.461 OA
BRANCH   4   5
ATOM      5  C   UNL A   1      31.931  26.785  26.449  1.00  0.00     0.334 C 
ATOM      6  O   UNL A   1      31.028  27.090  27.219  1.00  0.00    -0.249 OA
BRANCH   5   7
ATOM      7  C   UNL A   1      31.973  25.473  25.650  1.00  0.00     0.163 C 
ATOM      8  C   UNL A   1      33.518  24.479  24.263  1.00  0.00     0.149 C 
ATOM      9  N   UNL A   1      32.650  24.969  23.427  1.00  0.00    -0.169 NA
ATOM     10  C   UNL A   1      33.399  24.904  25.689  1.00  0.00     0.108 C 
ATOM     11  N   UNL A   1      31.806  25.707  24.203  1.00  0.00    -0.245 N 
ATOM     12  C   UNL A   1      30.977  24.397  26.120  1.00  0.00     0.050 C 
BRANCH   8  13
ATOM     13  C   UNL A   1      34.606  23.510  23.903  1.00  0.00     0.354 C 
ATOM     14  O   UNL A   1      34.981  23.403  22.751  1.00  0.00    -0.245 OA
BRANCH  13  15
ATOM     15  O   UNL A   1      34.993  22.797  24.974  1.00  0.00    -0.461 OA
BRANCH  15  16
ATOM     16  C   UNL A   1      35.985  21.797  24.704  1.00  0.00     0.230 C 
ATOM     17  C   UNL A   1      35.460  20.404  25.000  1.00  0.00     0.049 C 
ENDBRANCH  15  16
ENDBRANCH  13  15
ENDBRANCH   8  13
BRANCH  11  18
ATOM     18  C   UNL A   1      30.860  26.577  23.681  1.00  0.00     0.097 A 
ATOM     19  C   UNL A   1      29.494  26.321  23.838  1.00  0.00     0.032 A 
ATOM     20  C   UNL A   1      31.233  27.813  23.125  1.00  0.00     0.149 A 
ATOM     21  C   UNL A   1      28.544  27.301  23.530  1.00  0.00     0.018 A 
ATOM     22  C   UNL A   1      30.303  28.809  22.849  1.00  0.00     0.057 A 
ATOM     23  F   UNL A   1      32.525  28.078  22.881  1.00  0.00    -0.205 F 
ATOM     24  C   UNL A   1      28.958  28.551  23.068  1.00  0.00     0.021 A 
ATOM     25  Br  UNL A   1      27.684  29.911  22.751  1.00  0.00    -0.051 Br
ENDBRANCH  11  18
ENDBRANCH   5   7
ENDBRANCH   4   5
ENDBRANCH   3   4
ENDBRANCH   2   3
ENDBRANCH   1   2
BRANCH   1  26
ATOM     26  C   UNL A   1      35.206  31.329  28.095  1.00  0.00     0.202 C 
BRANCH  26  27
ATOM     27  C   UNL A   1      34.783  32.720  27.626  1.00  0.00     0.261 C 
BRANCH  27  28
ATOM     28  O   UNL A   1      33.535  33.096  28.226  1.00  0.00    -0.460 OA
BRANCH  28  29
ATOM     29  C   UNL A   1      33.627  34.197  29.009  1.00  0.00     0.338 C 
ATOM     30  O   UNL A   1      32.976  35.224  28.908  1.00  0.00    -0.246 OA
BRANCH  29  31
ATOM     31  C   UNL A   1      34.515  33.937  30.156  1.00  0.00     0.060 A 
ATOM     32  C   UNL A   1      35.810  34.462  30.071  1.00  0.00     0.016 A 
ATOM     33  C   UNL A   1      34.137  33.137  31.238  1.00  0.00     0.016 A 
ATOM     34  C   UNL A   1      36.770  34.088  30.999  1.00  0.00     0.010 A 
ATOM     35  C   UNL A   1      35.105  32.763  32.175  1.00  0.00     0.010 A 
ATOM     36  C   UNL A   1      36.439  33.179  32.011  1.00  0.00    -0.014 A 
BRANCH  36  37
ATOM     37  C   UNL A   1      37.546  32.502  32.724  1.00  0.00     0.031 A 
ATOM     38  C   UNL A   1      38.271  31.380  32.027  1.00  0.00     0.074 A 
ATOM     39  C   UNL A   1      37.966  32.947  33.920  1.00  0.00     0.049 A 
ATOM     40  N   UNL A   1      39.323  30.706  32.413  1.00  0.00    -0.248 NA
ATOM     41  C   UNL A   1      37.738  30.964  30.718  1.00  0.00     0.031 C 
ATOM     42  C   UNL A   1      37.369  34.051  34.668  1.00  0.00     0.029 A 
ATOM     43  N   UNL A   1      39.009  32.529  34.706  1.00  0.00    -0.354 N 
ATOM     44  C   UNL A   1      39.570  29.781  31.403  1.00  0.00     0.074 A 
ATOM     45  C   UNL A   1      38.538  29.955  30.406  1.00  0.00     0.031 C 
ATOM     46  C   UNL A   1      38.061  34.229  35.806  1.00  0.00     0.029 A 
ATOM     47  C   UNL A   1      39.133  33.238  35.875  1.00  0.00     0.049 A 
ATOM     48  H   UNL A   1      39.611  31.791  34.456  1.00  0.00     0.167 HD
ATOM     49  C   UNL A   1      40.572  28.875  31.308  1.00  0.00     0.031 A 
ATOM     50  C   UNL A   1      40.010  33.098  36.888  1.00  0.00     0.031 A 
ATOM     51  C   UNL A   1      41.592  28.703  32.308  1.00  0.00     0.049 A 
ATOM     52  C   UNL A   1      41.095  32.062  36.780  1.00  0.00     0.074 A 
ATOM     53  C   UNL A   1      42.664  27.828  32.304  1.00  0.00     0.029 A 
ATOM     54  N   UNL A   1      41.663  29.417  33.496  1.00  0.00    -0.354 N 
ATOM     55  N   UNL A   1      41.331  31.211  35.808  1.00  0.00    -0.248 NA
ATOM     56  C   UNL A   1      42.046  31.984  37.896  1.00  0.00     0.031 C 
ATOM     57  C   UNL A   1      43.346  27.970  33.518  1.00  0.00     0.029 A 
ATOM     58  C   UNL A   1      42.743  28.985  34.245  1.00  0.00     0.049 A 
ATOM     59  H   UNL A   1      41.035  30.127  33.766  1.00  0.00     0.167 HD
ATOM     60  C   UNL A   1      42.477  30.515  36.182  1.00  0.00     0.074 A 
ATOM     61  C   UNL A   1      42.892  31.059  37.460  1.00  0.00     0.031 C 
ATOM     62  C   UNL A   1      43.132  29.525  35.525  1.00  0.00     0.031 A 
BRANCH  49  63
ATOM     63  C   UNL A   1      40.575  27.970  30.102  1.00  0.00    -0.014 A 
ATOM     64  C   UNL A   1      39.594  26.977  29.922  1.00  0.00     0.010 A 
ATOM     65  C   UNL A   1      41.581  28.118  29.131  1.00  0.00     0.010 A 
ATOM     66  C   UNL A   1      39.651  26.116  28.821  1.00  0.00     0.020 A 
ATOM     67  C   UNL A   1      41.625  27.280  28.014  1.00  0.00     0.020 A 
ATOM     68  C   UNL A   1      40.672  26.268  27.878  1.00  0.00     0.054 A 
BRANCH  68  69
ATOM     69  S   UNL A   1      40.728  25.138  26.461  1.00  0.00     0.124 S 
ATOM     70  O   UNL A   1      39.344  24.675  26.391  1.00  0.00    -0.237 OA
ATOM     71  O   UNL A   1      41.155  26.010  25.370  1.00  0.00    -0.237 OA
ATOM     72  O   UNL A   1      41.702  24.126  26.862  1.00  0.00    -0.744 OA
ENDBRANCH  68  69
ENDBRANCH  49  63
BRANCH  50  73
ATOM     73  C   UNL A   1      39.889  33.973  38.086  1.00  0.00    -0.014 A 
ATOM     74  C   UNL A   1      39.056  33.617  39.160  1.00  0.00     0.010 A 
ATOM     75  C   UNL A   1      40.643  35.158  38.167  1.00  0.00     0.010 A 
ATOM     76  C   UNL A   1      38.978  34.433  40.293  1.00  0.00     0.020 A 
ATOM     77  C   UNL A   1      40.588  35.961  39.308  1.00  0.00     0.020 A 
ATOM     78  C   UNL A   1      39.750  35.596  40.362  1.00  0.00     0.054 A 
BRANCH  78  79
ATOM     79  S   UNL A   1      39.692  36.598  41.875  1.00  0.00     0.124 S 
ATOM     80  O   UNL A   1      38.705  35.883  42.676  1.00  0.00    -0.237 OA
ATOM     81  O   UNL A   1      41.071  36.523  42.353  1.00  0.00    -0.237 OA
ATOM     82  O   UNL A   1      39.279  37.915  41.396  1.00  0.00    -0.744 OA
ENDBRANCH  78  79
ENDBRANCH  50  73
BRANCH  62  83
ATOM     83  C   UNL A   1      44.390  28.993  36.161  1.00  0.00    -0.014 A 
ATOM     84  C   UNL A   1      45.644  29.580  35.919  1.00  0.00     0.010 A 
ATOM     85  C   UNL A   1      44.309  27.890  37.033  1.00  0.00     0.010 A 
ATOM     86  C   UNL A   1      46.800  29.037  36.487  1.00  0.00     0.020 A 
ATOM     87  C   UNL A   1      45.457  27.366  37.630  1.00  0.00     0.020 A 
ATOM     88  C   UNL A   1      46.699  27.928  37.333  1.00  0.00     0.054 A 
BRANCH  88  89
ATOM     89  S   UNL A   1      48.212  27.237  38.055  1.00  0.00     0.124 S 
ATOM     90  O   UNL A   1      47.977  27.422  39.484  1.00  0.00    -0.237 OA
ATOM     91  O   UNL A   1      48.189  25.853  37.587  1.00  0.00    -0.237 OA
ATOM     92  O   UNL A   1      49.276  28.062  37.487  1.00  0.00    -0.744 OA
ENDBRANCH  88  89
ENDBRANCH  62  83
ENDBRANCH  36  37
ENDBRANCH  29  31
ENDBRANCH  28  29
ENDBRANCH  27  28
ENDBRANCH  26  27
ENDBRANCH   1  26
TORSDOF 21
ENDMDL
