MODEL 1
REMARK VINA RESULT:      -9.4      0.000      0.000
REMARK SMILES Cc1nc(CNC(=O)[C@H]2CCO[C@H]2C)sc1C(=O)OCCOCCOC(=O)c1ccc(-c2c3nc(c(-c4ccc(S(=O)(=O)[O-])cc4)c4ccc([nH]4)c(-c4ccc(S(=O)(=O)[O-])cc4)c4nc(c(-c5ccc(S(=O)(=O)[O-])cc5)c5ccc2[nH]5)C=C4)C=C3)cc1
REMARK SMILES IDX 22 1 21 2 20 3 19 4 17 5 18 6 16 7 1 8 2 9 3 10 4 11 15 12
REMARK SMILES IDX 5 13 6 14 7 15 8 17 9 18 10 19 13 20 11 21 12 22 14 23 23 24
REMARK SMILES IDX 24 25 25 26 26 27 27 28 28 29 29 30 87 31 30 32 86 33 31 34
REMARK SMILES IDX 32 35 33 36 80 37 34 38 85 39 79 40 81 41 35 42 84 43 78 44
REMARK SMILES IDX 77 45 36 47 66 48 47 49 65 50 48 51 51 52 64 53 82 54 49 55
REMARK SMILES IDX 50 56 63 58 83 59 52 60 37 61 38 62 46 63 39 64 45 65 40 66
REMARK SMILES IDX 41 67 42 68 43 69 44 70 67 71 68 72 76 73 69 74 75 75 70 76
REMARK SMILES IDX 71 77 72 78 73 79 74 80 53 81 54 82 62 83 55 84 61 85 56 86
REMARK SMILES IDX 57 87 58 88 59 89 60 90
REMARK H PARENT 6 16 81 46 51 57
REMARK Flexibility Score: inf
ROOT
ATOM      1  O   UNL A   1      38.244  21.758  25.753  1.00  0.00    -0.374 OA
ENDROOT
BRANCH   1   2
ATOM      2  C   UNL A   1      36.923  22.264  25.538  1.00  0.00     0.202 C 
BRANCH   2   3
ATOM      3  C   UNL A   1      35.824  21.207  25.675  1.00  0.00     0.261 C 
BRANCH   3   4
ATOM      4  O   UNL A   1      34.610  21.832  26.130  1.00  0.00    -0.459 OA
BRANCH   4   5
ATOM      5  C   UNL A   1      33.827  22.392  25.170  1.00  0.00     0.350 C 
ATOM      6  O   UNL A   1      33.605  21.881  24.078  1.00  0.00    -0.245 OA
BRANCH   5   7
ATOM      7  C   UNL A   1      33.198  23.597  25.672  1.00  0.00     0.135 A 
ATOM      8  C   UNL A   1      31.025  22.859  26.893  1.00  0.00     0.068 C 
ATOM      9  C   UNL A   1      32.013  23.838  26.357  1.00  0.00     0.063 A 
ATOM     10  N   UNL A   1      31.742  25.188  26.584  1.00  0.00    -0.244 NA
ATOM     11  C   UNL A   1      32.700  25.945  26.095  1.00  0.00     0.113 A 
ATOM     12  S   UNL A   1      33.987  25.093  25.355  1.00  0.00    -0.110 S 
BRANCH  11  13
ATOM     13  C   UNL A   1      32.780  27.441  26.170  1.00  0.00     0.183 C 
BRANCH  13  14
ATOM     14  N   UNL A   1      33.287  28.013  24.936  1.00  0.00    -0.349 N 
ATOM     15  C   UNL A   1      32.615  28.674  23.954  1.00  0.00     0.226 C 
ATOM     16  H   UNL A   1      34.255  27.909  24.789  1.00  0.00     0.163 HD
ATOM     17  O   UNL A   1      33.262  29.207  23.053  1.00  0.00    -0.275 OA
BRANCH  15  18
ATOM     18  C   UNL A   1      31.103  28.745  24.018  1.00  0.00     0.109 C 
ATOM     19  C   UNL A   1      30.472  29.653  22.981  1.00  0.00     0.044 C 
ATOM     20  C   UNL A   1      30.404  27.418  23.739  1.00  0.00     0.127 C 
ATOM     21  C   UNL A   1      29.042  29.161  22.967  1.00  0.00     0.161 C 
ATOM     22  O   UNL A   1      29.066  27.772  23.323  1.00  0.00    -0.378 OA
ATOM     23  C   UNL A   1      31.017  26.568  22.629  1.00  0.00     0.039 C 
ENDBRANCH  15  18
ENDBRANCH  13  14
ENDBRANCH  11  13
ENDBRANCH   5   7
ENDBRANCH   4   5
ENDBRANCH   3   4
ENDBRANCH   2   3
ENDBRANCH   1   2
BRANCH   1  24
ATOM     24  C   UNL A   1      38.495  20.432  25.282  1.00  0.00     0.202 C 
BRANCH  24  25
ATOM     25  C   UNL A   1      39.549  19.650  26.075  1.00  0.00     0.261 C 
BRANCH  25  26
ATOM     26  O   UNL A   1      40.840  19.733  25.445  1.00  0.00    -0.460 OA
BRANCH  26  27
ATOM     27  C   UNL A   1      41.893  19.733  26.298  1.00  0.00     0.338 C 
ATOM     28  O   UNL A   1      42.569  18.773  26.629  1.00  0.00    -0.246 OA
BRANCH  27  29
ATOM     29  C   UNL A   1      42.249  21.122  26.655  1.00  0.00     0.060 A 
ATOM     30  C   UNL A   1      42.265  22.067  25.622  1.00  0.00     0.016 A 
ATOM     31  C   UNL A   1      42.601  21.491  27.956  1.00  0.00     0.016 A 
ATOM     32  C   UNL A   1      42.681  23.373  25.874  1.00  0.00     0.010 A 
ATOM     33  C   UNL A   1      43.025  22.802  28.207  1.00  0.00     0.010 A 
ATOM     34  C   UNL A   1      43.097  23.739  27.160  1.00  0.00    -0.014 A 
BRANCH  34  35
ATOM     35  C   UNL A   1      43.734  25.062  27.373  1.00  0.00     0.031 A 
ATOM     36  C   UNL A   1      42.893  26.208  27.866  1.00  0.00     0.074 A 
ATOM     37  C   UNL A   1      45.052  25.233  27.163  1.00  0.00     0.049 A 
ATOM     38  N   UNL A   1      43.243  27.443  28.115  1.00  0.00    -0.248 NA
ATOM     39  C   UNL A   1      41.470  25.922  28.115  1.00  0.00     0.031 C 
ATOM     40  C   UNL A   1      45.981  24.193  26.723  1.00  0.00     0.029 A 
ATOM     41  N   UNL A   1      45.835  26.353  27.292  1.00  0.00    -0.354 N 
ATOM     42  C   UNL A   1      42.087  28.084  28.546  1.00  0.00     0.074 A 
ATOM     43  C   UNL A   1      41.019  27.108  28.497  1.00  0.00     0.031 C 
ATOM     44  C   UNL A   1      47.210  24.727  26.611  1.00  0.00     0.029 A 
ATOM     45  C   UNL A   1      47.149  26.149  26.945  1.00  0.00     0.049 A 
ATOM     46  H   UNL A   1      45.488  27.220  27.605  1.00  0.00     0.167 HD
ATOM     47  C   UNL A   1      41.928  29.366  28.951  1.00  0.00     0.031 A 
ATOM     48  C   UNL A   1      48.182  27.013  26.887  1.00  0.00     0.031 A 
ATOM     49  C   UNL A   1      42.984  30.342  28.983  1.00  0.00     0.049 A 
ATOM     50  C   UNL A   1      47.966  28.452  27.277  1.00  0.00     0.074 A 
ATOM     51  C   UNL A   1      42.922  31.665  29.387  1.00  0.00     0.029 A 
ATOM     52  N   UNL A   1      44.292  30.105  28.591  1.00  0.00    -0.354 N 
ATOM     53  N   UNL A   1      46.871  29.035  27.704  1.00  0.00    -0.248 NA
ATOM     54  C   UNL A   1      49.130  29.346  27.185  1.00  0.00     0.031 C 
ATOM     55  C   UNL A   1      44.182  32.240  29.193  1.00  0.00     0.029 A 
ATOM     56  C   UNL A   1      45.042  31.261  28.720  1.00  0.00     0.049 A 
ATOM     57  H   UNL A   1      44.637  29.240  28.268  1.00  0.00     0.167 HD
ATOM     58  C   UNL A   1      47.220  30.358  27.953  1.00  0.00     0.074 A 
ATOM     59  C   UNL A   1      48.628  30.486  27.642  1.00  0.00     0.031 C 
ATOM     60  C   UNL A   1      46.443  31.375  28.403  1.00  0.00     0.031 A 
BRANCH  47  61
ATOM     61  C   UNL A   1      40.546  29.793  29.364  1.00  0.00    -0.014 A 
ATOM     62  C   UNL A   1      40.241  30.060  30.711  1.00  0.00     0.010 A 
ATOM     63  C   UNL A   1      39.545  29.959  28.389  1.00  0.00     0.010 A 
ATOM     64  C   UNL A   1      38.950  30.447  31.081  1.00  0.00     0.020 A 
ATOM     65  C   UNL A   1      38.259  30.369  28.751  1.00  0.00     0.020 A 
ATOM     66  C   UNL A   1      37.965  30.593  30.097  1.00  0.00     0.054 A 
BRANCH  66  67
ATOM     67  S   UNL A   1      36.301  31.109  30.601  1.00  0.00     0.124 S 
ATOM     68  O   UNL A   1      35.890  30.001  31.460  1.00  0.00    -0.237 OA
ATOM     69  O   UNL A   1      36.550  32.375  31.285  1.00  0.00    -0.237 OA
ATOM     70  O   UNL A   1      35.575  31.220  29.338  1.00  0.00    -0.744 OA
ENDBRANCH  66  67
ENDBRANCH  47  61
BRANCH  48  71
ATOM     71  C   UNL A   1      49.514  26.544  26.422  1.00  0.00    -0.014 A 
ATOM     72  C   UNL A   1      50.423  25.957  27.320  1.00  0.00     0.010 A 
ATOM     73  C   UNL A   1      49.877  26.678  25.070  1.00  0.00     0.010 A 
ATOM     74  C   UNL A   1      51.676  25.525  26.875  1.00  0.00     0.020 A 
ATOM     75  C   UNL A   1      51.119  26.225  24.617  1.00  0.00     0.020 A 
ATOM     76  C   UNL A   1      52.015  25.660  25.526  1.00  0.00     0.054 A 
BRANCH  76  77
ATOM     77  S   UNL A   1      53.623  25.038  24.957  1.00  0.00     0.124 S 
ATOM     78  O   UNL A   1      54.533  25.595  25.952  1.00  0.00    -0.237 OA
ATOM     79  O   UNL A   1      53.437  23.590  25.007  1.00  0.00    -0.237 OA
ATOM     80  O   UNL A   1      53.745  25.595  23.611  1.00  0.00    -0.744 OA
ENDBRANCH  76  77
ENDBRANCH  48  71
BRANCH  60  81
ATOM     81  C   UNL A   1      47.103  32.711  28.616  1.00  0.00    -0.014 A 
ATOM     82  C   UNL A   1      47.730  33.029  29.833  1.00  0.00     0.010 A 
ATOM     83  C   UNL A   1      47.147  33.639  27.559  1.00  0.00     0.010 A 
ATOM     84  C   UNL A   1      48.363  34.263  30.000  1.00  0.00     0.020 A 
ATOM     85  C   UNL A   1      47.801  34.864  27.714  1.00  0.00     0.020 A 
ATOM     86  C   UNL A   1      48.394  35.174  28.940  1.00  0.00     0.054 A 
BRANCH  86  87
ATOM     87  S   UNL A   1      49.261  36.753  29.164  1.00  0.00     0.124 S 
ATOM     88  O   UNL A   1      50.485  36.333  29.839  1.00  0.00    -0.237 OA
ATOM     89  O   UNL A   1      49.429  37.226  27.792  1.00  0.00    -0.237 OA
ATOM     90  O   UNL A   1      48.338  37.541  29.979  1.00  0.00    -0.744 OA
ENDBRANCH  86  87
ENDBRANCH  60  81
ENDBRANCH  34  35
ENDBRANCH  27  29
ENDBRANCH  26  27
ENDBRANCH  25  26
ENDBRANCH  24  25
ENDBRANCH   1  24
TORSDOF 20
ENDMDL
MODEL 2
REMARK VINA RESULT:      -9.4      5.871     10.137
REMARK SMILES Cc1nc(CNC(=O)[C@H]2CCO[C@H]2C)sc1C(=O)OCCOCCOC(=O)c1ccc(-c2c3nc(c(-c4ccc(S(=O)(=O)[O-])cc4)c4ccc([nH]4)c(-c4ccc(S(=O)(=O)[O-])cc4)c4nc(c(-c5ccc(S(=O)(=O)[O-])cc5)c5ccc2[nH]5)C=C4)C=C3)cc1
REMARK SMILES IDX 22 1 21 2 20 3 19 4 17 5 18 6 16 7 1 8 2 9 3 10 4 11 15 12
REMARK SMILES IDX 5 13 6 14 7 15 8 17 9 18 10 19 13 20 11 21 12 22 14 23 23 24
REMARK SMILES IDX 24 25 25 26 26 27 27 28 28 29 29 30 87 31 30 32 86 33 31 34
REMARK SMILES IDX 32 35 33 36 80 37 34 38 85 39 79 40 81 41 35 42 84 43 78 44
REMARK SMILES IDX 77 45 36 47 66 48 47 49 65 50 48 51 51 52 64 53 82 54 49 55
REMARK SMILES IDX 50 56 63 58 83 59 52 60 37 61 38 62 46 63 39 64 45 65 40 66
REMARK SMILES IDX 41 67 42 68 43 69 44 70 67 71 68 72 76 73 69 74 75 75 70 76
REMARK SMILES IDX 71 77 72 78 73 79 74 80 53 81 54 82 62 83 55 84 61 85 56 86
REMARK SMILES IDX 57 87 58 88 59 89 60 90
REMARK H PARENT 6 16 81 46 51 57
REMARK Flexibility Score: inf
ROOT
ATOM      1  O   UNL A   1      34.084  31.565  28.098  1.00  0.00    -0.374 OA
ENDROOT
BRANCH   1   2
ATOM      2  C   UNL A   1      34.424  30.423  27.307  1.00  0.00     0.202 C 
BRANCH   2   3
ATOM      3  C   UNL A   1      33.228  29.535  26.956  1.00  0.00     0.261 C 
BRANCH   3   4
ATOM      4  O   UNL A   1      33.077  29.476  25.525  1.00  0.00    -0.459 OA
BRANCH   4   5
ATOM      5  C   UNL A   1      31.819  29.669  25.046  1.00  0.00     0.350 C 
ATOM      6  O   UNL A   1      31.072  30.568  25.416  1.00  0.00    -0.245 OA
BRANCH   5   7
ATOM      7  C   UNL A   1      31.548  28.752  23.957  1.00  0.00     0.135 A 
ATOM      8  C   UNL A   1      29.387  29.592  22.784  1.00  0.00     0.068 C 
ATOM      9  C   UNL A   1      30.527  28.661  23.020  1.00  0.00     0.063 A 
ATOM     10  N   UNL A   1      30.611  27.549  22.180  1.00  0.00    -0.244 NA
ATOM     11  C   UNL A   1      31.673  26.828  22.466  1.00  0.00     0.113 A 
ATOM     12  S   UNL A   1      32.641  27.440  23.738  1.00  0.00    -0.110 S 
BRANCH  11  13
ATOM     13  C   UNL A   1      32.117  25.579  21.763  1.00  0.00     0.183 C 
BRANCH  13  14
ATOM     14  N   UNL A   1      33.439  25.163  22.195  1.00  0.00    -0.349 N 
ATOM     15  C   UNL A   1      33.798  24.093  22.955  1.00  0.00     0.226 C 
ATOM     16  H   UNL A   1      34.181  25.737  21.895  1.00  0.00     0.163 HD
ATOM     17  O   UNL A   1      34.996  23.840  23.087  1.00  0.00    -0.275 OA
BRANCH  15  18
ATOM     18  C   UNL A   1      32.716  23.245  23.591  1.00  0.00     0.109 C 
ATOM     19  C   UNL A   1      33.104  21.798  23.820  1.00  0.00     0.044 C 
ATOM     20  C   UNL A   1      32.321  23.689  24.996  1.00  0.00     0.127 C 
ATOM     21  C   UNL A   1      32.085  21.363  24.850  1.00  0.00     0.161 C 
ATOM     22  O   UNL A   1      31.728  22.524  25.612  1.00  0.00    -0.378 OA
ATOM     23  C   UNL A   1      33.470  24.144  25.893  1.00  0.00     0.039 C 
ENDBRANCH  15  18
ENDBRANCH  13  14
ENDBRANCH  11  13
ENDBRANCH   5   7
ENDBRANCH   4   5
ENDBRANCH   3   4
ENDBRANCH   2   3
ENDBRANCH   1   2
BRANCH   1  24
ATOM     24  C   UNL A   1      32.918  32.287  27.695  1.00  0.00     0.202 C 
BRANCH  24  25
ATOM     25  C   UNL A   1      33.050  33.814  27.745  1.00  0.00     0.261 C 
BRANCH  25  26
ATOM     26  O   UNL A   1      32.540  34.339  28.983  1.00  0.00    -0.460 OA
BRANCH  26  27
ATOM     27  C   UNL A   1      33.406  35.121  29.672  1.00  0.00     0.338 C 
ATOM     28  O   UNL A   1      33.213  36.261  30.062  1.00  0.00    -0.246 OA
BRANCH  27  29
ATOM     29  C   UNL A   1      34.593  34.334  30.062  1.00  0.00     0.060 A 
ATOM     30  C   UNL A   1      34.423  33.370  31.064  1.00  0.00     0.016 A 
ATOM     31  C   UNL A   1      35.853  34.554  29.499  1.00  0.00     0.016 A 
ATOM     32  C   UNL A   1      35.522  32.657  31.542  1.00  0.00     0.010 A 
ATOM     33  C   UNL A   1      36.956  33.841  29.985  1.00  0.00     0.010 A 
ATOM     34  C   UNL A   1      36.800  32.914  31.030  1.00  0.00    -0.014 A 
BRANCH  34  35
ATOM     35  C   UNL A   1      37.985  32.309  31.686  1.00  0.00     0.031 A 
ATOM     36  C   UNL A   1      38.455  32.864  33.004  1.00  0.00     0.074 A 
ATOM     37  C   UNL A   1      38.614  31.256  31.134  1.00  0.00     0.049 A 
ATOM     38  N   UNL A   1      39.465  32.490  33.745  1.00  0.00    -0.248 NA
ATOM     39  C   UNL A   1      37.681  33.986  33.560  1.00  0.00     0.031 C 
ATOM     40  C   UNL A   1      38.233  30.603  29.882  1.00  0.00     0.029 A 
ATOM     41  N   UNL A   1      39.713  30.553  31.561  1.00  0.00    -0.354 N 
ATOM     42  C   UNL A   1      39.453  33.330  34.852  1.00  0.00     0.074 A 
ATOM     43  C   UNL A   1      38.352  34.252  34.672  1.00  0.00     0.031 C 
ATOM     44  C   UNL A   1      39.091  29.596  29.637  1.00  0.00     0.029 A 
ATOM     45  C   UNL A   1      40.095  29.552  30.699  1.00  0.00     0.049 A 
ATOM     46  H   UNL A   1      40.183  30.746  32.404  1.00  0.00     0.167 HD
ATOM     47  C   UNL A   1      40.279  33.333  35.925  1.00  0.00     0.031 A 
ATOM     48  C   UNL A   1      41.144  28.707  30.752  1.00  0.00     0.031 A 
ATOM     49  C   UNL A   1      41.385  32.429  36.097  1.00  0.00     0.049 A 
ATOM     50  C   UNL A   1      42.090  28.773  31.922  1.00  0.00     0.074 A 
ATOM     51  C   UNL A   1      42.274  32.349  37.156  1.00  0.00     0.029 A 
ATOM     52  N   UNL A   1      41.758  31.454  35.187  1.00  0.00    -0.354 N 
ATOM     53  N   UNL A   1      42.050  29.559  32.971  1.00  0.00    -0.248 NA
ATOM     54  C   UNL A   1      43.219  27.830  31.917  1.00  0.00     0.031 C 
ATOM     55  C   UNL A   1      43.214  31.355  36.862  1.00  0.00     0.029 A 
ATOM     56  C   UNL A   1      42.878  30.782  35.646  1.00  0.00     0.049 A 
ATOM     57  H   UNL A   1      41.295  31.266  34.338  1.00  0.00     0.167 HD
ATOM     58  C   UNL A   1      43.133  29.190  33.762  1.00  0.00     0.074 A 
ATOM     59  C   UNL A   1      43.801  28.104  33.077  1.00  0.00     0.031 C 
ATOM     60  C   UNL A   1      43.535  29.704  34.951  1.00  0.00     0.031 A 
BRANCH  47  61
ATOM     61  C   UNL A   1      40.031  34.372  36.985  1.00  0.00    -0.014 A 
ATOM     62  C   UNL A   1      40.655  35.631  36.927  1.00  0.00     0.010 A 
ATOM     63  C   UNL A   1      39.140  34.096  38.038  1.00  0.00     0.010 A 
ATOM     64  C   UNL A   1      40.422  36.582  37.924  1.00  0.00     0.020 A 
ATOM     65  C   UNL A   1      38.886  35.052  39.024  1.00  0.00     0.020 A 
ATOM     66  C   UNL A   1      39.542  36.283  38.970  1.00  0.00     0.054 A 
BRANCH  66  67
ATOM     67  S   UNL A   1      39.247  37.539  40.245  1.00  0.00     0.124 S 
ATOM     68  O   UNL A   1      38.788  36.726  41.368  1.00  0.00    -0.237 OA
ATOM     69  O   UNL A   1      40.564  38.149  40.408  1.00  0.00    -0.237 OA
ATOM     70  O   UNL A   1      38.233  38.406  39.649  1.00  0.00    -0.744 OA
ENDBRANCH  66  67
ENDBRANCH  47  61
BRANCH  48  71
ATOM     71  C   UNL A   1      41.367  27.735  29.649  1.00  0.00    -0.014 A 
ATOM     72  C   UNL A   1      42.584  27.710  28.947  1.00  0.00     0.010 A 
ATOM     73  C   UNL A   1      40.356  26.820  29.299  1.00  0.00     0.010 A 
ATOM     74  C   UNL A   1      42.783  26.797  27.908  1.00  0.00     0.020 A 
ATOM     75  C   UNL A   1      40.560  25.890  28.277  1.00  0.00     0.020 A 
ATOM     76  C   UNL A   1      41.770  25.891  27.580  1.00  0.00     0.054 A 
BRANCH  76  77
ATOM     77  S   UNL A   1      42.070  24.674  26.268  1.00  0.00     0.124 S 
ATOM     78  O   UNL A   1      41.827  25.460  25.064  1.00  0.00    -0.237 OA
ATOM     79  O   UNL A   1      43.459  24.289  26.506  1.00  0.00    -0.237 OA
ATOM     80  O   UNL A   1      41.087  23.628  26.545  1.00  0.00    -0.744 OA
ENDBRANCH  76  77
ENDBRANCH  48  71
BRANCH  60  81
ATOM     81  C   UNL A   1      44.738  29.079  35.606  1.00  0.00    -0.014 A 
ATOM     82  C   UNL A   1      46.033  29.576  35.378  1.00  0.00     0.010 A 
ATOM     83  C   UNL A   1      44.561  28.014  36.509  1.00  0.00     0.010 A 
ATOM     84  C   UNL A   1      47.133  29.000  36.019  1.00  0.00     0.020 A 
ATOM     85  C   UNL A   1      45.656  27.452  37.171  1.00  0.00     0.020 A 
ATOM     86  C   UNL A   1      46.938  27.941  36.911  1.00  0.00     0.054 A 
BRANCH  86  87
ATOM     87  S   UNL A   1      48.376  27.238  37.766  1.00  0.00     0.124 S 
ATOM     88  O   UNL A   1      47.759  26.605  38.927  1.00  0.00    -0.237 OA
ATOM     89  O   UNL A   1      48.928  26.323  36.769  1.00  0.00    -0.237 OA
ATOM     90  O   UNL A   1      49.208  28.403  38.059  1.00  0.00    -0.744 OA
ENDBRANCH  86  87
ENDBRANCH  60  81
ENDBRANCH  34  35
ENDBRANCH  27  29
ENDBRANCH  26  27
ENDBRANCH  25  26
ENDBRANCH  24  25
ENDBRANCH   1  24
TORSDOF 20
ENDMDL
MODEL 3
REMARK VINA RESULT:      -9.2      6.468     15.905
REMARK SMILES Cc1nc(CNC(=O)[C@H]2CCO[C@H]2C)sc1C(=O)OCCOCCOC(=O)c1ccc(-c2c3nc(c(-c4ccc(S(=O)(=O)[O-])cc4)c4ccc([nH]4)c(-c4ccc(S(=O)(=O)[O-])cc4)c4nc(c(-c5ccc(S(=O)(=O)[O-])cc5)c5ccc2[nH]5)C=C4)C=C3)cc1
REMARK SMILES IDX 22 1 21 2 20 3 19 4 17 5 18 6 16 7 1 8 2 9 3 10 4 11 15 12
REMARK SMILES IDX 5 13 6 14 7 15 8 17 9 18 10 19 13 20 11 21 12 22 14 23 23 24
REMARK SMILES IDX 24 25 25 26 26 27 27 28 28 29 29 30 87 31 30 32 86 33 31 34
REMARK SMILES IDX 32 35 33 36 80 37 34 38 85 39 79 40 81 41 35 42 84 43 78 44
REMARK SMILES IDX 77 45 36 47 66 48 47 49 65 50 48 51 51 52 64 53 82 54 49 55
REMARK SMILES IDX 50 56 63 58 83 59 52 60 37 61 38 62 46 63 39 64 45 65 40 66
REMARK SMILES IDX 41 67 42 68 43 69 44 70 67 71 68 72 76 73 69 74 75 75 70 76
REMARK SMILES IDX 71 77 72 78 73 79 74 80 53 81 54 82 62 83 55 84 61 85 56 86
REMARK SMILES IDX 57 87 58 88 59 89 60 90
REMARK H PARENT 6 16 81 46 51 57
REMARK Flexibility Score: inf
ROOT
ATOM      1  O   UNL A   1      46.861  38.749  25.359  1.00  0.00    -0.374 OA
ENDROOT
BRANCH   1   2
ATOM      2  C   UNL A   1      46.967  39.872  24.479  1.00  0.00     0.202 C 
BRANCH   2   3
ATOM      3  C   UNL A   1      46.027  41.027  24.833  1.00  0.00     0.261 C 
BRANCH   3   4
ATOM      4  O   UNL A   1      45.629  41.708  23.629  1.00  0.00    -0.459 OA
BRANCH   4   5
ATOM      5  C   UNL A   1      44.958  42.880  23.796  1.00  0.00     0.350 C 
ATOM      6  O   UNL A   1      45.394  43.839  24.423  1.00  0.00    -0.245 OA
BRANCH   5   7
ATOM      7  C   UNL A   1      43.732  42.872  23.024  1.00  0.00     0.135 A 
ATOM      8  C   UNL A   1      41.929  41.702  24.485  1.00  0.00     0.068 C 
ATOM      9  C   UNL A   1      42.463  42.357  23.257  1.00  0.00     0.063 A 
ATOM     10  N   UNL A   1      41.575  42.503  22.189  1.00  0.00    -0.244 NA
ATOM     11  C   UNL A   1      42.153  43.122  21.183  1.00  0.00     0.113 A 
ATOM     12  S   UNL A   1      43.780  43.582  21.456  1.00  0.00    -0.110 S 
BRANCH  11  13
ATOM     13  C   UNL A   1      41.514  43.488  19.877  1.00  0.00     0.183 C 
BRANCH  13  14
ATOM     14  N   UNL A   1      42.312  43.045  18.747  1.00  0.00    -0.349 N 
ATOM     15  C   UNL A   1      43.138  43.767  17.942  1.00  0.00     0.226 C 
ATOM     16  H   UNL A   1      42.246  42.086  18.534  1.00  0.00     0.163 HD
ATOM     17  O   UNL A   1      43.836  43.167  17.125  1.00  0.00    -0.275 OA
BRANCH  15  18
ATOM     18  C   UNL A   1      43.182  45.273  18.095  1.00  0.00     0.109 C 
ATOM     19  C   UNL A   1      44.365  45.940  17.421  1.00  0.00     0.044 C 
ATOM     20  C   UNL A   1      42.005  46.000  17.450  1.00  0.00     0.127 C 
ATOM     21  C   UNL A   1      43.898  47.375  17.322  1.00  0.00     0.161 C 
ATOM     22  O   UNL A   1      42.467  47.351  17.226  1.00  0.00    -0.378 OA
ATOM     23  C   UNL A   1      41.544  45.447  16.104  1.00  0.00     0.039 C 
ENDBRANCH  15  18
ENDBRANCH  13  14
ENDBRANCH  11  13
ENDBRANCH   5   7
ENDBRANCH   4   5
ENDBRANCH   3   4
ENDBRANCH   2   3
ENDBRANCH   1   2
BRANCH   1  24
ATOM     24  C   UNL A   1      46.433  39.032  26.694  1.00  0.00     0.202 C 
BRANCH  24  25
ATOM     25  C   UNL A   1      47.493  38.805  27.778  1.00  0.00     0.261 C 
BRANCH  25  26
ATOM     26  O   UNL A   1      47.039  37.856  28.758  1.00  0.00    -0.460 OA
BRANCH  26  27
ATOM     27  C   UNL A   1      48.016  37.105  29.322  1.00  0.00     0.338 C 
ATOM     28  O   UNL A   1      48.904  37.493  30.064  1.00  0.00    -0.246 OA
BRANCH  27  29
ATOM     29  C   UNL A   1      47.761  35.673  29.062  1.00  0.00     0.060 A 
ATOM     30  C   UNL A   1      47.136  35.342  27.853  1.00  0.00     0.016 A 
ATOM     31  C   UNL A   1      48.081  34.677  29.988  1.00  0.00     0.016 A 
ATOM     32  C   UNL A   1      46.784  34.020  27.586  1.00  0.00     0.010 A 
ATOM     33  C   UNL A   1      47.721  33.350  29.721  1.00  0.00     0.010 A 
ATOM     34  C   UNL A   1      47.042  33.022  28.534  1.00  0.00    -0.014 A 
BRANCH  34  35
ATOM     35  C   UNL A   1      46.479  31.663  28.337  1.00  0.00     0.031 A 
ATOM     36  C   UNL A   1      47.325  30.610  27.673  1.00  0.00     0.074 A 
ATOM     37  C   UNL A   1      45.243  31.361  28.773  1.00  0.00     0.049 A 
ATOM     38  N   UNL A   1      47.032  29.366  27.400  1.00  0.00    -0.248 NA
ATOM     39  C   UNL A   1      48.682  31.013  27.267  1.00  0.00     0.031 C 
ATOM     40  C   UNL A   1      44.341  32.280  29.465  1.00  0.00     0.029 A 
ATOM     41  N   UNL A   1      44.535  30.187  28.695  1.00  0.00    -0.354 N 
ATOM     42  C   UNL A   1      48.162  28.837  26.788  1.00  0.00     0.074 A 
ATOM     43  C   UNL A   1      49.137  29.903  26.705  1.00  0.00     0.031 C 
ATOM     44  C   UNL A   1      43.192  31.637  29.742  1.00  0.00     0.029 A 
ATOM     45  C   UNL A   1      43.270  30.272  29.223  1.00  0.00     0.049 A 
ATOM     46  H   UNL A   1      44.899  29.364  28.298  1.00  0.00     0.167 HD
ATOM     47  C   UNL A   1      48.373  27.576  26.340  1.00  0.00     0.031 A 
ATOM     48  C   UNL A   1      42.279  29.359  29.271  1.00  0.00     0.031 A 
ATOM     49  C   UNL A   1      47.399  26.520  26.406  1.00  0.00     0.049 A 
ATOM     50  C   UNL A   1      42.514  27.983  28.705  1.00  0.00     0.074 A 
ATOM     51  C   UNL A   1      47.525  25.206  25.986  1.00  0.00     0.029 A 
ATOM     52  N   UNL A   1      46.119  26.655  26.918  1.00  0.00    -0.354 N 
ATOM     53  N   UNL A   1      43.597  27.493  28.151  1.00  0.00    -0.248 NA
ATOM     54  C   UNL A   1      41.392  27.034  28.780  1.00  0.00     0.031 C 
ATOM     55  C   UNL A   1      46.302  24.561  26.201  1.00  0.00     0.029 A 
ATOM     56  C   UNL A   1      45.434  25.458  26.803  1.00  0.00     0.049 A 
ATOM     57  H   UNL A   1      45.750  27.482  27.305  1.00  0.00     0.167 HD
ATOM     58  C   UNL A   1      43.295  26.173  27.832  1.00  0.00     0.074 A 
ATOM     59  C   UNL A   1      41.934  25.938  28.266  1.00  0.00     0.031 C 
ATOM     60  C   UNL A   1      44.078  25.239  27.236  1.00  0.00     0.031 A 
BRANCH  47  61
ATOM     61  C   UNL A   1      49.707  27.282  25.710  1.00  0.00    -0.014 A 
ATOM     62  C   UNL A   1      50.805  26.874  26.489  1.00  0.00     0.010 A 
ATOM     63  C   UNL A   1      49.859  27.387  24.315  1.00  0.00     0.010 A 
ATOM     64  C   UNL A   1      52.040  26.613  25.890  1.00  0.00     0.020 A 
ATOM     65  C   UNL A   1      51.085  27.105  23.709  1.00  0.00     0.020 A 
ATOM     66  C   UNL A   1      52.174  26.736  24.503  1.00  0.00     0.054 A 
BRANCH  66  67
ATOM     67  S   UNL A   1      53.784  26.380  23.748  1.00  0.00     0.124 S 
ATOM     68  O   UNL A   1      54.175  25.153  24.439  1.00  0.00    -0.237 OA
ATOM     69  O   UNL A   1      53.450  26.225  22.335  1.00  0.00    -0.237 OA
ATOM     70  O   UNL A   1      54.586  27.558  24.070  1.00  0.00    -0.744 OA
ENDBRANCH  66  67
ENDBRANCH  47  61
BRANCH  48  71
ATOM     71  C   UNL A   1      40.964  29.723  29.862  1.00  0.00    -0.014 A 
ATOM     72  C   UNL A   1      40.816  29.873  31.251  1.00  0.00     0.010 A 
ATOM     73  C   UNL A   1      39.849  29.929  29.028  1.00  0.00     0.010 A 
ATOM     74  C   UNL A   1      39.575  30.209  31.798  1.00  0.00     0.020 A 
ATOM     75  C   UNL A   1      38.612  30.289  29.569  1.00  0.00     0.020 A 
ATOM     76  C   UNL A   1      38.481  30.417  30.954  1.00  0.00     0.054 A 
BRANCH  76  77
ATOM     77  S   UNL A   1      36.892  30.912  31.678  1.00  0.00     0.124 S 
ATOM     78  O   UNL A   1      36.688  32.231  31.090  1.00  0.00    -0.237 OA
ATOM     79  O   UNL A   1      35.990  29.862  31.210  1.00  0.00    -0.237 OA
ATOM     80  O   UNL A   1      37.156  30.898  33.116  1.00  0.00    -0.744 OA
ENDBRANCH  76  77
ENDBRANCH  48  71
BRANCH  60  81
ATOM     81  C   UNL A   1      43.494  23.865  27.044  1.00  0.00    -0.014 A 
ATOM     82  C   UNL A   1      43.453  22.936  28.098  1.00  0.00     0.010 A 
ATOM     83  C   UNL A   1      42.924  23.520  25.805  1.00  0.00     0.010 A 
ATOM     84  C   UNL A   1      42.879  21.676  27.908  1.00  0.00     0.020 A 
ATOM     85  C   UNL A   1      42.327  22.271  25.617  1.00  0.00     0.020 A 
ATOM     86  C   UNL A   1      42.320  21.351  26.668  1.00  0.00     0.054 A 
BRANCH  86  87
ATOM     87  S   UNL A   1      41.541  19.726  26.456  1.00  0.00     0.124 S 
ATOM     88  O   UNL A   1      40.150  20.087  26.201  1.00  0.00    -0.237 OA
ATOM     89  O   UNL A   1      42.265  19.167  25.317  1.00  0.00    -0.237 OA
ATOM     90  O   UNL A   1      41.788  19.055  27.731  1.00  0.00    -0.744 OA
ENDBRANCH  86  87
ENDBRANCH  60  81
ENDBRANCH  34  35
ENDBRANCH  27  29
ENDBRANCH  26  27
ENDBRANCH  25  26
ENDBRANCH  24  25
ENDBRANCH   1  24
TORSDOF 20
ENDMDL
