MODEL 1
REMARK VINA RESULT:     -10.5      0.000      0.000
REMARK SMILES O=C(OCCOCCOC(=O)[C@@H]1CCn2c(C(=O)c3ccccc3)ccc21)c1ccc(-c2c3nc(c(-c4ccc(S(=O)(=O)[O-])cc4)c4ccc([nH]4)c(-c4ccc(S(=O)(=O)[O-])cc4)c4nc(c(-c5ccc(S(=O)(=O)[O-])cc5)c5ccc2[nH]5)C=C4)C=C3)cc1
REMARK SMILES IDX 5 1 4 2 3 3 2 4 1 5 28 6 29 7 87 8 30 9 86 10 31 11 32 12
REMARK SMILES IDX 33 13 80 14 34 15 85 16 79 17 81 18 35 19 84 20 78 21 77 22
REMARK SMILES IDX 36 24 66 25 47 26 65 27 48 28 51 29 64 30 82 31 49 32 50 33
REMARK SMILES IDX 63 35 83 36 52 37 37 38 38 39 46 40 39 41 45 42 40 43 41 44
REMARK SMILES IDX 42 45 43 46 44 47 67 48 68 49 76 50 69 51 75 52 70 53 71 54
REMARK SMILES IDX 72 55 73 56 74 57 53 58 54 59 62 60 55 61 61 62 56 63 57 64
REMARK SMILES IDX 58 65 59 66 60 67 6 68 7 69 8 70 9 71 10 72 11 73 12 74
REMARK SMILES IDX 13 75 27 76 14 77 15 78 26 79 16 80 25 81 17 82 18 83 19 84
REMARK SMILES IDX 20 85 24 86 21 87 23 88 22 89
REMARK H PARENT 81 23 51 34
REMARK Flexibility Score: inf
ROOT
ATOM      1  C   UNL A   1      32.890  30.860  27.233  1.00  0.00     0.202 C 
ENDROOT
BRANCH   1   2
ATOM      2  C   UNL A   1      32.240  32.231  27.060  1.00  0.00     0.261 C 
BRANCH   2   3
ATOM      3  O   UNL A   1      33.209  33.269  27.266  1.00  0.00    -0.460 OA
BRANCH   3   4
ATOM      4  C   UNL A   1      33.524  33.835  28.457  1.00  0.00     0.338 C 
ATOM      5  O   UNL A   1      32.811  34.731  28.904  1.00  0.00    -0.246 OA
BRANCH   4   6
ATOM      6  C   UNL A   1      34.683  33.378  29.273  1.00  0.00     0.060 A 
ATOM      7  C   UNL A   1      34.603  32.369  30.232  1.00  0.00     0.016 A 
ATOM      8  C   UNL A   1      35.941  33.932  29.000  1.00  0.00     0.016 A 
ATOM      9  C   UNL A   1      35.698  31.962  30.960  1.00  0.00     0.010 A 
ATOM     10  C   UNL A   1      37.075  33.475  29.679  1.00  0.00     0.010 A 
ATOM     11  C   UNL A   1      36.947  32.484  30.662  1.00  0.00    -0.014 A 
BRANCH  11  12
ATOM     12  C   UNL A   1      38.076  31.995  31.463  1.00  0.00     0.031 A 
ATOM     13  C   UNL A   1      38.973  30.964  30.864  1.00  0.00     0.074 A 
ATOM     14  C   UNL A   1      38.351  32.598  32.635  1.00  0.00     0.049 A 
ATOM     15  N   UNL A   1      39.981  30.341  31.404  1.00  0.00    -0.248 NA
ATOM     16  C   UNL A   1      38.704  30.590  29.464  1.00  0.00     0.031 C 
ATOM     17  C   UNL A   1      37.603  33.731  33.201  1.00  0.00     0.029 A 
ATOM     18  N   UNL A   1      39.352  32.383  33.540  1.00  0.00    -0.354 N 
ATOM     19  C   UNL A   1      40.434  29.461  30.430  1.00  0.00     0.074 A 
ATOM     20  C   UNL A   1      39.598  29.635  29.265  1.00  0.00     0.031 C 
ATOM     21  C   UNL A   1      38.199  34.130  34.335  1.00  0.00     0.029 A 
ATOM     22  C   UNL A   1      39.301  33.225  34.626  1.00  0.00     0.049 A 
ATOM     23  H   UNL A   1      40.042  31.691  33.426  1.00  0.00     0.167 HD
ATOM     24  C   UNL A   1      41.450  28.574  30.526  1.00  0.00     0.031 A 
ATOM     25  C   UNL A   1      40.039  33.225  35.750  1.00  0.00     0.031 A 
ATOM     26  C   UNL A   1      42.246  28.436  31.717  1.00  0.00     0.049 A 
ATOM     27  C   UNL A   1      41.091  32.160  35.877  1.00  0.00     0.074 A 
ATOM     28  C   UNL A   1      43.256  27.535  31.985  1.00  0.00     0.029 A 
ATOM     29  N   UNL A   1      42.108  29.240  32.844  1.00  0.00    -0.354 N 
ATOM     30  N   UNL A   1      41.454  31.256  34.994  1.00  0.00    -0.248 NA
ATOM     31  C   UNL A   1      41.816  32.093  37.149  1.00  0.00     0.031 C 
ATOM     32  C   UNL A   1      43.693  27.759  33.296  1.00  0.00     0.029 A 
ATOM     33  C   UNL A   1      43.001  28.843  33.821  1.00  0.00     0.049 A 
ATOM     34  H   UNL A   1      41.469  29.982  32.933  1.00  0.00     0.167 HD
ATOM     35  C   UNL A   1      42.462  30.519  35.598  1.00  0.00     0.074 A 
ATOM     36  C   UNL A   1      42.663  31.099  36.914  1.00  0.00     0.031 C 
ATOM     37  C   UNL A   1      43.158  29.457  35.117  1.00  0.00     0.031 A 
BRANCH  24  38
ATOM     38  C   UNL A   1      41.654  27.643  29.363  1.00  0.00    -0.014 A 
ATOM     39  C   UNL A   1      40.858  26.498  29.176  1.00  0.00     0.010 A 
ATOM     40  C   UNL A   1      42.716  27.888  28.472  1.00  0.00     0.010 A 
ATOM     41  C   UNL A   1      41.156  25.587  28.159  1.00  0.00     0.020 A 
ATOM     42  C   UNL A   1      42.999  26.995  27.436  1.00  0.00     0.020 A 
ATOM     43  C   UNL A   1      42.232  25.836  27.301  1.00  0.00     0.054 A 
BRANCH  43  44
ATOM     44  S   UNL A   1      42.616  24.627  26.004  1.00  0.00     0.124 S 
ATOM     45  O   UNL A   1      42.534  25.445  24.796  1.00  0.00    -0.237 OA
ATOM     46  O   UNL A   1      43.959  24.182  26.368  1.00  0.00    -0.237 OA
ATOM     47  O   UNL A   1      41.569  23.620  26.146  1.00  0.00    -0.744 OA
ENDBRANCH  43  44
ENDBRANCH  24  38
BRANCH  25  48
ATOM     48  C   UNL A   1      39.755  34.201  36.840  1.00  0.00    -0.014 A 
ATOM     49  C   UNL A   1      39.003  33.831  37.967  1.00  0.00     0.010 A 
ATOM     50  C   UNL A   1      40.263  35.514  36.768  1.00  0.00     0.010 A 
ATOM     51  C   UNL A   1      38.758  34.752  38.993  1.00  0.00     0.020 A 
ATOM     52  C   UNL A   1      40.049  36.427  37.804  1.00  0.00     0.020 A 
ATOM     53  C   UNL A   1      39.287  36.044  38.907  1.00  0.00     0.054 A 
BRANCH  53  54
ATOM     54  S   UNL A   1      38.999  37.205  40.271  1.00  0.00     0.124 S 
ATOM     55  O   UNL A   1      38.152  36.421  41.164  1.00  0.00    -0.237 OA
ATOM     56  O   UNL A   1      40.352  37.470  40.752  1.00  0.00    -0.237 OA
ATOM     57  O   UNL A   1      38.343  38.339  39.624  1.00  0.00    -0.744 OA
ENDBRANCH  53  54
ENDBRANCH  25  48
BRANCH  37  58
ATOM     58  C   UNL A   1      44.222  28.890  36.014  1.00  0.00    -0.014 A 
ATOM     59  C   UNL A   1      43.940  27.838  36.901  1.00  0.00     0.010 A 
ATOM     60  C   UNL A   1      45.536  29.379  35.908  1.00  0.00     0.010 A 
ATOM     61  C   UNL A   1      44.957  27.299  37.690  1.00  0.00     0.020 A 
ATOM     62  C   UNL A   1      46.560  28.821  36.673  1.00  0.00     0.020 A 
ATOM     63  C   UNL A   1      46.260  27.791  37.568  1.00  0.00     0.054 A 
BRANCH  63  64
ATOM     64  S   UNL A   1      47.574  27.034  38.559  1.00  0.00     0.124 S 
ATOM     65  O   UNL A   1      47.171  25.630  38.575  1.00  0.00    -0.237 OA
ATOM     66  O   UNL A   1      48.774  27.336  37.783  1.00  0.00    -0.237 OA
ATOM     67  O   UNL A   1      47.481  27.724  39.844  1.00  0.00    -0.744 OA
ENDBRANCH  63  64
ENDBRANCH  37  58
ENDBRANCH  11  12
ENDBRANCH   4   6
ENDBRANCH   3   4
ENDBRANCH   2   3
ENDBRANCH   1   2
BRANCH   1  68
ATOM     68  O   UNL A   1      32.795  30.000  26.103  1.00  0.00    -0.374 OA
BRANCH  68  69
ATOM     69  C   UNL A   1      31.824  28.961  26.155  1.00  0.00     0.202 C 
BRANCH  69  70
ATOM     70  C   UNL A   1      32.163  27.926  25.078  1.00  0.00     0.261 C 
BRANCH  70  71
ATOM     71  O   UNL A   1      31.312  26.779  25.251  1.00  0.00    -0.463 OA
BRANCH  71  72
ATOM     72  C   UNL A   1      30.863  26.181  24.106  1.00  0.00     0.315 C 
ATOM     73  O   UNL A   1      30.642  26.763  23.052  1.00  0.00    -0.251 OA
BRANCH  72  74
ATOM     74  C   UNL A   1      30.655  24.688  24.326  1.00  0.00     0.148 C 
ATOM     75  C   UNL A   1      30.651  24.272  25.828  1.00  0.00     0.043 C 
ATOM     76  C   UNL A   1      31.780  23.843  23.809  1.00  0.00     0.033 A 
ATOM     77  C   UNL A   1      31.240  22.862  25.870  1.00  0.00     0.124 C 
ATOM     78  N   UNL A   1      32.073  22.831  24.680  1.00  0.00    -0.341 N 
ATOM     79  C   UNL A   1      32.665  23.762  22.764  1.00  0.00     0.025 A 
ATOM     80  C   UNL A   1      33.151  22.101  24.280  1.00  0.00     0.090 A 
ATOM     81  C   UNL A   1      33.566  22.702  23.092  1.00  0.00     0.032 A 
BRANCH  80  82
ATOM     82  C   UNL A   1      33.758  20.970  24.963  1.00  0.00     0.209 C 
ATOM     83  O   UNL A   1      34.391  21.074  26.013  1.00  0.00    -0.287 OA
BRANCH  82  84
ATOM     84  C   UNL A   1      33.609  19.614  24.374  1.00  0.00     0.024 A 
ATOM     85  C   UNL A   1      32.527  19.349  23.529  1.00  0.00     0.012 A 
ATOM     86  C   UNL A   1      34.561  18.618  24.629  1.00  0.00     0.012 A 
ATOM     87  C   UNL A   1      32.441  18.113  22.884  1.00  0.00     0.001 A 
ATOM     88  C   UNL A   1      34.480  17.393  23.968  1.00  0.00     0.001 A 
ATOM     89  C   UNL A   1      33.426  17.146  23.089  1.00  0.00     0.000 A 
ENDBRANCH  82  84
ENDBRANCH  80  82
ENDBRANCH  72  74
ENDBRANCH  71  72
ENDBRANCH  70  71
ENDBRANCH  69  70
ENDBRANCH  68  69
ENDBRANCH   1  68
TORSDOF 19
ENDMDL
MODEL 2
REMARK VINA RESULT:     -10.3      5.779      9.500
REMARK SMILES O=C(OCCOCCOC(=O)[C@@H]1CCn2c(C(=O)c3ccccc3)ccc21)c1ccc(-c2c3nc(c(-c4ccc(S(=O)(=O)[O-])cc4)c4ccc([nH]4)c(-c4ccc(S(=O)(=O)[O-])cc4)c4nc(c(-c5ccc(S(=O)(=O)[O-])cc5)c5ccc2[nH]5)C=C4)C=C3)cc1
REMARK SMILES IDX 5 1 4 2 3 3 2 4 1 5 28 6 29 7 87 8 30 9 86 10 31 11 32 12
REMARK SMILES IDX 33 13 80 14 34 15 85 16 79 17 81 18 35 19 84 20 78 21 77 22
REMARK SMILES IDX 36 24 66 25 47 26 65 27 48 28 51 29 64 30 82 31 49 32 50 33
REMARK SMILES IDX 63 35 83 36 52 37 37 38 38 39 46 40 39 41 45 42 40 43 41 44
REMARK SMILES IDX 42 45 43 46 44 47 67 48 68 49 76 50 69 51 75 52 70 53 71 54
REMARK SMILES IDX 72 55 73 56 74 57 53 58 54 59 62 60 55 61 61 62 56 63 57 64
REMARK SMILES IDX 58 65 59 66 60 67 6 68 7 69 8 70 9 71 10 72 11 73 12 74
REMARK SMILES IDX 13 75 27 76 14 77 15 78 26 79 16 80 25 81 17 82 18 83 19 84
REMARK SMILES IDX 20 85 24 86 21 87 23 88 22 89
REMARK H PARENT 81 23 51 34
REMARK Flexibility Score: inf
ROOT
ATOM      1  C   UNL A   1      36.586  33.651  33.647  1.00  0.00     0.202 C 
ENDROOT
BRANCH   1   2
ATOM      2  C   UNL A   1      37.746  32.726  33.286  1.00  0.00     0.261 C 
BRANCH   2   3
ATOM      3  O   UNL A   1      37.295  31.366  33.228  1.00  0.00    -0.460 OA
BRANCH   3   4
ATOM      4  C   UNL A   1      37.323  30.566  32.133  1.00  0.00     0.338 C 
ATOM      5  O   UNL A   1      36.265  30.148  31.667  1.00  0.00    -0.246 OA
BRANCH   4   6
ATOM      6  C   UNL A   1      38.592  30.210  31.441  1.00  0.00     0.060 A 
ATOM      7  C   UNL A   1      38.871  30.548  30.116  1.00  0.00     0.016 A 
ATOM      8  C   UNL A   1      39.595  29.577  32.186  1.00  0.00     0.016 A 
ATOM      9  C   UNL A   1      40.062  30.214  29.510  1.00  0.00     0.010 A 
ATOM     10  C   UNL A   1      40.837  29.300  31.605  1.00  0.00     0.010 A 
ATOM     11  C   UNL A   1      41.065  29.623  30.261  1.00  0.00    -0.014 A 
BRANCH  11  12
ATOM     12  C   UNL A   1      42.316  29.308  29.559  1.00  0.00     0.031 A 
ATOM     13  C   UNL A   1      42.450  27.967  28.919  1.00  0.00     0.074 A 
ATOM     14  C   UNL A   1      43.228  30.284  29.387  1.00  0.00     0.049 A 
ATOM     15  N   UNL A   1      43.477  27.446  28.311  1.00  0.00    -0.248 NA
ATOM     16  C   UNL A   1      41.261  27.096  28.961  1.00  0.00     0.031 C 
ATOM     17  C   UNL A   1      43.081  31.671  29.850  1.00  0.00     0.029 A 
ATOM     18  N   UNL A   1      44.432  30.280  28.742  1.00  0.00    -0.354 N 
ATOM     19  C   UNL A   1      43.080  26.167  27.946  1.00  0.00     0.074 A 
ATOM     20  C   UNL A   1      41.717  25.992  28.392  1.00  0.00     0.031 C 
ATOM     21  C   UNL A   1      44.138  32.387  29.438  1.00  0.00     0.029 A 
ATOM     22  C   UNL A   1      45.077  31.494  28.775  1.00  0.00     0.049 A 
ATOM     23  H   UNL A   1      44.804  29.484  28.298  1.00  0.00     0.167 HD
ATOM     24  C   UNL A   1      43.812  25.225  27.311  1.00  0.00     0.031 A 
ATOM     25  C   UNL A   1      46.310  31.826  28.355  1.00  0.00     0.031 A 
ATOM     26  C   UNL A   1      45.171  25.451  26.896  1.00  0.00     0.049 A 
ATOM     27  C   UNL A   1      47.144  30.732  27.750  1.00  0.00     0.074 A 
ATOM     28  C   UNL A   1      46.057  24.569  26.311  1.00  0.00     0.029 A 
ATOM     29  N   UNL A   1      45.835  26.665  27.031  1.00  0.00    -0.354 N 
ATOM     30  N   UNL A   1      46.804  29.487  27.496  1.00  0.00    -0.248 NA
ATOM     31  C   UNL A   1      48.525  31.069  27.397  1.00  0.00     0.031 C 
ATOM     32  C   UNL A   1      47.276  25.237  26.141  1.00  0.00     0.029 A 
ATOM     33  C   UNL A   1      47.129  26.553  26.559  1.00  0.00     0.049 A 
ATOM     34  H   UNL A   1      45.442  27.485  27.407  1.00  0.00     0.167 HD
ATOM     35  C   UNL A   1      47.927  28.893  26.939  1.00  0.00     0.074 A 
ATOM     36  C   UNL A   1      48.948  29.924  26.875  1.00  0.00     0.031 C 
ATOM     37  C   UNL A   1      48.106  27.615  26.520  1.00  0.00     0.031 A 
BRANCH  24  38
ATOM     38  C   UNL A   1      43.183  23.869  27.147  1.00  0.00    -0.014 A 
ATOM     39  C   UNL A   1      43.197  22.911  28.178  1.00  0.00     0.010 A 
ATOM     40  C   UNL A   1      42.622  23.523  25.903  1.00  0.00     0.010 A 
ATOM     41  C   UNL A   1      42.717  21.618  27.949  1.00  0.00     0.020 A 
ATOM     42  C   UNL A   1      42.114  22.241  25.680  1.00  0.00     0.020 A 
ATOM     43  C   UNL A   1      42.188  21.288  26.697  1.00  0.00     0.054 A 
BRANCH  43  44
ATOM     44  S   UNL A   1      41.594  19.597  26.415  1.00  0.00     0.124 S 
ATOM     45  O   UNL A   1      42.409  19.177  25.278  1.00  0.00    -0.237 OA
ATOM     46  O   UNL A   1      41.898  18.936  27.682  1.00  0.00    -0.237 OA
ATOM     47  O   UNL A   1      40.172  19.770  26.133  1.00  0.00    -0.744 OA
ENDBRANCH  43  44
ENDBRANCH  24  38
BRANCH  25  48
ATOM     48  C   UNL A   1      46.833  33.206  28.562  1.00  0.00    -0.014 A 
ATOM     49  C   UNL A   1      46.606  34.217  27.613  1.00  0.00     0.010 A 
ATOM     50  C   UNL A   1      47.545  33.527  29.735  1.00  0.00     0.010 A 
ATOM     51  C   UNL A   1      47.087  35.515  27.827  1.00  0.00     0.020 A 
ATOM     52  C   UNL A   1      47.999  34.829  29.968  1.00  0.00     0.020 A 
ATOM     53  C   UNL A   1      47.777  35.813  29.007  1.00  0.00     0.054 A 
BRANCH  53  54
ATOM     54  S   UNL A   1      48.348  37.513  29.286  1.00  0.00     0.124 S 
ATOM     55  O   UNL A   1      47.258  38.298  28.714  1.00  0.00    -0.237 OA
ATOM     56  O   UNL A   1      48.473  37.570  30.740  1.00  0.00    -0.237 OA
ATOM     57  O   UNL A   1      49.612  37.575  28.556  1.00  0.00    -0.744 OA
ENDBRANCH  53  54
ENDBRANCH  25  48
BRANCH  37  58
ATOM     58  C   UNL A   1      49.445  27.284  25.926  1.00  0.00    -0.014 A 
ATOM     59  C   UNL A   1      50.488  26.775  26.719  1.00  0.00     0.010 A 
ATOM     60  C   UNL A   1      49.630  27.423  24.539  1.00  0.00     0.010 A 
ATOM     61  C   UNL A   1      51.707  26.434  26.134  1.00  0.00     0.020 A 
ATOM     62  C   UNL A   1      50.838  27.053  23.948  1.00  0.00     0.020 A 
ATOM     63  C   UNL A   1      51.873  26.571  24.752  1.00  0.00     0.054 A 
BRANCH  63  64
ATOM     64  S   UNL A   1      53.445  26.064  24.009  1.00  0.00     0.124 S 
ATOM     65  O   UNL A   1      53.135  26.113  22.582  1.00  0.00    -0.237 OA
ATOM     66  O   UNL A   1      54.370  27.089  24.487  1.00  0.00    -0.237 OA
ATOM     67  O   UNL A   1      53.671  24.727  24.553  1.00  0.00    -0.744 OA
ENDBRANCH  63  64
ENDBRANCH  37  58
ENDBRANCH  11  12
ENDBRANCH   4   6
ENDBRANCH   3   4
ENDBRANCH   2   3
ENDBRANCH   1   2
BRANCH   1  68
ATOM     68  O   UNL A   1      35.325  33.008  33.796  1.00  0.00    -0.374 OA
BRANCH  68  69
ATOM     69  C   UNL A   1      34.371  33.192  32.757  1.00  0.00     0.202 C 
BRANCH  69  70
ATOM     70  C   UNL A   1      35.056  33.911  31.592  1.00  0.00     0.261 C 
BRANCH  70  71
ATOM     71  O   UNL A   1      35.108  33.022  30.462  1.00  0.00    -0.463 OA
BRANCH  71  72
ATOM     72  C   UNL A   1      35.774  33.485  29.359  1.00  0.00     0.315 C 
ATOM     73  O   UNL A   1      36.773  34.192  29.388  1.00  0.00    -0.251 OA
BRANCH  72  74
ATOM     74  C   UNL A   1      35.088  33.013  28.083  1.00  0.00     0.148 C 
ATOM     75  C   UNL A   1      33.536  33.147  28.120  1.00  0.00     0.043 C 
ATOM     76  C   UNL A   1      35.232  31.542  27.833  1.00  0.00     0.033 A 
ATOM     77  C   UNL A   1      32.999  31.993  27.274  1.00  0.00     0.124 C 
ATOM     78  N   UNL A   1      34.061  31.008  27.373  1.00  0.00    -0.341 N 
ATOM     79  C   UNL A   1      36.137  30.519  27.953  1.00  0.00     0.025 A 
ATOM     80  C   UNL A   1      34.135  29.655  27.223  1.00  0.00     0.090 A 
ATOM     81  C   UNL A   1      35.427  29.323  27.627  1.00  0.00     0.032 A 
BRANCH  80  82
ATOM     82  C   UNL A   1      33.084  28.755  26.777  1.00  0.00     0.209 C 
ATOM     83  O   UNL A   1      32.138  28.414  27.487  1.00  0.00    -0.287 OA
BRANCH  82  84
ATOM     84  C   UNL A   1      33.141  28.216  25.393  1.00  0.00     0.024 A 
ATOM     85  C   UNL A   1      32.895  29.072  24.314  1.00  0.00     0.012 A 
ATOM     86  C   UNL A   1      33.475  26.875  25.163  1.00  0.00     0.012 A 
ATOM     87  C   UNL A   1      33.055  28.601  23.010  1.00  0.00     0.001 A 
ATOM     88  C   UNL A   1      33.652  26.416  23.859  1.00  0.00     0.001 A 
ATOM     89  C   UNL A   1      33.453  27.282  22.785  1.00  0.00     0.000 A 
ENDBRANCH  82  84
ENDBRANCH  80  82
ENDBRANCH  72  74
ENDBRANCH  71  72
ENDBRANCH  70  71
ENDBRANCH  69  70
ENDBRANCH  68  69
ENDBRANCH   1  68
TORSDOF 19
ENDMDL
MODEL 3
REMARK VINA RESULT:      -9.8      8.383     14.278
REMARK SMILES O=C(OCCOCCOC(=O)[C@@H]1CCn2c(C(=O)c3ccccc3)ccc21)c1ccc(-c2c3nc(c(-c4ccc(S(=O)(=O)[O-])cc4)c4ccc([nH]4)c(-c4ccc(S(=O)(=O)[O-])cc4)c4nc(c(-c5ccc(S(=O)(=O)[O-])cc5)c5ccc2[nH]5)C=C4)C=C3)cc1
REMARK SMILES IDX 5 1 4 2 3 3 2 4 1 5 28 6 29 7 87 8 30 9 86 10 31 11 32 12
REMARK SMILES IDX 33 13 80 14 34 15 85 16 79 17 81 18 35 19 84 20 78 21 77 22
REMARK SMILES IDX 36 24 66 25 47 26 65 27 48 28 51 29 64 30 82 31 49 32 50 33
REMARK SMILES IDX 63 35 83 36 52 37 37 38 38 39 46 40 39 41 45 42 40 43 41 44
REMARK SMILES IDX 42 45 43 46 44 47 67 48 68 49 76 50 69 51 75 52 70 53 71 54
REMARK SMILES IDX 72 55 73 56 74 57 53 58 54 59 62 60 55 61 61 62 56 63 57 64
REMARK SMILES IDX 58 65 59 66 60 67 6 68 7 69 8 70 9 71 10 72 11 73 12 74
REMARK SMILES IDX 13 75 27 76 14 77 15 78 26 79 16 80 25 81 17 82 18 83 19 84
REMARK SMILES IDX 20 85 24 86 21 87 23 88 22 89
REMARK H PARENT 81 23 51 34
REMARK Flexibility Score: inf
ROOT
ATOM      1  C   UNL A   1      47.488  20.557  37.184  1.00  0.00     0.202 C 
ENDROOT
BRANCH   1   2
ATOM      2  C   UNL A   1      46.326  21.532  37.014  1.00  0.00     0.261 C 
BRANCH   2   3
ATOM      3  O   UNL A   1      46.446  22.234  35.769  1.00  0.00    -0.460 OA
BRANCH   3   4
ATOM      4  C   UNL A   1      45.467  22.376  34.841  1.00  0.00     0.338 C 
ATOM      5  O   UNL A   1      44.805  21.395  34.510  1.00  0.00    -0.246 OA
BRANCH   4   6
ATOM      6  C   UNL A   1      45.130  23.696  34.238  1.00  0.00     0.060 A 
ATOM      7  C   UNL A   1      45.825  24.873  34.515  1.00  0.00     0.016 A 
ATOM      8  C   UNL A   1      44.114  23.740  33.274  1.00  0.00     0.016 A 
ATOM      9  C   UNL A   1      45.494  26.075  33.930  1.00  0.00     0.010 A 
ATOM     10  C   UNL A   1      43.818  24.939  32.617  1.00  0.00     0.010 A 
ATOM     11  C   UNL A   1      44.515  26.108  32.950  1.00  0.00    -0.014 A 
BRANCH  11  12
ATOM     12  C   UNL A   1      44.222  27.417  32.353  1.00  0.00     0.031 A 
ATOM     13  C   UNL A   1      44.747  27.704  30.986  1.00  0.00     0.074 A 
ATOM     14  C   UNL A   1      43.371  28.245  32.987  1.00  0.00     0.049 A 
ATOM     15  N   UNL A   1      44.675  28.804  30.293  1.00  0.00    -0.248 NA
ATOM     16  C   UNL A   1      45.441  26.598  30.302  1.00  0.00     0.031 C 
ATOM     17  C   UNL A   1      42.690  27.950  34.256  1.00  0.00     0.029 A 
ATOM     18  N   UNL A   1      42.893  29.476  32.639  1.00  0.00    -0.354 N 
ATOM     19  C   UNL A   1      45.360  28.543  29.115  1.00  0.00     0.074 A 
ATOM     20  C   UNL A   1      45.834  27.181  29.181  1.00  0.00     0.031 C 
ATOM     21  C   UNL A   1      41.857  28.958  34.554  1.00  0.00     0.029 A 
ATOM     22  C   UNL A   1      42.018  30.006  33.558  1.00  0.00     0.049 A 
ATOM     23  H   UNL A   1      43.151  29.941  31.810  1.00  0.00     0.167 HD
ATOM     24  C   UNL A   1      45.583  29.389  28.084  1.00  0.00     0.031 A 
ATOM     25  C   UNL A   1      41.452  31.225  33.604  1.00  0.00     0.031 A 
ATOM     26  C   UNL A   1      45.093  30.742  28.074  1.00  0.00     0.049 A 
ATOM     27  C   UNL A   1      41.802  32.184  32.502  1.00  0.00     0.074 A 
ATOM     28  C   UNL A   1      45.301  31.733  27.137  1.00  0.00     0.029 A 
ATOM     29  N   UNL A   1      44.287  31.286  29.069  1.00  0.00    -0.354 N 
ATOM     30  N   UNL A   1      42.538  31.971  31.433  1.00  0.00    -0.248 NA
ATOM     31  C   UNL A   1      41.274  33.546  32.615  1.00  0.00     0.031 C 
ATOM     32  C   UNL A   1      44.665  32.894  27.592  1.00  0.00     0.029 A 
ATOM     33  C   UNL A   1      44.005  32.607  28.781  1.00  0.00     0.049 A 
ATOM     34  H   UNL A   1      43.965  30.802  29.863  1.00  0.00     0.167 HD
ATOM     35  C   UNL A   1      42.550  33.170  30.736  1.00  0.00     0.074 A 
ATOM     36  C   UNL A   1      41.730  34.097  31.497  1.00  0.00     0.031 C 
ATOM     37  C   UNL A   1      43.181  33.486  29.577  1.00  0.00     0.031 A 
BRANCH  24  38
ATOM     38  C   UNL A   1      46.469  28.894  26.975  1.00  0.00    -0.014 A 
ATOM     39  C   UNL A   1      45.944  28.376  25.776  1.00  0.00     0.010 A 
ATOM     40  C   UNL A   1      47.863  28.887  27.168  1.00  0.00     0.010 A 
ATOM     41  C   UNL A   1      46.792  27.807  24.820  1.00  0.00     0.020 A 
ATOM     42  C   UNL A   1      48.716  28.347  26.202  1.00  0.00     0.020 A 
ATOM     43  C   UNL A   1      48.172  27.787  25.044  1.00  0.00     0.054 A 
BRANCH  43  44
ATOM     44  S   UNL A   1      49.250  27.022  23.802  1.00  0.00     0.124 S 
ATOM     45  O   UNL A   1      48.360  26.032  23.200  1.00  0.00    -0.237 OA
ATOM     46  O   UNL A   1      49.602  28.151  22.945  1.00  0.00    -0.237 OA
ATOM     47  O   UNL A   1      50.352  26.473  24.588  1.00  0.00    -0.744 OA
ENDBRANCH  43  44
ENDBRANCH  24  38
BRANCH  25  48
ATOM     48  C   UNL A   1      40.580  31.610  34.750  1.00  0.00    -0.014 A 
ATOM     49  C   UNL A   1      41.121  32.188  35.911  1.00  0.00     0.010 A 
ATOM     50  C   UNL A   1      39.185  31.423  34.675  1.00  0.00     0.010 A 
ATOM     51  C   UNL A   1      40.289  32.563  36.973  1.00  0.00     0.020 A 
ATOM     52  C   UNL A   1      38.347  31.824  35.720  1.00  0.00     0.020 A 
ATOM     53  C   UNL A   1      38.906  32.382  36.868  1.00  0.00     0.054 A 
BRANCH  53  54
ATOM     54  S   UNL A   1      37.843  32.919  38.238  1.00  0.00     0.124 S 
ATOM     55  O   UNL A   1      38.533  34.116  38.707  1.00  0.00    -0.237 OA
ATOM     56  O   UNL A   1      36.562  33.146  37.573  1.00  0.00    -0.237 OA
ATOM     57  O   UNL A   1      37.866  31.783  39.157  1.00  0.00    -0.744 OA
ENDBRANCH  53  54
ENDBRANCH  25  48
BRANCH  37  58
ATOM     58  C   UNL A   1      42.972  34.879  29.054  1.00  0.00    -0.014 A 
ATOM     59  C   UNL A   1      43.741  35.956  29.525  1.00  0.00     0.010 A 
ATOM     60  C   UNL A   1      42.034  35.089  28.028  1.00  0.00     0.010 A 
ATOM     61  C   UNL A   1      43.557  37.231  28.990  1.00  0.00     0.020 A 
ATOM     62  C   UNL A   1      41.871  36.357  27.471  1.00  0.00     0.020 A 
ATOM     63  C   UNL A   1      42.626  37.423  27.965  1.00  0.00     0.054 A 
BRANCH  63  64
ATOM     64  S   UNL A   1      42.449  39.076  27.247  1.00  0.00     0.124 S 
ATOM     65  O   UNL A   1      42.296  39.909  28.437  1.00  0.00    -0.237 OA
ATOM     66  O   UNL A   1      43.704  39.244  26.518  1.00  0.00    -0.237 OA
ATOM     67  O   UNL A   1      41.259  38.964  26.407  1.00  0.00    -0.744 OA
ENDBRANCH  63  64
ENDBRANCH  37  58
ENDBRANCH  11  12
ENDBRANCH   4   6
ENDBRANCH   3   4
ENDBRANCH   2   3
ENDBRANCH   1   2
BRANCH   1  68
ATOM     68  O   UNL A   1      47.144  19.302  37.762  1.00  0.00    -0.374 OA
BRANCH  68  69
ATOM     69  C   UNL A   1      47.815  18.930  38.960  1.00  0.00     0.202 C 
BRANCH  69  70
ATOM     70  C   UNL A   1      46.802  18.939  40.107  1.00  0.00     0.261 C 
BRANCH  70  71
ATOM     71  O   UNL A   1      46.445  17.582  40.425  1.00  0.00    -0.463 OA
BRANCH  71  72
ATOM     72  C   UNL A   1      45.210  17.168  40.009  1.00  0.00     0.315 C 
ATOM     73  O   UNL A   1      44.941  16.791  38.876  1.00  0.00    -0.251 OA
BRANCH  72  74
ATOM     74  C   UNL A   1      44.203  17.257  41.149  1.00  0.00     0.148 C 
ATOM     75  C   UNL A   1      44.819  16.972  42.552  1.00  0.00     0.043 C 
ATOM     76  C   UNL A   1      43.140  16.202  41.095  1.00  0.00     0.033 A 
ATOM     77  C   UNL A   1      43.707  16.315  43.369  1.00  0.00     0.124 C 
ATOM     78  N   UNL A   1      42.878  15.708  42.342  1.00  0.00    -0.341 N 
ATOM     79  C   UNL A   1      42.358  15.514  40.202  1.00  0.00     0.025 A 
ATOM     80  C   UNL A   1      41.981  14.683  42.313  1.00  0.00     0.090 A 
ATOM     81  C   UNL A   1      41.674  14.517  40.964  1.00  0.00     0.032 A 
BRANCH  80  82
ATOM     82  C   UNL A   1      41.484  13.908  43.439  1.00  0.00     0.209 C 
ATOM     83  O   UNL A   1      40.534  14.261  44.137  1.00  0.00    -0.287 OA
BRANCH  82  84
ATOM     84  C   UNL A   1      42.147  12.620  43.770  1.00  0.00     0.024 A 
ATOM     85  C   UNL A   1      43.220  12.612  44.667  1.00  0.00     0.012 A 
ATOM     86  C   UNL A   1      41.681  11.417  43.223  1.00  0.00     0.012 A 
ATOM     87  C   UNL A   1      43.775  11.396  45.069  1.00  0.00     0.001 A 
ATOM     88  C   UNL A   1      42.227  10.204  43.642  1.00  0.00     0.001 A 
ATOM     89  C   UNL A   1      43.266  10.195  44.573  1.00  0.00     0.000 A 
ENDBRANCH  82  84
ENDBRANCH  80  82
ENDBRANCH  72  74
ENDBRANCH  71  72
ENDBRANCH  70  71
ENDBRANCH  69  70
ENDBRANCH  68  69
ENDBRANCH   1  68
TORSDOF 19
ENDMDL
