MODEL 1
REMARK VINA RESULT:     -10.7      0.000      0.000
REMARK SMILES CCc1cccc(CC)c1NC(=O)C[C@@](C)(C(=O)OCCOCCOC(=O)c1ccc(-c2c3nc(c(-c4ccc(S(=O)(=O)[O-])cc4)c4ccc([nH]4)c(-c4ccc(S(=O)(=O)[O-])cc4)c4nc(c(-c5ccc(S(=O)(=O)[O-])cc5)c5ccc2[nH]5)C=C4)C=C3)cc1)c1ccccc1
REMARK SMILES IDX 21 1 20 2 19 3 17 4 18 5 15 6 16 7 14 8 12 9 11 10 13 12
REMARK SMILES IDX 10 13 3 14 4 15 5 16 7 17 6 18 2 19 1 20 8 21 9 22 88 23
REMARK SMILES IDX 89 24 93 25 90 26 92 27 91 28 22 29 23 30 24 31 25 32 26 33
REMARK SMILES IDX 27 34 28 35 29 36 87 37 30 38 86 39 31 40 32 41 33 42 80 43
REMARK SMILES IDX 34 44 85 45 79 46 81 47 35 48 84 49 78 50 77 51 36 53 66 54
REMARK SMILES IDX 47 55 65 56 48 57 51 58 64 59 82 60 49 61 50 62 63 64 83 65
REMARK SMILES IDX 52 66 37 67 38 68 46 69 39 70 45 71 40 72 41 73 42 74 43 75
REMARK SMILES IDX 44 76 67 77 68 78 76 79 69 80 75 81 70 82 71 83 72 84 73 85
REMARK SMILES IDX 74 86 53 87 54 88 62 89 55 90 61 91 56 92 57 93 58 94 59 95
REMARK SMILES IDX 60 96
REMARK H PARENT 11 11 81 52 51 63
REMARK Flexibility Score: inf
ROOT
ATOM      1  C   UNL A   1      37.097  20.619  24.982  1.00  0.00     0.202 C 
ENDROOT
BRANCH   1   2
ATOM      2  C   UNL A   1      35.584  20.840  25.034  1.00  0.00     0.261 C 
BRANCH   2   3
ATOM      3  O   UNL A   1      35.123  22.083  24.480  1.00  0.00    -0.463 OA
BRANCH   3   4
ATOM      4  C   UNL A   1      33.932  22.549  24.961  1.00  0.00     0.316 C 
ATOM      5  O   UNL A   1      32.956  21.826  25.143  1.00  0.00    -0.251 OA
BRANCH   4   6
ATOM      6  C   UNL A   1      33.911  24.082  25.227  1.00  0.00     0.099 C 
ATOM      7  C   UNL A   1      35.370  24.396  25.648  1.00  0.00     0.029 C 
BRANCH   6   8
ATOM      8  C   UNL A   1      32.869  24.452  26.317  1.00  0.00     0.123 C 
BRANCH   8   9
ATOM      9  C   UNL A   1      31.474  24.827  25.882  1.00  0.00     0.225 C 
ATOM     10  N   UNL A   1      30.994  26.020  25.477  1.00  0.00    -0.326 N 
ATOM     11  H   UNL A   1      30.073  25.865  25.167  1.00  0.00     0.169 HD
ATOM     12  O   UNL A   1      30.635  23.910  25.832  1.00  0.00    -0.275 OA
BRANCH  10  13
ATOM     13  C   UNL A   1      31.257  27.405  25.312  1.00  0.00     0.047 A 
ATOM     14  C   UNL A   1      30.436  28.021  24.303  1.00  0.00    -0.024 A 
ATOM     15  C   UNL A   1      30.441  29.417  24.094  1.00  0.00     0.006 A 
ATOM     16  C   UNL A   1      31.227  30.240  24.865  1.00  0.00     0.001 A 
ATOM     17  C   UNL A   1      32.133  28.253  26.022  1.00  0.00    -0.024 A 
ATOM     18  C   UNL A   1      32.048  29.661  25.813  1.00  0.00     0.006 A 
BRANCH  14  19
ATOM     19  C   UNL A   1      29.526  27.250  23.354  1.00  0.00     0.034 C 
ATOM     20  C   UNL A   1      28.175  27.928  23.188  1.00  0.00     0.009 C 
ENDBRANCH  14  19
BRANCH  17  21
ATOM     21  C   UNL A   1      33.179  27.915  27.050  1.00  0.00     0.034 C 
ATOM     22  C   UNL A   1      34.116  29.100  27.335  1.00  0.00     0.009 C 
ENDBRANCH  17  21
ENDBRANCH  10  13
ENDBRANCH   8   9
ENDBRANCH   6   8
BRANCH   6  23
ATOM     23  C   UNL A   1      33.695  24.889  23.910  1.00  0.00    -0.030 A 
ATOM     24  C   UNL A   1      34.166  26.206  23.755  1.00  0.00     0.005 A 
ATOM     25  C   UNL A   1      32.862  24.377  22.895  1.00  0.00     0.005 A 
ATOM     26  C   UNL A   1      33.713  27.017  22.710  1.00  0.00     0.000 A 
ATOM     27  C   UNL A   1      32.405  25.192  21.855  1.00  0.00     0.000 A 
ATOM     28  C   UNL A   1      32.807  26.521  21.779  1.00  0.00     0.000 A 
ENDBRANCH   6  23
ENDBRANCH   4   6
ENDBRANCH   3   4
ENDBRANCH   2   3
ENDBRANCH   1   2
BRANCH   1  29
ATOM     29  O   UNL A   1      37.965  21.741  24.972  1.00  0.00    -0.374 OA
BRANCH  29  30
ATOM     30  C   UNL A   1      38.453  22.235  26.211  1.00  0.00     0.202 C 
BRANCH  30  31
ATOM     31  C   UNL A   1      39.649  23.203  26.247  1.00  0.00     0.261 C 
BRANCH  31  32
ATOM     32  O   UNL A   1      39.339  24.606  26.234  1.00  0.00    -0.460 OA
BRANCH  32  33
ATOM     33  C   UNL A   1      40.432  25.410  26.247  1.00  0.00     0.338 C 
ATOM     34  O   UNL A   1      41.183  25.646  25.309  1.00  0.00    -0.246 OA
BRANCH  33  35
ATOM     35  C   UNL A   1      40.564  26.099  27.542  1.00  0.00     0.060 A 
ATOM     36  C   UNL A   1      39.489  26.035  28.438  1.00  0.00     0.016 A 
ATOM     37  C   UNL A   1      41.660  26.924  27.808  1.00  0.00     0.016 A 
ATOM     38  C   UNL A   1      39.485  26.833  29.582  1.00  0.00     0.010 A 
ATOM     39  C   UNL A   1      41.648  27.733  28.950  1.00  0.00     0.010 A 
ATOM     40  C   UNL A   1      40.543  27.721  29.821  1.00  0.00    -0.014 A 
BRANCH  40  41
ATOM     41  C   UNL A   1      40.414  28.742  30.890  1.00  0.00     0.031 A 
ATOM     42  C   UNL A   1      41.322  28.661  32.091  1.00  0.00     0.074 A 
ATOM     43  C   UNL A   1      39.534  29.754  30.777  1.00  0.00     0.049 A 
ATOM     44  N   UNL A   1      41.367  29.429  33.148  1.00  0.00    -0.248 NA
ATOM     45  C   UNL A   1      42.315  27.572  32.097  1.00  0.00     0.031 C 
ATOM     46  C   UNL A   1      38.639  29.974  29.642  1.00  0.00     0.029 A 
ATOM     47  N   UNL A   1      39.252  30.790  31.633  1.00  0.00    -0.354 N 
ATOM     48  C   UNL A   1      42.391  28.924  33.941  1.00  0.00     0.074 A 
ATOM     49  C   UNL A   1      42.923  27.764  33.259  1.00  0.00     0.031 C 
ATOM     50  C   UNL A   1      37.900  31.073  29.876  1.00  0.00     0.029 A 
ATOM     51  C   UNL A   1      38.248  31.616  31.188  1.00  0.00     0.049 A 
ATOM     52  H   UNL A   1      39.724  30.928  32.486  1.00  0.00     0.167 HD
ATOM     53  C   UNL A   1      42.856  29.389  35.125  1.00  0.00     0.031 A 
ATOM     54  C   UNL A   1      37.663  32.677  31.780  1.00  0.00     0.031 A 
ATOM     55  C   UNL A   1      42.319  30.533  35.813  1.00  0.00     0.049 A 
ATOM     56  C   UNL A   1      38.139  33.118  33.140  1.00  0.00     0.074 A 
ATOM     57  C   UNL A   1      42.711  31.070  37.027  1.00  0.00     0.029 A 
ATOM     58  N   UNL A   1      41.276  31.317  35.348  1.00  0.00    -0.354 N 
ATOM     59  N   UNL A   1      39.109  32.628  33.875  1.00  0.00    -0.248 NA
ATOM     60  C   UNL A   1      37.443  34.262  33.749  1.00  0.00     0.031 C 
ATOM     61  C   UNL A   1      41.876  32.154  37.316  1.00  0.00     0.029 A 
ATOM     62  C   UNL A   1      41.000  32.324  36.256  1.00  0.00     0.049 A 
ATOM     63  H   UNL A   1      40.801  31.177  34.496  1.00  0.00     0.167 HD
ATOM     64  C   UNL A   1      39.159  33.424  35.015  1.00  0.00     0.074 A 
ATOM     65  C   UNL A   1      38.132  34.433  34.868  1.00  0.00     0.031 C 
ATOM     66  C   UNL A   1      39.982  33.328  36.089  1.00  0.00     0.031 A 
BRANCH  53  67
ATOM     67  C   UNL A   1      44.001  28.650  35.767  1.00  0.00    -0.014 A 
ATOM     68  C   UNL A   1      45.331  29.042  35.535  1.00  0.00     0.010 A 
ATOM     69  C   UNL A   1      43.741  27.599  36.664  1.00  0.00     0.010 A 
ATOM     70  C   UNL A   1      46.384  28.381  36.175  1.00  0.00     0.020 A 
ATOM     71  C   UNL A   1      44.789  26.950  37.323  1.00  0.00     0.020 A 
ATOM     72  C   UNL A   1      46.106  27.340  37.066  1.00  0.00     0.054 A 
BRANCH  72  73
ATOM     73  S   UNL A   1      47.489  26.533  37.920  1.00  0.00     0.124 S 
ATOM     74  O   UNL A   1      48.537  26.579  36.903  1.00  0.00    -0.237 OA
ATOM     75  O   UNL A   1      47.700  27.398  39.078  1.00  0.00    -0.237 OA
ATOM     76  O   UNL A   1      46.977  25.199  38.226  1.00  0.00    -0.744 OA
ENDBRANCH  72  73
ENDBRANCH  53  67
BRANCH  54  77
ATOM     77  C   UNL A   1      36.533  33.383  31.114  1.00  0.00    -0.014 A 
ATOM     78  C   UNL A   1      36.692  33.958  29.841  1.00  0.00     0.010 A 
ATOM     79  C   UNL A   1      35.299  33.518  31.775  1.00  0.00     0.010 A 
ATOM     80  C   UNL A   1      35.650  34.687  29.258  1.00  0.00     0.020 A 
ATOM     81  C   UNL A   1      34.247  34.221  31.184  1.00  0.00     0.020 A 
ATOM     82  C   UNL A   1      34.435  34.818  29.937  1.00  0.00     0.054 A 
BRANCH  82  83
ATOM     83  S   UNL A   1      33.088  35.753  29.161  1.00  0.00     0.124 S 
ATOM     84  O   UNL A   1      32.398  34.717  28.400  1.00  0.00    -0.237 OA
ATOM     85  O   UNL A   1      32.364  36.283  30.314  1.00  0.00    -0.237 OA
ATOM     86  O   UNL A   1      33.789  36.757  28.363  1.00  0.00    -0.744 OA
ENDBRANCH  82  83
ENDBRANCH  54  77
BRANCH  66  87
ATOM     87  C   UNL A   1      39.840  34.367  37.169  1.00  0.00    -0.014 A 
ATOM     88  C   UNL A   1      40.387  35.653  37.021  1.00  0.00     0.010 A 
ATOM     89  C   UNL A   1      39.099  34.065  38.327  1.00  0.00     0.010 A 
ATOM     90  C   UNL A   1      40.221  36.610  38.026  1.00  0.00     0.020 A 
ATOM     91  C   UNL A   1      38.910  35.027  39.321  1.00  0.00     0.020 A 
ATOM     92  C   UNL A   1      39.484  36.291  39.170  1.00  0.00     0.054 A 
BRANCH  92  93
ATOM     93  S   UNL A   1      39.246  37.563  40.441  1.00  0.00     0.124 S 
ATOM     94  O   UNL A   1      40.578  38.155  40.532  1.00  0.00    -0.237 OA
ATOM     95  O   UNL A   1      38.217  38.417  39.852  1.00  0.00    -0.237 OA
ATOM     96  O   UNL A   1      38.820  36.804  41.615  1.00  0.00    -0.744 OA
ENDBRANCH  92  93
ENDBRANCH  66  87
ENDBRANCH  40  41
ENDBRANCH  33  35
ENDBRANCH  32  33
ENDBRANCH  31  32
ENDBRANCH  30  31
ENDBRANCH  29  30
ENDBRANCH   1  29
TORSDOF 23
ENDMDL
MODEL 2
REMARK VINA RESULT:     -10.5      5.931     10.263
REMARK SMILES CCc1cccc(CC)c1NC(=O)C[C@@](C)(C(=O)OCCOCCOC(=O)c1ccc(-c2c3nc(c(-c4ccc(S(=O)(=O)[O-])cc4)c4ccc([nH]4)c(-c4ccc(S(=O)(=O)[O-])cc4)c4nc(c(-c5ccc(S(=O)(=O)[O-])cc5)c5ccc2[nH]5)C=C4)C=C3)cc1)c1ccccc1
REMARK SMILES IDX 21 1 20 2 19 3 17 4 18 5 15 6 16 7 14 8 12 9 11 10 13 12
REMARK SMILES IDX 10 13 3 14 4 15 5 16 7 17 6 18 2 19 1 20 8 21 9 22 88 23
REMARK SMILES IDX 89 24 93 25 90 26 92 27 91 28 22 29 23 30 24 31 25 32 26 33
REMARK SMILES IDX 27 34 28 35 29 36 87 37 30 38 86 39 31 40 32 41 33 42 80 43
REMARK SMILES IDX 34 44 85 45 79 46 81 47 35 48 84 49 78 50 77 51 36 53 66 54
REMARK SMILES IDX 47 55 65 56 48 57 51 58 64 59 82 60 49 61 50 62 63 64 83 65
REMARK SMILES IDX 52 66 37 67 38 68 46 69 39 70 45 71 40 72 41 73 42 74 43 75
REMARK SMILES IDX 44 76 67 77 68 78 76 79 69 80 75 81 70 82 71 83 72 84 73 85
REMARK SMILES IDX 74 86 53 87 54 88 62 89 55 90 61 91 56 92 57 93 58 94 59 95
REMARK SMILES IDX 60 96
REMARK H PARENT 11 11 81 52 51 63
REMARK Flexibility Score: inf
ROOT
ATOM      1  C   UNL A   1      36.329  20.352  25.372  1.00  0.00     0.202 C 
ENDROOT
BRANCH   1   2
ATOM      2  C   UNL A   1      34.975  20.693  24.746  1.00  0.00     0.261 C 
BRANCH   2   3
ATOM      3  O   UNL A   1      34.383  21.924  25.191  1.00  0.00    -0.463 OA
BRANCH   3   4
ATOM      4  C   UNL A   1      34.428  22.965  24.308  1.00  0.00     0.316 C 
ATOM      5  O   UNL A   1      35.155  22.970  23.318  1.00  0.00    -0.251 OA
BRANCH   4   6
ATOM      6  C   UNL A   1      33.503  24.158  24.684  1.00  0.00     0.099 C 
ATOM      7  C   UNL A   1      34.320  24.925  25.757  1.00  0.00     0.029 C 
BRANCH   6   8
ATOM      8  C   UNL A   1      32.126  23.664  25.204  1.00  0.00     0.123 C 
BRANCH   8   9
ATOM      9  C   UNL A   1      31.458  24.434  26.316  1.00  0.00     0.225 C 
ATOM     10  N   UNL A   1      31.167  25.748  26.394  1.00  0.00    -0.326 N 
ATOM     11  H   UNL A   1      30.635  25.873  27.213  1.00  0.00     0.169 HD
ATOM     12  O   UNL A   1      31.061  23.777  27.296  1.00  0.00    -0.275 OA
BRANCH  10  13
ATOM     13  C   UNL A   1      31.307  27.027  25.795  1.00  0.00     0.047 A 
ATOM     14  C   UNL A   1      30.406  27.237  24.692  1.00  0.00    -0.024 A 
ATOM     15  C   UNL A   1      30.287  28.495  24.062  1.00  0.00     0.006 A 
ATOM     16  C   UNL A   1      31.024  29.571  24.496  1.00  0.00     0.001 A 
ATOM     17  C   UNL A   1      32.130  28.114  26.159  1.00  0.00    -0.024 A 
ATOM     18  C   UNL A   1      31.919  29.377  25.530  1.00  0.00     0.006 A 
BRANCH  14  19
ATOM     19  C   UNL A   1      29.536  26.146  24.080  1.00  0.00     0.034 C 
ATOM     20  C   UNL A   1      28.092  26.595  23.921  1.00  0.00     0.009 C 
ENDBRANCH  14  19
BRANCH  17  21
ATOM     21  C   UNL A   1      33.231  28.189  27.182  1.00  0.00     0.034 C 
ATOM     22  C   UNL A   1      34.130  29.419  26.976  1.00  0.00     0.009 C 
ENDBRANCH  17  21
ENDBRANCH  10  13
ENDBRANCH   8   9
ENDBRANCH   6   8
BRANCH   6  23
ATOM     23  C   UNL A   1      33.358  25.165  23.502  1.00  0.00    -0.030 A 
ATOM     24  C   UNL A   1      33.941  26.445  23.535  1.00  0.00     0.005 A 
ATOM     25  C   UNL A   1      32.483  24.881  22.434  1.00  0.00     0.005 A 
ATOM     26  C   UNL A   1      33.560  27.437  22.625  1.00  0.00     0.000 A 
ATOM     27  C   UNL A   1      32.099  25.876  21.530  1.00  0.00     0.000 A 
ATOM     28  C   UNL A   1      32.615  27.162  21.644  1.00  0.00     0.000 A 
ENDBRANCH   6  23
ENDBRANCH   4   6
ENDBRANCH   3   4
ENDBRANCH   2   3
ENDBRANCH   1   2
BRANCH   1  29
ATOM     29  O   UNL A   1      37.348  19.788  24.562  1.00  0.00    -0.374 OA
BRANCH  29  30
ATOM     30  C   UNL A   1      38.463  19.178  25.197  1.00  0.00     0.202 C 
BRANCH  30  31
ATOM     31  C   UNL A   1      39.586  20.043  25.798  1.00  0.00     0.261 C 
BRANCH  31  32
ATOM     32  O   UNL A   1      40.933  19.637  25.506  1.00  0.00    -0.460 OA
BRANCH  32  33
ATOM     33  C   UNL A   1      41.786  19.771  26.553  1.00  0.00     0.338 C 
ATOM     34  O   UNL A   1      42.388  18.874  27.131  1.00  0.00    -0.246 OA
BRANCH  33  35
ATOM     35  C   UNL A   1      42.016  21.191  26.867  1.00  0.00     0.060 A 
ATOM     36  C   UNL A   1      42.080  22.101  25.805  1.00  0.00     0.016 A 
ATOM     37  C   UNL A   1      42.323  21.598  28.168  1.00  0.00     0.016 A 
ATOM     38  C   UNL A   1      42.496  23.413  26.033  1.00  0.00     0.010 A 
ATOM     39  C   UNL A   1      42.751  22.912  28.393  1.00  0.00     0.010 A 
ATOM     40  C   UNL A   1      42.878  23.813  27.321  1.00  0.00    -0.014 A 
BRANCH  40  41
ATOM     41  C   UNL A   1      43.558  25.120  27.510  1.00  0.00     0.031 A 
ATOM     42  C   UNL A   1      42.754  26.295  28.007  1.00  0.00     0.074 A 
ATOM     43  C   UNL A   1      44.878  25.250  27.287  1.00  0.00     0.049 A 
ATOM     44  N   UNL A   1      43.137  27.527  28.222  1.00  0.00    -0.248 NA
ATOM     45  C   UNL A   1      41.334  26.045  28.308  1.00  0.00     0.031 C 
ATOM     46  C   UNL A   1      45.774  24.178  26.857  1.00  0.00     0.029 A 
ATOM     47  N   UNL A   1      45.696  26.348  27.395  1.00  0.00    -0.354 N 
ATOM     48  C   UNL A   1      42.011  28.198  28.686  1.00  0.00     0.074 A 
ATOM     49  C   UNL A   1      40.923  27.245  28.694  1.00  0.00     0.031 C 
ATOM     50  C   UNL A   1      47.018  24.673  26.729  1.00  0.00     0.029 A 
ATOM     51  C   UNL A   1      47.000  26.102  27.039  1.00  0.00     0.049 A 
ATOM     52  H   UNL A   1      45.378  27.229  27.698  1.00  0.00     0.167 HD
ATOM     53  C   UNL A   1      41.895  29.488  29.081  1.00  0.00     0.031 A 
ATOM     54  C   UNL A   1      48.055  26.938  26.954  1.00  0.00     0.031 A 
ATOM     55  C   UNL A   1      42.972  30.442  29.059  1.00  0.00     0.049 A 
ATOM     56  C   UNL A   1      47.876  28.391  27.312  1.00  0.00     0.074 A 
ATOM     57  C   UNL A   1      42.947  31.777  29.422  1.00  0.00     0.029 A 
ATOM     58  N   UNL A   1      44.267  30.162  28.653  1.00  0.00    -0.354 N 
ATOM     59  N   UNL A   1      46.804  29.008  27.750  1.00  0.00    -0.248 NA
ATOM     60  C   UNL A   1      49.054  29.261  27.171  1.00  0.00     0.031 C 
ATOM     61  C   UNL A   1      44.217  32.316  29.195  1.00  0.00     0.029 A 
ATOM     62  C   UNL A   1      45.046  31.302  28.741  1.00  0.00     0.049 A 
ATOM     63  H   UNL A   1      44.585  29.282  28.345  1.00  0.00     0.167 HD
ATOM     64  C   UNL A   1      47.188  30.327  27.966  1.00  0.00     0.074 A 
ATOM     65  C   UNL A   1      48.591  30.418  27.623  1.00  0.00     0.031 C 
ATOM     66  C   UNL A   1      46.445  31.372  28.408  1.00  0.00     0.031 A 
BRANCH  53  67
ATOM     67  C   UNL A   1      40.546  29.955  29.561  1.00  0.00    -0.014 A 
ATOM     68  C   UNL A   1      39.472  30.098  28.665  1.00  0.00     0.010 A 
ATOM     69  C   UNL A   1      40.332  30.188  30.931  1.00  0.00     0.010 A 
ATOM     70  C   UNL A   1      38.212  30.484  29.129  1.00  0.00     0.020 A 
ATOM     71  C   UNL A   1      39.068  30.553  31.403  1.00  0.00     0.020 A 
ATOM     72  C   UNL A   1      38.018  30.708  30.495  1.00  0.00     0.054 A 
BRANCH  72  73
ATOM     73  S   UNL A   1      36.359  31.161  31.075  1.00  0.00     0.124 S 
ATOM     74  O   UNL A   1      35.655  31.398  29.817  1.00  0.00    -0.237 OA
ATOM     75  O   UNL A   1      35.941  29.972  31.813  1.00  0.00    -0.237 OA
ATOM     76  O   UNL A   1      36.589  32.350  31.893  1.00  0.00    -0.744 OA
ENDBRANCH  72  73
ENDBRANCH  53  67
BRANCH  54  77
ATOM     77  C   UNL A   1      49.374  26.439  26.474  1.00  0.00    -0.014 A 
ATOM     78  C   UNL A   1      50.257  25.781  27.348  1.00  0.00     0.010 A 
ATOM     79  C   UNL A   1      49.770  26.662  25.143  1.00  0.00     0.010 A 
ATOM     80  C   UNL A   1      51.526  25.388  26.909  1.00  0.00     0.020 A 
ATOM     81  C   UNL A   1      51.024  26.245  24.693  1.00  0.00     0.020 A 
ATOM     82  C   UNL A   1      51.903  25.627  25.584  1.00  0.00     0.054 A 
BRANCH  82  83
ATOM     83  S   UNL A   1      53.545  25.097  25.026  1.00  0.00     0.124 S 
ATOM     84  O   UNL A   1      53.475  23.651  25.207  1.00  0.00    -0.237 OA
ATOM     85  O   UNL A   1      53.576  25.563  23.641  1.00  0.00    -0.237 OA
ATOM     86  O   UNL A   1      54.453  25.801  25.929  1.00  0.00    -0.744 OA
ENDBRANCH  82  83
ENDBRANCH  54  77
BRANCH  66  87
ATOM     87  C   UNL A   1      47.143  32.693  28.593  1.00  0.00    -0.014 A 
ATOM     88  C   UNL A   1      47.183  33.648  27.563  1.00  0.00     0.010 A 
ATOM     89  C   UNL A   1      47.718  33.003  29.839  1.00  0.00     0.010 A 
ATOM     90  C   UNL A   1      47.814  34.879  27.766  1.00  0.00     0.020 A 
ATOM     91  C   UNL A   1      48.327  34.241  30.054  1.00  0.00     0.020 A 
ATOM     92  C   UNL A   1      48.383  35.167  29.010  1.00  0.00     0.054 A 
BRANCH  92  93
ATOM     93  S   UNL A   1      49.158  36.787  29.263  1.00  0.00     0.124 S 
ATOM     94  O   UNL A   1      49.537  36.726  30.672  1.00  0.00    -0.237 OA
ATOM     95  O   UNL A   1      50.268  36.765  28.313  1.00  0.00    -0.237 OA
ATOM     96  O   UNL A   1      48.093  37.735  28.944  1.00  0.00    -0.744 OA
ENDBRANCH  92  93
ENDBRANCH  66  87
ENDBRANCH  40  41
ENDBRANCH  33  35
ENDBRANCH  32  33
ENDBRANCH  31  32
ENDBRANCH  30  31
ENDBRANCH  29  30
ENDBRANCH   1  29
TORSDOF 23
ENDMDL
MODEL 3
REMARK VINA RESULT:     -10.4      1.037      8.124
REMARK SMILES CCc1cccc(CC)c1NC(=O)C[C@@](C)(C(=O)OCCOCCOC(=O)c1ccc(-c2c3nc(c(-c4ccc(S(=O)(=O)[O-])cc4)c4ccc([nH]4)c(-c4ccc(S(=O)(=O)[O-])cc4)c4nc(c(-c5ccc(S(=O)(=O)[O-])cc5)c5ccc2[nH]5)C=C4)C=C3)cc1)c1ccccc1
REMARK SMILES IDX 21 1 20 2 19 3 17 4 18 5 15 6 16 7 14 8 12 9 11 10 13 12
REMARK SMILES IDX 10 13 3 14 4 15 5 16 7 17 6 18 2 19 1 20 8 21 9 22 88 23
REMARK SMILES IDX 89 24 93 25 90 26 92 27 91 28 22 29 23 30 24 31 25 32 26 33
REMARK SMILES IDX 27 34 28 35 29 36 87 37 30 38 86 39 31 40 32 41 33 42 80 43
REMARK SMILES IDX 34 44 85 45 79 46 81 47 35 48 84 49 78 50 77 51 36 53 66 54
REMARK SMILES IDX 47 55 65 56 48 57 51 58 64 59 82 60 49 61 50 62 63 64 83 65
REMARK SMILES IDX 52 66 37 67 38 68 46 69 39 70 45 71 40 72 41 73 42 74 43 75
REMARK SMILES IDX 44 76 67 77 68 78 76 79 69 80 75 81 70 82 71 83 72 84 73 85
REMARK SMILES IDX 74 86 53 87 54 88 62 89 55 90 61 91 56 92 57 93 58 94 59 95
REMARK SMILES IDX 60 96
REMARK H PARENT 11 11 81 52 51 63
REMARK Flexibility Score: inf
ROOT
ATOM      1  C   UNL A   1      37.563  20.535  25.084  1.00  0.00     0.202 C 
ENDROOT
BRANCH   1   2
ATOM      2  C   UNL A   1      36.034  20.490  25.050  1.00  0.00     0.261 C 
BRANCH   2   3
ATOM      3  O   UNL A   1      35.400  21.577  24.357  1.00  0.00    -0.463 OA
BRANCH   3   4
ATOM      4  C   UNL A   1      34.038  21.520  24.271  1.00  0.00     0.316 C 
ATOM      5  O   UNL A   1      33.389  20.526  24.587  1.00  0.00    -0.251 OA
BRANCH   4   6
ATOM      6  C   UNL A   1      33.383  22.814  23.705  1.00  0.00     0.099 C 
ATOM      7  C   UNL A   1      32.714  22.334  22.391  1.00  0.00     0.029 C 
BRANCH   6   8
ATOM      8  C   UNL A   1      34.438  23.930  23.480  1.00  0.00     0.123 C 
BRANCH   8   9
ATOM      9  C   UNL A   1      34.666  24.938  24.579  1.00  0.00     0.225 C 
ATOM     10  N   UNL A   1      34.028  26.101  24.821  1.00  0.00    -0.326 N 
ATOM     11  H   UNL A   1      34.367  26.436  25.682  1.00  0.00     0.169 HD
ATOM     12  O   UNL A   1      35.529  24.656  25.431  1.00  0.00    -0.275 OA
BRANCH  10  13
ATOM     13  C   UNL A   1      33.076  27.045  24.356  1.00  0.00     0.047 A 
ATOM     14  C   UNL A   1      32.431  27.770  25.419  1.00  0.00    -0.024 A 
ATOM     15  C   UNL A   1      31.565  28.853  25.158  1.00  0.00     0.006 A 
ATOM     16  C   UNL A   1      31.321  29.263  23.869  1.00  0.00     0.001 A 
ATOM     17  C   UNL A   1      32.733  27.413  23.038  1.00  0.00    -0.024 A 
ATOM     18  C   UNL A   1      31.904  28.556  22.836  1.00  0.00     0.006 A 
BRANCH  14  19
ATOM     19  C   UNL A   1      32.581  27.430  26.898  1.00  0.00     0.034 C 
ATOM     20  C   UNL A   1      31.542  28.141  27.750  1.00  0.00     0.009 C 
ENDBRANCH  14  19
BRANCH  17  21
ATOM     21  C   UNL A   1      33.143  26.797  21.727  1.00  0.00     0.034 C 
ATOM     22  C   UNL A   1      32.084  25.823  21.188  1.00  0.00     0.009 C 
ENDBRANCH  17  21
ENDBRANCH  10  13
ENDBRANCH   8   9
ENDBRANCH   6   8
BRANCH   6  23
ATOM     23  C   UNL A   1      32.201  23.295  24.600  1.00  0.00    -0.030 A 
ATOM     24  C   UNL A   1      31.125  24.040  24.081  1.00  0.00     0.005 A 
ATOM     25  C   UNL A   1      32.266  23.145  26.000  1.00  0.00     0.005 A 
ATOM     26  C   UNL A   1      30.241  24.718  24.925  1.00  0.00     0.000 A 
ATOM     27  C   UNL A   1      31.384  23.829  26.842  1.00  0.00     0.000 A 
ATOM     28  C   UNL A   1      30.390  24.640  26.305  1.00  0.00     0.000 A 
ENDBRANCH   6  23
ENDBRANCH   4   6
ENDBRANCH   3   4
ENDBRANCH   2   3
ENDBRANCH   1   2
BRANCH   1  29
ATOM     29  O   UNL A   1      38.223  21.790  25.089  1.00  0.00    -0.374 OA
BRANCH  29  30
ATOM     30  C   UNL A   1      38.779  22.262  26.309  1.00  0.00     0.202 C 
BRANCH  30  31
ATOM     31  C   UNL A   1      39.900  23.316  26.298  1.00  0.00     0.261 C 
BRANCH  31  32
ATOM     32  O   UNL A   1      39.487  24.692  26.328  1.00  0.00    -0.460 OA
BRANCH  32  33
ATOM     33  C   UNL A   1      40.516  25.576  26.296  1.00  0.00     0.338 C 
ATOM     34  O   UNL A   1      41.159  25.920  25.312  1.00  0.00    -0.246 OA
BRANCH  33  35
ATOM     35  C   UNL A   1      40.716  26.200  27.615  1.00  0.00     0.060 A 
ATOM     36  C   UNL A   1      39.726  26.019  28.589  1.00  0.00     0.016 A 
ATOM     37  C   UNL A   1      41.780  27.077  27.839  1.00  0.00     0.016 A 
ATOM     38  C   UNL A   1      39.772  26.752  29.775  1.00  0.00     0.010 A 
ATOM     39  C   UNL A   1      41.817  27.821  29.025  1.00  0.00     0.010 A 
ATOM     40  C   UNL A   1      40.792  27.691  29.980  1.00  0.00    -0.014 A 
BRANCH  40  41
ATOM     41  C   UNL A   1      40.694  28.643  31.115  1.00  0.00     0.031 A 
ATOM     42  C   UNL A   1      39.674  29.752  31.051  1.00  0.00     0.074 A 
ATOM     43  C   UNL A   1      41.467  28.498  32.207  1.00  0.00     0.049 A 
ATOM     44  N   UNL A   1      39.432  30.703  31.915  1.00  0.00    -0.248 NA
ATOM     45  C   UNL A   1      38.810  29.788  29.859  1.00  0.00     0.031 C 
ATOM     46  C   UNL A   1      42.451  27.437  32.413  1.00  0.00     0.029 A 
ATOM     47  N   UNL A   1      41.541  29.252  33.352  1.00  0.00    -0.354 N 
ATOM     48  C   UNL A   1      38.388  31.447  31.377  1.00  0.00     0.074 A 
ATOM     49  C   UNL A   1      38.062  30.856  30.097  1.00  0.00     0.031 C 
ATOM     50  C   UNL A   1      43.038  27.611  33.610  1.00  0.00     0.029 A 
ATOM     51  C   UNL A   1      42.493  28.812  34.241  1.00  0.00     0.049 A 
ATOM     52  H   UNL A   1      40.967  30.033  33.521  1.00  0.00     0.167 HD
ATOM     53  C   UNL A   1      37.750  32.519  31.904  1.00  0.00     0.031 A 
ATOM     54  C   UNL A   1      42.892  29.330  35.420  1.00  0.00     0.031 A 
ATOM     55  C   UNL A   1      38.083  33.119  33.169  1.00  0.00     0.049 A 
ATOM     56  C   UNL A   1      42.227  30.578  35.941  1.00  0.00     0.074 A 
ATOM     57  C   UNL A   1      37.506  34.219  33.779  1.00  0.00     0.029 A 
ATOM     58  N   UNL A   1      39.080  32.668  34.019  1.00  0.00    -0.354 N 
ATOM     59  N   UNL A   1      41.241  31.269  35.418  1.00  0.00    -0.248 NA
ATOM     60  C   UNL A   1      42.725  31.115  37.217  1.00  0.00     0.031 C 
ATOM     61  C   UNL A   1      38.183  34.459  34.978  1.00  0.00     0.029 A 
ATOM     62  C   UNL A   1      39.146  33.476  35.140  1.00  0.00     0.049 A 
ATOM     63  H   UNL A   1      39.657  31.888  33.849  1.00  0.00     0.167 HD
ATOM     64  C   UNL A   1      40.982  32.299  36.316  1.00  0.00     0.074 A 
ATOM     65  C   UNL A   1      41.904  32.136  37.420  1.00  0.00     0.031 C 
ATOM     66  C   UNL A   1      40.062  33.292  36.236  1.00  0.00     0.031 A 
BRANCH  53  67
ATOM     67  C   UNL A   1      36.628  33.130  31.105  1.00  0.00    -0.014 A 
ATOM     68  C   UNL A   1      35.286  32.873  31.436  1.00  0.00     0.010 A 
ATOM     69  C   UNL A   1      36.919  34.021  30.057  1.00  0.00     0.010 A 
ATOM     70  C   UNL A   1      34.253  33.484  30.720  1.00  0.00     0.020 A 
ATOM     71  C   UNL A   1      35.889  34.651  29.353  1.00  0.00     0.020 A 
ATOM     72  C   UNL A   1      34.561  34.370  29.683  1.00  0.00     0.054 A 
BRANCH  72  73
ATOM     73  S   UNL A   1      33.200  35.186  28.803  1.00  0.00     0.124 S 
ATOM     74  O   UNL A   1      32.433  35.763  29.905  1.00  0.00    -0.237 OA
ATOM     75  O   UNL A   1      33.898  36.147  27.954  1.00  0.00    -0.237 OA
ATOM     76  O   UNL A   1      32.541  34.093  28.092  1.00  0.00    -0.744 OA
ENDBRANCH  72  73
ENDBRANCH  53  67
BRANCH  54  77
ATOM     77  C   UNL A   1      44.005  28.699  36.182  1.00  0.00    -0.014 A 
ATOM     78  C   UNL A   1      45.335  29.116  35.995  1.00  0.00     0.010 A 
ATOM     79  C   UNL A   1      43.740  27.641  37.071  1.00  0.00     0.010 A 
ATOM     80  C   UNL A   1      46.381  28.463  36.654  1.00  0.00     0.020 A 
ATOM     81  C   UNL A   1      44.779  27.006  37.754  1.00  0.00     0.020 A 
ATOM     82  C   UNL A   1      46.096  27.409  37.527  1.00  0.00     0.054 A 
BRANCH  82  83
ATOM     83  S   UNL A   1      47.464  26.583  38.387  1.00  0.00     0.124 S 
ATOM     84  O   UNL A   1      47.434  25.250  37.794  1.00  0.00    -0.237 OA
ATOM     85  O   UNL A   1      48.611  27.412  38.029  1.00  0.00    -0.237 OA
ATOM     86  O   UNL A   1      47.071  26.654  39.793  1.00  0.00    -0.744 OA
ENDBRANCH  82  83
ENDBRANCH  54  77
BRANCH  66  87
ATOM     87  C   UNL A   1      39.973  34.253  37.390  1.00  0.00    -0.014 A 
ATOM     88  C   UNL A   1      40.626  35.498  37.357  1.00  0.00     0.010 A 
ATOM     89  C   UNL A   1      39.175  33.927  38.503  1.00  0.00     0.010 A 
ATOM     90  C   UNL A   1      40.507  36.386  38.430  1.00  0.00     0.020 A 
ATOM     91  C   UNL A   1      39.034  34.822  39.565  1.00  0.00     0.020 A 
ATOM     92  C   UNL A   1      39.713  36.042  39.528  1.00  0.00     0.054 A 
BRANCH  92  93
ATOM     93  S   UNL A   1      39.540  37.228  40.889  1.00  0.00     0.124 S 
ATOM     94  O   UNL A   1      38.847  36.434  41.899  1.00  0.00    -0.237 OA
ATOM     95  O   UNL A   1      40.927  37.566  41.199  1.00  0.00    -0.237 OA
ATOM     96  O   UNL A   1      38.757  38.315  40.304  1.00  0.00    -0.744 OA
ENDBRANCH  92  93
ENDBRANCH  66  87
ENDBRANCH  40  41
ENDBRANCH  33  35
ENDBRANCH  32  33
ENDBRANCH  31  32
ENDBRANCH  30  31
ENDBRANCH  29  30
ENDBRANCH   1  29
TORSDOF 23
ENDMDL
