MODEL 1
REMARK VINA RESULT:      -9.6      0.000      0.000
REMARK SMILES O=C(CNc1nc(-c2ccccc2)c(-c2ccccc2)s1)OCCOCCOC(=O)c1ccc(-c2c3nc(c(-c4ccc(S(=O)(=O)[O-])cc4)c4ccc([nH]4)c(-c4ccc(S(=O)(=O)[O-])cc4)c4nc(c(-c5ccc(S(=O)(=O)[O-])cc5)c5ccc2[nH]5)C=C4)C=C3)cc1
REMARK SMILES IDX 25 1 24 2 23 3 22 4 2 5 1 6 3 7 4 8 5 10 6 11 21 12 7 13
REMARK SMILES IDX 14 14 8 15 9 16 13 17 10 18 12 19 11 20 15 21 16 22 20 23
REMARK SMILES IDX 17 24 19 25 18 26 26 27 27 28 28 29 29 30 30 31 31 32 32 33
REMARK SMILES IDX 90 34 33 35 89 36 34 37 35 38 36 39 83 40 37 41 88 42 82 43
REMARK SMILES IDX 84 44 38 45 87 46 81 47 80 48 39 50 69 51 50 52 68 53 51 54
REMARK SMILES IDX 54 55 67 56 85 57 52 58 53 59 66 61 86 62 55 63 40 64 41 65
REMARK SMILES IDX 49 66 42 67 48 68 43 69 44 70 45 71 46 72 47 73 70 74 71 75
REMARK SMILES IDX 79 76 72 77 78 78 73 79 74 80 75 81 76 82 77 83 56 84 57 85
REMARK SMILES IDX 65 86 58 87 64 88 59 89 60 90 61 91 62 92 63 93
REMARK H PARENT 4 9 84 49 54 60
REMARK Flexibility Score: inf
ROOT
ATOM      1  O   UNL A   1      39.678  21.509  27.163  1.00  0.00    -0.374 OA
ENDROOT
BRANCH   1   2
ATOM      2  C   UNL A   1      40.458  20.779  26.224  1.00  0.00     0.202 C 
BRANCH   2   3
ATOM      3  C   UNL A   1      41.347  19.664  26.770  1.00  0.00     0.261 C 
BRANCH   3   4
ATOM      4  O   UNL A   1      42.053  18.900  25.783  1.00  0.00    -0.462 OA
BRANCH   4   5
ATOM      5  C   UNL A   1      43.317  18.432  25.906  1.00  0.00     0.325 C 
ATOM      6  O   UNL A   1      43.527  17.496  26.682  1.00  0.00    -0.250 OA
BRANCH   5   7
ATOM      7  C   UNL A   1      44.477  19.076  25.145  1.00  0.00     0.238 C 
BRANCH   7   8
ATOM      8  N   UNL A   1      44.134  20.334  24.506  1.00  0.00    -0.351 N 
ATOM      9  H   UNL A   1      43.631  20.328  23.660  1.00  0.00     0.163 HD
BRANCH   8  10
ATOM     10  C   UNL A   1      44.495  21.512  25.057  1.00  0.00     0.184 A 
ATOM     11  N   UNL A   1      44.117  21.973  26.226  1.00  0.00    -0.220 NA
ATOM     12  S   UNL A   1      45.486  22.576  24.138  1.00  0.00    -0.096 S 
ATOM     13  C   UNL A   1      44.573  23.276  26.397  1.00  0.00     0.091 A 
ATOM     14  C   UNL A   1      45.285  23.793  25.325  1.00  0.00     0.064 A 
BRANCH  13  15
ATOM     15  C   UNL A   1      44.426  23.982  27.664  1.00  0.00     0.002 A 
ATOM     16  C   UNL A   1      43.238  24.641  28.009  1.00  0.00     0.010 A 
ATOM     17  C   UNL A   1      45.546  24.116  28.494  1.00  0.00     0.010 A 
ATOM     18  C   UNL A   1      43.195  25.473  29.132  1.00  0.00     0.001 A 
ATOM     19  C   UNL A   1      45.502  24.951  29.612  1.00  0.00     0.001 A 
ATOM     20  C   UNL A   1      44.330  25.642  29.921  1.00  0.00     0.000 A 
ENDBRANCH  13  15
BRANCH  14  21
ATOM     21  C   UNL A   1      45.951  25.075  25.129  1.00  0.00    -0.006 A 
ATOM     22  C   UNL A   1      47.338  25.144  24.949  1.00  0.00     0.009 A 
ATOM     23  C   UNL A   1      45.197  26.256  25.134  1.00  0.00     0.009 A 
ATOM     24  C   UNL A   1      47.965  26.382  24.799  1.00  0.00     0.001 A 
ATOM     25  C   UNL A   1      45.826  27.491  24.987  1.00  0.00     0.001 A 
ATOM     26  C   UNL A   1      47.209  27.553  24.825  1.00  0.00     0.000 A 
ENDBRANCH  14  21
ENDBRANCH   8  10
ENDBRANCH   7   8
ENDBRANCH   5   7
ENDBRANCH   4   5
ENDBRANCH   3   4
ENDBRANCH   2   3
ENDBRANCH   1   2
BRANCH   1  27
ATOM     27  C   UNL A   1      39.945  22.911  27.248  1.00  0.00     0.202 C 
BRANCH  27  28
ATOM     28  C   UNL A   1      39.117  23.803  26.316  1.00  0.00     0.261 C 
BRANCH  28  29
ATOM     29  O   UNL A   1      38.852  25.085  26.905  1.00  0.00    -0.460 OA
BRANCH  29  30
ATOM     30  C   UNL A   1      39.911  25.930  26.926  1.00  0.00     0.338 C 
ATOM     31  O   UNL A   1      40.743  26.091  26.046  1.00  0.00    -0.246 OA
BRANCH  30  32
ATOM     32  C   UNL A   1      39.812  26.811  28.106  1.00  0.00     0.060 A 
ATOM     33  C   UNL A   1      40.466  28.049  28.040  1.00  0.00     0.016 A 
ATOM     34  C   UNL A   1      39.113  26.437  29.255  1.00  0.00     0.016 A 
ATOM     35  C   UNL A   1      40.479  28.887  29.150  1.00  0.00     0.010 A 
ATOM     36  C   UNL A   1      39.127  27.280  30.370  1.00  0.00     0.010 A 
ATOM     37  C   UNL A   1      39.848  28.486  30.335  1.00  0.00    -0.014 A 
BRANCH  37  38
ATOM     38  C   UNL A   1      40.077  29.266  31.573  1.00  0.00     0.031 A 
ATOM     39  C   UNL A   1      39.102  30.355  31.935  1.00  0.00     0.074 A 
ATOM     40  C   UNL A   1      41.102  28.965  32.390  1.00  0.00     0.049 A 
ATOM     41  N   UNL A   1      39.097  31.148  32.975  1.00  0.00    -0.248 NA
ATOM     42  C   UNL A   1      37.985  30.582  31.001  1.00  0.00     0.031 C 
ATOM     43  C   UNL A   1      42.089  27.910  32.154  1.00  0.00     0.029 A 
ATOM     44  N   UNL A   1      41.481  29.518  33.587  1.00  0.00    -0.354 N 
ATOM     45  C   UNL A   1      37.980  31.963  32.823  1.00  0.00     0.074 A 
ATOM     46  C   UNL A   1      37.356  31.599  31.571  1.00  0.00     0.031 C 
ATOM     47  C   UNL A   1      42.962  27.894  33.175  1.00  0.00     0.029 A 
ATOM     48  C   UNL A   1      42.615  28.954  34.118  1.00  0.00     0.049 A 
ATOM     49  H   UNL A   1      40.987  30.249  34.022  1.00  0.00     0.167 HD
ATOM     50  C   UNL A   1      37.509  32.917  33.660  1.00  0.00     0.031 A 
ATOM     51  C   UNL A   1      43.307  29.273  35.230  1.00  0.00     0.031 A 
ATOM     52  C   UNL A   1      38.145  33.282  34.899  1.00  0.00     0.049 A 
ATOM     53  C   UNL A   1      42.798  30.386  36.109  1.00  0.00     0.074 A 
ATOM     54  C   UNL A   1      37.750  34.234  35.821  1.00  0.00     0.029 A 
ATOM     55  N   UNL A   1      39.312  32.714  35.386  1.00  0.00    -0.354 N 
ATOM     56  N   UNL A   1      41.726  31.129  35.964  1.00  0.00    -0.248 NA
ATOM     57  C   UNL A   1      43.586  30.693  37.311  1.00  0.00     0.031 C 
ATOM     58  C   UNL A   1      38.709  34.283  36.838  1.00  0.00     0.029 A 
ATOM     59  C   UNL A   1      39.665  33.311  36.585  1.00  0.00     0.049 A 
ATOM     60  H   UNL A   1      39.815  31.991  34.946  1.00  0.00     0.167 HD
ATOM     61  C   UNL A   1      41.699  31.976  37.068  1.00  0.00     0.074 A 
ATOM     62  C   UNL A   1      42.843  31.628  37.886  1.00  0.00     0.031 C 
ATOM     63  C   UNL A   1      40.815  32.957  37.378  1.00  0.00     0.031 A 
BRANCH  50  64
ATOM     64  C   UNL A   1      36.252  33.646  33.259  1.00  0.00    -0.014 A 
ATOM     65  C   UNL A   1      34.983  33.083  33.483  1.00  0.00     0.010 A 
ATOM     66  C   UNL A   1      36.338  34.940  32.714  1.00  0.00     0.010 A 
ATOM     67  C   UNL A   1      33.824  33.791  33.152  1.00  0.00     0.020 A 
ATOM     68  C   UNL A   1      35.181  35.664  32.407  1.00  0.00     0.020 A 
ATOM     69  C   UNL A   1      33.932  35.080  32.622  1.00  0.00     0.054 A 
BRANCH  69  70
ATOM     70  S   UNL A   1      32.409  35.998  32.259  1.00  0.00     0.124 S 
ATOM     71  O   UNL A   1      32.560  36.284  30.835  1.00  0.00    -0.237 OA
ATOM     72  O   UNL A   1      31.367  35.031  32.598  1.00  0.00    -0.237 OA
ATOM     73  O   UNL A   1      32.486  37.162  33.139  1.00  0.00    -0.744 OA
ENDBRANCH  69  70
ENDBRANCH  50  64
BRANCH  51  74
ATOM     74  C   UNL A   1      44.570  28.554  35.561  1.00  0.00    -0.014 A 
ATOM     75  C   UNL A   1      45.775  28.861  34.905  1.00  0.00     0.010 A 
ATOM     76  C   UNL A   1      44.562  27.528  36.525  1.00  0.00     0.010 A 
ATOM     77  C   UNL A   1      46.937  28.134  35.180  1.00  0.00     0.020 A 
ATOM     78  C   UNL A   1      45.728  26.823  36.829  1.00  0.00     0.020 A 
ATOM     79  C   UNL A   1      46.905  27.119  36.141  1.00  0.00     0.054 A 
BRANCH  79  80
ATOM     80  S   UNL A   1      48.429  26.203  36.499  1.00  0.00     0.124 S 
ATOM     81  O   UNL A   1      47.914  24.891  36.876  1.00  0.00    -0.237 OA
ATOM     82  O   UNL A   1      49.140  26.264  35.224  1.00  0.00    -0.237 OA
ATOM     83  O   UNL A   1      49.042  26.971  37.582  1.00  0.00    -0.744 OA
ENDBRANCH  79  80
ENDBRANCH  51  74
BRANCH  63  84
ATOM     84  C   UNL A   1      41.039  33.699  38.671  1.00  0.00    -0.014 A 
ATOM     85  C   UNL A   1      41.830  34.860  38.720  1.00  0.00     0.010 A 
ATOM     86  C   UNL A   1      40.437  33.231  39.854  1.00  0.00     0.010 A 
ATOM     87  C   UNL A   1      42.066  35.504  39.938  1.00  0.00     0.020 A 
ATOM     88  C   UNL A   1      40.639  33.894  41.067  1.00  0.00     0.020 A 
ATOM     89  C   UNL A   1      41.474  35.012  41.104  1.00  0.00     0.054 A 
BRANCH  89  90
ATOM     90  S   UNL A   1      41.795  35.865  42.671  1.00  0.00     0.124 S 
ATOM     91  O   UNL A   1      40.948  35.122  43.600  1.00  0.00    -0.237 OA
ATOM     92  O   UNL A   1      43.234  35.680  42.847  1.00  0.00    -0.237 OA
ATOM     93  O   UNL A   1      41.378  37.241  42.411  1.00  0.00    -0.744 OA
ENDBRANCH  89  90
ENDBRANCH  63  84
ENDBRANCH  37  38
ENDBRANCH  30  32
ENDBRANCH  29  30
ENDBRANCH  28  29
ENDBRANCH  27  28
ENDBRANCH   1  27
TORSDOF 21
ENDMDL
MODEL 2
REMARK VINA RESULT:      -9.5      4.686     10.520
REMARK SMILES O=C(CNc1nc(-c2ccccc2)c(-c2ccccc2)s1)OCCOCCOC(=O)c1ccc(-c2c3nc(c(-c4ccc(S(=O)(=O)[O-])cc4)c4ccc([nH]4)c(-c4ccc(S(=O)(=O)[O-])cc4)c4nc(c(-c5ccc(S(=O)(=O)[O-])cc5)c5ccc2[nH]5)C=C4)C=C3)cc1
REMARK SMILES IDX 25 1 24 2 23 3 22 4 2 5 1 6 3 7 4 8 5 10 6 11 21 12 7 13
REMARK SMILES IDX 14 14 8 15 9 16 13 17 10 18 12 19 11 20 15 21 16 22 20 23
REMARK SMILES IDX 17 24 19 25 18 26 26 27 27 28 28 29 29 30 30 31 31 32 32 33
REMARK SMILES IDX 90 34 33 35 89 36 34 37 35 38 36 39 83 40 37 41 88 42 82 43
REMARK SMILES IDX 84 44 38 45 87 46 81 47 80 48 39 50 69 51 50 52 68 53 51 54
REMARK SMILES IDX 54 55 67 56 85 57 52 58 53 59 66 61 86 62 55 63 40 64 41 65
REMARK SMILES IDX 49 66 42 67 48 68 43 69 44 70 45 71 46 72 47 73 70 74 71 75
REMARK SMILES IDX 79 76 72 77 78 78 73 79 74 80 75 81 76 82 77 83 56 84 57 85
REMARK SMILES IDX 65 86 58 87 64 88 59 89 60 90 61 91 62 92 63 93
REMARK H PARENT 4 9 84 49 54 60
REMARK Flexibility Score: inf
ROOT
ATOM      1  O   UNL A   1      37.645  22.331  26.504  1.00  0.00    -0.374 OA
ENDROOT
BRANCH   1   2
ATOM      2  C   UNL A   1      36.407  22.152  25.828  1.00  0.00     0.202 C 
BRANCH   2   3
ATOM      3  C   UNL A   1      36.358  21.093  24.729  1.00  0.00     0.261 C 
BRANCH   3   4
ATOM      4  O   UNL A   1      35.466  19.996  24.971  1.00  0.00    -0.462 OA
BRANCH   4   5
ATOM      5  C   UNL A   1      34.133  19.997  24.734  1.00  0.00     0.325 C 
ATOM      6  O   UNL A   1      33.638  19.033  24.144  1.00  0.00    -0.250 OA
BRANCH   5   7
ATOM      7  C   UNL A   1      33.259  21.186  25.135  1.00  0.00     0.238 C 
BRANCH   7   8
ATOM      8  N   UNL A   1      32.976  22.102  24.044  1.00  0.00    -0.351 N 
ATOM      9  H   UNL A   1      33.089  21.799  23.115  1.00  0.00     0.163 HD
BRANCH   8  10
ATOM     10  C   UNL A   1      32.560  23.363  24.287  1.00  0.00     0.184 A 
ATOM     11  N   UNL A   1      31.686  24.044  23.584  1.00  0.00    -0.220 NA
ATOM     12  S   UNL A   1      33.278  24.224  25.592  1.00  0.00    -0.096 S 
ATOM     13  C   UNL A   1      31.614  25.353  24.048  1.00  0.00     0.091 A 
ATOM     14  C   UNL A   1      32.466  25.649  25.102  1.00  0.00     0.064 A 
BRANCH  13  15
ATOM     15  C   UNL A   1      30.618  26.292  23.548  1.00  0.00     0.002 A 
ATOM     16  C   UNL A   1      30.969  27.379  22.736  1.00  0.00     0.010 A 
ATOM     17  C   UNL A   1      29.299  26.179  24.003  1.00  0.00     0.010 A 
ATOM     18  C   UNL A   1      30.029  28.371  22.440  1.00  0.00     0.001 A 
ATOM     19  C   UNL A   1      28.362  27.173  23.710  1.00  0.00     0.001 A 
ATOM     20  C   UNL A   1      28.732  28.276  22.942  1.00  0.00     0.000 A 
ENDBRANCH  13  15
BRANCH  14  21
ATOM     21  C   UNL A   1      32.661  26.866  25.881  1.00  0.00    -0.006 A 
ATOM     22  C   UNL A   1      33.838  27.615  25.760  1.00  0.00     0.009 A 
ATOM     23  C   UNL A   1      31.666  27.285  26.773  1.00  0.00     0.009 A 
ATOM     24  C   UNL A   1      34.025  28.757  26.539  1.00  0.00     0.001 A 
ATOM     25  C   UNL A   1      31.856  28.425  27.552  1.00  0.00     0.001 A 
ATOM     26  C   UNL A   1      33.037  29.156  27.439  1.00  0.00     0.000 A 
ENDBRANCH  14  21
ENDBRANCH   8  10
ENDBRANCH   7   8
ENDBRANCH   5   7
ENDBRANCH   4   5
ENDBRANCH   3   4
ENDBRANCH   2   3
ENDBRANCH   1   2
BRANCH   1  27
ATOM     27  C   UNL A   1      38.819  21.959  25.776  1.00  0.00     0.202 C 
BRANCH  27  28
ATOM     28  C   UNL A   1      40.147  22.461  26.356  1.00  0.00     0.261 C 
BRANCH  28  29
ATOM     29  O   UNL A   1      40.165  23.891  26.478  1.00  0.00    -0.460 OA
BRANCH  29  30
ATOM     30  C   UNL A   1      41.285  24.398  27.049  1.00  0.00     0.338 C 
ATOM     31  O   UNL A   1      42.443  24.105  26.789  1.00  0.00    -0.246 OA
BRANCH  30  32
ATOM     32  C   UNL A   1      40.922  25.537  27.914  1.00  0.00     0.060 A 
ATOM     33  C   UNL A   1      41.828  26.603  27.987  1.00  0.00     0.016 A 
ATOM     34  C   UNL A   1      39.735  25.562  28.650  1.00  0.00     0.016 A 
ATOM     35  C   UNL A   1      41.581  27.667  28.848  1.00  0.00     0.010 A 
ATOM     36  C   UNL A   1      39.488  26.631  29.515  1.00  0.00     0.010 A 
ATOM     37  C   UNL A   1      40.432  27.664  29.651  1.00  0.00    -0.014 A 
BRANCH  37  38
ATOM     38  C   UNL A   1      40.304  28.668  30.732  1.00  0.00     0.031 A 
ATOM     39  C   UNL A   1      41.215  28.567  31.927  1.00  0.00     0.074 A 
ATOM     40  C   UNL A   1      39.433  29.686  30.618  1.00  0.00     0.049 A 
ATOM     41  N   UNL A   1      41.290  29.343  32.977  1.00  0.00    -0.248 NA
ATOM     42  C   UNL A   1      42.168  27.444  31.940  1.00  0.00     0.031 C 
ATOM     43  C   UNL A   1      38.524  29.898  29.490  1.00  0.00     0.029 A 
ATOM     44  N   UNL A   1      39.171  30.735  31.462  1.00  0.00    -0.354 N 
ATOM     45  C   UNL A   1      42.296  28.805  33.772  1.00  0.00     0.074 A 
ATOM     46  C   UNL A   1      42.774  27.614  33.107  1.00  0.00     0.031 C 
ATOM     47  C   UNL A   1      37.804  31.011  29.715  1.00  0.00     0.029 A 
ATOM     48  C   UNL A   1      38.177  31.569  31.012  1.00  0.00     0.049 A 
ATOM     49  H   UNL A   1      39.651  30.876  32.310  1.00  0.00     0.167 HD
ATOM     50  C   UNL A   1      42.787  29.271  34.945  1.00  0.00     0.031 A 
ATOM     51  C   UNL A   1      37.618  32.649  31.593  1.00  0.00     0.031 A 
ATOM     52  C   UNL A   1      42.295  30.451  35.608  1.00  0.00     0.049 A 
ATOM     53  C   UNL A   1      38.138  33.107  32.931  1.00  0.00     0.074 A 
ATOM     54  C   UNL A   1      42.724  31.011  36.798  1.00  0.00     0.029 A 
ATOM     55  N   UNL A   1      41.264  31.250  35.139  1.00  0.00    -0.354 N 
ATOM     56  N   UNL A   1      39.108  32.602  33.658  1.00  0.00    -0.248 NA
ATOM     57  C   UNL A   1      37.497  34.290  33.519  1.00  0.00     0.031 C 
ATOM     58  C   UNL A   1      41.912  32.115  37.079  1.00  0.00     0.029 A 
ATOM     59  C   UNL A   1      41.024  32.285  36.028  1.00  0.00     0.049 A 
ATOM     60  H   UNL A   1      40.773  31.104  34.298  1.00  0.00     0.167 HD
ATOM     61  C   UNL A   1      39.207  33.420  34.779  1.00  0.00     0.074 A 
ATOM     62  C   UNL A   1      38.222  34.471  34.614  1.00  0.00     0.031 C 
ATOM     63  C   UNL A   1      40.031  33.314  35.851  1.00  0.00     0.031 A 
BRANCH  50  64
ATOM     64  C   UNL A   1      43.904  28.498  35.596  1.00  0.00    -0.014 A 
ATOM     65  C   UNL A   1      45.250  28.756  35.275  1.00  0.00     0.010 A 
ATOM     66  C   UNL A   1      43.611  27.549  36.592  1.00  0.00     0.010 A 
ATOM     67  C   UNL A   1      46.279  28.066  35.923  1.00  0.00     0.020 A 
ATOM     68  C   UNL A   1      44.637  26.877  37.263  1.00  0.00     0.020 A 
ATOM     69  C   UNL A   1      45.965  27.135  36.918  1.00  0.00     0.054 A 
BRANCH  69  70
ATOM     70  S   UNL A   1      47.324  26.301  37.783  1.00  0.00     0.124 S 
ATOM     71  O   UNL A   1      47.453  25.062  37.020  1.00  0.00    -0.237 OA
ATOM     72  O   UNL A   1      48.425  27.249  37.633  1.00  0.00    -0.237 OA
ATOM     73  O   UNL A   1      46.823  26.141  39.146  1.00  0.00    -0.744 OA
ENDBRANCH  69  70
ENDBRANCH  50  64
BRANCH  51  74
ATOM     74  C   UNL A   1      36.484  33.354  30.931  1.00  0.00    -0.014 A 
ATOM     75  C   UNL A   1      36.644  33.976  29.681  1.00  0.00     0.010 A 
ATOM     76  C   UNL A   1      35.233  33.429  31.574  1.00  0.00     0.010 A 
ATOM     77  C   UNL A   1      35.588  34.688  29.102  1.00  0.00     0.020 A 
ATOM     78  C   UNL A   1      34.166  34.109  30.983  1.00  0.00     0.020 A 
ATOM     79  C   UNL A   1      34.356  34.750  29.759  1.00  0.00     0.054 A 
BRANCH  79  80
ATOM     80  S   UNL A   1      32.993  35.659  28.980  1.00  0.00     0.124 S 
ATOM     81  O   UNL A   1      33.703  36.709  28.258  1.00  0.00    -0.237 OA
ATOM     82  O   UNL A   1      32.364  34.633  28.151  1.00  0.00    -0.237 OA
ATOM     83  O   UNL A   1      32.191  36.111  30.115  1.00  0.00    -0.744 OA
ENDBRANCH  79  80
ENDBRANCH  51  74
BRANCH  63  84
ATOM     84  C   UNL A   1      39.919  34.380  36.910  1.00  0.00    -0.014 A 
ATOM     85  C   UNL A   1      40.576  35.616  36.777  1.00  0.00     0.010 A 
ATOM     86  C   UNL A   1      39.131  34.143  38.052  1.00  0.00     0.010 A 
ATOM     87  C   UNL A   1      40.499  36.570  37.795  1.00  0.00     0.020 A 
ATOM     88  C   UNL A   1      39.020  35.111  39.055  1.00  0.00     0.020 A 
ATOM     89  C   UNL A   1      39.726  36.308  38.929  1.00  0.00     0.054 A 
BRANCH  89  90
ATOM     90  S   UNL A   1      39.642  37.563  40.236  1.00  0.00     0.124 S 
ATOM     91  O   UNL A   1      39.857  36.764  41.438  1.00  0.00    -0.237 OA
ATOM     92  O   UNL A   1      40.732  38.469  39.880  1.00  0.00    -0.237 OA
ATOM     93  O   UNL A   1      38.301  38.126  40.091  1.00  0.00    -0.744 OA
ENDBRANCH  89  90
ENDBRANCH  63  84
ENDBRANCH  37  38
ENDBRANCH  30  32
ENDBRANCH  29  30
ENDBRANCH  28  29
ENDBRANCH  27  28
ENDBRANCH   1  27
TORSDOF 21
ENDMDL
MODEL 3
REMARK VINA RESULT:      -9.3      6.800     12.325
REMARK SMILES O=C(CNc1nc(-c2ccccc2)c(-c2ccccc2)s1)OCCOCCOC(=O)c1ccc(-c2c3nc(c(-c4ccc(S(=O)(=O)[O-])cc4)c4ccc([nH]4)c(-c4ccc(S(=O)(=O)[O-])cc4)c4nc(c(-c5ccc(S(=O)(=O)[O-])cc5)c5ccc2[nH]5)C=C4)C=C3)cc1
REMARK SMILES IDX 25 1 24 2 23 3 22 4 2 5 1 6 3 7 4 8 5 10 6 11 21 12 7 13
REMARK SMILES IDX 14 14 8 15 9 16 13 17 10 18 12 19 11 20 15 21 16 22 20 23
REMARK SMILES IDX 17 24 19 25 18 26 26 27 27 28 28 29 29 30 30 31 31 32 32 33
REMARK SMILES IDX 90 34 33 35 89 36 34 37 35 38 36 39 83 40 37 41 88 42 82 43
REMARK SMILES IDX 84 44 38 45 87 46 81 47 80 48 39 50 69 51 50 52 68 53 51 54
REMARK SMILES IDX 54 55 67 56 85 57 52 58 53 59 66 61 86 62 55 63 40 64 41 65
REMARK SMILES IDX 49 66 42 67 48 68 43 69 44 70 45 71 46 72 47 73 70 74 71 75
REMARK SMILES IDX 79 76 72 77 78 78 73 79 74 80 75 81 76 82 77 83 56 84 57 85
REMARK SMILES IDX 65 86 58 87 64 88 59 89 60 90 61 91 62 92 63 93
REMARK H PARENT 4 9 84 49 54 60
REMARK Flexibility Score: inf
ROOT
ATOM      1  O   UNL A   1      37.194  22.299  25.739  1.00  0.00    -0.374 OA
ENDROOT
BRANCH   1   2
ATOM      2  C   UNL A   1      35.790  22.491  25.617  1.00  0.00     0.202 C 
BRANCH   2   3
ATOM      3  C   UNL A   1      35.081  21.757  24.482  1.00  0.00     0.261 C 
BRANCH   3   4
ATOM      4  O   UNL A   1      34.130  20.765  24.890  1.00  0.00    -0.462 OA
BRANCH   4   5
ATOM      5  C   UNL A   1      32.835  20.706  24.499  1.00  0.00     0.325 C 
ATOM      6  O   UNL A   1      32.119  19.814  24.963  1.00  0.00    -0.250 OA
BRANCH   5   7
ATOM      7  C   UNL A   1      32.275  21.684  23.465  1.00  0.00     0.238 C 
BRANCH   7   8
ATOM      8  N   UNL A   1      31.073  22.373  23.899  1.00  0.00    -0.351 N 
ATOM      9  H   UNL A   1      30.243  21.862  24.036  1.00  0.00     0.163 HD
BRANCH   8  10
ATOM     10  C   UNL A   1      31.077  23.705  24.115  1.00  0.00     0.184 A 
ATOM     11  N   UNL A   1      30.529  24.620  23.351  1.00  0.00    -0.220 NA
ATOM     12  S   UNL A   1      31.940  24.310  25.475  1.00  0.00    -0.096 S 
ATOM     13  C   UNL A   1      30.857  25.890  23.814  1.00  0.00     0.091 A 
ATOM     14  C   UNL A   1      31.679  25.912  24.931  1.00  0.00     0.064 A 
BRANCH  13  15
ATOM     15  C   UNL A   1      30.263  27.093  23.244  1.00  0.00     0.002 A 
ATOM     16  C   UNL A   1      31.040  28.068  22.603  1.00  0.00     0.010 A 
ATOM     17  C   UNL A   1      28.903  27.341  23.464  1.00  0.00     0.010 A 
ATOM     18  C   UNL A   1      30.476  29.297  22.247  1.00  0.00     0.001 A 
ATOM     19  C   UNL A   1      28.342  28.571  23.111  1.00  0.00     0.001 A 
ATOM     20  C   UNL A   1      29.134  29.554  22.518  1.00  0.00     0.000 A 
ENDBRANCH  13  15
BRANCH  14  21
ATOM     21  C   UNL A   1      32.204  27.014  25.728  1.00  0.00    -0.006 A 
ATOM     22  C   UNL A   1      33.518  27.465  25.551  1.00  0.00     0.009 A 
ATOM     23  C   UNL A   1      31.392  27.621  26.693  1.00  0.00     0.009 A 
ATOM     24  C   UNL A   1      34.019  28.497  26.347  1.00  0.00     0.001 A 
ATOM     25  C   UNL A   1      31.894  28.649  27.489  1.00  0.00     0.001 A 
ATOM     26  C   UNL A   1      33.208  29.082  27.319  1.00  0.00     0.000 A 
ENDBRANCH  14  21
ENDBRANCH   8  10
ENDBRANCH   7   8
ENDBRANCH   5   7
ENDBRANCH   4   5
ENDBRANCH   3   4
ENDBRANCH   2   3
ENDBRANCH   1   2
BRANCH   1  27
ATOM     27  C   UNL A   1      37.749  21.218  24.984  1.00  0.00     0.202 C 
BRANCH  27  28
ATOM     28  C   UNL A   1      38.984  20.546  25.595  1.00  0.00     0.261 C 
BRANCH  28  29
ATOM     29  O   UNL A   1      40.004  21.503  25.915  1.00  0.00    -0.460 OA
BRANCH  29  30
ATOM     30  C   UNL A   1      40.523  21.385  27.162  1.00  0.00     0.338 C 
ATOM     31  O   UNL A   1      40.800  20.350  27.750  1.00  0.00    -0.246 OA
BRANCH  30  32
ATOM     32  C   UNL A   1      40.914  22.718  27.659  1.00  0.00     0.060 A 
ATOM     33  C   UNL A   1      40.281  23.829  27.087  1.00  0.00     0.016 A 
ATOM     34  C   UNL A   1      41.885  22.886  28.650  1.00  0.00     0.016 A 
ATOM     35  C   UNL A   1      40.667  25.114  27.455  1.00  0.00     0.010 A 
ATOM     36  C   UNL A   1      42.272  24.177  29.017  1.00  0.00     0.010 A 
ATOM     37  C   UNL A   1      41.696  25.294  28.388  1.00  0.00    -0.014 A 
BRANCH  37  38
ATOM     38  C   UNL A   1      42.262  26.649  28.586  1.00  0.00     0.031 A 
ATOM     39  C   UNL A   1      43.709  26.887  28.245  1.00  0.00     0.074 A 
ATOM     40  C   UNL A   1      41.480  27.660  29.003  1.00  0.00     0.049 A 
ATOM     41  N   UNL A   1      44.404  27.992  28.322  1.00  0.00    -0.248 NA
ATOM     42  C   UNL A   1      44.473  25.729  27.752  1.00  0.00     0.031 C 
ATOM     43  C   UNL A   1      40.057  27.549  29.332  1.00  0.00     0.029 A 
ATOM     44  N   UNL A   1      41.772  28.983  29.219  1.00  0.00    -0.354 N 
ATOM     45  C   UNL A   1      45.684  27.663  27.887  1.00  0.00     0.074 A 
ATOM     46  C   UNL A   1      45.681  26.249  27.587  1.00  0.00     0.031 C 
ATOM     47  C   UNL A   1      39.602  28.756  29.710  1.00  0.00     0.029 A 
ATOM     48  C   UNL A   1      40.704  29.714  29.680  1.00  0.00     0.049 A 
ATOM     49  H   UNL A   1      42.663  29.370  29.060  1.00  0.00     0.167 HD
ATOM     50  C   UNL A   1      46.760  28.471  27.736  1.00  0.00     0.031 A 
ATOM     51  C   UNL A   1      40.631  31.007  30.054  1.00  0.00     0.031 A 
ATOM     52  C   UNL A   1      46.757  29.876  28.050  1.00  0.00     0.049 A 
ATOM     53  C   UNL A   1      41.862  31.868  29.939  1.00  0.00     0.074 A 
ATOM     54  C   UNL A   1      47.793  30.786  27.931  1.00  0.00     0.029 A 
ATOM     55  N   UNL A   1      45.668  30.574  28.547  1.00  0.00    -0.354 N 
ATOM     56  N   UNL A   1      43.057  31.547  29.501  1.00  0.00    -0.248 NA
ATOM     57  C   UNL A   1      41.730  33.270  30.357  1.00  0.00     0.031 C 
ATOM     58  C   UNL A   1      47.347  32.021  28.412  1.00  0.00     0.029 A 
ATOM     59  C   UNL A   1      46.011  31.898  28.764  1.00  0.00     0.049 A 
ATOM     60  H   UNL A   1      44.779  30.186  28.720  1.00  0.00     0.167 HD
ATOM     61  C   UNL A   1      43.812  32.715  29.569  1.00  0.00     0.074 A 
ATOM     62  C   UNL A   1      42.927  33.753  30.058  1.00  0.00     0.031 C 
ATOM     63  C   UNL A   1      45.118  32.913  29.262  1.00  0.00     0.031 A 
BRANCH  50  64
ATOM     64  C   UNL A   1      48.035  27.855  27.221  1.00  0.00    -0.014 A 
ATOM     65  C   UNL A   1      48.386  27.940  25.861  1.00  0.00     0.010 A 
ATOM     66  C   UNL A   1      48.928  27.243  28.119  1.00  0.00     0.010 A 
ATOM     67  C   UNL A   1      49.596  27.408  25.406  1.00  0.00     0.020 A 
ATOM     68  C   UNL A   1      50.152  26.733  27.673  1.00  0.00     0.020 A 
ATOM     69  C   UNL A   1      50.474  26.814  26.317  1.00  0.00     0.054 A 
BRANCH  69  70
ATOM     70  S   UNL A   1      52.063  26.186  25.706  1.00  0.00     0.124 S 
ATOM     71  O   UNL A   1      51.910  26.333  24.261  1.00  0.00    -0.237 OA
ATOM     72  O   UNL A   1      53.023  27.093  26.331  1.00  0.00    -0.237 OA
ATOM     73  O   UNL A   1      52.103  24.809  26.191  1.00  0.00    -0.744 OA
ENDBRANCH  69  70
ENDBRANCH  50  64
BRANCH  51  74
ATOM     74  C   UNL A   1      39.360  31.559  30.600  1.00  0.00    -0.014 A 
ATOM     75  C   UNL A   1      39.060  31.477  31.971  1.00  0.00     0.010 A 
ATOM     76  C   UNL A   1      38.421  32.150  29.733  1.00  0.00     0.010 A 
ATOM     77  C   UNL A   1      37.835  31.942  32.459  1.00  0.00     0.020 A 
ATOM     78  C   UNL A   1      37.211  32.649  30.221  1.00  0.00     0.020 A 
ATOM     79  C   UNL A   1      36.918  32.525  31.579  1.00  0.00     0.054 A 
BRANCH  79  80
ATOM     80  S   UNL A   1      35.344  33.143  32.236  1.00  0.00     0.124 S 
ATOM     81  O   UNL A   1      35.537  32.995  33.674  1.00  0.00    -0.237 OA
ATOM     82  O   UNL A   1      35.313  34.516  31.737  1.00  0.00    -0.237 OA
ATOM     83  O   UNL A   1      34.352  32.250  31.641  1.00  0.00    -0.744 OA
ENDBRANCH  79  80
ENDBRANCH  51  74
BRANCH  63  84
ATOM     84  C   UNL A   1      45.655  34.313  29.420  1.00  0.00    -0.014 A 
ATOM     85  C   UNL A   1      45.588  35.244  28.368  1.00  0.00     0.010 A 
ATOM     86  C   UNL A   1      46.222  34.705  30.646  1.00  0.00     0.010 A 
ATOM     87  C   UNL A   1      46.137  36.520  28.519  1.00  0.00     0.020 A 
ATOM     88  C   UNL A   1      46.737  35.993  30.814  1.00  0.00     0.020 A 
ATOM     89  C   UNL A   1      46.713  36.884  29.740  1.00  0.00     0.054 A 
BRANCH  89  90
ATOM     90  S   UNL A   1      47.417  38.546  29.910  1.00  0.00     0.124 S 
ATOM     91  O   UNL A   1      48.435  38.340  30.936  1.00  0.00    -0.237 OA
ATOM     92  O   UNL A   1      47.924  38.819  28.568  1.00  0.00    -0.237 OA
ATOM     93  O   UNL A   1      46.278  39.366  30.318  1.00  0.00    -0.744 OA
ENDBRANCH  89  90
ENDBRANCH  63  84
ENDBRANCH  37  38
ENDBRANCH  30  32
ENDBRANCH  29  30
ENDBRANCH  28  29
ENDBRANCH  27  28
ENDBRANCH   1  27
TORSDOF 21
ENDMDL
