MODEL 1
REMARK VINA RESULT:     -11.0      0.000      0.000
REMARK SMILES O=C(OCCOCCOC(=O)[C@@H](Cc1ccc(O)cc1)Nc1c2ccccc2nc2ccccc12)c1ccc(-c2c3nc(c(-c4ccc(S(=O)(=O)[O-])cc4)c4ccc([nH]4)c(-c4ccc(S(=O)(=O)[O-])cc4)c4nc(c(-c5ccc(S(=O)(=O)[O-])cc5)c5ccc2[nH]5)C=C4)C=C3)cc1
REMARK SMILES IDX 6 1 5 2 4 3 3 4 2 5 1 6 36 7 37 8 95 9 38 10 94 11 39 12
REMARK SMILES IDX 40 13 41 14 88 15 42 16 93 17 87 18 89 19 43 20 92 21 86 22
REMARK SMILES IDX 85 23 44 25 74 26 55 27 73 28 56 29 59 30 72 31 90 32 57 33
REMARK SMILES IDX 58 34 71 36 91 37 60 38 45 39 46 40 54 41 47 42 53 43 48 44
REMARK SMILES IDX 49 45 50 46 51 47 52 48 75 49 76 50 84 51 77 52 83 53 78 54
REMARK SMILES IDX 79 55 80 56 81 57 82 58 61 59 62 60 70 61 63 62 69 63 64 64
REMARK SMILES IDX 65 65 66 66 67 67 68 68 7 69 8 70 9 71 10 72 11 73 12 74
REMARK SMILES IDX 13 75 14 76 15 77 20 78 16 79 19 80 17 81 18 82 21 84 22 86
REMARK SMILES IDX 23 87 35 88 24 89 28 90 30 91 34 92 25 93 27 94 29 95 31 96
REMARK SMILES IDX 33 97 26 98 32 99
REMARK H PARENT 89 24 59 35 18 83 21 85
REMARK Flexibility Score: inf
ROOT
ATOM      1  O   UNL A   1      35.494  24.139  25.649  1.00  0.00    -0.374 OA
ENDROOT
BRANCH   1   2
ATOM      2  C   UNL A   1      35.457  22.725  25.455  1.00  0.00     0.202 C 
BRANCH   2   3
ATOM      3  C   UNL A   1      36.783  21.979  25.240  1.00  0.00     0.261 C 
BRANCH   3   4
ATOM      4  O   UNL A   1      37.901  22.876  25.150  1.00  0.00    -0.460 OA
BRANCH   4   5
ATOM      5  C   UNL A   1      38.966  22.934  25.989  1.00  0.00     0.338 C 
ATOM      6  O   UNL A   1      39.675  21.940  26.130  1.00  0.00    -0.246 OA
BRANCH   5   7
ATOM      7  C   UNL A   1      39.304  24.167  26.759  1.00  0.00     0.060 A 
ATOM      8  C   UNL A   1      40.051  25.217  26.235  1.00  0.00     0.016 A 
ATOM      9  C   UNL A   1      38.793  24.312  28.055  1.00  0.00     0.016 A 
ATOM     10  C   UNL A   1      40.368  26.336  26.959  1.00  0.00     0.010 A 
ATOM     11  C   UNL A   1      39.062  25.472  28.794  1.00  0.00     0.010 A 
ATOM     12  C   UNL A   1      39.863  26.476  28.238  1.00  0.00    -0.014 A 
BRANCH  12  13
ATOM     13  C   UNL A   1      40.341  27.655  28.962  1.00  0.00     0.031 A 
ATOM     14  C   UNL A   1      41.784  27.694  29.343  1.00  0.00     0.074 A 
ATOM     15  C   UNL A   1      39.544  28.737  29.021  1.00  0.00     0.049 A 
ATOM     16  N   UNL A   1      42.439  28.623  29.976  1.00  0.00    -0.248 NA
ATOM     17  C   UNL A   1      42.610  26.542  28.931  1.00  0.00     0.031 C 
ATOM     18  C   UNL A   1      38.188  28.819  28.458  1.00  0.00     0.029 A 
ATOM     19  N   UNL A   1      39.774  29.991  29.510  1.00  0.00    -0.354 N 
ATOM     20  C   UNL A   1      43.739  28.149  30.087  1.00  0.00     0.074 A 
ATOM     21  C   UNL A   1      43.791  26.860  29.436  1.00  0.00     0.031 C 
ATOM     22  C   UNL A   1      37.724  30.070  28.608  1.00  0.00     0.029 A 
ATOM     23  C   UNL A   1      38.705  30.842  29.357  1.00  0.00     0.049 A 
ATOM     24  H   UNL A   1      40.622  30.259  29.932  1.00  0.00     0.167 HD
ATOM     25  C   UNL A   1      44.781  28.743  30.708  1.00  0.00     0.031 A 
ATOM     26  C   UNL A   1      38.535  32.092  29.822  1.00  0.00     0.031 A 
ATOM     27  C   UNL A   1      44.664  30.021  31.351  1.00  0.00     0.049 A 
ATOM     28  C   UNL A   1      39.664  32.679  30.622  1.00  0.00     0.074 A 
ATOM     29  C   UNL A   1      45.594  30.698  32.113  1.00  0.00     0.029 A 
ATOM     30  N   UNL A   1      43.525  30.819  31.294  1.00  0.00    -0.354 N 
ATOM     31  N   UNL A   1      40.857  32.174  30.848  1.00  0.00    -0.248 NA
ATOM     32  C   UNL A   1      39.427  33.981  31.250  1.00  0.00     0.031 C 
ATOM     33  C   UNL A   1      44.999  31.884  32.559  1.00  0.00     0.029 A 
ATOM     34  C   UNL A   1      43.721  31.974  32.024  1.00  0.00     0.049 A 
ATOM     35  H   UNL A   1      42.702  30.592  30.805  1.00  0.00     0.167 HD
ATOM     36  C   UNL A   1      41.518  33.099  31.641  1.00  0.00     0.074 A 
ATOM     37  C   UNL A   1      40.597  34.207  31.833  1.00  0.00     0.031 C 
ATOM     38  C   UNL A   1      42.764  33.044  32.175  1.00  0.00     0.031 A 
BRANCH  25  39
ATOM     39  C   UNL A   1      46.054  27.952  30.812  1.00  0.00    -0.014 A 
ATOM     40  C   UNL A   1      46.273  27.025  31.847  1.00  0.00     0.010 A 
ATOM     41  C   UNL A   1      47.078  28.189  29.876  1.00  0.00     0.010 A 
ATOM     42  C   UNL A   1      47.508  26.380  31.967  1.00  0.00     0.020 A 
ATOM     43  C   UNL A   1      48.306  27.529  29.979  1.00  0.00     0.020 A 
ATOM     44  C   UNL A   1      48.520  26.643  31.036  1.00  0.00     0.054 A 
BRANCH  44  45
ATOM     45  S   UNL A   1      50.118  25.804  31.220  1.00  0.00     0.124 S 
ATOM     46  O   UNL A   1      51.033  26.930  31.375  1.00  0.00    -0.237 OA
ATOM     47  O   UNL A   1      49.916  24.988  32.415  1.00  0.00    -0.237 OA
ATOM     48  O   UNL A   1      50.260  25.052  29.975  1.00  0.00    -0.744 OA
ENDBRANCH  44  45
ENDBRANCH  25  39
BRANCH  26  49
ATOM     49  C   UNL A   1      37.236  32.798  29.637  1.00  0.00    -0.014 A 
ATOM     50  C   UNL A   1      36.937  33.484  28.449  1.00  0.00     0.010 A 
ATOM     51  C   UNL A   1      36.273  32.777  30.667  1.00  0.00     0.010 A 
ATOM     52  C   UNL A   1      35.711  34.147  28.300  1.00  0.00     0.020 A 
ATOM     53  C   UNL A   1      35.037  33.409  30.511  1.00  0.00     0.020 A 
ATOM     54  C   UNL A   1      34.769  34.105  29.333  1.00  0.00     0.054 A 
BRANCH  54  55
ATOM     55  S   UNL A   1      33.174  34.942  29.109  1.00  0.00     0.124 S 
ATOM     56  O   UNL A   1      33.589  36.268  28.661  1.00  0.00    -0.237 OA
ATOM     57  O   UNL A   1      32.517  34.109  28.105  1.00  0.00    -0.237 OA
ATOM     58  O   UNL A   1      32.572  34.892  30.440  1.00  0.00    -0.744 OA
ENDBRANCH  54  55
ENDBRANCH  26  49
BRANCH  38  59
ATOM     59  C   UNL A   1      43.200  34.230  32.982  1.00  0.00    -0.014 A 
ATOM     60  C   UNL A   1      42.971  34.287  34.367  1.00  0.00     0.010 A 
ATOM     61  C   UNL A   1      43.910  35.265  32.349  1.00  0.00     0.010 A 
ATOM     62  C   UNL A   1      43.427  35.379  35.104  1.00  0.00     0.020 A 
ATOM     63  C   UNL A   1      44.392  36.343  33.089  1.00  0.00     0.020 A 
ATOM     64  C   UNL A   1      44.136  36.398  34.460  1.00  0.00     0.054 A 
BRANCH  64  65
ATOM     65  S   UNL A   1      44.771  37.776  35.450  1.00  0.00     0.124 S 
ATOM     66  O   UNL A   1      44.734  38.878  34.492  1.00  0.00    -0.237 OA
ATOM     67  O   UNL A   1      43.803  37.859  36.542  1.00  0.00    -0.237 OA
ATOM     68  O   UNL A   1      46.107  37.334  35.843  1.00  0.00    -0.744 OA
ENDBRANCH  64  65
ENDBRANCH  38  59
ENDBRANCH  12  13
ENDBRANCH   5   7
ENDBRANCH   4   5
ENDBRANCH   3   4
ENDBRANCH   2   3
ENDBRANCH   1   2
BRANCH   1  69
ATOM     69  C   UNL A   1      34.408  24.915  25.137  1.00  0.00     0.202 C 
BRANCH  69  70
ATOM     70  C   UNL A   1      34.320  24.744  23.619  1.00  0.00     0.261 C 
BRANCH  70  71
ATOM     71  O   UNL A   1      33.772  25.951  23.066  1.00  0.00    -0.462 OA
BRANCH  71  72
ATOM     72  C   UNL A   1      32.880  25.754  22.064  1.00  0.00     0.328 C 
ATOM     73  O   UNL A   1      33.039  24.962  21.141  1.00  0.00    -0.250 OA
BRANCH  72  74
ATOM     74  C   UNL A   1      31.665  26.682  22.176  1.00  0.00     0.194 C 
BRANCH  74  75
ATOM     75  C   UNL A   1      30.597  26.439  23.280  1.00  0.00     0.072 C 
BRANCH  75  76
ATOM     76  C   UNL A   1      30.756  25.390  24.358  1.00  0.00    -0.045 A 
ATOM     77  C   UNL A   1      30.808  24.019  24.078  1.00  0.00     0.007 A 
ATOM     78  C   UNL A   1      30.943  25.797  25.693  1.00  0.00     0.007 A 
ATOM     79  C   UNL A   1      30.985  23.079  25.097  1.00  0.00     0.046 A 
ATOM     80  C   UNL A   1      31.137  24.862  26.712  1.00  0.00     0.046 A 
ATOM     81  C   UNL A   1      31.154  23.510  26.407  1.00  0.00     0.115 A 
BRANCH  81  82
ATOM     82  O   UNL A   1      31.354  22.625  27.424  1.00  0.00    -0.508 OA
ATOM     83  H   UNL A   1      30.875  22.717  28.224  1.00  0.00     0.293 HD
ENDBRANCH  81  82
ENDBRANCH  75  76
ENDBRANCH  74  75
BRANCH  74  84
ATOM     84  N   UNL A   1      32.084  28.087  22.241  1.00  0.00    -0.371 N 
ATOM     85  H   UNL A   1      32.720  28.446  21.581  1.00  0.00     0.161 HD
BRANCH  84  86
ATOM     86  C   UNL A   1      31.570  28.913  23.254  1.00  0.00     0.054 A 
ATOM     87  C   UNL A   1      32.236  29.061  24.504  1.00  0.00     0.024 A 
ATOM     88  C   UNL A   1      30.347  29.597  23.020  1.00  0.00     0.024 A 
ATOM     89  C   UNL A   1      33.404  28.351  24.899  1.00  0.00     0.012 A 
ATOM     90  C   UNL A   1      31.700  30.002  25.400  1.00  0.00     0.073 A 
ATOM     91  C   UNL A   1      29.946  30.537  23.981  1.00  0.00     0.073 A 
ATOM     92  C   UNL A   1      29.509  29.370  21.895  1.00  0.00     0.012 A 
ATOM     93  C   UNL A   1      33.977  28.513  26.158  1.00  0.00     0.001 A 
ATOM     94  C   UNL A   1      32.317  30.183  26.633  1.00  0.00     0.029 A 
ATOM     95  N   UNL A   1      30.621  30.748  25.121  1.00  0.00    -0.248 NA
ATOM     96  C   UNL A   1      28.796  31.282  23.745  1.00  0.00     0.029 A 
ATOM     97  C   UNL A   1      28.338  30.096  21.702  1.00  0.00     0.001 A 
ATOM     98  C   UNL A   1      33.433  29.441  27.028  1.00  0.00     0.002 A 
ATOM     99  C   UNL A   1      27.993  31.075  22.619  1.00  0.00     0.002 A 
ENDBRANCH  84  86
ENDBRANCH  74  84
ENDBRANCH  72  74
ENDBRANCH  71  72
ENDBRANCH  70  71
ENDBRANCH  69  70
ENDBRANCH   1  69
TORSDOF 22
ENDMDL
MODEL 2
REMARK VINA RESULT:     -10.9      2.079      3.211
REMARK SMILES O=C(OCCOCCOC(=O)[C@@H](Cc1ccc(O)cc1)Nc1c2ccccc2nc2ccccc12)c1ccc(-c2c3nc(c(-c4ccc(S(=O)(=O)[O-])cc4)c4ccc([nH]4)c(-c4ccc(S(=O)(=O)[O-])cc4)c4nc(c(-c5ccc(S(=O)(=O)[O-])cc5)c5ccc2[nH]5)C=C4)C=C3)cc1
REMARK SMILES IDX 6 1 5 2 4 3 3 4 2 5 1 6 36 7 37 8 95 9 38 10 94 11 39 12
REMARK SMILES IDX 40 13 41 14 88 15 42 16 93 17 87 18 89 19 43 20 92 21 86 22
REMARK SMILES IDX 85 23 44 25 74 26 55 27 73 28 56 29 59 30 72 31 90 32 57 33
REMARK SMILES IDX 58 34 71 36 91 37 60 38 45 39 46 40 54 41 47 42 53 43 48 44
REMARK SMILES IDX 49 45 50 46 51 47 52 48 75 49 76 50 84 51 77 52 83 53 78 54
REMARK SMILES IDX 79 55 80 56 81 57 82 58 61 59 62 60 70 61 63 62 69 63 64 64
REMARK SMILES IDX 65 65 66 66 67 67 68 68 7 69 8 70 9 71 10 72 11 73 12 74
REMARK SMILES IDX 13 75 14 76 15 77 20 78 16 79 19 80 17 81 18 82 21 84 22 86
REMARK SMILES IDX 23 87 35 88 24 89 28 90 30 91 34 92 25 93 27 94 29 95 31 96
REMARK SMILES IDX 33 97 26 98 32 99
REMARK H PARENT 89 24 59 35 18 83 21 85
REMARK Flexibility Score: inf
ROOT
ATOM      1  O   UNL A   1      36.169  23.986  24.941  1.00  0.00    -0.374 OA
ENDROOT
BRANCH   1   2
ATOM      2  C   UNL A   1      36.476  23.051  25.975  1.00  0.00     0.202 C 
BRANCH   2   3
ATOM      3  C   UNL A   1      37.366  21.846  25.635  1.00  0.00     0.261 C 
BRANCH   3   4
ATOM      4  O   UNL A   1      38.754  22.206  25.546  1.00  0.00    -0.460 OA
BRANCH   4   5
ATOM      5  C   UNL A   1      39.649  22.247  26.565  1.00  0.00     0.338 C 
ATOM      6  O   UNL A   1      40.026  21.196  27.078  1.00  0.00    -0.246 OA
BRANCH   5   7
ATOM      7  C   UNL A   1      40.189  23.533  27.096  1.00  0.00     0.060 A 
ATOM      8  C   UNL A   1      39.859  24.778  26.570  1.00  0.00     0.016 A 
ATOM      9  C   UNL A   1      41.021  23.500  28.223  1.00  0.00     0.016 A 
ATOM     10  C   UNL A   1      40.376  25.950  27.058  1.00  0.00     0.010 A 
ATOM     11  C   UNL A   1      41.519  24.691  28.768  1.00  0.00     0.010 A 
ATOM     12  C   UNL A   1      41.198  25.913  28.169  1.00  0.00    -0.014 A 
BRANCH  12  13
ATOM     13  C   UNL A   1      41.777  27.203  28.547  1.00  0.00     0.031 A 
ATOM     14  C   UNL A   1      43.216  27.436  28.226  1.00  0.00     0.074 A 
ATOM     15  C   UNL A   1      40.946  28.194  28.921  1.00  0.00     0.049 A 
ATOM     16  N   UNL A   1      43.946  28.489  28.453  1.00  0.00    -0.248 NA
ATOM     17  C   UNL A   1      43.924  26.345  27.528  1.00  0.00     0.031 C 
ATOM     18  C   UNL A   1      39.485  28.072  29.036  1.00  0.00     0.029 A 
ATOM     19  N   UNL A   1      41.190  29.507  29.201  1.00  0.00    -0.354 N 
ATOM     20  C   UNL A   1      45.211  28.171  27.977  1.00  0.00     0.074 A 
ATOM     21  C   UNL A   1      45.148  26.838  27.425  1.00  0.00     0.031 C 
ATOM     22  C   UNL A   1      38.965  29.273  29.332  1.00  0.00     0.029 A 
ATOM     23  C   UNL A   1      40.057  30.218  29.519  1.00  0.00     0.049 A 
ATOM     24  H   UNL A   1      42.090  29.906  29.179  1.00  0.00     0.167 HD
ATOM     25  C   UNL A   1      46.324  28.933  28.030  1.00  0.00     0.031 A 
ATOM     26  C   UNL A   1      39.938  31.482  29.962  1.00  0.00     0.031 A 
ATOM     27  C   UNL A   1      46.328  30.249  28.605  1.00  0.00     0.049 A 
ATOM     28  C   UNL A   1      41.210  32.265  30.133  1.00  0.00     0.074 A 
ATOM     29  C   UNL A   1      47.394  31.096  28.831  1.00  0.00     0.029 A 
ATOM     30  N   UNL A   1      45.184  30.910  29.042  1.00  0.00    -0.354 N 
ATOM     31  N   UNL A   1      42.436  31.917  29.810  1.00  0.00    -0.248 NA
ATOM     32  C   UNL A   1      41.096  33.590  30.749  1.00  0.00     0.031 C 
ATOM     33  C   UNL A   1      46.900  32.249  29.452  1.00  0.00     0.029 A 
ATOM     34  C   UNL A   1      45.519  32.146  29.556  1.00  0.00     0.049 A 
ATOM     35  H   UNL A   1      44.270  30.547  28.993  1.00  0.00     0.167 HD
ATOM     36  C   UNL A   1      43.243  32.982  30.177  1.00  0.00     0.074 A 
ATOM     37  C   UNL A   1      42.359  33.997  30.724  1.00  0.00     0.031 C 
ATOM     38  C   UNL A   1      44.590  33.115  30.085  1.00  0.00     0.031 A 
BRANCH  25  39
ATOM     39  C   UNL A   1      47.607  28.300  27.572  1.00  0.00    -0.014 A 
ATOM     40  C   UNL A   1      48.024  28.349  26.230  1.00  0.00     0.010 A 
ATOM     41  C   UNL A   1      48.385  27.591  28.506  1.00  0.00     0.010 A 
ATOM     42  C   UNL A   1      49.174  27.665  25.823  1.00  0.00     0.020 A 
ATOM     43  C   UNL A   1      49.548  26.925  28.107  1.00  0.00     0.020 A 
ATOM     44  C   UNL A   1      49.924  26.950  26.764  1.00  0.00     0.054 A 
BRANCH  44  45
ATOM     45  S   UNL A   1      51.405  26.061  26.210  1.00  0.00     0.124 S 
ATOM     46  O   UNL A   1      51.314  26.199  24.759  1.00  0.00    -0.237 OA
ATOM     47  O   UNL A   1      52.486  26.811  26.846  1.00  0.00    -0.237 OA
ATOM     48  O   UNL A   1      51.208  24.707  26.720  1.00  0.00    -0.744 OA
ENDBRANCH  44  45
ENDBRANCH  25  39
BRANCH  26  49
ATOM     49  C   UNL A   1      38.608  32.021  30.362  1.00  0.00    -0.014 A 
ATOM     50  C   UNL A   1      38.106  31.846  31.661  1.00  0.00     0.010 A 
ATOM     51  C   UNL A   1      37.828  32.732  29.426  1.00  0.00     0.010 A 
ATOM     52  C   UNL A   1      36.849  32.356  32.013  1.00  0.00     0.020 A 
ATOM     53  C   UNL A   1      36.588  33.270  29.780  1.00  0.00     0.020 A 
ATOM     54  C   UNL A   1      36.098  33.065  31.069  1.00  0.00     0.054 A 
BRANCH  54  55
ATOM     55  S   UNL A   1      34.487  33.745  31.552  1.00  0.00     0.124 S 
ATOM     56  O   UNL A   1      34.868  34.999  32.195  1.00  0.00    -0.237 OA
ATOM     57  O   UNL A   1      33.800  33.874  30.269  1.00  0.00    -0.237 OA
ATOM     58  O   UNL A   1      33.938  32.726  32.444  1.00  0.00    -0.744 OA
ENDBRANCH  54  55
ENDBRANCH  26  49
BRANCH  38  59
ATOM     59  C   UNL A   1      45.168  34.416  30.556  1.00  0.00    -0.014 A 
ATOM     60  C   UNL A   1      45.578  34.585  31.889  1.00  0.00     0.010 A 
ATOM     61  C   UNL A   1      45.364  35.454  29.629  1.00  0.00     0.010 A 
ATOM     62  C   UNL A   1      46.157  35.788  32.294  1.00  0.00     0.020 A 
ATOM     63  C   UNL A   1      45.967  36.647  30.025  1.00  0.00     0.020 A 
ATOM     64  C   UNL A   1      46.349  36.809  31.358  1.00  0.00     0.054 A 
BRANCH  64  65
ATOM     65  S   UNL A   1      47.156  38.340  31.893  1.00  0.00     0.124 S 
ATOM     66  O   UNL A   1      46.113  39.333  31.652  1.00  0.00    -0.237 OA
ATOM     67  O   UNL A   1      47.456  38.069  33.299  1.00  0.00    -0.237 OA
ATOM     68  O   UNL A   1      48.325  38.437  31.022  1.00  0.00    -0.744 OA
ENDBRANCH  64  65
ENDBRANCH  38  59
ENDBRANCH  12  13
ENDBRANCH   5   7
ENDBRANCH   4   5
ENDBRANCH   3   4
ENDBRANCH   2   3
ENDBRANCH   1   2
BRANCH   1  69
ATOM     69  C   UNL A   1      34.815  24.424  24.811  1.00  0.00     0.202 C 
BRANCH  69  70
ATOM     70  C   UNL A   1      34.384  24.344  23.345  1.00  0.00     0.261 C 
BRANCH  70  71
ATOM     71  O   UNL A   1      33.847  25.621  22.968  1.00  0.00    -0.462 OA
BRANCH  71  72
ATOM     72  C   UNL A   1      32.910  25.569  21.988  1.00  0.00     0.328 C 
ATOM     73  O   UNL A   1      32.970  24.830  21.011  1.00  0.00    -0.250 OA
BRANCH  72  74
ATOM     74  C   UNL A   1      31.786  26.589  22.204  1.00  0.00     0.194 C 
BRANCH  74  75
ATOM     75  C   UNL A   1      30.769  26.394  23.364  1.00  0.00     0.072 C 
BRANCH  75  76
ATOM     76  C   UNL A   1      30.948  25.352  24.447  1.00  0.00    -0.045 A 
ATOM     77  C   UNL A   1      30.773  23.982  24.214  1.00  0.00     0.007 A 
ATOM     78  C   UNL A   1      31.389  25.753  25.722  1.00  0.00     0.007 A 
ATOM     79  C   UNL A   1      30.976  23.045  25.231  1.00  0.00     0.046 A 
ATOM     80  C   UNL A   1      31.609  24.818  26.736  1.00  0.00     0.046 A 
ATOM     81  C   UNL A   1      31.399  23.471  26.484  1.00  0.00     0.115 A 
BRANCH  81  82
ATOM     82  O   UNL A   1      31.632  22.586  27.493  1.00  0.00    -0.508 OA
ATOM     83  H   UNL A   1      32.350  21.988  27.434  1.00  0.00     0.293 HD
ENDBRANCH  81  82
ENDBRANCH  75  76
ENDBRANCH  74  75
BRANCH  74  84
ATOM     84  N   UNL A   1      32.323  27.951  22.285  1.00  0.00    -0.371 N 
ATOM     85  H   UNL A   1      33.053  28.233  21.688  1.00  0.00     0.161 HD
BRANCH  84  86
ATOM     86  C   UNL A   1      31.786  28.849  23.223  1.00  0.00     0.054 A 
ATOM     87  C   UNL A   1      30.634  29.633  22.928  1.00  0.00     0.024 A 
ATOM     88  C   UNL A   1      32.427  28.981  24.484  1.00  0.00     0.024 A 
ATOM     89  C   UNL A   1      29.969  29.672  21.671  1.00  0.00     0.012 A 
ATOM     90  C   UNL A   1      30.111  30.409  23.977  1.00  0.00     0.073 A 
ATOM     91  C   UNL A   1      31.775  29.758  25.454  1.00  0.00     0.073 A 
ATOM     92  C   UNL A   1      33.681  28.396  24.806  1.00  0.00     0.012 A 
ATOM     93  C   UNL A   1      28.872  30.499  21.440  1.00  0.00     0.001 A 
ATOM     94  C   UNL A   1      28.986  31.191  23.737  1.00  0.00     0.029 A 
ATOM     95  N   UNL A   1      30.639  30.427  25.209  1.00  0.00    -0.248 NA
ATOM     96  C   UNL A   1      32.335  29.843  26.724  1.00  0.00     0.029 A 
ATOM     97  C   UNL A   1      34.244  28.533  26.071  1.00  0.00     0.001 A 
ATOM     98  C   UNL A   1      28.374  31.259  22.483  1.00  0.00     0.002 A 
ATOM     99  C   UNL A   1      33.554  29.238  27.043  1.00  0.00     0.002 A 
ENDBRANCH  84  86
ENDBRANCH  74  84
ENDBRANCH  72  74
ENDBRANCH  71  72
ENDBRANCH  70  71
ENDBRANCH  69  70
ENDBRANCH   1  69
TORSDOF 22
ENDMDL
MODEL 3
REMARK VINA RESULT:     -10.9      2.051      2.551
REMARK SMILES O=C(OCCOCCOC(=O)[C@@H](Cc1ccc(O)cc1)Nc1c2ccccc2nc2ccccc12)c1ccc(-c2c3nc(c(-c4ccc(S(=O)(=O)[O-])cc4)c4ccc([nH]4)c(-c4ccc(S(=O)(=O)[O-])cc4)c4nc(c(-c5ccc(S(=O)(=O)[O-])cc5)c5ccc2[nH]5)C=C4)C=C3)cc1
REMARK SMILES IDX 6 1 5 2 4 3 3 4 2 5 1 6 36 7 37 8 95 9 38 10 94 11 39 12
REMARK SMILES IDX 40 13 41 14 88 15 42 16 93 17 87 18 89 19 43 20 92 21 86 22
REMARK SMILES IDX 85 23 44 25 74 26 55 27 73 28 56 29 59 30 72 31 90 32 57 33
REMARK SMILES IDX 58 34 71 36 91 37 60 38 45 39 46 40 54 41 47 42 53 43 48 44
REMARK SMILES IDX 49 45 50 46 51 47 52 48 75 49 76 50 84 51 77 52 83 53 78 54
REMARK SMILES IDX 79 55 80 56 81 57 82 58 61 59 62 60 70 61 63 62 69 63 64 64
REMARK SMILES IDX 65 65 66 66 67 67 68 68 7 69 8 70 9 71 10 72 11 73 12 74
REMARK SMILES IDX 13 75 14 76 15 77 20 78 16 79 19 80 17 81 18 82 21 84 22 86
REMARK SMILES IDX 23 87 35 88 24 89 28 90 30 91 34 92 25 93 27 94 29 95 31 96
REMARK SMILES IDX 33 97 26 98 32 99
REMARK H PARENT 89 24 59 35 18 83 21 85
REMARK Flexibility Score: inf
ROOT
ATOM      1  O   UNL A   1      35.899  24.049  25.195  1.00  0.00    -0.374 OA
ENDROOT
BRANCH   1   2
ATOM      2  C   UNL A   1      35.834  22.861  25.983  1.00  0.00     0.202 C 
BRANCH   2   3
ATOM      3  C   UNL A   1      36.814  21.720  25.673  1.00  0.00     0.261 C 
BRANCH   3   4
ATOM      4  O   UNL A   1      38.130  22.206  25.363  1.00  0.00    -0.460 OA
BRANCH   4   5
ATOM      5  C   UNL A   1      39.218  22.176  26.174  1.00  0.00     0.338 C 
ATOM      6  O   UNL A   1      39.735  21.096  26.448  1.00  0.00    -0.246 OA
BRANCH   5   7
ATOM      7  C   UNL A   1      39.807  23.418  26.757  1.00  0.00     0.060 A 
ATOM      8  C   UNL A   1      39.512  24.696  26.296  1.00  0.00     0.016 A 
ATOM      9  C   UNL A   1      40.652  23.304  27.869  1.00  0.00     0.016 A 
ATOM     10  C   UNL A   1      40.073  25.826  26.830  1.00  0.00     0.010 A 
ATOM     11  C   UNL A   1      41.196  24.451  28.463  1.00  0.00     0.010 A 
ATOM     12  C   UNL A   1      40.908  25.710  27.926  1.00  0.00    -0.014 A 
BRANCH  12  13
ATOM     13  C   UNL A   1      41.534  26.961  28.356  1.00  0.00     0.031 A 
ATOM     14  C   UNL A   1      42.985  27.147  28.057  1.00  0.00     0.074 A 
ATOM     15  C   UNL A   1      40.739  27.970  28.758  1.00  0.00     0.049 A 
ATOM     16  N   UNL A   1      43.753  28.161  28.329  1.00  0.00    -0.248 NA
ATOM     17  C   UNL A   1      43.655  26.054  27.326  1.00  0.00     0.031 C 
ATOM     18  C   UNL A   1      39.273  27.903  28.856  1.00  0.00     0.029 A 
ATOM     19  N   UNL A   1      41.032  29.262  29.088  1.00  0.00    -0.354 N 
ATOM     20  C   UNL A   1      45.009  27.810  27.853  1.00  0.00     0.074 A 
ATOM     21  C   UNL A   1      44.899  26.501  27.253  1.00  0.00     0.031 C 
ATOM     22  C   UNL A   1      38.799  29.113  29.191  1.00  0.00     0.029 A 
ATOM     23  C   UNL A   1      39.926  30.006  29.422  1.00  0.00     0.049 A 
ATOM     24  H   UNL A   1      41.948  29.624  29.089  1.00  0.00     0.167 HD
ATOM     25  C   UNL A   1      46.152  28.524  27.944  1.00  0.00     0.031 A 
ATOM     26  C   UNL A   1      39.852  31.257  29.909  1.00  0.00     0.031 A 
ATOM     27  C   UNL A   1      46.202  29.817  28.566  1.00  0.00     0.049 A 
ATOM     28  C   UNL A   1      41.152  31.981  30.120  1.00  0.00     0.074 A 
ATOM     29  C   UNL A   1      47.299  30.611  28.833  1.00  0.00     0.029 A 
ATOM     30  N   UNL A   1      45.081  30.507  29.017  1.00  0.00    -0.354 N 
ATOM     31  N   UNL A   1      42.367  31.596  29.795  1.00  0.00    -0.248 NA
ATOM     32  C   UNL A   1      41.086  33.287  30.783  1.00  0.00     0.031 C 
ATOM     33  C   UNL A   1      46.844  31.760  29.491  1.00  0.00     0.029 A 
ATOM     34  C   UNL A   1      45.460  31.710  29.578  1.00  0.00     0.049 A 
ATOM     35  H   UNL A   1      44.153  30.184  28.946  1.00  0.00     0.167 HD
ATOM     36  C   UNL A   1      43.212  32.614  30.209  1.00  0.00     0.074 A 
ATOM     37  C   UNL A   1      42.364  33.643  30.784  1.00  0.00     0.031 C 
ATOM     38  C   UNL A   1      44.564  32.696  30.134  1.00  0.00     0.031 A 
BRANCH  25  39
ATOM     39  C   UNL A   1      47.413  27.857  27.475  1.00  0.00    -0.014 A 
ATOM     40  C   UNL A   1      48.132  26.966  28.292  1.00  0.00     0.010 A 
ATOM     41  C   UNL A   1      47.918  28.176  26.201  1.00  0.00     0.010 A 
ATOM     42  C   UNL A   1      49.353  26.439  27.859  1.00  0.00     0.020 A 
ATOM     43  C   UNL A   1      49.126  27.634  25.755  1.00  0.00     0.020 A 
ATOM     44  C   UNL A   1      49.846  26.784  26.595  1.00  0.00     0.054 A 
BRANCH  44  45
ATOM     45  S   UNL A   1      51.438  26.098  26.059  1.00  0.00     0.124 S 
ATOM     46  O   UNL A   1      52.382  27.073  26.596  1.00  0.00    -0.237 OA
ATOM     47  O   UNL A   1      51.455  24.786  26.703  1.00  0.00    -0.237 OA
ATOM     48  O   UNL A   1      51.331  26.071  24.603  1.00  0.00    -0.744 OA
ENDBRANCH  44  45
ENDBRANCH  25  39
BRANCH  26  49
ATOM     49  C   UNL A   1      38.541  31.835  30.316  1.00  0.00    -0.014 A 
ATOM     50  C   UNL A   1      37.833  31.340  31.423  1.00  0.00     0.010 A 
ATOM     51  C   UNL A   1      37.989  32.908  29.587  1.00  0.00     0.010 A 
ATOM     52  C   UNL A   1      36.598  31.895  31.783  1.00  0.00     0.020 A 
ATOM     53  C   UNL A   1      36.774  33.486  29.960  1.00  0.00     0.020 A 
ATOM     54  C   UNL A   1      36.076  32.964  31.049  1.00  0.00     0.054 A 
BRANCH  54  55
ATOM     55  S   UNL A   1      34.490  33.690  31.549  1.00  0.00     0.124 S 
ATOM     56  O   UNL A   1      33.760  33.724  30.285  1.00  0.00    -0.237 OA
ATOM     57  O   UNL A   1      34.001  32.733  32.538  1.00  0.00    -0.237 OA
ATOM     58  O   UNL A   1      34.866  34.996  32.090  1.00  0.00    -0.744 OA
ENDBRANCH  54  55
ENDBRANCH  26  49
BRANCH  38  59
ATOM     59  C   UNL A   1      45.189  33.955  30.657  1.00  0.00    -0.014 A 
ATOM     60  C   UNL A   1      45.669  34.030  31.975  1.00  0.00     0.010 A 
ATOM     61  C   UNL A   1      45.356  35.048  29.790  1.00  0.00     0.010 A 
ATOM     62  C   UNL A   1      46.289  35.196  32.426  1.00  0.00     0.020 A 
ATOM     63  C   UNL A   1      46.000  36.203  30.230  1.00  0.00     0.020 A 
ATOM     64  C   UNL A   1      46.452  36.273  31.549  1.00  0.00     0.054 A 
BRANCH  64  65
ATOM     65  S   UNL A   1      47.313  37.753  32.140  1.00  0.00     0.124 S 
ATOM     66  O   UNL A   1      48.273  37.993  31.066  1.00  0.00    -0.237 OA
ATOM     67  O   UNL A   1      46.232  38.731  32.248  1.00  0.00    -0.237 OA
ATOM     68  O   UNL A   1      47.892  37.331  33.413  1.00  0.00    -0.744 OA
ENDBRANCH  64  65
ENDBRANCH  38  59
ENDBRANCH  12  13
ENDBRANCH   5   7
ENDBRANCH   4   5
ENDBRANCH   3   4
ENDBRANCH   2   3
ENDBRANCH   1   2
BRANCH   1  69
ATOM     69  C   UNL A   1      34.684  24.762  24.954  1.00  0.00     0.202 C 
BRANCH  69  70
ATOM     70  C   UNL A   1      34.297  24.641  23.478  1.00  0.00     0.261 C 
BRANCH  70  71
ATOM     71  O   UNL A   1      33.655  25.863  23.083  1.00  0.00    -0.462 OA
BRANCH  71  72
ATOM     72  C   UNL A   1      32.800  25.736  22.039  1.00  0.00     0.328 C 
ATOM     73  O   UNL A   1      33.008  25.033  21.055  1.00  0.00    -0.250 OA
BRANCH  72  74
ATOM     74  C   UNL A   1      31.558  26.622  22.192  1.00  0.00     0.194 C 
BRANCH  74  75
ATOM     75  C   UNL A   1      30.576  26.391  23.375  1.00  0.00     0.072 C 
BRANCH  75  76
ATOM     76  C   UNL A   1      30.798  25.328  24.429  1.00  0.00    -0.045 A 
ATOM     77  C   UNL A   1      30.759  23.957  24.142  1.00  0.00     0.007 A 
ATOM     78  C   UNL A   1      31.138  25.717  25.739  1.00  0.00     0.007 A 
ATOM     79  C   UNL A   1      30.997  23.004  25.135  1.00  0.00     0.046 A 
ATOM     80  C   UNL A   1      31.393  24.767  26.730  1.00  0.00     0.046 A 
ATOM     81  C   UNL A   1      31.319  23.417  26.421  1.00  0.00     0.115 A 
BRANCH  81  82
ATOM     82  O   UNL A   1      31.582  22.518  27.411  1.00  0.00    -0.508 OA
ATOM     83  H   UNL A   1      32.445  22.165  27.505  1.00  0.00     0.293 HD
ENDBRANCH  81  82
ENDBRANCH  75  76
ENDBRANCH  74  75
BRANCH  74  84
ATOM     84  N   UNL A   1      31.923  28.042  22.166  1.00  0.00    -0.371 N 
ATOM     85  H   UNL A   1      32.494  28.396  21.446  1.00  0.00     0.161 HD
BRANCH  84  86
ATOM     86  C   UNL A   1      31.451  28.893  23.180  1.00  0.00     0.054 A 
ATOM     87  C   UNL A   1      32.160  29.058  24.404  1.00  0.00     0.024 A 
ATOM     88  C   UNL A   1      30.228  29.585  22.974  1.00  0.00     0.024 A 
ATOM     89  C   UNL A   1      33.334  28.344  24.774  1.00  0.00     0.012 A 
ATOM     90  C   UNL A   1      31.664  30.021  25.299  1.00  0.00     0.073 A 
ATOM     91  C   UNL A   1      29.869  30.548  23.929  1.00  0.00     0.073 A 
ATOM     92  C   UNL A   1      29.351  29.346  21.881  1.00  0.00     0.012 A 
ATOM     93  C   UNL A   1      33.951  28.524  26.010  1.00  0.00     0.001 A 
ATOM     94  C   UNL A   1      32.324  30.220  26.507  1.00  0.00     0.029 A 
ATOM     95  N   UNL A   1      30.584  30.773  25.042  1.00  0.00    -0.248 NA
ATOM     96  C   UNL A   1      28.718  31.299  23.717  1.00  0.00     0.029 A 
ATOM     97  C   UNL A   1      28.180  30.080  21.714  1.00  0.00     0.001 A 
ATOM     98  C   UNL A   1      33.445  29.474  26.879  1.00  0.00     0.002 A 
ATOM     99  C   UNL A   1      27.876  31.080  22.622  1.00  0.00     0.002 A 
ENDBRANCH  84  86
ENDBRANCH  74  84
ENDBRANCH  72  74
ENDBRANCH  71  72
ENDBRANCH  70  71
ENDBRANCH  69  70
ENDBRANCH   1  69
TORSDOF 22
ENDMDL
