MODEL 1
REMARK VINA RESULT:      -9.2      0.000      0.000
REMARK SMILES CC(C)(C)OC(=O)N1CCC[C@H]1C(=O)N[C@@H](Cc1ccccc1)C(=O)OCCOCCOC(=O)c1ccc(-c2c3nc(c(-c4ccc(S(=O)(=O)[O-])cc4)c4ccc([nH]4)c(-c4ccc(S(=O)(=O)[O-])cc4)c4nc(c(-c5ccc(S(=O)(=O)[O-])cc5)c5ccc2[nH]5)C=C4)C=C3)cc1
REMARK SMILES IDX 28 1 27 2 26 3 24 4 25 5 16 6 15 7 13 8 14 9 12 11 8 12 9 13
REMARK SMILES IDX 10 14 11 15 6 16 7 17 5 18 2 19 1 20 3 21 4 22 17 23 18 24
REMARK SMILES IDX 19 25 23 26 20 27 22 28 21 29 29 30 30 31 31 32 32 33 33 34
REMARK SMILES IDX 34 35 35 36 36 37 94 38 37 39 93 40 38 41 39 42 40 43 87 44
REMARK SMILES IDX 41 45 92 46 86 47 88 48 42 49 91 50 85 51 84 52 43 54 73 55
REMARK SMILES IDX 54 56 72 57 55 58 58 59 71 60 89 61 56 62 57 63 70 65 90 66
REMARK SMILES IDX 59 67 44 68 45 69 53 70 46 71 52 72 47 73 48 74 49 75 50 76
REMARK SMILES IDX 51 77 74 78 75 79 83 80 76 81 82 82 77 83 78 84 79 85 80 86
REMARK SMILES IDX 81 87 60 88 61 89 69 90 62 91 68 92 63 93 64 94 65 95 66 96
REMARK SMILES IDX 67 97
REMARK H PARENT 15 10 88 53 58 64
REMARK Flexibility Score: inf
ROOT
ATOM      1  C   UNL A   1      34.472  34.426  28.106  1.00  0.00     0.202 C 
ENDROOT
BRANCH   1   2
ATOM      2  C   UNL A   1      33.245  33.509  28.003  1.00  0.00     0.261 C 
BRANCH   2   3
ATOM      3  O   UNL A   1      33.668  32.138  28.170  1.00  0.00    -0.462 OA
BRANCH   3   4
ATOM      4  C   UNL A   1      33.247  31.190  27.296  1.00  0.00     0.329 C 
ATOM      5  O   UNL A   1      32.148  31.184  26.753  1.00  0.00    -0.250 OA
BRANCH   4   6
ATOM      6  C   UNL A   1      34.279  30.034  27.138  1.00  0.00     0.196 C 
BRANCH   6   7
ATOM      7  N   UNL A   1      34.401  29.319  25.847  1.00  0.00    -0.341 N 
ATOM      8  C   UNL A   1      33.551  28.500  25.152  1.00  0.00     0.243 C 
ATOM      9  O   UNL A   1      34.008  27.945  24.147  1.00  0.00    -0.273 OA
ATOM     10  H   UNL A   1      35.265  29.463  25.397  1.00  0.00     0.164 HD
BRANCH   8  11
ATOM     11  C   UNL A   1      32.096  28.232  25.613  1.00  0.00     0.178 C 
ATOM     12  N   UNL A   1      31.172  27.996  24.491  1.00  0.00    -0.296 N 
ATOM     13  C   UNL A   1      30.594  26.674  24.504  1.00  0.00     0.124 C 
ATOM     14  C   UNL A   1      30.714  26.261  25.959  1.00  0.00     0.024 C 
ATOM     15  C   UNL A   1      32.012  26.929  26.421  1.00  0.00     0.037 C 
BRANCH  12  16
ATOM     16  C   UNL A   1      30.880  29.016  23.637  1.00  0.00     0.410 C 
ATOM     17  O   UNL A   1      31.521  29.145  22.607  1.00  0.00    -0.224 OA
BRANCH  16  18
ATOM     18  O   UNL A   1      29.917  29.879  24.048  1.00  0.00    -0.444 OA
BRANCH  18  19
ATOM     19  C   UNL A   1      28.871  30.265  23.101  1.00  0.00     0.106 C 
ATOM     20  C   UNL A   1      27.875  29.097  23.067  1.00  0.00     0.056 C 
ATOM     21  C   UNL A   1      29.497  30.439  21.714  1.00  0.00     0.056 C 
ATOM     22  C   UNL A   1      28.063  31.515  23.502  1.00  0.00     0.056 C 
ENDBRANCH  18  19
ENDBRANCH  16  18
ENDBRANCH  12  16
ENDBRANCH   8  11
ENDBRANCH   6   7
BRANCH   6  23
ATOM     23  C   UNL A   1      35.664  30.539  27.612  1.00  0.00     0.072 C 
BRANCH  23  24
ATOM     24  C   UNL A   1      36.578  29.701  28.498  1.00  0.00    -0.045 A 
ATOM     25  C   UNL A   1      36.242  29.624  29.862  1.00  0.00     0.004 A 
ATOM     26  C   UNL A   1      37.734  29.022  28.086  1.00  0.00     0.004 A 
ATOM     27  C   UNL A   1      37.056  28.951  30.778  1.00  0.00     0.000 A 
ATOM     28  C   UNL A   1      38.565  28.370  29.003  1.00  0.00     0.000 A 
ATOM     29  C   UNL A   1      38.231  28.342  30.351  1.00  0.00     0.000 A 
ENDBRANCH  23  24
ENDBRANCH   6  23
ENDBRANCH   4   6
ENDBRANCH   3   4
ENDBRANCH   2   3
ENDBRANCH   1   2
BRANCH   1  30
ATOM     30  O   UNL A   1      34.992  34.605  29.421  1.00  0.00    -0.374 OA
BRANCH  30  31
ATOM     31  C   UNL A   1      34.029  34.651  30.467  1.00  0.00     0.202 C 
BRANCH  31  32
ATOM     32  C   UNL A   1      34.397  33.946  31.769  1.00  0.00     0.261 C 
BRANCH  32  33
ATOM     33  O   UNL A   1      35.173  32.778  31.479  1.00  0.00    -0.460 OA
BRANCH  33  34
ATOM     34  C   UNL A   1      36.135  32.540  32.394  1.00  0.00     0.338 C 
ATOM     35  O   UNL A   1      36.004  32.380  33.595  1.00  0.00    -0.246 OA
BRANCH  34  36
ATOM     36  C   UNL A   1      37.405  32.331  31.692  1.00  0.00     0.060 A 
ATOM     37  C   UNL A   1      38.485  31.898  32.465  1.00  0.00     0.016 A 
ATOM     38  C   UNL A   1      37.550  32.612  30.330  1.00  0.00     0.016 A 
ATOM     39  C   UNL A   1      39.747  31.822  31.895  1.00  0.00     0.010 A 
ATOM     40  C   UNL A   1      38.819  32.535  29.759  1.00  0.00     0.010 A 
ATOM     41  C   UNL A   1      39.924  32.188  30.555  1.00  0.00    -0.014 A 
BRANCH  41  42
ATOM     42  C   UNL A   1      41.298  32.350  30.037  1.00  0.00     0.031 A 
ATOM     43  C   UNL A   1      41.989  33.673  30.219  1.00  0.00     0.074 A 
ATOM     44  C   UNL A   1      41.922  31.309  29.459  1.00  0.00     0.049 A 
ATOM     45  N   UNL A   1      43.186  34.035  29.838  1.00  0.00    -0.248 NA
ATOM     46  C   UNL A   1      41.236  34.730  30.917  1.00  0.00     0.031 C 
ATOM     47  C   UNL A   1      41.345  29.977  29.271  1.00  0.00     0.029 A 
ATOM     48  N   UNL A   1      43.177  31.213  28.922  1.00  0.00    -0.354 N 
ATOM     49  C   UNL A   1      43.319  35.362  30.227  1.00  0.00     0.074 A 
ATOM     50  C   UNL A   1      42.079  35.751  30.858  1.00  0.00     0.031 C 
ATOM     51  C   UNL A   1      42.246  29.198  28.649  1.00  0.00     0.029 A 
ATOM     52  C   UNL A   1      43.441  29.985  28.364  1.00  0.00     0.049 A 
ATOM     53  H   UNL A   1      43.828  31.952  28.934  1.00  0.00     0.167 HD
ATOM     54  C   UNL A   1      44.386  36.179  30.069  1.00  0.00     0.031 A 
ATOM     55  C   UNL A   1      44.516  29.561  27.674  1.00  0.00     0.031 A 
ATOM     56  C   UNL A   1      45.616  35.772  29.444  1.00  0.00     0.049 A 
ATOM     57  C   UNL A   1      45.672  30.506  27.477  1.00  0.00     0.074 A 
ATOM     58  C   UNL A   1      46.775  36.506  29.275  1.00  0.00     0.029 A 
ATOM     59  N   UNL A   1      45.842  34.526  28.879  1.00  0.00    -0.354 N 
ATOM     60  N   UNL A   1      45.805  31.743  27.897  1.00  0.00    -0.248 NA
ATOM     61  C   UNL A   1      46.826  29.996  26.725  1.00  0.00     0.031 C 
ATOM     62  C   UNL A   1      47.677  35.731  28.541  1.00  0.00     0.029 A 
ATOM     63  C   UNL A   1      47.109  34.484  28.324  1.00  0.00     0.049 A 
ATOM     64  H   UNL A   1      45.198  33.782  28.873  1.00  0.00     0.167 HD
ATOM     65  C   UNL A   1      47.070  32.148  27.484  1.00  0.00     0.074 A 
ATOM     66  C   UNL A   1      47.667  31.019  26.802  1.00  0.00     0.031 C 
ATOM     67  C   UNL A   1      47.684  33.345  27.653  1.00  0.00     0.031 A 
BRANCH  54  68
ATOM     68  C   UNL A   1      44.268  37.606  30.536  1.00  0.00    -0.014 A 
ATOM     69  C   UNL A   1      43.780  38.620  29.695  1.00  0.00     0.010 A 
ATOM     70  C   UNL A   1      44.571  37.915  31.875  1.00  0.00     0.010 A 
ATOM     71  C   UNL A   1      43.603  39.919  30.181  1.00  0.00     0.020 A 
ATOM     72  C   UNL A   1      44.372  39.205  32.373  1.00  0.00     0.020 A 
ATOM     73  C   UNL A   1      43.892  40.201  31.522  1.00  0.00     0.054 A 
BRANCH  73  74
ATOM     74  S   UNL A   1      43.581  41.875  32.146  1.00  0.00     0.124 S 
ATOM     75  O   UNL A   1      44.768  42.121  32.960  1.00  0.00    -0.237 OA
ATOM     76  O   UNL A   1      43.489  42.660  30.918  1.00  0.00    -0.237 OA
ATOM     77  O   UNL A   1      42.332  41.743  32.892  1.00  0.00    -0.744 OA
ENDBRANCH  73  74
ENDBRANCH  54  68
BRANCH  55  78
ATOM     78  C   UNL A   1      44.530  28.195  27.080  1.00  0.00    -0.014 A 
ATOM     79  C   UNL A   1      43.870  27.922  25.870  1.00  0.00     0.010 A 
ATOM     80  C   UNL A   1      45.195  27.149  27.746  1.00  0.00     0.010 A 
ATOM     81  C   UNL A   1      43.844  26.621  25.357  1.00  0.00     0.020 A 
ATOM     82  C   UNL A   1      45.202  25.856  27.219  1.00  0.00     0.020 A 
ATOM     83  C   UNL A   1      44.508  25.596  26.037  1.00  0.00     0.054 A 
BRANCH  83  84
ATOM     84  S   UNL A   1      44.474  23.919  25.348  1.00  0.00     0.124 S 
ATOM     85  O   UNL A   1      45.489  24.000  24.303  1.00  0.00    -0.237 OA
ATOM     86  O   UNL A   1      44.818  23.097  26.504  1.00  0.00    -0.237 OA
ATOM     87  O   UNL A   1      43.098  23.772  24.876  1.00  0.00    -0.744 OA
ENDBRANCH  83  84
ENDBRANCH  55  78
BRANCH  67  88
ATOM     88  C   UNL A   1      49.091  33.484  27.131  1.00  0.00    -0.014 A 
ATOM     89  C   UNL A   1      49.347  33.919  25.819  1.00  0.00     0.010 A 
ATOM     90  C   UNL A   1      50.172  33.227  27.994  1.00  0.00     0.010 A 
ATOM     91  C   UNL A   1      50.661  34.056  25.367  1.00  0.00     0.020 A 
ATOM     92  C   UNL A   1      51.487  33.397  27.556  1.00  0.00     0.020 A 
ATOM     93  C   UNL A   1      51.724  33.796  26.239  1.00  0.00     0.054 A 
BRANCH  93  94
ATOM     94  S   UNL A   1      53.420  34.021  25.638  1.00  0.00     0.124 S 
ATOM     95  O   UNL A   1      53.267  33.787  24.204  1.00  0.00    -0.237 OA
ATOM     96  O   UNL A   1      53.715  35.398  26.024  1.00  0.00    -0.237 OA
ATOM     97  O   UNL A   1      54.181  33.001  26.358  1.00  0.00    -0.744 OA
ENDBRANCH  93  94
ENDBRANCH  67  88
ENDBRANCH  41  42
ENDBRANCH  34  36
ENDBRANCH  33  34
ENDBRANCH  32  33
ENDBRANCH  31  32
ENDBRANCH  30  31
ENDBRANCH   1  30
TORSDOF 24
ENDMDL
MODEL 2
REMARK VINA RESULT:      -8.9      0.725      7.878
REMARK SMILES CC(C)(C)OC(=O)N1CCC[C@H]1C(=O)N[C@@H](Cc1ccccc1)C(=O)OCCOCCOC(=O)c1ccc(-c2c3nc(c(-c4ccc(S(=O)(=O)[O-])cc4)c4ccc([nH]4)c(-c4ccc(S(=O)(=O)[O-])cc4)c4nc(c(-c5ccc(S(=O)(=O)[O-])cc5)c5ccc2[nH]5)C=C4)C=C3)cc1
REMARK SMILES IDX 28 1 27 2 26 3 24 4 25 5 16 6 15 7 13 8 14 9 12 11 8 12 9 13
REMARK SMILES IDX 10 14 11 15 6 16 7 17 5 18 2 19 1 20 3 21 4 22 17 23 18 24
REMARK SMILES IDX 19 25 23 26 20 27 22 28 21 29 29 30 30 31 31 32 32 33 33 34
REMARK SMILES IDX 34 35 35 36 36 37 94 38 37 39 93 40 38 41 39 42 40 43 87 44
REMARK SMILES IDX 41 45 92 46 86 47 88 48 42 49 91 50 85 51 84 52 43 54 73 55
REMARK SMILES IDX 54 56 72 57 55 58 58 59 71 60 89 61 56 62 57 63 70 65 90 66
REMARK SMILES IDX 59 67 44 68 45 69 53 70 46 71 52 72 47 73 48 74 49 75 50 76
REMARK SMILES IDX 51 77 74 78 75 79 83 80 76 81 82 82 77 83 78 84 79 85 80 86
REMARK SMILES IDX 81 87 60 88 61 89 69 90 62 91 68 92 63 93 64 94 65 95 66 96
REMARK SMILES IDX 67 97
REMARK H PARENT 15 10 88 53 58 64
REMARK Flexibility Score: inf
ROOT
ATOM      1  C   UNL A   1      34.226  34.532  27.965  1.00  0.00     0.202 C 
ENDROOT
BRANCH   1   2
ATOM      2  C   UNL A   1      33.089  33.501  28.010  1.00  0.00     0.261 C 
BRANCH   2   3
ATOM      3  O   UNL A   1      33.658  32.177  28.096  1.00  0.00    -0.462 OA
BRANCH   3   4
ATOM      4  C   UNL A   1      33.237  31.204  27.250  1.00  0.00     0.329 C 
ATOM      5  O   UNL A   1      32.121  31.158  26.745  1.00  0.00    -0.250 OA
BRANCH   4   6
ATOM      6  C   UNL A   1      34.296  30.076  27.074  1.00  0.00     0.196 C 
BRANCH   6   7
ATOM      7  N   UNL A   1      34.387  29.336  25.795  1.00  0.00    -0.341 N 
ATOM      8  C   UNL A   1      33.506  28.534  25.118  1.00  0.00     0.243 C 
ATOM      9  O   UNL A   1      33.939  27.947  24.121  1.00  0.00    -0.273 OA
ATOM     10  H   UNL A   1      35.253  29.442  25.339  1.00  0.00     0.164 HD
BRANCH   8  11
ATOM     11  C   UNL A   1      32.046  28.323  25.591  1.00  0.00     0.178 C 
ATOM     12  N   UNL A   1      31.123  28.016  24.485  1.00  0.00    -0.296 N 
ATOM     13  C   UNL A   1      30.526  26.707  24.595  1.00  0.00     0.124 C 
ATOM     14  C   UNL A   1      30.633  26.405  26.079  1.00  0.00     0.024 C 
ATOM     15  C   UNL A   1      31.939  27.087  26.496  1.00  0.00     0.037 C 
BRANCH  12  16
ATOM     16  C   UNL A   1      30.850  28.971  23.554  1.00  0.00     0.410 C 
ATOM     17  O   UNL A   1      31.474  28.990  22.505  1.00  0.00    -0.224 OA
BRANCH  16  18
ATOM     18  O   UNL A   1      29.928  29.901  23.909  1.00  0.00    -0.444 OA
BRANCH  18  19
ATOM     19  C   UNL A   1      28.742  30.068  23.069  1.00  0.00     0.106 C 
ATOM     20  C   UNL A   1      27.919  31.193  23.711  1.00  0.00     0.056 C 
ATOM     21  C   UNL A   1      27.931  28.768  23.091  1.00  0.00     0.056 C 
ATOM     22  C   UNL A   1      29.031  30.512  21.620  1.00  0.00     0.056 C 
ENDBRANCH  18  19
ENDBRANCH  16  18
ENDBRANCH  12  16
ENDBRANCH   8  11
ENDBRANCH   6   7
BRANCH   6  23
ATOM     23  C   UNL A   1      35.684  30.632  27.479  1.00  0.00     0.072 C 
BRANCH  23  24
ATOM     24  C   UNL A   1      36.576  29.935  28.500  1.00  0.00    -0.045 A 
ATOM     25  C   UNL A   1      37.817  29.462  28.038  1.00  0.00     0.004 A 
ATOM     26  C   UNL A   1      36.263  29.699  29.847  1.00  0.00     0.004 A 
ATOM     27  C   UNL A   1      38.677  28.736  28.868  1.00  0.00     0.000 A 
ATOM     28  C   UNL A   1      37.109  28.951  30.673  1.00  0.00     0.000 A 
ATOM     29  C   UNL A   1      38.312  28.462  30.181  1.00  0.00     0.000 A 
ENDBRANCH  23  24
ENDBRANCH   6  23
ENDBRANCH   4   6
ENDBRANCH   3   4
ENDBRANCH   2   3
ENDBRANCH   1   2
BRANCH   1  30
ATOM     30  O   UNL A   1      34.851  34.806  29.218  1.00  0.00    -0.374 OA
BRANCH  30  31
ATOM     31  C   UNL A   1      34.025  34.664  30.367  1.00  0.00     0.202 C 
BRANCH  31  32
ATOM     32  C   UNL A   1      34.633  33.938  31.563  1.00  0.00     0.261 C 
BRANCH  32  33
ATOM     33  O   UNL A   1      35.555  32.945  31.103  1.00  0.00    -0.460 OA
BRANCH  33  34
ATOM     34  C   UNL A   1      36.455  32.582  32.040  1.00  0.00     0.338 C 
ATOM     35  O   UNL A   1      36.253  32.328  33.215  1.00  0.00    -0.246 OA
BRANCH  34  36
ATOM     36  C   UNL A   1      37.750  32.371  31.385  1.00  0.00     0.060 A 
ATOM     37  C   UNL A   1      38.791  31.902  32.191  1.00  0.00     0.016 A 
ATOM     38  C   UNL A   1      37.955  32.682  30.039  1.00  0.00     0.016 A 
ATOM     39  C   UNL A   1      40.073  31.820  31.672  1.00  0.00     0.010 A 
ATOM     40  C   UNL A   1      39.245  32.598  29.518  1.00  0.00     0.010 A 
ATOM     41  C   UNL A   1      40.312  32.215  30.350  1.00  0.00    -0.014 A 
BRANCH  41  42
ATOM     42  C   UNL A   1      41.708  32.368  29.893  1.00  0.00     0.031 A 
ATOM     43  C   UNL A   1      42.385  31.201  29.230  1.00  0.00     0.074 A 
ATOM     44  C   UNL A   1      42.333  33.550  30.034  1.00  0.00     0.049 A 
ATOM     45  N   UNL A   1      43.602  31.113  28.762  1.00  0.00    -0.248 NA
ATOM     46  C   UNL A   1      41.591  29.969  29.074  1.00  0.00     0.031 C 
ATOM     47  C   UNL A   1      41.744  34.749  30.633  1.00  0.00     0.029 A 
ATOM     48  N   UNL A   1      43.599  33.933  29.685  1.00  0.00    -0.354 N 
ATOM     49  C   UNL A   1      43.727  29.815  28.280  1.00  0.00     0.074 A 
ATOM     50  C   UNL A   1      42.472  29.144  28.526  1.00  0.00     0.031 C 
ATOM     51  C   UNL A   1      42.658  35.735  30.618  1.00  0.00     0.029 A 
ATOM     52  C   UNL A   1      43.900  35.224  30.045  1.00  0.00     0.049 A 
ATOM     53  H   UNL A   1      44.234  33.340  29.221  1.00  0.00     0.167 HD
ATOM     54  C   UNL A   1      44.798  29.241  27.687  1.00  0.00     0.031 A 
ATOM     55  C   UNL A   1      45.059  35.902  29.950  1.00  0.00     0.031 A 
ATOM     56  C   UNL A   1      46.039  29.929  27.444  1.00  0.00     0.049 A 
ATOM     57  C   UNL A   1      46.248  35.222  29.323  1.00  0.00     0.074 A 
ATOM     58  C   UNL A   1      47.171  29.454  26.807  1.00  0.00     0.029 A 
ATOM     59  N   UNL A   1      46.312  31.231  27.835  1.00  0.00    -0.354 N 
ATOM     60  N   UNL A   1      46.337  34.011  28.824  1.00  0.00    -0.248 NA
ATOM     61  C   UNL A   1      47.488  36.003  29.234  1.00  0.00     0.031 C 
ATOM     62  C   UNL A   1      48.155  30.444  26.880  1.00  0.00     0.029 A 
ATOM     63  C   UNL A   1      47.610  31.563  27.489  1.00  0.00     0.049 A 
ATOM     64  H   UNL A   1      45.677  31.829  28.291  1.00  0.00     0.167 HD
ATOM     65  C   UNL A   1      47.634  33.897  28.336  1.00  0.00     0.074 A 
ATOM     66  C   UNL A   1      48.284  35.167  28.581  1.00  0.00     0.031 C 
ATOM     67  C   UNL A   1      48.235  32.838  27.740  1.00  0.00     0.031 A 
BRANCH  54  68
ATOM     68  C   UNL A   1      44.705  27.790  27.293  1.00  0.00    -0.014 A 
ATOM     69  C   UNL A   1      44.242  27.398  26.026  1.00  0.00     0.010 A 
ATOM     70  C   UNL A   1      45.176  26.808  28.183  1.00  0.00     0.010 A 
ATOM     71  C   UNL A   1      44.245  26.049  25.658  1.00  0.00     0.020 A 
ATOM     72  C   UNL A   1      45.206  25.461  27.811  1.00  0.00     0.020 A 
ATOM     73  C   UNL A   1      44.736  25.090  26.551  1.00  0.00     0.054 A 
BRANCH  73  74
ATOM     74  S   UNL A   1      44.799  23.357  26.019  1.00  0.00     0.124 S 
ATOM     75  O   UNL A   1      44.618  23.475  24.575  1.00  0.00    -0.237 OA
ATOM     76  O   UNL A   1      46.131  22.940  26.453  1.00  0.00    -0.237 OA
ATOM     77  O   UNL A   1      43.691  22.731  26.736  1.00  0.00    -0.744 OA
ENDBRANCH  73  74
ENDBRANCH  54  68
BRANCH  55  78
ATOM     78  C   UNL A   1      45.165  37.280  30.504  1.00  0.00    -0.014 A 
ATOM     79  C   UNL A   1      45.539  37.500  31.841  1.00  0.00     0.010 A 
ATOM     80  C   UNL A   1      44.867  38.387  29.688  1.00  0.00     0.010 A 
ATOM     81  C   UNL A   1      45.575  38.799  32.360  1.00  0.00     0.020 A 
ATOM     82  C   UNL A   1      44.937  39.687  30.192  1.00  0.00     0.020 A 
ATOM     83  C   UNL A   1      45.272  39.883  31.532  1.00  0.00     0.054 A 
BRANCH  83  84
ATOM     84  S   UNL A   1      45.339  41.559  32.220  1.00  0.00     0.124 S 
ATOM     85  O   UNL A   1      45.872  42.326  31.099  1.00  0.00    -0.237 OA
ATOM     86  O   UNL A   1      43.942  41.817  32.558  1.00  0.00    -0.237 OA
ATOM     87  O   UNL A   1      46.234  41.421  33.368  1.00  0.00    -0.744 OA
ENDBRANCH  83  84
ENDBRANCH  55  78
BRANCH  67  88
ATOM     88  C   UNL A   1      49.654  33.020  27.268  1.00  0.00    -0.014 A 
ATOM     89  C   UNL A   1      49.941  33.561  26.002  1.00  0.00     0.010 A 
ATOM     90  C   UNL A   1      50.714  32.696  28.134  1.00  0.00     0.010 A 
ATOM     91  C   UNL A   1      51.267  33.738  25.597  1.00  0.00     0.020 A 
ATOM     92  C   UNL A   1      52.039  32.904  27.745  1.00  0.00     0.020 A 
ATOM     93  C   UNL A   1      52.308  33.409  26.472  1.00  0.00     0.054 A 
BRANCH  93  94
ATOM     94  S   UNL A   1      54.017  33.685  25.935  1.00  0.00     0.124 S 
ATOM     95  O   UNL A   1      53.828  34.407  24.679  1.00  0.00    -0.237 OA
ATOM     96  O   UNL A   1      54.575  34.468  27.034  1.00  0.00    -0.237 OA
ATOM     97  O   UNL A   1      54.561  32.334  25.800  1.00  0.00    -0.744 OA
ENDBRANCH  93  94
ENDBRANCH  67  88
ENDBRANCH  41  42
ENDBRANCH  34  36
ENDBRANCH  33  34
ENDBRANCH  32  33
ENDBRANCH  31  32
ENDBRANCH  30  31
ENDBRANCH   1  30
TORSDOF 24
ENDMDL
MODEL 3
REMARK VINA RESULT:      -8.6      3.213      8.368
REMARK SMILES CC(C)(C)OC(=O)N1CCC[C@H]1C(=O)N[C@@H](Cc1ccccc1)C(=O)OCCOCCOC(=O)c1ccc(-c2c3nc(c(-c4ccc(S(=O)(=O)[O-])cc4)c4ccc([nH]4)c(-c4ccc(S(=O)(=O)[O-])cc4)c4nc(c(-c5ccc(S(=O)(=O)[O-])cc5)c5ccc2[nH]5)C=C4)C=C3)cc1
REMARK SMILES IDX 28 1 27 2 26 3 24 4 25 5 16 6 15 7 13 8 14 9 12 11 8 12 9 13
REMARK SMILES IDX 10 14 11 15 6 16 7 17 5 18 2 19 1 20 3 21 4 22 17 23 18 24
REMARK SMILES IDX 19 25 23 26 20 27 22 28 21 29 29 30 30 31 31 32 32 33 33 34
REMARK SMILES IDX 34 35 35 36 36 37 94 38 37 39 93 40 38 41 39 42 40 43 87 44
REMARK SMILES IDX 41 45 92 46 86 47 88 48 42 49 91 50 85 51 84 52 43 54 73 55
REMARK SMILES IDX 54 56 72 57 55 58 58 59 71 60 89 61 56 62 57 63 70 65 90 66
REMARK SMILES IDX 59 67 44 68 45 69 53 70 46 71 52 72 47 73 48 74 49 75 50 76
REMARK SMILES IDX 51 77 74 78 75 79 83 80 76 81 82 82 77 83 78 84 79 85 80 86
REMARK SMILES IDX 81 87 60 88 61 89 69 90 62 91 68 92 63 93 64 94 65 95 66 96
REMARK SMILES IDX 67 97
REMARK H PARENT 15 10 88 53 58 64
REMARK Flexibility Score: inf
ROOT
ATOM      1  C   UNL A   1      33.261  35.513  28.557  1.00  0.00     0.202 C 
ENDROOT
BRANCH   1   2
ATOM      2  C   UNL A   1      32.926  34.026  28.750  1.00  0.00     0.261 C 
BRANCH   2   3
ATOM      3  O   UNL A   1      33.498  33.271  27.660  1.00  0.00    -0.462 OA
BRANCH   3   4
ATOM      4  C   UNL A   1      32.888  32.138  27.231  1.00  0.00     0.329 C 
ATOM      5  O   UNL A   1      31.714  32.069  26.886  1.00  0.00    -0.250 OA
BRANCH   4   6
ATOM      6  C   UNL A   1      33.819  30.894  27.330  1.00  0.00     0.196 C 
BRANCH   6   7
ATOM      7  N   UNL A   1      34.089  30.071  26.129  1.00  0.00    -0.341 N 
ATOM      8  C   UNL A   1      33.353  29.129  25.460  1.00  0.00     0.243 C 
ATOM      9  O   UNL A   1      33.924  28.517  24.551  1.00  0.00    -0.273 OA
ATOM     10  H   UNL A   1      34.975  30.235  25.730  1.00  0.00     0.164 HD
BRANCH   8  11
ATOM     11  C   UNL A   1      31.887  28.799  25.840  1.00  0.00     0.178 C 
ATOM     12  N   UNL A   1      31.116  28.235  24.720  1.00  0.00    -0.296 N 
ATOM     13  C   UNL A   1      30.665  26.888  24.966  1.00  0.00     0.124 C 
ATOM     14  C   UNL A   1      30.663  26.798  26.481  1.00  0.00     0.024 C 
ATOM     15  C   UNL A   1      31.837  27.689  26.900  1.00  0.00     0.037 C 
BRANCH  12  16
ATOM     16  C   UNL A   1      30.827  29.018  23.644  1.00  0.00     0.410 C 
ATOM     17  O   UNL A   1      31.370  28.801  22.573  1.00  0.00    -0.224 OA
BRANCH  16  18
ATOM     18  O   UNL A   1      29.985  30.057  23.874  1.00  0.00    -0.444 OA
BRANCH  18  19
ATOM     19  C   UNL A   1      28.779  30.177  23.055  1.00  0.00     0.106 C 
ATOM     20  C   UNL A   1      27.884  31.205  23.762  1.00  0.00     0.056 C 
ATOM     21  C   UNL A   1      28.066  28.822  23.019  1.00  0.00     0.056 C 
ATOM     22  C   UNL A   1      29.015  30.714  21.629  1.00  0.00     0.056 C 
ENDBRANCH  18  19
ENDBRANCH  16  18
ENDBRANCH  12  16
ENDBRANCH   8  11
ENDBRANCH   6   7
BRANCH   6  23
ATOM     23  C   UNL A   1      35.146  31.320  28.005  1.00  0.00     0.072 C 
BRANCH  23  24
ATOM     24  C   UNL A   1      36.134  30.309  28.573  1.00  0.00    -0.045 A 
ATOM     25  C   UNL A   1      36.118  30.121  29.967  1.00  0.00     0.004 A 
ATOM     26  C   UNL A   1      37.073  29.569  27.840  1.00  0.00     0.004 A 
ATOM     27  C   UNL A   1      37.037  29.279  30.601  1.00  0.00     0.000 A 
ATOM     28  C   UNL A   1      38.011  28.745  28.473  1.00  0.00     0.000 A 
ATOM     29  C   UNL A   1      37.999  28.608  29.855  1.00  0.00     0.000 A 
ENDBRANCH  23  24
ENDBRANCH   6  23
ENDBRANCH   4   6
ENDBRANCH   3   4
ENDBRANCH   2   3
ENDBRANCH   1   2
BRANCH   1  30
ATOM     30  O   UNL A   1      33.756  36.182  29.715  1.00  0.00    -0.374 OA
BRANCH  30  31
ATOM     31  C   UNL A   1      32.911  36.151  30.858  1.00  0.00     0.202 C 
BRANCH  31  32
ATOM     32  C   UNL A   1      33.402  35.338  32.052  1.00  0.00     0.261 C 
BRANCH  32  33
ATOM     33  O   UNL A   1      34.745  34.903  31.816  1.00  0.00    -0.460 OA
BRANCH  33  34
ATOM     34  C   UNL A   1      34.896  33.567  31.926  1.00  0.00     0.338 C 
ATOM     35  O   UNL A   1      34.027  32.719  32.029  1.00  0.00    -0.246 OA
BRANCH  34  36
ATOM     36  C   UNL A   1      36.313  33.241  31.736  1.00  0.00     0.060 A 
ATOM     37  C   UNL A   1      36.889  32.376  32.670  1.00  0.00     0.016 A 
ATOM     38  C   UNL A   1      37.071  33.815  30.712  1.00  0.00     0.016 A 
ATOM     39  C   UNL A   1      38.255  32.143  32.635  1.00  0.00     0.010 A 
ATOM     40  C   UNL A   1      38.444  33.579  30.677  1.00  0.00     0.010 A 
ATOM     41  C   UNL A   1      39.042  32.784  31.670  1.00  0.00    -0.014 A 
BRANCH  41  42
ATOM     42  C   UNL A   1      40.512  32.733  31.802  1.00  0.00     0.031 A 
ATOM     43  C   UNL A   1      41.283  31.762  30.951  1.00  0.00     0.074 A 
ATOM     44  C   UNL A   1      41.138  33.578  32.640  1.00  0.00     0.049 A 
ATOM     45  N   UNL A   1      42.571  31.546  30.911  1.00  0.00    -0.248 NA
ATOM     46  C   UNL A   1      40.503  30.921  30.025  1.00  0.00     0.031 C 
ATOM     47  C   UNL A   1      40.477  34.578  33.479  1.00  0.00     0.029 A 
ATOM     48  N   UNL A   1      42.470  33.726  32.921  1.00  0.00    -0.354 N 
ATOM     49  C   UNL A   1      42.753  30.533  29.978  1.00  0.00     0.074 A 
ATOM     50  C   UNL A   1      41.447  30.161  29.486  1.00  0.00     0.031 C 
ATOM     51  C   UNL A   1      41.411  35.231  34.192  1.00  0.00     0.029 A 
ATOM     52  C   UNL A   1      42.723  34.670  33.887  1.00  0.00     0.049 A 
ATOM     53  H   UNL A   1      43.177  33.206  32.476  1.00  0.00     0.167 HD
ATOM     54  C   UNL A   1      43.913  29.965  29.572  1.00  0.00     0.031 A 
ATOM     55  C   UNL A   1      43.883  35.015  34.477  1.00  0.00     0.031 A 
ATOM     56  C   UNL A   1      45.206  30.353  30.068  1.00  0.00     0.049 A 
ATOM     57  C   UNL A   1      45.152  34.336  34.034  1.00  0.00     0.074 A 
ATOM     58  C   UNL A   1      46.448  29.876  29.689  1.00  0.00     0.029 A 
ATOM     59  N   UNL A   1      45.423  31.303  31.055  1.00  0.00    -0.354 N 
ATOM     60  N   UNL A   1      45.317  33.416  33.113  1.00  0.00    -0.248 NA
ATOM     61  C   UNL A   1      46.394  34.751  34.701  1.00  0.00     0.031 C 
ATOM     62  C   UNL A   1      47.411  30.482  30.500  1.00  0.00     0.029 A 
ATOM     63  C   UNL A   1      46.777  31.397  31.327  1.00  0.00     0.049 A 
ATOM     64  H   UNL A   1      44.720  31.831  31.496  1.00  0.00     0.167 HD
ATOM     65  C   UNL A   1      46.683  33.163  33.070  1.00  0.00     0.074 A 
ATOM     66  C   UNL A   1      47.300  34.042  34.041  1.00  0.00     0.031 C 
ATOM     67  C   UNL A   1      47.369  32.284  32.298  1.00  0.00     0.031 A 
BRANCH  54  68
ATOM     68  C   UNL A   1      43.846  28.838  28.575  1.00  0.00    -0.014 A 
ATOM     69  C   UNL A   1      44.103  29.045  27.209  1.00  0.00     0.010 A 
ATOM     70  C   UNL A   1      43.608  27.530  29.036  1.00  0.00     0.010 A 
ATOM     71  C   UNL A   1      44.116  27.965  26.321  1.00  0.00     0.020 A 
ATOM     72  C   UNL A   1      43.646  26.445  28.157  1.00  0.00     0.020 A 
ATOM     73  C   UNL A   1      43.896  26.670  26.803  1.00  0.00     0.054 A 
BRANCH  73  74
ATOM     74  S   UNL A   1      43.995  25.280  25.642  1.00  0.00     0.124 S 
ATOM     75  O   UNL A   1      45.103  25.682  24.780  1.00  0.00    -0.237 OA
ATOM     76  O   UNL A   1      44.264  24.148  26.524  1.00  0.00    -0.237 OA
ATOM     77  O   UNL A   1      42.682  25.267  25.001  1.00  0.00    -0.744 OA
ENDBRANCH  73  74
ENDBRANCH  54  68
BRANCH  55  78
ATOM     78  C   UNL A   1      43.889  36.015  35.580  1.00  0.00    -0.014 A 
ATOM     79  C   UNL A   1      43.663  35.630  36.913  1.00  0.00     0.010 A 
ATOM     80  C   UNL A   1      44.105  37.376  35.290  1.00  0.00     0.010 A 
ATOM     81  C   UNL A   1      43.615  36.591  37.927  1.00  0.00     0.020 A 
ATOM     82  C   UNL A   1      44.094  38.333  36.305  1.00  0.00     0.020 A 
ATOM     83  C   UNL A   1      43.828  37.937  37.616  1.00  0.00     0.054 A 
BRANCH  83  84
ATOM     84  S   UNL A   1      43.775  39.166  38.949  1.00  0.00     0.124 S 
ATOM     85  O   UNL A   1      44.849  38.709  39.825  1.00  0.00    -0.237 OA
ATOM     86  O   UNL A   1      44.027  40.415  38.235  1.00  0.00    -0.237 OA
ATOM     87  O   UNL A   1      42.424  39.027  39.488  1.00  0.00    -0.744 OA
ENDBRANCH  83  84
ENDBRANCH  55  78
BRANCH  67  88
ATOM     88  C   UNL A   1      48.868  32.259  32.437  1.00  0.00    -0.014 A 
ATOM     89  C   UNL A   1      49.513  31.322  33.264  1.00  0.00     0.010 A 
ATOM     90  C   UNL A   1      49.645  33.156  31.681  1.00  0.00     0.010 A 
ATOM     91  C   UNL A   1      50.906  31.308  33.361  1.00  0.00     0.020 A 
ATOM     92  C   UNL A   1      51.039  33.123  31.749  1.00  0.00     0.020 A 
ATOM     93  C   UNL A   1      51.661  32.209  32.601  1.00  0.00     0.054 A 
BRANCH  93  94
ATOM     94  S   UNL A   1      53.469  32.144  32.716  1.00  0.00     0.124 S 
ATOM     95  O   UNL A   1      53.876  32.794  31.472  1.00  0.00    -0.237 OA
ATOM     96  O   UNL A   1      53.739  32.896  33.937  1.00  0.00    -0.237 OA
ATOM     97  O   UNL A   1      53.761  30.713  32.794  1.00  0.00    -0.744 OA
ENDBRANCH  93  94
ENDBRANCH  67  88
ENDBRANCH  41  42
ENDBRANCH  34  36
ENDBRANCH  33  34
ENDBRANCH  32  33
ENDBRANCH  31  32
ENDBRANCH  30  31
ENDBRANCH   1  30
TORSDOF 24
ENDMDL
