MODEL 1
REMARK VINA RESULT:      -7.6      0.000      0.000
REMARK SMILES CN(C(=O)C[C@H]1SC(=O)N(c2cccc(O)c2)C1=O)c1ccccc1C(=O)OCCOCCOC(=O)c1ccc(-c2c3nc(c(-c4ccc(S(=O)(=O)[O-])cc4)c4ccc([nH]4)c(-c4ccc(S(=O)(=O)[O-])cc4)c4nc(c(-c5ccc(S(=O)(=O)[O-])cc5)c5ccc2[nH]5)C=C4)C=C3)cc1
REMARK SMILES IDX 29 1 28 2 26 3 27 4 25 5 20 6 21 7 22 8 24 9 23 10 2 11 1 12
REMARK SMILES IDX 3 13 4 14 5 15 6 16 7 17 18 18 8 19 10 20 19 21 9 22 11 23
REMARK SMILES IDX 12 24 17 25 13 26 15 27 14 28 16 29 30 31 31 32 32 33 33 34
REMARK SMILES IDX 34 35 35 36 36 37 37 38 38 39 96 40 39 41 95 42 40 43 41 44
REMARK SMILES IDX 42 45 89 46 43 47 94 48 88 49 90 50 44 51 93 52 87 53 86 54
REMARK SMILES IDX 45 56 75 57 56 58 74 59 57 60 60 61 73 62 91 63 58 64 59 65
REMARK SMILES IDX 72 67 92 68 61 69 46 70 47 71 55 72 48 73 54 74 49 75 50 76
REMARK SMILES IDX 51 77 52 78 53 79 76 80 77 81 85 82 78 83 84 84 79 85 80 86
REMARK SMILES IDX 81 87 82 88 83 89 62 90 63 91 71 92 64 93 70 94 65 95 66 96
REMARK SMILES IDX 67 97 68 98 69 99
REMARK H PARENT 16 30 90 55 60 66
REMARK Flexibility Score: inf
ROOT
ATOM      1  C   UNL A   1      39.699  30.669  33.327  1.00  0.00     0.261 C 
ENDROOT
BRANCH   1   2
ATOM      2  O   UNL A   1      39.609  29.814  32.175  1.00  0.00    -0.460 OA
BRANCH   2   3
ATOM      3  C   UNL A   1      40.064  28.557  32.373  1.00  0.00     0.340 C 
ATOM      4  O   UNL A   1      39.432  27.633  32.862  1.00  0.00    -0.246 OA
BRANCH   3   5
ATOM      5  C   UNL A   1      41.397  28.347  31.762  1.00  0.00     0.083 A 
ATOM      6  C   UNL A   1      41.719  28.312  30.390  1.00  0.00     0.058 A 
ATOM      7  C   UNL A   1      43.089  28.190  30.063  1.00  0.00     0.027 A 
ATOM      8  C   UNL A   1      44.086  28.019  31.028  1.00  0.00     0.002 A 
ATOM      9  C   UNL A   1      42.409  28.139  32.729  1.00  0.00     0.018 A 
ATOM     10  C   UNL A   1      43.740  27.963  32.366  1.00  0.00     0.001 A 
BRANCH   6  11
ATOM     11  N   UNL A   1      40.790  28.419  29.285  1.00  0.00    -0.315 N 
ATOM     12  C   UNL A   1      40.414  29.749  28.812  1.00  0.00     0.153 C 
BRANCH  11  13
ATOM     13  C   UNL A   1      40.272  27.239  28.717  1.00  0.00     0.228 C 
ATOM     14  O   UNL A   1      39.242  27.204  28.038  1.00  0.00    -0.274 OA
BRANCH  13  15
ATOM     15  C   UNL A   1      41.023  25.936  28.911  1.00  0.00     0.125 C 
BRANCH  15  16
ATOM     16  C   UNL A   1      41.529  25.415  27.573  1.00  0.00     0.156 C 
ATOM     17  S   UNL A   1      43.325  25.409  27.593  1.00  0.00    -0.050 SA
ATOM     18  C   UNL A   1      41.126  23.967  27.326  1.00  0.00     0.248 C 
ATOM     19  C   UNL A   1      43.394  23.663  27.764  1.00  0.00     0.293 C 
ATOM     20  N   UNL A   1      42.207  23.094  27.339  1.00  0.00    -0.240 N 
ATOM     21  O   UNL A   1      39.942  23.678  27.174  1.00  0.00    -0.273 OA
ATOM     22  O   UNL A   1      44.381  23.154  28.243  1.00  0.00    -0.261 OA
BRANCH  20  23
ATOM     23  C   UNL A   1      42.132  21.713  26.901  1.00  0.00     0.056 A 
ATOM     24  C   UNL A   1      41.529  20.717  27.690  1.00  0.00     0.027 A 
ATOM     25  C   UNL A   1      42.848  21.265  25.771  1.00  0.00     0.073 A 
ATOM     26  C   UNL A   1      41.689  19.352  27.414  1.00  0.00     0.006 A 
ATOM     27  C   UNL A   1      43.050  19.899  25.535  1.00  0.00     0.117 A 
ATOM     28  C   UNL A   1      42.473  18.937  26.346  1.00  0.00     0.046 A 
BRANCH  27  29
ATOM     29  O   UNL A   1      43.898  19.547  24.525  1.00  0.00    -0.508 OA
ATOM     30  H   UNL A   1      43.766  18.745  24.059  1.00  0.00     0.293 HD
ENDBRANCH  27  29
ENDBRANCH  20  23
ENDBRANCH  15  16
ENDBRANCH  13  15
ENDBRANCH  11  13
ENDBRANCH   6  11
ENDBRANCH   3   5
ENDBRANCH   2   3
ENDBRANCH   1   2
BRANCH   1  31
ATOM     31  C   UNL A   1      38.313  30.936  33.909  1.00  0.00     0.202 C 
BRANCH  31  32
ATOM     32  O   UNL A   1      37.203  30.631  33.065  1.00  0.00    -0.374 OA
BRANCH  32  33
ATOM     33  C   UNL A   1      36.524  31.725  32.449  1.00  0.00     0.202 C 
BRANCH  33  34
ATOM     34  C   UNL A   1      37.149  32.328  31.182  1.00  0.00     0.261 C 
BRANCH  34  35
ATOM     35  O   UNL A   1      37.031  33.756  31.083  1.00  0.00    -0.460 OA
BRANCH  35  36
ATOM     36  C   UNL A   1      37.893  34.455  31.866  1.00  0.00     0.338 C 
ATOM     37  O   UNL A   1      37.684  34.932  32.966  1.00  0.00    -0.246 OA
BRANCH  36  38
ATOM     38  C   UNL A   1      39.217  34.466  31.218  1.00  0.00     0.060 A 
ATOM     39  C   UNL A   1      40.381  34.263  31.971  1.00  0.00     0.016 A 
ATOM     40  C   UNL A   1      39.301  34.757  29.867  1.00  0.00     0.016 A 
ATOM     41  C   UNL A   1      41.645  34.345  31.362  1.00  0.00     0.010 A 
ATOM     42  C   UNL A   1      40.562  34.842  29.281  1.00  0.00     0.010 A 
ATOM     43  C   UNL A   1      41.752  34.642  30.000  1.00  0.00    -0.014 A 
BRANCH  43  44
ATOM     44  C   UNL A   1      43.053  34.831  29.281  1.00  0.00     0.031 A 
ATOM     45  C   UNL A   1      43.919  33.624  28.987  1.00  0.00     0.074 A 
ATOM     46  C   UNL A   1      43.543  36.058  29.007  1.00  0.00     0.049 A 
ATOM     47  N   UNL A   1      45.173  33.565  28.611  1.00  0.00    -0.248 NA
ATOM     48  C   UNL A   1      43.297  32.307  29.198  1.00  0.00     0.031 C 
ATOM     49  C   UNL A   1      42.861  37.329  29.248  1.00  0.00     0.029 A 
ATOM     50  N   UNL A   1      44.764  36.432  28.494  1.00  0.00    -0.354 N 
ATOM     51  C   UNL A   1      45.506  32.214  28.619  1.00  0.00     0.074 A 
ATOM     52  C   UNL A   1      44.337  31.498  29.081  1.00  0.00     0.031 C 
ATOM     53  C   UNL A   1      43.674  38.340  28.897  1.00  0.00     0.029 A 
ATOM     54  C   UNL A   1      44.943  37.794  28.425  1.00  0.00     0.049 A 
ATOM     55  H   UNL A   1      45.446  35.784  28.203  1.00  0.00     0.167 HD
ATOM     56  C   UNL A   1      46.667  31.613  28.254  1.00  0.00     0.031 A 
ATOM     57  C   UNL A   1      46.005  38.527  28.031  1.00  0.00     0.031 A 
ATOM     58  C   UNL A   1      47.801  32.308  27.704  1.00  0.00     0.049 A 
ATOM     59  C   UNL A   1      47.255  37.842  27.547  1.00  0.00     0.074 A 
ATOM     60  C   UNL A   1      48.971  31.774  27.193  1.00  0.00     0.029 A 
ATOM     61  N   UNL A   1      47.895  33.683  27.562  1.00  0.00    -0.354 N 
ATOM     62  N   UNL A   1      47.536  36.562  27.514  1.00  0.00    -0.248 NA
ATOM     63  C   UNL A   1      48.320  38.706  27.014  1.00  0.00     0.031 C 
ATOM     64  C   UNL A   1      49.786  32.828  26.764  1.00  0.00     0.029 A 
ATOM     65  C   UNL A   1      49.100  34.015  26.965  1.00  0.00     0.049 A 
ATOM     66  H   UNL A   1      47.207  34.329  27.843  1.00  0.00     0.167 HD
ATOM     67  C   UNL A   1      48.786  36.465  26.909  1.00  0.00     0.074 A 
ATOM     68  C   UNL A   1      49.208  37.815  26.596  1.00  0.00     0.031 C 
ATOM     69  C   UNL A   1      49.510  35.354  26.630  1.00  0.00     0.031 A 
BRANCH  56  70
ATOM     70  C   UNL A   1      46.761  30.118  28.430  1.00  0.00    -0.014 A 
ATOM     71  C   UNL A   1      47.267  29.550  29.615  1.00  0.00     0.010 A 
ATOM     72  C   UNL A   1      46.323  29.265  27.399  1.00  0.00     0.010 A 
ATOM     73  C   UNL A   1      47.416  28.166  29.730  1.00  0.00     0.020 A 
ATOM     74  C   UNL A   1      46.429  27.878  27.529  1.00  0.00     0.020 A 
ATOM     75  C   UNL A   1      47.006  27.340  28.680  1.00  0.00     0.054 A 
BRANCH  75  76
ATOM     76  S   UNL A   1      47.224  25.548  28.846  1.00  0.00     0.124 S 
ATOM     77  O   UNL A   1      48.616  25.462  29.281  1.00  0.00    -0.237 OA
ATOM     78  O   UNL A   1      46.228  25.191  29.852  1.00  0.00    -0.237 OA
ATOM     79  O   UNL A   1      46.957  25.044  27.501  1.00  0.00    -0.744 OA
ENDBRANCH  75  76
ENDBRANCH  56  70
BRANCH  57  80
ATOM     80  C   UNL A   1      45.906  40.012  27.999  1.00  0.00    -0.014 A 
ATOM     81  C   UNL A   1      46.409  40.767  29.073  1.00  0.00     0.010 A 
ATOM     82  C   UNL A   1      45.320  40.677  26.907  1.00  0.00     0.010 A 
ATOM     83  C   UNL A   1      46.317  42.161  29.066  1.00  0.00     0.020 A 
ATOM     84  C   UNL A   1      45.245  42.074  26.887  1.00  0.00     0.020 A 
ATOM     85  C   UNL A   1      45.738  42.806  27.970  1.00  0.00     0.054 A 
BRANCH  85  86
ATOM     86  S   UNL A   1      45.686  44.620  27.963  1.00  0.00     0.124 S 
ATOM     87  O   UNL A   1      47.084  44.967  28.199  1.00  0.00    -0.237 OA
ATOM     88  O   UNL A   1      45.178  44.913  26.624  1.00  0.00    -0.237 OA
ATOM     89  O   UNL A   1      44.767  44.941  29.052  1.00  0.00    -0.744 OA
ENDBRANCH  85  86
ENDBRANCH  57  80
BRANCH  69  90
ATOM     90  C   UNL A   1      50.802  35.528  25.874  1.00  0.00    -0.014 A 
ATOM     91  C   UNL A   1      50.827  35.706  24.480  1.00  0.00     0.010 A 
ATOM     92  C   UNL A   1      52.013  35.565  26.590  1.00  0.00     0.010 A 
ATOM     93  C   UNL A   1      52.042  35.885  23.812  1.00  0.00     0.020 A 
ATOM     94  C   UNL A   1      53.228  35.770  25.929  1.00  0.00     0.020 A 
ATOM     95  C   UNL A   1      53.235  35.916  24.542  1.00  0.00     0.054 A 
BRANCH  95  96
ATOM     96  S   UNL A   1      54.795  36.193  23.658  1.00  0.00     0.124 S 
ATOM     97  O   UNL A   1      54.575  37.505  23.055  1.00  0.00    -0.237 OA
ATOM     98  O   UNL A   1      55.785  36.152  24.731  1.00  0.00    -0.237 OA
ATOM     99  O   UNL A   1      54.862  35.078  22.715  1.00  0.00    -0.744 OA
ENDBRANCH  95  96
ENDBRANCH  69  90
ENDBRANCH  43  44
ENDBRANCH  36  38
ENDBRANCH  35  36
ENDBRANCH  34  35
ENDBRANCH  33  34
ENDBRANCH  32  33
ENDBRANCH  31  32
ENDBRANCH   1  31
TORSDOF 23
ENDMDL
MODEL 2
REMARK VINA RESULT:      -7.2      6.342     11.099
REMARK SMILES CN(C(=O)C[C@H]1SC(=O)N(c2cccc(O)c2)C1=O)c1ccccc1C(=O)OCCOCCOC(=O)c1ccc(-c2c3nc(c(-c4ccc(S(=O)(=O)[O-])cc4)c4ccc([nH]4)c(-c4ccc(S(=O)(=O)[O-])cc4)c4nc(c(-c5ccc(S(=O)(=O)[O-])cc5)c5ccc2[nH]5)C=C4)C=C3)cc1
REMARK SMILES IDX 29 1 28 2 26 3 27 4 25 5 20 6 21 7 22 8 24 9 23 10 2 11 1 12
REMARK SMILES IDX 3 13 4 14 5 15 6 16 7 17 18 18 8 19 10 20 19 21 9 22 11 23
REMARK SMILES IDX 12 24 17 25 13 26 15 27 14 28 16 29 30 31 31 32 32 33 33 34
REMARK SMILES IDX 34 35 35 36 36 37 37 38 38 39 96 40 39 41 95 42 40 43 41 44
REMARK SMILES IDX 42 45 89 46 43 47 94 48 88 49 90 50 44 51 93 52 87 53 86 54
REMARK SMILES IDX 45 56 75 57 56 58 74 59 57 60 60 61 73 62 91 63 58 64 59 65
REMARK SMILES IDX 72 67 92 68 61 69 46 70 47 71 55 72 48 73 54 74 49 75 50 76
REMARK SMILES IDX 51 77 52 78 53 79 76 80 77 81 85 82 78 83 84 84 79 85 80 86
REMARK SMILES IDX 81 87 82 88 83 89 62 90 63 91 71 92 64 93 70 94 65 95 66 96
REMARK SMILES IDX 67 97 68 98 69 99
REMARK H PARENT 16 30 90 55 60 66
REMARK Flexibility Score: inf
ROOT
ATOM      1  C   UNL A   1      33.650  35.490  29.054  1.00  0.00     0.261 C 
ENDROOT
BRANCH   1   2
ATOM      2  O   UNL A   1      33.600  34.067  28.857  1.00  0.00    -0.460 OA
BRANCH   2   3
ATOM      3  C   UNL A   1      34.625  33.387  29.418  1.00  0.00     0.340 C 
ATOM      4  O   UNL A   1      35.216  33.695  30.443  1.00  0.00    -0.246 OA
BRANCH   3   5
ATOM      5  C   UNL A   1      34.865  32.090  28.745  1.00  0.00     0.083 A 
ATOM      6  C   UNL A   1      35.974  31.233  28.897  1.00  0.00     0.058 A 
ATOM      7  C   UNL A   1      35.921  29.999  28.208  1.00  0.00     0.027 A 
ATOM      8  C   UNL A   1      34.879  29.659  27.342  1.00  0.00     0.002 A 
ATOM      9  C   UNL A   1      33.831  31.751  27.840  1.00  0.00     0.018 A 
ATOM     10  C   UNL A   1      33.844  30.553  27.133  1.00  0.00     0.001 A 
BRANCH   6  11
ATOM     11  N   UNL A   1      37.146  31.478  29.711  1.00  0.00    -0.315 N 
ATOM     12  C   UNL A   1      38.026  32.589  29.357  1.00  0.00     0.153 C 
BRANCH  11  13
ATOM     13  C   UNL A   1      37.401  30.628  30.806  1.00  0.00     0.228 C 
ATOM     14  O   UNL A   1      36.583  30.407  31.703  1.00  0.00    -0.274 OA
BRANCH  13  15
ATOM     15  C   UNL A   1      38.735  29.912  30.887  1.00  0.00     0.125 C 
BRANCH  15  16
ATOM     16  C   UNL A   1      39.475  30.024  29.560  1.00  0.00     0.156 C 
ATOM     17  S   UNL A   1      41.168  30.531  29.879  1.00  0.00    -0.050 SA
ATOM     18  C   UNL A   1      39.586  28.684  28.845  1.00  0.00     0.248 C 
ATOM     19  C   UNL A   1      41.793  28.923  29.552  1.00  0.00     0.293 C 
ATOM     20  N   UNL A   1      40.889  28.205  28.790  1.00  0.00    -0.240 N 
ATOM     21  O   UNL A   1      38.575  28.131  28.421  1.00  0.00    -0.273 OA
ATOM     22  O   UNL A   1      42.857  28.595  30.024  1.00  0.00    -0.261 OA
BRANCH  20  23
ATOM     23  C   UNL A   1      41.300  27.083  27.968  1.00  0.00     0.056 A 
ATOM     24  C   UNL A   1      41.335  27.165  26.564  1.00  0.00     0.027 A 
ATOM     25  C   UNL A   1      41.473  25.796  28.520  1.00  0.00     0.073 A 
ATOM     26  C   UNL A   1      41.461  26.028  25.755  1.00  0.00     0.006 A 
ATOM     27  C   UNL A   1      41.540  24.660  27.705  1.00  0.00     0.117 A 
ATOM     28  C   UNL A   1      41.539  24.764  26.325  1.00  0.00     0.046 A 
BRANCH  27  29
ATOM     29  O   UNL A   1      41.530  23.438  28.316  1.00  0.00    -0.508 OA
ATOM     30  H   UNL A   1      41.009  22.743  27.966  1.00  0.00     0.293 HD
ENDBRANCH  27  29
ENDBRANCH  20  23
ENDBRANCH  15  16
ENDBRANCH  13  15
ENDBRANCH  11  13
ENDBRANCH   6  11
ENDBRANCH   3   5
ENDBRANCH   2   3
ENDBRANCH   1   2
BRANCH   1  31
ATOM     31  C   UNL A   1      32.732  35.907  30.200  1.00  0.00     0.202 C 
BRANCH  31  32
ATOM     32  O   UNL A   1      32.932  37.219  30.726  1.00  0.00    -0.374 OA
BRANCH  32  33
ATOM     33  C   UNL A   1      33.394  37.324  32.073  1.00  0.00     0.202 C 
BRANCH  33  34
ATOM     34  C   UNL A   1      33.635  36.019  32.846  1.00  0.00     0.261 C 
BRANCH  34  35
ATOM     35  O   UNL A   1      35.017  35.733  33.114  1.00  0.00    -0.460 OA
BRANCH  35  36
ATOM     36  C   UNL A   1      35.248  34.525  33.692  1.00  0.00     0.338 C 
ATOM     37  O   UNL A   1      34.459  33.615  33.862  1.00  0.00    -0.246 OA
BRANCH  36  38
ATOM     38  C   UNL A   1      36.685  34.420  34.003  1.00  0.00     0.060 A 
ATOM     39  C   UNL A   1      37.643  34.509  32.984  1.00  0.00     0.016 A 
ATOM     40  C   UNL A   1      37.072  34.153  35.306  1.00  0.00     0.016 A 
ATOM     41  C   UNL A   1      39.007  34.337  33.275  1.00  0.00     0.010 A 
ATOM     42  C   UNL A   1      38.428  33.977  35.574  1.00  0.00     0.010 A 
ATOM     43  C   UNL A   1      39.420  34.062  34.583  1.00  0.00    -0.014 A 
BRANCH  43  44
ATOM     44  C   UNL A   1      40.838  33.783  34.975  1.00  0.00     0.031 A 
ATOM     45  C   UNL A   1      41.792  34.941  35.179  1.00  0.00     0.074 A 
ATOM     46  C   UNL A   1      41.330  32.527  35.020  1.00  0.00     0.049 A 
ATOM     47  N   UNL A   1      43.099  34.943  35.272  1.00  0.00    -0.248 NA
ATOM     48  C   UNL A   1      41.190  36.282  35.233  1.00  0.00     0.031 C 
ATOM     49  C   UNL A   1      40.565  31.297  34.821  1.00  0.00     0.029 A 
ATOM     50  N   UNL A   1      42.618  32.085  35.214  1.00  0.00    -0.354 N 
ATOM     51  C   UNL A   1      43.474  36.283  35.315  1.00  0.00     0.074 A 
ATOM     52  C   UNL A   1      42.260  37.059  35.190  1.00  0.00     0.031 C 
ATOM     53  C   UNL A   1      41.396  30.244  34.889  1.00  0.00     0.029 A 
ATOM     54  C   UNL A   1      42.758  30.720  35.117  1.00  0.00     0.049 A 
ATOM     55  H   UNL A   1      43.372  32.690  35.404  1.00  0.00     0.167 HD
ATOM     56  C   UNL A   1      44.707  36.825  35.466  1.00  0.00     0.031 A 
ATOM     57  C   UNL A   1      43.852  29.935  35.197  1.00  0.00     0.031 A 
ATOM     58  C   UNL A   1      45.908  36.062  35.686  1.00  0.00     0.049 A 
ATOM     59  C   UNL A   1      45.202  30.549  35.453  1.00  0.00     0.074 A 
ATOM     60  C   UNL A   1      47.181  36.524  35.972  1.00  0.00     0.029 A 
ATOM     61  N   UNL A   1      45.979  34.678  35.677  1.00  0.00    -0.354 N 
ATOM     62  N   UNL A   1      45.531  31.814  35.540  1.00  0.00    -0.248 NA
ATOM     63  C   UNL A   1      46.325  29.619  35.655  1.00  0.00     0.031 C 
ATOM     64  C   UNL A   1      48.029  35.420  36.111  1.00  0.00     0.029 A 
ATOM     65  C   UNL A   1      47.272  34.270  35.959  1.00  0.00     0.049 A 
ATOM     66  H   UNL A   1      45.222  34.074  35.497  1.00  0.00     0.167 HD
ATOM     67  C   UNL A   1      46.886  31.831  35.859  1.00  0.00     0.074 A 
ATOM     68  C   UNL A   1      47.315  30.451  35.946  1.00  0.00     0.031 C 
ATOM     69  C   UNL A   1      47.694  32.897  36.072  1.00  0.00     0.031 A 
BRANCH  56  70
ATOM     70  C   UNL A   1      44.817  38.329  35.411  1.00  0.00    -0.014 A 
ATOM     71  C   UNL A   1      44.638  39.119  36.563  1.00  0.00     0.010 A 
ATOM     72  C   UNL A   1      45.119  38.962  34.191  1.00  0.00     0.010 A 
ATOM     73  C   UNL A   1      44.670  40.513  36.478  1.00  0.00     0.020 A 
ATOM     74  C   UNL A   1      45.195  40.356  34.111  1.00  0.00     0.020 A 
ATOM     75  C   UNL A   1      44.937  41.122  35.249  1.00  0.00     0.054 A 
BRANCH  75  76
ATOM     76  S   UNL A   1      44.957  42.932  35.160  1.00  0.00     0.124 S 
ATOM     77  O   UNL A   1      45.531  43.154  33.835  1.00  0.00    -0.237 OA
ATOM     78  O   UNL A   1      43.547  43.281  35.302  1.00  0.00    -0.237 OA
ATOM     79  O   UNL A   1      45.809  43.321  36.282  1.00  0.00    -0.744 OA
ENDBRANCH  75  76
ENDBRANCH  56  70
BRANCH  57  80
ATOM     80  C   UNL A   1      43.706  28.455  35.114  1.00  0.00    -0.014 A 
ATOM     81  C   UNL A   1      43.318  27.729  36.255  1.00  0.00     0.010 A 
ATOM     82  C   UNL A   1      43.947  27.768  33.912  1.00  0.00     0.010 A 
ATOM     83  C   UNL A   1      43.186  26.340  36.200  1.00  0.00     0.020 A 
ATOM     84  C   UNL A   1      43.795  26.379  33.849  1.00  0.00     0.020 A 
ATOM     85  C   UNL A   1      43.422  25.673  34.996  1.00  0.00     0.054 A 
BRANCH  85  86
ATOM     86  S   UNL A   1      43.184  23.875  34.941  1.00  0.00     0.124 S 
ATOM     87  O   UNL A   1      44.149  23.409  35.931  1.00  0.00    -0.237 OA
ATOM     88  O   UNL A   1      41.777  23.733  35.312  1.00  0.00    -0.237 OA
ATOM     89  O   UNL A   1      43.491  23.531  33.554  1.00  0.00    -0.744 OA
ENDBRANCH  85  86
ENDBRANCH  57  80
BRANCH  69  90
ATOM     90  C   UNL A   1      49.113  32.630  36.503  1.00  0.00    -0.014 A 
ATOM     91  C   UNL A   1      50.171  32.578  35.578  1.00  0.00     0.010 A 
ATOM     92  C   UNL A   1      49.395  32.477  37.873  1.00  0.00     0.010 A 
ATOM     93  C   UNL A   1      51.479  32.348  36.013  1.00  0.00     0.020 A 
ATOM     94  C   UNL A   1      50.705  32.272  38.315  1.00  0.00     0.020 A 
ATOM     95  C   UNL A   1      51.738  32.196  37.380  1.00  0.00     0.054 A 
BRANCH  95  96
ATOM     96  S   UNL A   1      53.450  31.941  37.924  1.00  0.00     0.124 S 
ATOM     97  O   UNL A   1      54.207  32.310  36.731  1.00  0.00    -0.237 OA
ATOM     98  O   UNL A   1      53.569  32.860  39.053  1.00  0.00    -0.237 OA
ATOM     99  O   UNL A   1      53.495  30.523  38.275  1.00  0.00    -0.744 OA
ENDBRANCH  95  96
ENDBRANCH  69  90
ENDBRANCH  43  44
ENDBRANCH  36  38
ENDBRANCH  35  36
ENDBRANCH  34  35
ENDBRANCH  33  34
ENDBRANCH  32  33
ENDBRANCH  31  32
ENDBRANCH   1  31
TORSDOF 23
ENDMDL
MODEL 3
REMARK VINA RESULT:      -7.1      7.929     12.405
REMARK SMILES CN(C(=O)C[C@H]1SC(=O)N(c2cccc(O)c2)C1=O)c1ccccc1C(=O)OCCOCCOC(=O)c1ccc(-c2c3nc(c(-c4ccc(S(=O)(=O)[O-])cc4)c4ccc([nH]4)c(-c4ccc(S(=O)(=O)[O-])cc4)c4nc(c(-c5ccc(S(=O)(=O)[O-])cc5)c5ccc2[nH]5)C=C4)C=C3)cc1
REMARK SMILES IDX 29 1 28 2 26 3 27 4 25 5 20 6 21 7 22 8 24 9 23 10 2 11 1 12
REMARK SMILES IDX 3 13 4 14 5 15 6 16 7 17 18 18 8 19 10 20 19 21 9 22 11 23
REMARK SMILES IDX 12 24 17 25 13 26 15 27 14 28 16 29 30 31 31 32 32 33 33 34
REMARK SMILES IDX 34 35 35 36 36 37 37 38 38 39 96 40 39 41 95 42 40 43 41 44
REMARK SMILES IDX 42 45 89 46 43 47 94 48 88 49 90 50 44 51 93 52 87 53 86 54
REMARK SMILES IDX 45 56 75 57 56 58 74 59 57 60 60 61 73 62 91 63 58 64 59 65
REMARK SMILES IDX 72 67 92 68 61 69 46 70 47 71 55 72 48 73 54 74 49 75 50 76
REMARK SMILES IDX 51 77 52 78 53 79 76 80 77 81 85 82 78 83 84 84 79 85 80 86
REMARK SMILES IDX 81 87 82 88 83 89 62 90 63 91 71 92 64 93 70 94 65 95 66 96
REMARK SMILES IDX 67 97 68 98 69 99
REMARK H PARENT 16 30 90 55 60 66
REMARK Flexibility Score: inf
ROOT
ATOM      1  C   UNL A   1      53.095  24.804  36.248  1.00  0.00     0.261 C 
ENDROOT
BRANCH   1   2
ATOM      2  O   UNL A   1      52.837  23.539  35.616  1.00  0.00    -0.460 OA
BRANCH   2   3
ATOM      3  C   UNL A   1      52.365  22.583  36.447  1.00  0.00     0.340 C 
ATOM      4  O   UNL A   1      52.418  22.601  37.667  1.00  0.00    -0.246 OA
BRANCH   3   5
ATOM      5  C   UNL A   1      51.594  21.548  35.719  1.00  0.00     0.083 A 
ATOM      6  C   UNL A   1      50.709  20.594  36.262  1.00  0.00     0.058 A 
ATOM      7  C   UNL A   1      50.020  19.772  35.340  1.00  0.00     0.027 A 
ATOM      8  C   UNL A   1      50.251  19.820  33.963  1.00  0.00     0.002 A 
ATOM      9  C   UNL A   1      51.845  21.565  34.327  1.00  0.00     0.018 A 
ATOM     10  C   UNL A   1      51.191  20.699  33.457  1.00  0.00     0.001 A 
BRANCH   6  11
ATOM     11  N   UNL A   1      50.415  20.392  37.665  1.00  0.00    -0.315 N 
ATOM     12  C   UNL A   1      50.931  19.195  38.324  1.00  0.00     0.153 C 
BRANCH  11  13
ATOM     13  C   UNL A   1      49.631  21.350  38.339  1.00  0.00     0.228 C 
ATOM     14  O   UNL A   1      49.540  21.414  39.568  1.00  0.00    -0.274 OA
BRANCH  13  15
ATOM     15  C   UNL A   1      48.877  22.386  37.529  1.00  0.00     0.125 C 
BRANCH  15  16
ATOM     16  C   UNL A   1      47.722  21.733  36.782  1.00  0.00     0.156 C 
ATOM     17  S   UNL A   1      46.238  21.855  37.786  1.00  0.00    -0.050 SA
ATOM     18  C   UNL A   1      47.388  22.457  35.484  1.00  0.00     0.248 C 
ATOM     19  C   UNL A   1      45.561  23.116  36.770  1.00  0.00     0.293 C 
ATOM     20  N   UNL A   1      46.153  23.093  35.520  1.00  0.00    -0.240 N 
ATOM     21  O   UNL A   1      48.197  22.460  34.560  1.00  0.00    -0.273 OA
ATOM     22  O   UNL A   1      44.731  23.866  37.231  1.00  0.00    -0.261 OA
BRANCH  20  23
ATOM     23  C   UNL A   1      45.499  23.647  34.350  1.00  0.00     0.056 A 
ATOM     24  C   UNL A   1      44.453  22.969  33.696  1.00  0.00     0.027 A 
ATOM     25  C   UNL A   1      46.020  24.776  33.686  1.00  0.00     0.073 A 
ATOM     26  C   UNL A   1      44.002  23.349  32.425  1.00  0.00     0.006 A 
ATOM     27  C   UNL A   1      45.603  25.115  32.393  1.00  0.00     0.117 A 
ATOM     28  C   UNL A   1      44.595  24.412  31.756  1.00  0.00     0.046 A 
BRANCH  27  29
ATOM     29  O   UNL A   1      46.276  26.112  31.748  1.00  0.00    -0.508 OA
ATOM     30  H   UNL A   1      45.838  26.638  31.109  1.00  0.00     0.293 HD
ENDBRANCH  27  29
ENDBRANCH  20  23
ENDBRANCH  15  16
ENDBRANCH  13  15
ENDBRANCH  11  13
ENDBRANCH   6  11
ENDBRANCH   3   5
ENDBRANCH   2   3
ENDBRANCH   1   2
BRANCH   1  31
ATOM     31  C   UNL A   1      52.099  25.857  35.770  1.00  0.00     0.202 C 
BRANCH  31  32
ATOM     32  O   UNL A   1      50.925  25.369  35.121  1.00  0.00    -0.374 OA
BRANCH  32  33
ATOM     33  C   UNL A   1      49.714  25.356  35.876  1.00  0.00     0.202 C 
BRANCH  33  34
ATOM     34  C   UNL A   1      49.712  26.075  37.233  1.00  0.00     0.261 C 
BRANCH  34  35
ATOM     35  O   UNL A   1      48.828  27.204  37.306  1.00  0.00    -0.460 OA
BRANCH  35  36
ATOM     36  C   UNL A   1      47.653  26.968  37.946  1.00  0.00     0.338 C 
ATOM     37  O   UNL A   1      47.484  26.435  39.027  1.00  0.00    -0.246 OA
BRANCH  36  38
ATOM     38  C   UNL A   1      46.561  27.574  37.163  1.00  0.00     0.060 A 
ATOM     39  C   UNL A   1      46.813  28.652  36.304  1.00  0.00     0.016 A 
ATOM     40  C   UNL A   1      45.267  27.114  37.348  1.00  0.00     0.016 A 
ATOM     41  C   UNL A   1      45.757  29.273  35.614  1.00  0.00     0.010 A 
ATOM     42  C   UNL A   1      44.232  27.746  36.662  1.00  0.00     0.010 A 
ATOM     43  C   UNL A   1      44.443  28.827  35.789  1.00  0.00    -0.014 A 
BRANCH  43  44
ATOM     44  C   UNL A   1      43.246  29.474  35.163  1.00  0.00     0.031 A 
ATOM     45  C   UNL A   1      42.798  29.028  33.787  1.00  0.00     0.074 A 
ATOM     46  C   UNL A   1      42.635  30.537  35.726  1.00  0.00     0.049 A 
ATOM     47  N   UNL A   1      41.964  29.598  32.952  1.00  0.00    -0.248 NA
ATOM     48  C   UNL A   1      43.416  27.800  33.265  1.00  0.00     0.031 C 
ATOM     49  C   UNL A   1      42.953  31.119  37.030  1.00  0.00     0.029 A 
ATOM     50  N   UNL A   1      41.631  31.344  35.242  1.00  0.00    -0.354 N 
ATOM     51  C   UNL A   1      42.021  28.843  31.785  1.00  0.00     0.074 A 
ATOM     52  C   UNL A   1      43.004  27.805  32.007  1.00  0.00     0.031 C 
ATOM     53  C   UNL A   1      42.172  32.193  37.236  1.00  0.00     0.029 A 
ATOM     54  C   UNL A   1      41.311  32.392  36.073  1.00  0.00     0.049 A 
ATOM     55  H   UNL A   1      41.183  31.185  34.380  1.00  0.00     0.167 HD
ATOM     56  C   UNL A   1      41.309  28.978  30.638  1.00  0.00     0.031 A 
ATOM     57  C   UNL A   1      40.430  33.402  35.924  1.00  0.00     0.031 A 
ATOM     58  C   UNL A   1      40.262  29.946  30.443  1.00  0.00     0.049 A 
ATOM     59  C   UNL A   1      39.585  33.486  34.681  1.00  0.00     0.074 A 
ATOM     60  C   UNL A   1      39.404  30.079  29.365  1.00  0.00     0.029 A 
ATOM     61  N   UNL A   1      39.909  30.925  31.358  1.00  0.00    -0.354 N 
ATOM     62  N   UNL A   1      39.617  32.735  33.608  1.00  0.00    -0.248 NA
ATOM     63  C   UNL A   1      38.559  34.540  34.648  1.00  0.00     0.031 C 
ATOM     64  C   UNL A   1      38.546  31.157  29.616  1.00  0.00     0.029 A 
ATOM     65  C   UNL A   1      38.841  31.662  30.872  1.00  0.00     0.049 A 
ATOM     66  H   UNL A   1      40.351  31.075  32.225  1.00  0.00     0.167 HD
ATOM     67  C   UNL A   1      38.583  33.191  32.796  1.00  0.00     0.074 A 
ATOM     68  C   UNL A   1      37.946  34.285  33.500  1.00  0.00     0.031 C 
ATOM     69  C   UNL A   1      38.191  32.733  31.582  1.00  0.00     0.031 A 
BRANCH  56  70
ATOM     70  C   UNL A   1      41.634  28.038  29.503  1.00  0.00    -0.014 A 
ATOM     71  C   UNL A   1      40.856  26.891  29.256  1.00  0.00     0.010 A 
ATOM     72  C   UNL A   1      42.726  28.315  28.660  1.00  0.00     0.010 A 
ATOM     73  C   UNL A   1      41.217  25.995  28.247  1.00  0.00     0.020 A 
ATOM     74  C   UNL A   1      43.064  27.443  27.621  1.00  0.00     0.020 A 
ATOM     75  C   UNL A   1      42.326  26.272  27.444  1.00  0.00     0.054 A 
BRANCH  75  76
ATOM     76  S   UNL A   1      42.783  25.086  26.152  1.00  0.00     0.124 S 
ATOM     77  O   UNL A   1      44.239  25.206  26.147  1.00  0.00    -0.237 OA
ATOM     78  O   UNL A   1      42.258  23.825  26.667  1.00  0.00    -0.237 OA
ATOM     79  O   UNL A   1      42.111  25.599  24.961  1.00  0.00    -0.744 OA
ENDBRANCH  75  76
ENDBRANCH  56  70
BRANCH  57  80
ATOM     80  C   UNL A   1      40.238  34.384  37.026  1.00  0.00    -0.014 A 
ATOM     81  C   UNL A   1      41.095  35.496  37.125  1.00  0.00     0.010 A 
ATOM     82  C   UNL A   1      39.211  34.223  37.971  1.00  0.00     0.010 A 
ATOM     83  C   UNL A   1      40.937  36.423  38.158  1.00  0.00     0.020 A 
ATOM     84  C   UNL A   1      39.037  35.161  38.995  1.00  0.00     0.020 A 
ATOM     85  C   UNL A   1      39.906  36.252  39.085  1.00  0.00     0.054 A 
BRANCH  85  86
ATOM     86  S   UNL A   1      39.689  37.504  40.380  1.00  0.00     0.124 S 
ATOM     87  O   UNL A   1      40.490  36.958  41.470  1.00  0.00    -0.237 OA
ATOM     88  O   UNL A   1      40.221  38.708  39.744  1.00  0.00    -0.237 OA
ATOM     89  O   UNL A   1      38.245  37.516  40.606  1.00  0.00    -0.744 OA
ENDBRANCH  85  86
ENDBRANCH  57  80
BRANCH  69  90
ATOM     90  C   UNL A   1      36.966  33.351  30.959  1.00  0.00    -0.014 A 
ATOM     91  C   UNL A   1      37.029  34.055  29.743  1.00  0.00     0.010 A 
ATOM     92  C   UNL A   1      35.717  33.176  31.584  1.00  0.00     0.010 A 
ATOM     93  C   UNL A   1      35.871  34.599  29.181  1.00  0.00     0.020 A 
ATOM     94  C   UNL A   1      34.553  33.697  31.012  1.00  0.00     0.020 A 
ATOM     95  C   UNL A   1      34.639  34.416  29.820  1.00  0.00     0.054 A 
BRANCH  95  96
ATOM     96  S   UNL A   1      33.144  35.095  29.049  1.00  0.00     0.124 S 
ATOM     97  O   UNL A   1      32.237  35.209  30.189  1.00  0.00    -0.237 OA
ATOM     98  O   UNL A   1      33.615  36.359  28.491  1.00  0.00    -0.237 OA
ATOM     99  O   UNL A   1      32.774  34.084  28.059  1.00  0.00    -0.744 OA
ENDBRANCH  95  96
ENDBRANCH  69  90
ENDBRANCH  43  44
ENDBRANCH  36  38
ENDBRANCH  35  36
ENDBRANCH  34  35
ENDBRANCH  33  34
ENDBRANCH  32  33
ENDBRANCH  31  32
ENDBRANCH   1  31
TORSDOF 23
ENDMDL
