MODEL 1
REMARK VINA RESULT:      -9.1      0.000      0.000
REMARK SMILES CS(=O)(=O)c1ccc(/C=C(/C(=O)OCCOCCOC(=O)c2ccc(-c3c4nc(c(-c5ccc(S(=O)(=O)[O-])cc5)c5ccc([nH]5)c(-c5ccc(S(=O)(=O)[O-])cc5)c5nc(c(-c6ccc(S(=O)(=O)[O-])cc6)c6ccc3[nH]6)C=C5)C=C4)cc2)c2cccc(-c3ccc(S(C)(=O)=O)cc3)c2)cc1
REMARK SMILES IDX 16 1 15 2 14 3 13 4 11 5 12 6 10 7 9 8 8 9 5 10 6 11 99 12
REMARK SMILES IDX 7 13 98 14 2 15 1 16 3 17 4 18 82 19 83 20 97 21 84 22 86 23
REMARK SMILES IDX 85 24 87 25 88 26 96 27 89 28 95 29 90 30 91 31 92 32 93 33
REMARK SMILES IDX 94 34 17 35 18 36 19 37 20 38 21 39 22 40 23 41 81 42 24 43
REMARK SMILES IDX 80 44 25 45 26 46 27 47 74 48 28 49 79 50 73 51 75 52 29 53
REMARK SMILES IDX 78 54 72 55 71 56 30 58 60 59 41 60 59 61 42 62 45 63 58 64
REMARK SMILES IDX 76 65 43 66 44 67 57 69 77 70 46 71 31 72 32 73 40 74 33 75
REMARK SMILES IDX 39 76 34 77 35 78 36 79 37 80 38 81 61 82 62 83 70 84 63 85
REMARK SMILES IDX 69 86 64 87 65 88 66 89 67 90 68 91 47 92 48 93 56 94 49 95
REMARK SMILES IDX 55 96 50 97 51 98 52 99 53 100 54 101
REMARK H PARENT 75 57 45 68
REMARK Flexibility Score: inf
ROOT
ATOM      1  O   UNL A   1      42.704  19.423  26.378  1.00  0.00    -0.374 OA
ENDROOT
BRANCH   1   2
ATOM      2  C   UNL A   1      43.103  19.815  25.066  1.00  0.00     0.202 C 
BRANCH   2   3
ATOM      3  C   UNL A   1      44.595  19.823  24.718  1.00  0.00     0.261 C 
BRANCH   3   4
ATOM      4  O   UNL A   1      45.276  20.961  25.270  1.00  0.00    -0.460 OA
BRANCH   4   5
ATOM      5  C   UNL A   1      44.755  22.154  24.888  1.00  0.00     0.338 C 
ATOM      6  O   UNL A   1      44.359  22.431  23.763  1.00  0.00    -0.246 OA
BRANCH   5   7
ATOM      7  C   UNL A   1      44.563  23.086  26.044  1.00  0.00     0.067 C 
ATOM      8  C   UNL A   1      44.241  22.616  27.274  1.00  0.00     0.024 C 
BRANCH   8   9
ATOM      9  C   UNL A   1      44.306  23.339  28.577  1.00  0.00    -0.025 A 
ATOM     10  C   UNL A   1      44.514  24.267  31.235  1.00  0.00     0.067 A 
ATOM     11  C   UNL A   1      45.509  24.577  30.312  1.00  0.00     0.021 A 
ATOM     12  C   UNL A   1      43.367  23.588  30.820  1.00  0.00     0.021 A 
ATOM     13  C   UNL A   1      45.378  24.147  28.986  1.00  0.00     0.009 A 
ATOM     14  C   UNL A   1      43.267  23.130  29.498  1.00  0.00     0.009 A 
BRANCH  10  15
ATOM     15  S   UNL A   1      44.703  24.692  32.950  1.00  0.00     0.175 S 
ATOM     16  C   UNL A   1      44.085  23.309  33.877  1.00  0.00     0.163 C 
ATOM     17  O   UNL A   1      43.811  25.805  33.219  1.00  0.00    -0.224 OA
ATOM     18  O   UNL A   1      46.127  24.794  33.199  1.00  0.00    -0.224 OA
ENDBRANCH  10  15
ENDBRANCH   8   9
BRANCH   7  19
ATOM     19  C   UNL A   1      44.905  24.493  25.769  1.00  0.00    -0.010 A 
ATOM     20  C   UNL A   1      43.913  25.460  25.563  1.00  0.00     0.009 A 
ATOM     21  C   UNL A   1      46.242  24.879  25.776  1.00  0.00     0.017 A 
ATOM     22  C   UNL A   1      44.257  26.797  25.378  1.00  0.00     0.001 A 
ATOM     23  C   UNL A   1      46.603  26.228  25.660  1.00  0.00    -0.018 A 
ATOM     24  C   UNL A   1      45.595  27.179  25.437  1.00  0.00     0.009 A 
BRANCH  23  25
ATOM     25  C   UNL A   1      47.998  26.604  25.903  1.00  0.00    -0.018 A 
ATOM     26  C   UNL A   1      48.981  25.608  26.023  1.00  0.00     0.010 A 
ATOM     27  C   UNL A   1      48.396  27.952  25.879  1.00  0.00     0.010 A 
ATOM     28  C   UNL A   1      50.329  25.947  26.097  1.00  0.00     0.021 A 
ATOM     29  C   UNL A   1      49.741  28.302  25.951  1.00  0.00     0.021 A 
ATOM     30  C   UNL A   1      50.697  27.294  26.063  1.00  0.00     0.067 A 
BRANCH  30  31
ATOM     31  S   UNL A   1      52.418  27.704  26.143  1.00  0.00     0.175 S 
ATOM     32  C   UNL A   1      52.405  29.285  26.947  1.00  0.00     0.163 C 
ATOM     33  O   UNL A   1      53.039  26.742  27.032  1.00  0.00    -0.224 OA
ATOM     34  O   UNL A   1      52.898  27.902  24.790  1.00  0.00    -0.224 OA
ENDBRANCH  30  31
ENDBRANCH  23  25
ENDBRANCH   7  19
ENDBRANCH   5   7
ENDBRANCH   4   5
ENDBRANCH   3   4
ENDBRANCH   2   3
ENDBRANCH   1   2
BRANCH   1  35
ATOM     35  C   UNL A   1      41.833  20.287  27.099  1.00  0.00     0.202 C 
BRANCH  35  36
ATOM     36  C   UNL A   1      40.619  20.908  26.396  1.00  0.00     0.261 C 
BRANCH  36  37
ATOM     37  O   UNL A   1      39.926  21.873  27.194  1.00  0.00    -0.460 OA
BRANCH  37  38
ATOM     38  C   UNL A   1      39.193  22.764  26.479  1.00  0.00     0.338 C 
ATOM     39  O   UNL A   1      38.330  22.515  25.651  1.00  0.00    -0.246 OA
BRANCH  38  40
ATOM     40  C   UNL A   1      39.443  24.117  26.997  1.00  0.00     0.060 A 
ATOM     41  C   UNL A   1      40.092  25.030  26.155  1.00  0.00     0.016 A 
ATOM     42  C   UNL A   1      39.071  24.477  28.292  1.00  0.00     0.016 A 
ATOM     43  C   UNL A   1      40.383  26.312  26.612  1.00  0.00     0.010 A 
ATOM     44  C   UNL A   1      39.383  25.757  28.756  1.00  0.00     0.010 A 
ATOM     45  C   UNL A   1      40.056  26.671  27.924  1.00  0.00    -0.014 A 
BRANCH  45  46
ATOM     46  C   UNL A   1      40.520  27.965  28.472  1.00  0.00     0.031 A 
ATOM     47  C   UNL A   1      41.945  28.091  28.930  1.00  0.00     0.074 A 
ATOM     48  C   UNL A   1      39.679  29.011  28.555  1.00  0.00     0.049 A 
ATOM     49  N   UNL A   1      42.541  29.101  29.506  1.00  0.00    -0.248 NA
ATOM     50  C   UNL A   1      42.811  26.922  28.708  1.00  0.00     0.031 C 
ATOM     51  C   UNL A   1      38.292  29.019  28.091  1.00  0.00     0.029 A 
ATOM     52  N   UNL A   1      39.871  30.267  29.071  1.00  0.00    -0.354 N 
ATOM     53  C   UNL A   1      43.849  28.688  29.730  1.00  0.00     0.074 A 
ATOM     54  C   UNL A   1      43.951  27.326  29.251  1.00  0.00     0.031 C 
ATOM     55  C   UNL A   1      37.754  30.224  28.352  1.00  0.00     0.029 A 
ATOM     56  C   UNL A   1      38.742  31.050  29.042  1.00  0.00     0.049 A 
ATOM     57  H   UNL A   1      40.733  30.578  29.427  1.00  0.00     0.167 HD
ATOM     58  C   UNL A   1      44.871  29.384  30.283  1.00  0.00     0.031 A 
ATOM     59  C   UNL A   1      38.523  32.282  29.543  1.00  0.00     0.031 A 
ATOM     60  C   UNL A   1      44.750  30.729  30.776  1.00  0.00     0.049 A 
ATOM     61  C   UNL A   1      39.647  32.997  30.247  1.00  0.00     0.074 A 
ATOM     62  C   UNL A   1      45.728  31.528  31.342  1.00  0.00     0.029 A 
ATOM     63  N   UNL A   1      43.578  31.471  30.776  1.00  0.00    -0.354 N 
ATOM     64  N   UNL A   1      40.888  32.606  30.427  1.00  0.00    -0.248 NA
ATOM     65  C   UNL A   1      39.341  34.317  30.816  1.00  0.00     0.031 C 
ATOM     66  C   UNL A   1      45.130  32.726  31.748  1.00  0.00     0.029 A 
ATOM     67  C   UNL A   1      43.797  32.703  31.370  1.00  0.00     0.049 A 
ATOM     68  H   UNL A   1      42.717  31.167  30.408  1.00  0.00     0.167 HD
ATOM     69  C   UNL A   1      41.514  33.643  31.112  1.00  0.00     0.074 A 
ATOM     70  C   UNL A   1      40.523  34.683  31.295  1.00  0.00     0.031 C 
ATOM     71  C   UNL A   1      42.795  33.725  31.552  1.00  0.00     0.031 A 
BRANCH  58  72
ATOM     72  C   UNL A   1      46.195  28.679  30.423  1.00  0.00    -0.014 A 
ATOM     73  C   UNL A   1      47.142  28.687  29.382  1.00  0.00     0.010 A 
ATOM     74  C   UNL A   1      46.508  28.022  31.626  1.00  0.00     0.010 A 
ATOM     75  C   UNL A   1      48.358  28.014  29.527  1.00  0.00     0.020 A 
ATOM     76  C   UNL A   1      47.737  27.374  31.787  1.00  0.00     0.020 A 
ATOM     77  C   UNL A   1      48.646  27.359  30.729  1.00  0.00     0.054 A 
BRANCH  77  78
ATOM     78  S   UNL A   1      50.238  26.504  30.893  1.00  0.00     0.124 S 
ATOM     79  O   UNL A   1      50.823  26.700  29.567  1.00  0.00    -0.237 OA
ATOM     80  O   UNL A   1      50.883  27.239  31.978  1.00  0.00    -0.237 OA
ATOM     81  O   UNL A   1      49.863  25.129  31.209  1.00  0.00    -0.744 OA
ENDBRANCH  77  78
ENDBRANCH  58  72
BRANCH  59  82
ATOM     82  C   UNL A   1      37.177  32.905  29.421  1.00  0.00    -0.014 A 
ATOM     83  C   UNL A   1      36.499  33.373  30.560  1.00  0.00     0.010 A 
ATOM     84  C   UNL A   1      36.568  33.041  28.160  1.00  0.00     0.010 A 
ATOM     85  C   UNL A   1      35.235  33.957  30.441  1.00  0.00     0.020 A 
ATOM     86  C   UNL A   1      35.318  33.651  28.033  1.00  0.00     0.020 A 
ATOM     87  C   UNL A   1      34.655  34.099  29.176  1.00  0.00     0.054 A 
BRANCH  87  88
ATOM     88  S   UNL A   1      33.041  34.915  29.044  1.00  0.00     0.124 S 
ATOM     89  O   UNL A   1      32.367  34.097  28.041  1.00  0.00    -0.237 OA
ATOM     90  O   UNL A   1      32.522  34.805  30.405  1.00  0.00    -0.237 OA
ATOM     91  O   UNL A   1      33.378  36.273  28.622  1.00  0.00    -0.744 OA
ENDBRANCH  87  88
ENDBRANCH  59  82
BRANCH  71  92
ATOM     92  C   UNL A   1      43.208  34.989  32.261  1.00  0.00    -0.014 A 
ATOM     93  C   UNL A   1      43.587  36.136  31.542  1.00  0.00     0.010 A 
ATOM     94  C   UNL A   1      43.144  35.052  33.666  1.00  0.00     0.010 A 
ATOM     95  C   UNL A   1      43.917  37.315  32.214  1.00  0.00     0.020 A 
ATOM     96  C   UNL A   1      43.444  36.239  34.341  1.00  0.00     0.020 A 
ATOM     97  C   UNL A   1      43.837  37.361  33.610  1.00  0.00     0.054 A 
BRANCH  97  98
ATOM     98  S   UNL A   1      44.209  38.924  34.452  1.00  0.00     0.124 S 
ATOM     99  O   UNL A   1      43.179  39.811  33.917  1.00  0.00    -0.237 OA
ATOM    100  O   UNL A   1      44.063  38.568  35.862  1.00  0.00    -0.237 OA
ATOM    101  O   UNL A   1      45.574  39.230  34.030  1.00  0.00    -0.744 OA
ENDBRANCH  97  98
ENDBRANCH  71  92
ENDBRANCH  45  46
ENDBRANCH  38  40
ENDBRANCH  37  38
ENDBRANCH  36  37
ENDBRANCH  35  36
ENDBRANCH   1  35
TORSDOF 22
ENDMDL
MODEL 2
REMARK VINA RESULT:      -8.9      4.955     12.094
REMARK SMILES CS(=O)(=O)c1ccc(/C=C(/C(=O)OCCOCCOC(=O)c2ccc(-c3c4nc(c(-c5ccc(S(=O)(=O)[O-])cc5)c5ccc([nH]5)c(-c5ccc(S(=O)(=O)[O-])cc5)c5nc(c(-c6ccc(S(=O)(=O)[O-])cc6)c6ccc3[nH]6)C=C5)C=C4)cc2)c2cccc(-c3ccc(S(C)(=O)=O)cc3)c2)cc1
REMARK SMILES IDX 16 1 15 2 14 3 13 4 11 5 12 6 10 7 9 8 8 9 5 10 6 11 99 12
REMARK SMILES IDX 7 13 98 14 2 15 1 16 3 17 4 18 82 19 83 20 97 21 84 22 86 23
REMARK SMILES IDX 85 24 87 25 88 26 96 27 89 28 95 29 90 30 91 31 92 32 93 33
REMARK SMILES IDX 94 34 17 35 18 36 19 37 20 38 21 39 22 40 23 41 81 42 24 43
REMARK SMILES IDX 80 44 25 45 26 46 27 47 74 48 28 49 79 50 73 51 75 52 29 53
REMARK SMILES IDX 78 54 72 55 71 56 30 58 60 59 41 60 59 61 42 62 45 63 58 64
REMARK SMILES IDX 76 65 43 66 44 67 57 69 77 70 46 71 31 72 32 73 40 74 33 75
REMARK SMILES IDX 39 76 34 77 35 78 36 79 37 80 38 81 61 82 62 83 70 84 63 85
REMARK SMILES IDX 69 86 64 87 65 88 66 89 67 90 68 91 47 92 48 93 56 94 49 95
REMARK SMILES IDX 55 96 50 97 51 98 52 99 53 100 54 101
REMARK H PARENT 75 57 45 68
REMARK Flexibility Score: inf
ROOT
ATOM      1  O   UNL A   1      33.061  36.726  29.548  1.00  0.00    -0.374 OA
ENDROOT
BRANCH   1   2
ATOM      2  C   UNL A   1      33.202  35.464  28.898  1.00  0.00     0.202 C 
BRANCH   2   3
ATOM      3  C   UNL A   1      34.555  35.098  28.278  1.00  0.00     0.261 C 
BRANCH   3   4
ATOM      4  O   UNL A   1      34.537  33.800  27.665  1.00  0.00    -0.460 OA
BRANCH   4   5
ATOM      5  C   UNL A   1      35.555  32.992  28.054  1.00  0.00     0.338 C 
ATOM      6  O   UNL A   1      36.660  33.366  28.427  1.00  0.00    -0.246 OA
BRANCH   5   7
ATOM      7  C   UNL A   1      35.142  31.555  28.131  1.00  0.00     0.067 C 
ATOM      8  C   UNL A   1      34.045  31.107  27.471  1.00  0.00     0.024 C 
BRANCH   8   9
ATOM      9  C   UNL A   1      33.660  29.694  27.188  1.00  0.00    -0.025 A 
ATOM     10  C   UNL A   1      32.643  27.212  26.308  1.00  0.00     0.067 A 
ATOM     11  C   UNL A   1      33.969  27.548  26.053  1.00  0.00     0.021 A 
ATOM     12  C   UNL A   1      31.849  28.056  27.087  1.00  0.00     0.021 A 
ATOM     13  C   UNL A   1      34.477  28.764  26.528  1.00  0.00     0.009 A 
ATOM     14  C   UNL A   1      32.359  29.287  27.524  1.00  0.00     0.009 A 
BRANCH  10  15
ATOM     15  S   UNL A   1      31.932  25.736  25.619  1.00  0.00     0.175 S 
ATOM     16  C   UNL A   1      30.171  25.947  25.700  1.00  0.00     0.163 C 
ATOM     17  O   UNL A   1      32.262  24.641  26.513  1.00  0.00    -0.224 OA
ATOM     18  O   UNL A   1      32.313  25.704  24.221  1.00  0.00    -0.224 OA
ENDBRANCH  10  15
ENDBRANCH   8   9
BRANCH   7  19
ATOM     19  C   UNL A   1      36.093  30.673  28.830  1.00  0.00    -0.010 A 
ATOM     20  C   UNL A   1      35.871  30.256  30.149  1.00  0.00     0.009 A 
ATOM     21  C   UNL A   1      37.205  30.195  28.142  1.00  0.00     0.017 A 
ATOM     22  C   UNL A   1      36.745  29.364  30.765  1.00  0.00     0.001 A 
ATOM     23  C   UNL A   1      38.056  29.245  28.721  1.00  0.00    -0.018 A 
ATOM     24  C   UNL A   1      37.827  28.853  30.049  1.00  0.00     0.009 A 
BRANCH  23  25
ATOM     25  C   UNL A   1      39.071  28.607  27.879  1.00  0.00    -0.018 A 
ATOM     26  C   UNL A   1      39.666  29.329  26.831  1.00  0.00     0.010 A 
ATOM     27  C   UNL A   1      39.562  27.326  28.187  1.00  0.00     0.010 A 
ATOM     28  C   UNL A   1      40.739  28.795  26.123  1.00  0.00     0.021 A 
ATOM     29  C   UNL A   1      40.635  26.784  27.485  1.00  0.00     0.021 A 
ATOM     30  C   UNL A   1      41.213  27.524  26.454  1.00  0.00     0.067 A 
BRANCH  30  31
ATOM     31  S   UNL A   1      42.587  26.869  25.550  1.00  0.00     0.175 S 
ATOM     32  C   UNL A   1      43.957  27.209  26.624  1.00  0.00     0.163 C 
ATOM     33  O   UNL A   1      42.401  25.434  25.483  1.00  0.00    -0.224 OA
ATOM     34  O   UNL A   1      42.759  27.666  24.351  1.00  0.00    -0.224 OA
ENDBRANCH  30  31
ENDBRANCH  23  25
ENDBRANCH   7  19
ENDBRANCH   5   7
ENDBRANCH   4   5
ENDBRANCH   3   4
ENDBRANCH   2   3
ENDBRANCH   1   2
BRANCH   1  35
ATOM     35  C   UNL A   1      33.367  36.803  30.935  1.00  0.00     0.202 C 
BRANCH  35  36
ATOM     36  C   UNL A   1      33.384  35.526  31.785  1.00  0.00     0.261 C 
BRANCH  36  37
ATOM     37  O   UNL A   1      34.694  34.984  31.981  1.00  0.00    -0.460 OA
BRANCH  37  38
ATOM     38  C   UNL A   1      34.777  33.644  31.791  1.00  0.00     0.338 C 
ATOM     39  O   UNL A   1      34.013  32.939  31.149  1.00  0.00    -0.246 OA
BRANCH  38  40
ATOM     40  C   UNL A   1      36.066  33.163  32.313  1.00  0.00     0.060 A 
ATOM     41  C   UNL A   1      36.042  32.182  33.313  1.00  0.00     0.016 A 
ATOM     42  C   UNL A   1      37.274  33.682  31.848  1.00  0.00     0.016 A 
ATOM     43  C   UNL A   1      37.234  31.721  33.864  1.00  0.00     0.010 A 
ATOM     44  C   UNL A   1      38.467  33.234  32.417  1.00  0.00     0.010 A 
ATOM     45  C   UNL A   1      38.450  32.266  33.438  1.00  0.00    -0.014 A 
BRANCH  45  46
ATOM     46  C   UNL A   1      39.703  31.912  34.142  1.00  0.00     0.031 A 
ATOM     47  C   UNL A   1      40.114  32.714  35.344  1.00  0.00     0.074 A 
ATOM     48  C   UNL A   1      40.459  30.886  33.713  1.00  0.00     0.049 A 
ATOM     49  N   UNL A   1      41.201  32.627  36.062  1.00  0.00    -0.248 NA
ATOM     50  C   UNL A   1      39.172  33.753  35.792  1.00  0.00     0.031 C 
ATOM     51  C   UNL A   1      40.130  30.004  32.592  1.00  0.00     0.029 A 
ATOM     52  N   UNL A   1      41.666  30.421  34.167  1.00  0.00    -0.354 N 
ATOM     53  C   UNL A   1      41.085  33.607  37.041  1.00  0.00     0.074 A 
ATOM     54  C   UNL A   1      39.832  34.294  36.807  1.00  0.00     0.031 C 
ATOM     55  C   UNL A   1      41.120  29.108  32.441  1.00  0.00     0.029 A 
ATOM     56  C   UNL A   1      42.169  29.382  33.421  1.00  0.00     0.049 A 
ATOM     57  H   UNL A   1      42.128  30.793  34.952  1.00  0.00     0.167 HD
ATOM     58  C   UNL A   1      41.944  33.904  38.045  1.00  0.00     0.031 A 
ATOM     59  C   UNL A   1      43.355  28.747  33.501  1.00  0.00     0.031 A 
ATOM     60  C   UNL A   1      43.197  33.229  38.254  1.00  0.00     0.049 A 
ATOM     61  C   UNL A   1      44.340  29.165  34.561  1.00  0.00     0.074 A 
ATOM     62  C   UNL A   1      44.134  33.444  39.249  1.00  0.00     0.029 A 
ATOM     63  N   UNL A   1      43.695  32.217  37.447  1.00  0.00    -0.354 N 
ATOM     64  N   UNL A   1      44.206  30.073  35.499  1.00  0.00    -0.248 NA
ATOM     65  C   UNL A   1      45.636  28.471  34.573  1.00  0.00     0.031 C 
ATOM     66  C   UNL A   1      45.230  32.611  39.001  1.00  0.00     0.029 A 
ATOM     67  C   UNL A   1      44.946  31.826  37.895  1.00  0.00     0.049 A 
ATOM     68  H   UNL A   1      43.229  31.833  36.669  1.00  0.00     0.167 HD
ATOM     69  C   UNL A   1      45.393  30.046  36.225  1.00  0.00     0.074 A 
ATOM     70  C   UNL A   1      46.223  29.018  35.631  1.00  0.00     0.031 C 
ATOM     71  C   UNL A   1      45.763  30.805  37.286  1.00  0.00     0.031 A 
BRANCH  58  72
ATOM     72  C   UNL A   1      41.573  35.039  38.963  1.00  0.00    -0.014 A 
ATOM     73  C   UNL A   1      40.962  34.804  40.209  1.00  0.00     0.010 A 
ATOM     74  C   UNL A   1      41.867  36.362  38.586  1.00  0.00     0.010 A 
ATOM     75  C   UNL A   1      40.614  35.872  41.039  1.00  0.00     0.020 A 
ATOM     76  C   UNL A   1      41.547  37.432  39.426  1.00  0.00     0.020 A 
ATOM     77  C   UNL A   1      40.906  37.180  40.640  1.00  0.00     0.054 A 
BRANCH  77  78
ATOM     78  S   UNL A   1      40.451  38.547  41.744  1.00  0.00     0.124 S 
ATOM     79  O   UNL A   1      40.358  37.872  43.036  1.00  0.00    -0.237 OA
ATOM     80  O   UNL A   1      41.579  39.465  41.595  1.00  0.00    -0.237 OA
ATOM     81  O   UNL A   1      39.184  39.027  41.200  1.00  0.00    -0.744 OA
ENDBRANCH  77  78
ENDBRANCH  58  72
BRANCH  59  82
ATOM     82  C   UNL A   1      43.686  27.668  32.530  1.00  0.00    -0.014 A 
ATOM     83  C   UNL A   1      43.777  26.330  32.949  1.00  0.00     0.010 A 
ATOM     84  C   UNL A   1      43.906  27.975  31.174  1.00  0.00     0.010 A 
ATOM     85  C   UNL A   1      44.089  25.321  32.035  1.00  0.00     0.020 A 
ATOM     86  C   UNL A   1      44.189  26.966  30.251  1.00  0.00     0.020 A 
ATOM     87  C   UNL A   1      44.287  25.644  30.689  1.00  0.00     0.054 A 
BRANCH  87  88
ATOM     88  S   UNL A   1      44.630  24.308  29.512  1.00  0.00     0.124 S 
ATOM     89  O   UNL A   1      44.549  23.125  30.362  1.00  0.00    -0.237 OA
ATOM     90  O   UNL A   1      43.553  24.465  28.538  1.00  0.00    -0.237 OA
ATOM     91  O   UNL A   1      45.965  24.629  29.010  1.00  0.00    -0.744 OA
ENDBRANCH  87  88
ENDBRANCH  59  82
BRANCH  71  92
ATOM     92  C   UNL A   1      47.119  30.544  37.890  1.00  0.00    -0.014 A 
ATOM     93  C   UNL A   1      48.251  31.267  37.474  1.00  0.00     0.010 A 
ATOM     94  C   UNL A   1      47.248  29.616  38.940  1.00  0.00     0.010 A 
ATOM     95  C   UNL A   1      49.491  31.049  38.080  1.00  0.00     0.020 A 
ATOM     96  C   UNL A   1      48.480  29.418  39.570  1.00  0.00     0.020 A 
ATOM     97  C   UNL A   1      49.596  30.130  39.129  1.00  0.00     0.054 A 
BRANCH  97  98
ATOM     98  S   UNL A   1      51.204  29.915  39.941  1.00  0.00     0.124 S 
ATOM     99  O   UNL A   1      50.856  30.063  41.351  1.00  0.00    -0.237 OA
ATOM    100  O   UNL A   1      51.593  28.569  39.526  1.00  0.00    -0.237 OA
ATOM    101  O   UNL A   1      52.020  30.993  39.385  1.00  0.00    -0.744 OA
ENDBRANCH  97  98
ENDBRANCH  71  92
ENDBRANCH  45  46
ENDBRANCH  38  40
ENDBRANCH  37  38
ENDBRANCH  36  37
ENDBRANCH  35  36
ENDBRANCH   1  35
TORSDOF 22
ENDMDL
MODEL 3
REMARK VINA RESULT:      -8.9      3.744     11.798
REMARK SMILES CS(=O)(=O)c1ccc(/C=C(/C(=O)OCCOCCOC(=O)c2ccc(-c3c4nc(c(-c5ccc(S(=O)(=O)[O-])cc5)c5ccc([nH]5)c(-c5ccc(S(=O)(=O)[O-])cc5)c5nc(c(-c6ccc(S(=O)(=O)[O-])cc6)c6ccc3[nH]6)C=C5)C=C4)cc2)c2cccc(-c3ccc(S(C)(=O)=O)cc3)c2)cc1
REMARK SMILES IDX 16 1 15 2 14 3 13 4 11 5 12 6 10 7 9 8 8 9 5 10 6 11 99 12
REMARK SMILES IDX 7 13 98 14 2 15 1 16 3 17 4 18 82 19 83 20 97 21 84 22 86 23
REMARK SMILES IDX 85 24 87 25 88 26 96 27 89 28 95 29 90 30 91 31 92 32 93 33
REMARK SMILES IDX 94 34 17 35 18 36 19 37 20 38 21 39 22 40 23 41 81 42 24 43
REMARK SMILES IDX 80 44 25 45 26 46 27 47 74 48 28 49 79 50 73 51 75 52 29 53
REMARK SMILES IDX 78 54 72 55 71 56 30 58 60 59 41 60 59 61 42 62 45 63 58 64
REMARK SMILES IDX 76 65 43 66 44 67 57 69 77 70 46 71 31 72 32 73 40 74 33 75
REMARK SMILES IDX 39 76 34 77 35 78 36 79 37 80 38 81 61 82 62 83 70 84 63 85
REMARK SMILES IDX 69 86 64 87 65 88 66 89 67 90 68 91 47 92 48 93 56 94 49 95
REMARK SMILES IDX 55 96 50 97 51 98 52 99 53 100 54 101
REMARK H PARENT 75 57 45 68
REMARK Flexibility Score: inf
ROOT
ATOM      1  O   UNL A   1      33.057  35.869  30.415  1.00  0.00    -0.374 OA
ENDROOT
BRANCH   1   2
ATOM      2  C   UNL A   1      33.571  34.742  29.706  1.00  0.00     0.202 C 
BRANCH   2   3
ATOM      3  C   UNL A   1      34.446  34.981  28.470  1.00  0.00     0.261 C 
BRANCH   3   4
ATOM      4  O   UNL A   1      34.567  33.805  27.656  1.00  0.00    -0.460 OA
BRANCH   4   5
ATOM      5  C   UNL A   1      35.574  32.977  28.029  1.00  0.00     0.338 C 
ATOM      6  O   UNL A   1      36.693  33.329  28.381  1.00  0.00    -0.246 OA
BRANCH   5   7
ATOM      7  C   UNL A   1      35.132  31.549  28.120  1.00  0.00     0.067 C 
ATOM      8  C   UNL A   1      34.021  31.119  27.471  1.00  0.00     0.024 C 
BRANCH   8   9
ATOM      9  C   UNL A   1      33.605  29.713  27.201  1.00  0.00    -0.025 A 
ATOM     10  C   UNL A   1      32.516  27.248  26.360  1.00  0.00     0.067 A 
ATOM     11  C   UNL A   1      33.833  27.569  26.044  1.00  0.00     0.021 A 
ATOM     12  C   UNL A   1      31.771  28.098  27.179  1.00  0.00     0.021 A 
ATOM     13  C   UNL A   1      34.378  28.775  26.500  1.00  0.00     0.009 A 
ATOM     14  C   UNL A   1      32.316  29.321  27.597  1.00  0.00     0.009 A 
BRANCH  10  15
ATOM     15  S   UNL A   1      31.754  25.784  25.701  1.00  0.00     0.175 S 
ATOM     16  C   UNL A   1      31.100  26.235  24.113  1.00  0.00     0.163 C 
ATOM     17  O   UNL A   1      30.617  25.472  26.547  1.00  0.00    -0.224 OA
ATOM     18  O   UNL A   1      32.817  24.822  25.488  1.00  0.00    -0.224 OA
ENDBRANCH  10  15
ENDBRANCH   8   9
BRANCH   7  19
ATOM     19  C   UNL A   1      36.070  30.653  28.818  1.00  0.00    -0.010 A 
ATOM     20  C   UNL A   1      35.839  30.234  30.135  1.00  0.00     0.009 A 
ATOM     21  C   UNL A   1      37.178  30.163  28.132  1.00  0.00     0.017 A 
ATOM     22  C   UNL A   1      36.700  29.329  30.750  1.00  0.00     0.001 A 
ATOM     23  C   UNL A   1      38.016  29.201  28.709  1.00  0.00    -0.018 A 
ATOM     24  C   UNL A   1      37.778  28.807  30.036  1.00  0.00     0.009 A 
BRANCH  23  25
ATOM     25  C   UNL A   1      39.024  28.553  27.868  1.00  0.00    -0.018 A 
ATOM     26  C   UNL A   1      39.816  29.327  27.003  1.00  0.00     0.010 A 
ATOM     27  C   UNL A   1      39.312  27.185  28.011  1.00  0.00     0.010 A 
ATOM     28  C   UNL A   1      40.881  28.754  26.314  1.00  0.00     0.021 A 
ATOM     29  C   UNL A   1      40.376  26.602  27.327  1.00  0.00     0.021 A 
ATOM     30  C   UNL A   1      41.151  27.394  26.480  1.00  0.00     0.067 A 
BRANCH  30  31
ATOM     31  S   UNL A   1      42.519  26.688  25.606  1.00  0.00     0.175 S 
ATOM     32  C   UNL A   1      43.834  26.791  26.791  1.00  0.00     0.163 C 
ATOM     33  O   UNL A   1      42.203  25.290  25.390  1.00  0.00    -0.224 OA
ATOM     34  O   UNL A   1      42.850  27.567  24.502  1.00  0.00    -0.224 OA
ENDBRANCH  30  31
ENDBRANCH  23  25
ENDBRANCH   7  19
ENDBRANCH   5   7
ENDBRANCH   4   5
ENDBRANCH   3   4
ENDBRANCH   2   3
ENDBRANCH   1   2
BRANCH   1  35
ATOM     35  C   UNL A   1      33.672  36.220  31.649  1.00  0.00     0.202 C 
BRANCH  35  36
ATOM     36  C   UNL A   1      34.049  35.125  32.654  1.00  0.00     0.261 C 
BRANCH  36  37
ATOM     37  O   UNL A   1      35.455  34.862  32.715  1.00  0.00    -0.460 OA
BRANCH  37  38
ATOM     38  C   UNL A   1      35.783  33.742  33.407  1.00  0.00     0.338 C 
ATOM     39  O   UNL A   1      35.053  33.078  34.129  1.00  0.00    -0.246 OA
BRANCH  38  40
ATOM     40  C   UNL A   1      37.127  33.304  33.003  1.00  0.00     0.060 A 
ATOM     41  C   UNL A   1      38.186  33.537  33.890  1.00  0.00     0.016 A 
ATOM     42  C   UNL A   1      37.349  32.696  31.767  1.00  0.00     0.016 A 
ATOM     43  C   UNL A   1      39.482  33.172  33.538  1.00  0.00     0.010 A 
ATOM     44  C   UNL A   1      38.653  32.350  31.407  1.00  0.00     0.010 A 
ATOM     45  C   UNL A   1      39.725  32.604  32.283  1.00  0.00    -0.014 A 
BRANCH  45  46
ATOM     46  C   UNL A   1      41.116  32.379  31.832  1.00  0.00     0.031 A 
ATOM     47  C   UNL A   1      41.784  33.425  30.985  1.00  0.00     0.074 A 
ATOM     48  C   UNL A   1      41.772  31.258  32.177  1.00  0.00     0.049 A 
ATOM     49  N   UNL A   1      42.962  33.403  30.422  1.00  0.00    -0.248 NA
ATOM     50  C   UNL A   1      41.019  34.659  30.741  1.00  0.00     0.031 C 
ATOM     51  C   UNL A   1      41.243  30.201  33.040  1.00  0.00     0.029 A 
ATOM     52  N   UNL A   1      43.025  30.819  31.835  1.00  0.00    -0.354 N 
ATOM     53  C   UNL A   1      43.079  34.611  29.746  1.00  0.00     0.074 A 
ATOM     54  C   UNL A   1      41.839  35.331  29.947  1.00  0.00     0.031 C 
ATOM     55  C   UNL A   1      42.165  29.229  33.151  1.00  0.00     0.029 A 
ATOM     56  C   UNL A   1      43.325  29.573  32.332  1.00  0.00     0.049 A 
ATOM     57  H   UNL A   1      43.649  31.344  31.285  1.00  0.00     0.167 HD
ATOM     58  C   UNL A   1      44.126  35.077  29.024  1.00  0.00     0.031 A 
ATOM     59  C   UNL A   1      44.401  28.789  32.125  1.00  0.00     0.031 A 
ATOM     60  C   UNL A   1      45.344  34.342  28.812  1.00  0.00     0.049 A 
ATOM     61  C   UNL A   1      45.509  29.285  31.233  1.00  0.00     0.074 A 
ATOM     62  C   UNL A   1      46.470  34.730  28.108  1.00  0.00     0.029 A 
ATOM     63  N   UNL A   1      45.591  33.063  29.290  1.00  0.00    -0.354 N 
ATOM     64  N   UNL A   1      45.620  30.442  30.622  1.00  0.00    -0.248 NA
ATOM     65  C   UNL A   1      46.636  28.370  31.003  1.00  0.00     0.031 C 
ATOM     66  C   UNL A   1      47.369  33.657  28.101  1.00  0.00     0.029 A 
ATOM     67  C   UNL A   1      46.834  32.629  28.860  1.00  0.00     0.049 A 
ATOM     68  H   UNL A   1      44.973  32.541  29.850  1.00  0.00     0.167 HD
ATOM     69  C   UNL A   1      46.838  30.400  29.951  1.00  0.00     0.074 A 
ATOM     70  C   UNL A   1      47.435  29.114  30.249  1.00  0.00     0.031 C 
ATOM     71  C   UNL A   1      47.411  31.341  29.159  1.00  0.00     0.031 A 
BRANCH  58  72
ATOM     72  C   UNL A   1      43.975  36.428  28.375  1.00  0.00    -0.014 A 
ATOM     73  C   UNL A   1      43.371  36.571  27.112  1.00  0.00     0.010 A 
ATOM     74  C   UNL A   1      44.420  37.578  29.052  1.00  0.00     0.010 A 
ATOM     75  C   UNL A   1      43.255  37.832  26.521  1.00  0.00     0.020 A 
ATOM     76  C   UNL A   1      44.279  38.845  28.478  1.00  0.00     0.020 A 
ATOM     77  C   UNL A   1      43.713  38.961  27.208  1.00  0.00     0.054 A 
BRANCH  77  78
ATOM     78  S   UNL A   1      43.538  40.586  26.421  1.00  0.00     0.124 S 
ATOM     79  O   UNL A   1      42.157  40.543  25.944  1.00  0.00    -0.237 OA
ATOM     80  O   UNL A   1      43.792  41.505  27.528  1.00  0.00    -0.237 OA
ATOM     81  O   UNL A   1      44.557  40.577  25.375  1.00  0.00    -0.744 OA
ENDBRANCH  77  78
ENDBRANCH  58  72
BRANCH  59  82
ATOM     82  C   UNL A   1      44.468  27.440  32.751  1.00  0.00    -0.014 A 
ATOM     83  C   UNL A   1      44.853  27.292  34.094  1.00  0.00     0.010 A 
ATOM     84  C   UNL A   1      44.139  26.293  32.005  1.00  0.00     0.010 A 
ATOM     85  C   UNL A   1      44.915  26.024  34.678  1.00  0.00     0.020 A 
ATOM     86  C   UNL A   1      44.171  25.026  32.592  1.00  0.00     0.020 A 
ATOM     87  C   UNL A   1      44.567  24.898  33.924  1.00  0.00     0.054 A 
BRANCH  87  88
ATOM     88  S   UNL A   1      44.598  23.270  34.723  1.00  0.00     0.124 S 
ATOM     89  O   UNL A   1      43.205  23.100  35.122  1.00  0.00    -0.237 OA
ATOM     90  O   UNL A   1      45.059  22.401  33.643  1.00  0.00    -0.237 OA
ATOM     91  O   UNL A   1      45.548  23.446  35.819  1.00  0.00    -0.744 OA
ENDBRANCH  87  88
ENDBRANCH  59  82
BRANCH  71  92
ATOM     92  C   UNL A   1      48.761  31.027  28.568  1.00  0.00    -0.014 A 
ATOM     93  C   UNL A   1      49.946  31.334  29.258  1.00  0.00     0.010 A 
ATOM     94  C   UNL A   1      48.841  30.346  27.338  1.00  0.00     0.010 A 
ATOM     95  C   UNL A   1      51.188  30.989  28.719  1.00  0.00     0.020 A 
ATOM     96  C   UNL A   1      50.080  29.971  26.810  1.00  0.00     0.020 A 
ATOM     97  C   UNL A   1      51.246  30.303  27.501  1.00  0.00     0.054 A 
BRANCH  97  98
ATOM     98  S   UNL A   1      52.869  29.810  26.857  1.00  0.00     0.124 S 
ATOM     99  O   UNL A   1      52.510  29.134  25.612  1.00  0.00    -0.237 OA
ATOM    100  O   UNL A   1      53.553  31.092  26.701  1.00  0.00    -0.237 OA
ATOM    101  O   UNL A   1      53.409  28.944  27.902  1.00  0.00    -0.744 OA
ENDBRANCH  97  98
ENDBRANCH  71  92
ENDBRANCH  45  46
ENDBRANCH  38  40
ENDBRANCH  37  38
ENDBRANCH  36  37
ENDBRANCH  35  36
ENDBRANCH   1  35
TORSDOF 22
ENDMDL
