MODEL 1
REMARK VINA RESULT:     -10.4      0.000      0.000
REMARK SMILES Cc1cc(Br)cc2c1O[C@H](C(F)(F)F)C(C(=O)OCCOCCOC(=O)c1ccc(-c3c4nc(c(-c5ccc(S(=O)(=O)[O-])cc5)c5ccc([nH]5)c(-c5ccc(S(=O)(=O)[O-])cc5)c5nc(c(-c6ccc(S(=O)(=O)[O-])cc6)c6ccc3[nH]6)C=C5)C=C4)cc1)=C2
REMARK SMILES IDX 22 1 21 2 20 3 19 4 18 5 16 6 17 7 15 8 1 9 2 10 3 11 8 12
REMARK SMILES IDX 4 13 7 14 9 15 5 16 6 17 87 18 10 19 11 20 12 21 13 22 14 23
REMARK SMILES IDX 23 24 24 25 25 26 26 27 27 28 28 29 86 30 29 31 85 32 30 33
REMARK SMILES IDX 31 34 32 35 79 36 33 37 84 38 78 39 80 40 34 41 83 42 77 43
REMARK SMILES IDX 76 44 35 46 65 47 46 48 64 49 47 50 50 51 63 52 81 53 48 54
REMARK SMILES IDX 49 55 62 57 82 58 51 59 36 60 37 61 45 62 38 63 44 64 39 65
REMARK SMILES IDX 40 66 41 67 42 68 43 69 66 70 67 71 75 72 68 73 74 74 69 75
REMARK SMILES IDX 70 76 71 77 72 78 73 79 52 80 53 81 61 82 54 83 60 84 55 85
REMARK SMILES IDX 56 86 57 87 58 88 59 89
REMARK H PARENT 80 45 50 56
REMARK Flexibility Score: inf
ROOT
ATOM      1  C   UNL A   1      32.080  28.475  27.664  1.00  0.00     0.202 C 
ENDROOT
BRANCH   1   2
ATOM      2  O   UNL A   1      31.216  27.452  27.164  1.00  0.00    -0.374 OA
BRANCH   2   3
ATOM      3  C   UNL A   1      31.340  27.092  25.789  1.00  0.00     0.202 C 
BRANCH   3   4
ATOM      4  C   UNL A   1      30.237  26.203  25.208  1.00  0.00     0.261 C 
BRANCH   4   5
ATOM      5  O   UNL A   1      30.739  24.910  24.833  1.00  0.00    -0.460 OA
BRANCH   5   6
ATOM      6  C   UNL A   1      31.594  24.920  23.785  1.00  0.00     0.338 C 
ATOM      7  O   UNL A   1      31.665  25.763  22.903  1.00  0.00    -0.246 OA
BRANCH   6   8
ATOM      8  C   UNL A   1      32.558  23.812  23.912  1.00  0.00     0.087 C 
ATOM      9  C   UNL A   1      36.573  20.804  25.034  1.00  0.00     0.048 C 
ATOM     10  C   UNL A   1      35.112  20.607  24.736  1.00  0.00    -0.007 A 
ATOM     11  C   UNL A   1      34.553  19.331  24.923  1.00  0.00     0.023 A 
ATOM     12  C   UNL A   1      34.274  21.675  24.374  1.00  0.00     0.130 A 
ATOM     13  C   UNL A   1      33.190  19.123  24.723  1.00  0.00     0.019 A 
ATOM     14  C   UNL A   1      32.901  21.464  24.215  1.00  0.00     0.019 A 
ATOM     15  O   UNL A   1      34.861  22.896  24.188  1.00  0.00    -0.475 OA
ATOM     16  Br  UNL A   1      32.452  17.401  24.977  1.00  0.00    -0.051 Br
ATOM     17  C   UNL A   1      32.361  20.182  24.368  1.00  0.00     0.027 A 
ATOM     18  C   UNL A   1      32.019  22.588  23.965  1.00  0.00     0.027 C 
ATOM     19  C   UNL A   1      34.034  24.080  24.002  1.00  0.00     0.316 C 
BRANCH  19  20
ATOM     20  C   UNL A   1      34.394  25.083  25.109  1.00  0.00     0.430 C 
ATOM     21  F   UNL A   1      35.664  24.894  25.541  1.00  0.00    -0.167 F 
ATOM     22  F   UNL A   1      34.315  26.361  24.677  1.00  0.00    -0.167 F 
ATOM     23  F   UNL A   1      33.578  24.961  26.180  1.00  0.00    -0.167 F 
ENDBRANCH  19  20
ENDBRANCH   6   8
ENDBRANCH   5   6
ENDBRANCH   4   5
ENDBRANCH   3   4
ENDBRANCH   2   3
ENDBRANCH   1   2
BRANCH   1  24
ATOM     24  C   UNL A   1      32.146  29.790  26.877  1.00  0.00     0.261 C 
BRANCH  24  25
ATOM     25  O   UNL A   1      33.496  30.165  26.550  1.00  0.00    -0.460 OA
BRANCH  25  26
ATOM     26  C   UNL A   1      34.140  30.864  27.515  1.00  0.00     0.338 C 
ATOM     27  O   UNL A   1      33.711  31.824  28.142  1.00  0.00    -0.246 OA
BRANCH  26  28
ATOM     28  C   UNL A   1      35.402  30.192  27.869  1.00  0.00     0.060 A 
ATOM     29  C   UNL A   1      35.552  29.742  29.186  1.00  0.00     0.016 A 
ATOM     30  C   UNL A   1      36.453  30.082  26.955  1.00  0.00     0.016 A 
ATOM     31  C   UNL A   1      36.770  29.219  29.609  1.00  0.00     0.010 A 
ATOM     32  C   UNL A   1      37.680  29.570  27.387  1.00  0.00     0.010 A 
ATOM     33  C   UNL A   1      37.855  29.169  28.724  1.00  0.00    -0.014 A 
BRANCH  33  34
ATOM     34  C   UNL A   1      39.204  28.843  29.245  1.00  0.00     0.031 A 
ATOM     35  C   UNL A   1      39.860  29.792  30.211  1.00  0.00     0.074 A 
ATOM     36  C   UNL A   1      39.812  27.692  28.906  1.00  0.00     0.049 A 
ATOM     37  N   UNL A   1      41.028  29.703  30.791  1.00  0.00    -0.248 NA
ATOM     38  C   UNL A   1      39.096  30.996  30.574  1.00  0.00     0.031 C 
ATOM     39  C   UNL A   1      39.250  26.666  28.028  1.00  0.00     0.029 A 
ATOM     40  N   UNL A   1      41.036  27.191  29.270  1.00  0.00    -0.354 N 
ATOM     41  C   UNL A   1      41.138  30.833  31.592  1.00  0.00     0.074 A 
ATOM     42  C   UNL A   1      39.935  31.611  31.396  1.00  0.00     0.031 C 
ATOM     43  C   UNL A   1      40.127  25.652  27.927  1.00  0.00     0.029 A 
ATOM     44  C   UNL A   1      41.324  25.972  28.704  1.00  0.00     0.049 A 
ATOM     45  H   UNL A   1      41.651  27.661  29.879  1.00  0.00     0.167 HD
ATOM     46  C   UNL A   1      42.147  31.188  32.424  1.00  0.00     0.031 A 
ATOM     47  C   UNL A   1      42.431  25.207  28.794  1.00  0.00     0.031 A 
ATOM     48  C   UNL A   1      43.351  30.423  32.601  1.00  0.00     0.049 A 
ATOM     49  C   UNL A   1      43.582  25.673  29.645  1.00  0.00     0.074 A 
ATOM     50  C   UNL A   1      44.435  30.703  33.416  1.00  0.00     0.029 A 
ATOM     51  N   UNL A   1      43.636  29.231  31.953  1.00  0.00    -0.354 N 
ATOM     52  N   UNL A   1      43.671  26.745  30.396  1.00  0.00    -0.248 NA
ATOM     53  C   UNL A   1      44.782  24.824  29.661  1.00  0.00     0.031 C 
ATOM     54  C   UNL A   1      45.396  29.708  33.220  1.00  0.00     0.029 A 
ATOM     55  C   UNL A   1      44.888  28.777  32.328  1.00  0.00     0.049 A 
ATOM     56  H   UNL A   1      43.035  28.775  31.320  1.00  0.00     0.167 HD
ATOM     57  C   UNL A   1      44.928  26.689  30.989  1.00  0.00     0.074 A 
ATOM     58  C   UNL A   1      45.558  25.472  30.522  1.00  0.00     0.031 C 
ATOM     59  C   UNL A   1      45.507  27.566  31.847  1.00  0.00     0.031 A 
BRANCH  46  60
ATOM     60  C   UNL A   1      41.998  32.474  33.188  1.00  0.00    -0.014 A 
ATOM     61  C   UNL A   1      42.436  33.695  32.643  1.00  0.00     0.010 A 
ATOM     62  C   UNL A   1      41.372  32.471  34.448  1.00  0.00     0.010 A 
ATOM     63  C   UNL A   1      42.275  34.886  33.356  1.00  0.00     0.020 A 
ATOM     64  C   UNL A   1      41.187  33.663  35.154  1.00  0.00     0.020 A 
ATOM     65  C   UNL A   1      41.652  34.862  34.609  1.00  0.00     0.054 A 
BRANCH  65  66
ATOM     66  S   UNL A   1      41.432  36.428  35.498  1.00  0.00     0.124 S 
ATOM     67  O   UNL A   1      42.079  37.379  34.598  1.00  0.00    -0.237 OA
ATOM     68  O   UNL A   1      39.979  36.541  35.592  1.00  0.00    -0.237 OA
ATOM     69  O   UNL A   1      42.119  36.206  36.768  1.00  0.00    -0.744 OA
ENDBRANCH  65  66
ENDBRANCH  46  60
BRANCH  47  70
ATOM     70  C   UNL A   1      42.504  23.921  28.049  1.00  0.00    -0.014 A 
ATOM     71  C   UNL A   1      43.085  23.868  26.771  1.00  0.00     0.010 A 
ATOM     72  C   UNL A   1      42.004  22.738  28.624  1.00  0.00     0.010 A 
ATOM     73  C   UNL A   1      43.162  22.655  26.079  1.00  0.00     0.020 A 
ATOM     74  C   UNL A   1      42.100  21.519  27.945  1.00  0.00     0.020 A 
ATOM     75  C   UNL A   1      42.674  21.487  26.674  1.00  0.00     0.054 A 
BRANCH  75  76
ATOM     76  S   UNL A   1      42.843  19.917  25.780  1.00  0.00     0.124 S 
ATOM     77  O   UNL A   1      43.770  20.273  24.711  1.00  0.00    -0.237 OA
ATOM     78  O   UNL A   1      43.375  19.027  26.810  1.00  0.00    -0.237 OA
ATOM     79  O   UNL A   1      41.478  19.617  25.352  1.00  0.00    -0.744 OA
ENDBRANCH  75  76
ENDBRANCH  47  70
BRANCH  59  80
ATOM     80  C   UNL A   1      46.888  27.244  32.352  1.00  0.00    -0.014 A 
ATOM     81  C   UNL A   1      48.031  27.740  31.704  1.00  0.00     0.010 A 
ATOM     82  C   UNL A   1      47.039  26.502  33.539  1.00  0.00     0.010 A 
ATOM     83  C   UNL A   1      49.304  27.486  32.222  1.00  0.00     0.020 A 
ATOM     84  C   UNL A   1      48.308  26.267  34.075  1.00  0.00     0.020 A 
ATOM     85  C   UNL A   1      49.433  26.754  33.407  1.00  0.00     0.054 A 
BRANCH  85  86
ATOM     86  S   UNL A   1      51.094  26.490  34.088  1.00  0.00     0.124 S 
ATOM     87  O   UNL A   1      51.946  27.039  33.038  1.00  0.00    -0.237 OA
ATOM     88  O   UNL A   1      51.055  27.257  35.331  1.00  0.00    -0.237 OA
ATOM     89  O   UNL A   1      51.173  25.041  34.261  1.00  0.00    -0.744 OA
ENDBRANCH  85  86
ENDBRANCH  59  80
ENDBRANCH  33  34
ENDBRANCH  26  28
ENDBRANCH  25  26
ENDBRANCH  24  25
ENDBRANCH   1  24
TORSDOF 18
ENDMDL
MODEL 2
REMARK VINA RESULT:     -10.4      4.790      8.558
REMARK SMILES Cc1cc(Br)cc2c1O[C@H](C(F)(F)F)C(C(=O)OCCOCCOC(=O)c1ccc(-c3c4nc(c(-c5ccc(S(=O)(=O)[O-])cc5)c5ccc([nH]5)c(-c5ccc(S(=O)(=O)[O-])cc5)c5nc(c(-c6ccc(S(=O)(=O)[O-])cc6)c6ccc3[nH]6)C=C5)C=C4)cc1)=C2
REMARK SMILES IDX 22 1 21 2 20 3 19 4 18 5 16 6 17 7 15 8 1 9 2 10 3 11 8 12
REMARK SMILES IDX 4 13 7 14 9 15 5 16 6 17 87 18 10 19 11 20 12 21 13 22 14 23
REMARK SMILES IDX 23 24 24 25 25 26 26 27 27 28 28 29 86 30 29 31 85 32 30 33
REMARK SMILES IDX 31 34 32 35 79 36 33 37 84 38 78 39 80 40 34 41 83 42 77 43
REMARK SMILES IDX 76 44 35 46 65 47 46 48 64 49 47 50 50 51 63 52 81 53 48 54
REMARK SMILES IDX 49 55 62 57 82 58 51 59 36 60 37 61 45 62 38 63 44 64 39 65
REMARK SMILES IDX 40 66 41 67 42 68 43 69 66 70 67 71 75 72 68 73 74 74 69 75
REMARK SMILES IDX 70 76 71 77 72 78 73 79 52 80 53 81 61 82 54 83 60 84 55 85
REMARK SMILES IDX 56 86 57 87 58 88 59 89
REMARK H PARENT 80 45 50 56
REMARK Flexibility Score: inf
ROOT
ATOM      1  C   UNL A   1      38.994  22.023  26.081  1.00  0.00     0.202 C 
ENDROOT
BRANCH   1   2
ATOM      2  O   UNL A   1      37.588  22.267  26.015  1.00  0.00    -0.374 OA
BRANCH   2   3
ATOM      3  C   UNL A   1      36.772  21.278  25.388  1.00  0.00     0.202 C 
BRANCH   3   4
ATOM      4  C   UNL A   1      35.337  21.687  25.044  1.00  0.00     0.261 C 
BRANCH   4   5
ATOM      5  O   UNL A   1      35.186  23.114  24.999  1.00  0.00    -0.460 OA
BRANCH   5   6
ATOM      6  C   UNL A   1      35.073  23.630  23.754  1.00  0.00     0.338 C 
ATOM      7  O   UNL A   1      35.667  23.265  22.750  1.00  0.00    -0.246 OA
BRANCH   6   8
ATOM      8  C   UNL A   1      34.004  24.645  23.726  1.00  0.00     0.087 C 
ATOM      9  C   UNL A   1      29.527  27.163  23.494  1.00  0.00     0.048 C 
ATOM     10  C   UNL A   1      30.876  27.390  24.119  1.00  0.00    -0.007 A 
ATOM     11  C   UNL A   1      31.031  28.464  25.013  1.00  0.00     0.023 A 
ATOM     12  C   UNL A   1      31.952  26.510  23.914  1.00  0.00     0.130 A 
ATOM     13  C   UNL A   1      32.245  28.669  25.665  1.00  0.00     0.019 A 
ATOM     14  C   UNL A   1      33.154  26.702  24.604  1.00  0.00     0.019 A 
ATOM     15  O   UNL A   1      31.764  25.489  23.025  1.00  0.00    -0.475 OA
ATOM     16  Br  UNL A   1      32.439  30.117  26.864  1.00  0.00    -0.051 Br
ATOM     17  C   UNL A   1      33.308  27.794  25.464  1.00  0.00     0.027 A 
ATOM     18  C   UNL A   1      34.219  25.724  24.488  1.00  0.00     0.027 C 
ATOM     19  C   UNL A   1      32.761  24.433  22.908  1.00  0.00     0.316 C 
BRANCH  19  20
ATOM     20  C   UNL A   1      32.067  23.096  23.208  1.00  0.00     0.430 C 
ATOM     21  F   UNL A   1      32.184  22.772  24.519  1.00  0.00    -0.167 F 
ATOM     22  F   UNL A   1      30.744  23.140  22.933  1.00  0.00    -0.167 F 
ATOM     23  F   UNL A   1      32.601  22.083  22.490  1.00  0.00    -0.167 F 
ENDBRANCH  19  20
ENDBRANCH   6   8
ENDBRANCH   5   6
ENDBRANCH   4   5
ENDBRANCH   3   4
ENDBRANCH   2   3
ENDBRANCH   1   2
BRANCH   1  24
ATOM     24  C   UNL A   1      39.480  20.604  25.760  1.00  0.00     0.261 C 
BRANCH  24  25
ATOM     25  O   UNL A   1      40.384  20.096  26.757  1.00  0.00    -0.460 OA
BRANCH  25  26
ATOM     26  C   UNL A   1      41.633  19.828  26.307  1.00  0.00     0.338 C 
ATOM     27  O   UNL A   1      42.009  18.815  25.731  1.00  0.00    -0.246 OA
BRANCH  26  28
ATOM     28  C   UNL A   1      42.483  21.024  26.431  1.00  0.00     0.060 A 
ATOM     29  C   UNL A   1      42.721  21.521  27.719  1.00  0.00     0.016 A 
ATOM     30  C   UNL A   1      42.965  21.700  25.308  1.00  0.00     0.016 A 
ATOM     31  C   UNL A   1      43.406  22.721  27.887  1.00  0.00     0.010 A 
ATOM     32  C   UNL A   1      43.640  22.912  25.479  1.00  0.00     0.010 A 
ATOM     33  C   UNL A   1      43.833  23.445  26.767  1.00  0.00    -0.014 A 
BRANCH  33  34
ATOM     34  C   UNL A   1      44.339  24.827  26.944  1.00  0.00     0.031 A 
ATOM     35  C   UNL A   1      43.376  25.907  27.356  1.00  0.00     0.074 A 
ATOM     36  C   UNL A   1      45.647  25.104  26.795  1.00  0.00     0.049 A 
ATOM     37  N   UNL A   1      43.602  27.177  27.570  1.00  0.00    -0.248 NA
ATOM     38  C   UNL A   1      41.976  25.501  27.557  1.00  0.00     0.031 C 
ATOM     39  C   UNL A   1      46.685  24.130  26.460  1.00  0.00     0.029 A 
ATOM     40  N   UNL A   1      46.325  26.291  26.917  1.00  0.00    -0.354 N 
ATOM     41  C   UNL A   1      42.377  27.721  27.938  1.00  0.00     0.074 A 
ATOM     42  C   UNL A   1      41.404  26.653  27.882  1.00  0.00     0.031 C 
ATOM     43  C   UNL A   1      47.872  24.759  26.409  1.00  0.00     0.029 A 
ATOM     44  C   UNL A   1      47.673  26.183  26.675  1.00  0.00     0.049 A 
ATOM     45  H   UNL A   1      45.886  27.140  27.156  1.00  0.00     0.167 HD
ATOM     46  C   UNL A   1      42.089  28.995  28.298  1.00  0.00     0.031 A 
ATOM     47  C   UNL A   1      48.636  27.128  26.659  1.00  0.00     0.031 A 
ATOM     48  C   UNL A   1      43.055  30.060  28.334  1.00  0.00     0.049 A 
ATOM     49  C   UNL A   1      48.272  28.557  26.963  1.00  0.00     0.074 A 
ATOM     50  C   UNL A   1      42.858  31.386  28.679  1.00  0.00     0.029 A 
ATOM     51  N   UNL A   1      44.395  29.925  28.009  1.00  0.00    -0.354 N 
ATOM     52  N   UNL A   1      47.108  29.056  27.308  1.00  0.00    -0.248 NA
ATOM     53  C   UNL A   1      49.352  29.551  26.877  1.00  0.00     0.031 C 
ATOM     54  C   UNL A   1      44.069  32.064  28.511  1.00  0.00     0.029 A 
ATOM     55  C   UNL A   1      45.033  31.148  28.119  1.00  0.00     0.049 A 
ATOM     56  H   UNL A   1      44.830  29.083  27.741  1.00  0.00     0.167 HD
ATOM     57  C   UNL A   1      47.321  30.417  27.499  1.00  0.00     0.074 A 
ATOM     58  C   UNL A   1      48.726  30.661  27.246  1.00  0.00     0.031 C 
ATOM     59  C   UNL A   1      46.432  31.378  27.855  1.00  0.00     0.031 A 
BRANCH  46  60
ATOM     60  C   UNL A   1      40.664  29.309  28.661  1.00  0.00    -0.014 A 
ATOM     61  C   UNL A   1      39.658  29.349  27.679  1.00  0.00     0.010 A 
ATOM     62  C   UNL A   1      40.316  29.524  30.007  1.00  0.00     0.010 A 
ATOM     63  C   UNL A   1      38.335  29.624  28.033  1.00  0.00     0.020 A 
ATOM     64  C   UNL A   1      38.990  29.776  30.369  1.00  0.00     0.020 A 
ATOM     65  C   UNL A   1      38.009  29.837  29.376  1.00  0.00     0.054 A 
BRANCH  65  66
ATOM     66  S   UNL A   1      36.277  30.165  29.807  1.00  0.00     0.124 S 
ATOM     67  O   UNL A   1      36.107  29.349  31.007  1.00  0.00    -0.237 OA
ATOM     68  O   UNL A   1      36.269  31.609  30.022  1.00  0.00    -0.237 OA
ATOM     69  O   UNL A   1      35.536  29.708  28.634  1.00  0.00    -0.744 OA
ENDBRANCH  65  66
ENDBRANCH  46  60
BRANCH  47  70
ATOM     70  C   UNL A   1      50.038  26.750  26.335  1.00  0.00    -0.014 A 
ATOM     71  C   UNL A   1      50.920  26.343  27.350  1.00  0.00     0.010 A 
ATOM     72  C   UNL A   1      50.492  26.780  25.004  1.00  0.00     0.010 A 
ATOM     73  C   UNL A   1      52.234  25.977  27.040  1.00  0.00     0.020 A 
ATOM     74  C   UNL A   1      51.798  26.392  24.686  1.00  0.00     0.020 A 
ATOM     75  C   UNL A   1      52.662  26.000  25.709  1.00  0.00     0.054 A 
BRANCH  75  76
ATOM     76  S   UNL A   1      54.352  25.460  25.327  1.00  0.00     0.124 S 
ATOM     77  O   UNL A   1      54.525  25.942  23.961  1.00  0.00    -0.237 OA
ATOM     78  O   UNL A   1      55.139  26.148  26.347  1.00  0.00    -0.237 OA
ATOM     79  O   UNL A   1      54.289  24.006  25.475  1.00  0.00    -0.744 OA
ENDBRANCH  75  76
ENDBRANCH  47  70
BRANCH  59  80
ATOM     80  C   UNL A   1      46.946  32.785  28.008  1.00  0.00    -0.014 A 
ATOM     81  C   UNL A   1      46.909  33.691  26.935  1.00  0.00     0.010 A 
ATOM     82  C   UNL A   1      47.395  33.229  29.266  1.00  0.00     0.010 A 
ATOM     83  C   UNL A   1      47.330  35.012  27.111  1.00  0.00     0.020 A 
ATOM     84  C   UNL A   1      47.793  34.555  29.453  1.00  0.00     0.020 A 
ATOM     85  C   UNL A   1      47.765  35.436  28.370  1.00  0.00     0.054 A 
BRANCH  85  86
ATOM     86  S   UNL A   1      48.249  37.172  28.583  1.00  0.00     0.124 S 
ATOM     87  O   UNL A   1      49.108  37.394  27.424  1.00  0.00    -0.237 OA
ATOM     88  O   UNL A   1      46.965  37.868  28.556  1.00  0.00    -0.237 OA
ATOM     89  O   UNL A   1      48.931  37.187  29.876  1.00  0.00    -0.744 OA
ENDBRANCH  85  86
ENDBRANCH  59  80
ENDBRANCH  33  34
ENDBRANCH  26  28
ENDBRANCH  25  26
ENDBRANCH  24  25
ENDBRANCH   1  24
TORSDOF 18
ENDMDL
MODEL 3
REMARK VINA RESULT:     -10.4      4.217      5.353
REMARK SMILES Cc1cc(Br)cc2c1O[C@H](C(F)(F)F)C(C(=O)OCCOCCOC(=O)c1ccc(-c3c4nc(c(-c5ccc(S(=O)(=O)[O-])cc5)c5ccc([nH]5)c(-c5ccc(S(=O)(=O)[O-])cc5)c5nc(c(-c6ccc(S(=O)(=O)[O-])cc6)c6ccc3[nH]6)C=C5)C=C4)cc1)=C2
REMARK SMILES IDX 22 1 21 2 20 3 19 4 18 5 16 6 17 7 15 8 1 9 2 10 3 11 8 12
REMARK SMILES IDX 4 13 7 14 9 15 5 16 6 17 87 18 10 19 11 20 12 21 13 22 14 23
REMARK SMILES IDX 23 24 24 25 25 26 26 27 27 28 28 29 86 30 29 31 85 32 30 33
REMARK SMILES IDX 31 34 32 35 79 36 33 37 84 38 78 39 80 40 34 41 83 42 77 43
REMARK SMILES IDX 76 44 35 46 65 47 46 48 64 49 47 50 50 51 63 52 81 53 48 54
REMARK SMILES IDX 49 55 62 57 82 58 51 59 36 60 37 61 45 62 38 63 44 64 39 65
REMARK SMILES IDX 40 66 41 67 42 68 43 69 66 70 67 71 75 72 68 73 74 74 69 75
REMARK SMILES IDX 70 76 71 77 72 78 73 79 52 80 53 81 61 82 54 83 60 84 55 85
REMARK SMILES IDX 56 86 57 87 58 88 59 89
REMARK H PARENT 80 45 50 56
REMARK Flexibility Score: inf
ROOT
ATOM      1  C   UNL A   1      34.165  32.428  28.746  1.00  0.00     0.202 C 
ENDROOT
BRANCH   1   2
ATOM      2  O   UNL A   1      34.671  31.800  27.567  1.00  0.00    -0.374 OA
BRANCH   2   3
ATOM      3  C   UNL A   1      34.335  30.430  27.348  1.00  0.00     0.202 C 
BRANCH   3   4
ATOM      4  C   UNL A   1      32.958  30.148  26.740  1.00  0.00     0.261 C 
BRANCH   4   5
ATOM      5  O   UNL A   1      32.977  28.984  25.898  1.00  0.00    -0.460 OA
BRANCH   5   6
ATOM      6  C   UNL A   1      32.239  27.947  26.355  1.00  0.00     0.338 C 
ATOM      7  O   UNL A   1      31.350  27.989  27.192  1.00  0.00    -0.246 OA
BRANCH   6   8
ATOM      8  C   UNL A   1      32.564  26.726  25.594  1.00  0.00     0.087 C 
ATOM      9  C   UNL A   1      33.164  23.117  21.982  1.00  0.00     0.048 C 
ATOM     10  C   UNL A   1      33.868  23.522  23.248  1.00  0.00    -0.007 A 
ATOM     11  C   UNL A   1      35.104  22.925  23.551  1.00  0.00     0.023 A 
ATOM     12  C   UNL A   1      33.379  24.542  24.081  1.00  0.00     0.130 A 
ATOM     13  C   UNL A   1      35.821  23.321  24.678  1.00  0.00     0.019 A 
ATOM     14  C   UNL A   1      34.125  24.960  25.188  1.00  0.00     0.019 A 
ATOM     15  O   UNL A   1      32.166  25.085  23.759  1.00  0.00    -0.475 OA
ATOM     16  Br  UNL A   1      37.481  22.509  25.073  1.00  0.00    -0.051 Br
ATOM     17  C   UNL A   1      35.337  24.334  25.499  1.00  0.00     0.027 A 
ATOM     18  C   UNL A   1      33.682  26.095  25.973  1.00  0.00     0.027 C 
ATOM     19  C   UNL A   1      31.690  26.270  24.460  1.00  0.00     0.316 C 
BRANCH  19  20
ATOM     20  C   UNL A   1      31.445  27.368  23.414  1.00  0.00     0.430 C 
ATOM     21  F   UNL A   1      30.583  28.302  23.883  1.00  0.00    -0.167 F 
ATOM     22  F   UNL A   1      32.584  28.017  23.086  1.00  0.00    -0.167 F 
ATOM     23  F   UNL A   1      30.917  26.864  22.275  1.00  0.00    -0.167 F 
ENDBRANCH  19  20
ENDBRANCH   6   8
ENDBRANCH   5   6
ENDBRANCH   4   5
ENDBRANCH   3   4
ENDBRANCH   2   3
ENDBRANCH   1   2
BRANCH   1  24
ATOM     24  C   UNL A   1      35.038  32.372  30.006  1.00  0.00     0.261 C 
BRANCH  24  25
ATOM     25  O   UNL A   1      36.345  31.832  29.744  1.00  0.00    -0.460 OA
BRANCH  25  26
ATOM     26  C   UNL A   1      36.756  30.887  30.623  1.00  0.00     0.338 C 
ATOM     27  O   UNL A   1      36.193  30.545  31.655  1.00  0.00    -0.246 OA
BRANCH  26  28
ATOM     28  C   UNL A   1      37.912  30.157  30.077  1.00  0.00     0.060 A 
ATOM     29  C   UNL A   1      38.827  29.614  30.988  1.00  0.00     0.016 A 
ATOM     30  C   UNL A   1      38.146  30.080  28.702  1.00  0.00     0.016 A 
ATOM     31  C   UNL A   1      40.003  29.029  30.528  1.00  0.00     0.010 A 
ATOM     32  C   UNL A   1      39.335  29.504  28.244  1.00  0.00     0.010 A 
ATOM     33  C   UNL A   1      40.284  29.008  29.156  1.00  0.00    -0.014 A 
BRANCH  33  34
ATOM     34  C   UNL A   1      41.636  28.608  28.697  1.00  0.00     0.031 A 
ATOM     35  C   UNL A   1      42.737  29.634  28.695  1.00  0.00     0.074 A 
ATOM     36  C   UNL A   1      41.893  27.337  28.341  1.00  0.00     0.049 A 
ATOM     37  N   UNL A   1      43.988  29.503  28.339  1.00  0.00    -0.248 NA
ATOM     38  C   UNL A   1      42.380  30.985  29.160  1.00  0.00     0.031 C 
ATOM     39  C   UNL A   1      40.925  26.241  28.361  1.00  0.00     0.029 A 
ATOM     40  N   UNL A   1      43.054  26.754  27.899  1.00  0.00    -0.354 N 
ATOM     41  C   UNL A   1      44.571  30.748  28.542  1.00  0.00     0.074 A 
ATOM     42  C   UNL A   1      43.529  31.631  29.018  1.00  0.00     0.031 C 
ATOM     43  C   UNL A   1      41.535  25.114  27.956  1.00  0.00     0.029 A 
ATOM     44  C   UNL A   1      42.925  25.415  27.616  1.00  0.00     0.049 A 
ATOM     45  H   UNL A   1      43.900  27.247  27.795  1.00  0.00     0.167 HD
ATOM     46  C   UNL A   1      45.860  31.120  28.359  1.00  0.00     0.031 A 
ATOM     47  C   UNL A   1      43.823  24.535  27.128  1.00  0.00     0.031 A 
ATOM     48  C   UNL A   1      46.889  30.245  27.867  1.00  0.00     0.049 A 
ATOM     49  C   UNL A   1      45.225  24.999  26.835  1.00  0.00     0.074 A 
ATOM     50  C   UNL A   1      48.224  30.532  27.640  1.00  0.00     0.029 A 
ATOM     51  N   UNL A   1      46.701  28.916  27.521  1.00  0.00    -0.354 N 
ATOM     52  N   UNL A   1      45.761  26.181  27.032  1.00  0.00    -0.248 NA
ATOM     53  C   UNL A   1      46.145  24.010  26.254  1.00  0.00     0.031 C 
ATOM     54  C   UNL A   1      48.830  29.391  27.106  1.00  0.00     0.029 A 
ATOM     55  C   UNL A   1      47.887  28.376  27.057  1.00  0.00     0.049 A 
ATOM     56  H   UNL A   1      45.849  28.428  27.596  1.00  0.00     0.167 HD
ATOM     57  C   UNL A   1      47.084  26.071  26.617  1.00  0.00     0.074 A 
ATOM     58  C   UNL A   1      47.272  24.706  26.173  1.00  0.00     0.031 C 
ATOM     59  C   UNL A   1      48.057  27.016  26.609  1.00  0.00     0.031 A 
BRANCH  46  60
ATOM     60  C   UNL A   1      46.223  32.546  28.671  1.00  0.00    -0.014 A 
ATOM     61  C   UNL A   1      46.687  32.913  29.947  1.00  0.00     0.010 A 
ATOM     62  C   UNL A   1      46.143  33.524  27.663  1.00  0.00     0.010 A 
ATOM     63  C   UNL A   1      47.039  34.238  30.217  1.00  0.00     0.020 A 
ATOM     64  C   UNL A   1      46.517  34.846  27.922  1.00  0.00     0.020 A 
ATOM     65  C   UNL A   1      46.950  35.197  29.202  1.00  0.00     0.054 A 
BRANCH  65  66
ATOM     66  S   UNL A   1      47.441  36.903  29.577  1.00  0.00     0.124 S 
ATOM     67  O   UNL A   1      47.752  36.822  31.001  1.00  0.00    -0.237 OA
ATOM     68  O   UNL A   1      48.586  37.108  28.694  1.00  0.00    -0.237 OA
ATOM     69  O   UNL A   1      46.253  37.687  29.244  1.00  0.00    -0.744 OA
ENDBRANCH  65  66
ENDBRANCH  46  60
BRANCH  47  70
ATOM     70  C   UNL A   1      43.418  23.125  26.881  1.00  0.00    -0.014 A 
ATOM     71  C   UNL A   1      43.588  22.545  25.612  1.00  0.00     0.010 A 
ATOM     72  C   UNL A   1      42.874  22.350  27.921  1.00  0.00     0.010 A 
ATOM     73  C   UNL A   1      43.217  21.216  25.387  1.00  0.00     0.020 A 
ATOM     74  C   UNL A   1      42.523  21.013  27.706  1.00  0.00     0.020 A 
ATOM     75  C   UNL A   1      42.692  20.457  26.437  1.00  0.00     0.054 A 
BRANCH  75  76
ATOM     76  S   UNL A   1      42.278  18.716  26.134  1.00  0.00     0.124 S 
ATOM     77  O   UNL A   1      43.246  18.348  25.106  1.00  0.00    -0.237 OA
ATOM     78  O   UNL A   1      42.485  18.112  27.447  1.00  0.00    -0.237 OA
ATOM     79  O   UNL A   1      40.885  18.768  25.692  1.00  0.00    -0.744 OA
ENDBRANCH  75  76
ENDBRANCH  47  70
BRANCH  59  80
ATOM     80  C   UNL A   1      49.422  26.612  26.117  1.00  0.00    -0.014 A 
ATOM     81  C   UNL A   1      49.828  26.887  24.801  1.00  0.00     0.010 A 
ATOM     82  C   UNL A   1      50.338  26.024  27.009  1.00  0.00     0.010 A 
ATOM     83  C   UNL A   1      51.120  26.564  24.378  1.00  0.00     0.020 A 
ATOM     84  C   UNL A   1      51.638  25.722  26.599  1.00  0.00     0.020 A 
ATOM     85  C   UNL A   1      52.018  25.987  25.281  1.00  0.00     0.054 A 
BRANCH  85  86
ATOM     86  S   UNL A   1      53.708  25.633  24.722  1.00  0.00     0.124 S 
ATOM     87  O   UNL A   1      53.701  24.176  24.632  1.00  0.00    -0.237 OA
ATOM     88  O   UNL A   1      53.777  26.341  23.446  1.00  0.00    -0.237 OA
ATOM     89  O   UNL A   1      54.548  26.188  25.781  1.00  0.00    -0.744 OA
ENDBRANCH  85  86
ENDBRANCH  59  80
ENDBRANCH  33  34
ENDBRANCH  26  28
ENDBRANCH  25  26
ENDBRANCH  24  25
ENDBRANCH   1  24
TORSDOF 18
ENDMDL
