MODEL 1
REMARK VINA RESULT:     -11.1      0.000      0.000
REMARK SMILES COc1cc(OC)cc(-c2cc3nc(C)c(CCC(=O)OCCOCCOC(=O)c4ccc(-c5c6nc(c(-c7ccc(S(=O)(=O)[O-])cc7)c7ccc([nH]7)c(-c7ccc(S(=O)(=O)[O-])cc7)c7nc(c(-c8ccc(S(=O)(=O)[O-])cc8)c8ccc5[nH]8)C=C7)C=C6)cc4)c(C)n3n2)c1
REMARK SMILES IDX 23 1 22 2 21 3 19 4 20 5 18 6 17 7 16 8 10 9 11 10 93 11
REMARK SMILES IDX 12 12 92 13 13 14 90 15 14 16 91 17 15 18 9 19 3 20 4 21
REMARK SMILES IDX 94 22 5 23 8 24 2 25 1 26 6 27 7 28 24 29 25 30 26 31 27 32
REMARK SMILES IDX 28 33 29 34 30 35 31 36 89 37 32 38 88 39 33 40 34 41 35 42
REMARK SMILES IDX 82 43 36 44 87 45 81 46 83 47 37 48 86 49 80 50 79 51 38 53
REMARK SMILES IDX 68 54 49 55 67 56 50 57 53 58 66 59 84 60 51 61 52 62 65 64
REMARK SMILES IDX 85 65 54 66 39 67 40 68 48 69 41 70 47 71 42 72 43 73 44 74
REMARK SMILES IDX 45 75 46 76 69 77 70 78 78 79 71 80 77 81 72 82 73 83 74 84
REMARK SMILES IDX 75 85 76 86 55 87 56 88 64 89 57 90 63 91 58 92 59 93 60 94
REMARK SMILES IDX 61 95 62 96
REMARK H PARENT 83 52 53 63
REMARK Flexibility Score: inf
ROOT
ATOM      1  C   UNL A   1      34.357  34.397  27.845  1.00  0.00     0.202 C 
ENDROOT
BRANCH   1   2
ATOM      2  C   UNL A   1      34.022  33.008  28.444  1.00  0.00     0.261 C 
BRANCH   2   3
ATOM      3  O   UNL A   1      33.214  32.152  27.589  1.00  0.00    -0.463 OA
BRANCH   3   4
ATOM      4  C   UNL A   1      33.538  30.853  27.415  1.00  0.00     0.306 C 
ATOM      5  O   UNL A   1      34.649  30.386  27.627  1.00  0.00    -0.252 OA
BRANCH   4   6
ATOM      6  C   UNL A   1      32.365  30.024  26.889  1.00  0.00     0.127 C 
BRANCH   6   7
ATOM      7  C   UNL A   1      32.149  29.905  25.356  1.00  0.00     0.051 C 
BRANCH   7   8
ATOM      8  C   UNL A   1      31.827  28.517  24.812  1.00  0.00    -0.005 A 
ATOM      9  C   UNL A   1      32.375  24.089  24.269  1.00  0.00     0.095 A 
ATOM     10  C   UNL A   1      31.220  24.568  23.593  1.00  0.00     0.080 A 
ATOM     11  N   UNL A   1      32.972  25.080  24.920  1.00  0.00    -0.166 NA
ATOM     12  C   UNL A   1      31.140  25.921  23.890  1.00  0.00     0.156 A 
ATOM     13  N   UNL A   1      32.289  26.186  24.595  1.00  0.00    -0.219 N 
ATOM     14  N   UNL A   1      30.288  26.938  23.563  1.00  0.00    -0.234 NA
ATOM     15  C   UNL A   1      32.664  27.470  24.943  1.00  0.00     0.046 A 
ATOM     16  C   UNL A   1      30.597  28.148  23.971  1.00  0.00     0.045 A 
ATOM     17  C   UNL A   1      34.063  27.510  25.414  1.00  0.00     0.067 C 
ATOM     18  C   UNL A   1      29.672  29.241  23.470  1.00  0.00     0.067 C 
BRANCH   9  19
ATOM     19  C   UNL A   1      33.051  22.800  24.321  1.00  0.00     0.009 A 
ATOM     20  C   UNL A   1      32.876  20.381  24.612  1.00  0.00     0.123 A 
ATOM     21  C   UNL A   1      34.214  20.342  24.988  1.00  0.00     0.092 A 
ATOM     22  C   UNL A   1      32.286  21.611  24.310  1.00  0.00     0.057 A 
ATOM     23  C   UNL A   1      34.947  21.525  25.057  1.00  0.00     0.123 A 
ATOM     24  C   UNL A   1      34.396  22.747  24.673  1.00  0.00     0.057 A 
BRANCH  20  25
ATOM     25  O   UNL A   1      32.213  19.186  24.685  1.00  0.00    -0.497 OA
ATOM     26  C   UNL A   1      32.147  18.453  23.469  1.00  0.00     0.278 C 
ENDBRANCH  20  25
BRANCH  23  27
ATOM     27  O   UNL A   1      36.211  21.476  25.580  1.00  0.00    -0.497 OA
ATOM     28  C   UNL A   1      36.910  20.364  25.002  1.00  0.00     0.278 C 
ENDBRANCH  23  27
ENDBRANCH   9  19
ENDBRANCH   7   8
ENDBRANCH   6   7
ENDBRANCH   4   6
ENDBRANCH   3   4
ENDBRANCH   2   3
ENDBRANCH   1   2
BRANCH   1  29
ATOM     29  O   UNL A   1      33.692  35.493  28.468  1.00  0.00    -0.374 OA
BRANCH  29  30
ATOM     30  C   UNL A   1      33.288  35.323  29.821  1.00  0.00     0.202 C 
BRANCH  30  31
ATOM     31  C   UNL A   1      33.011  36.609  30.594  1.00  0.00     0.261 C 
BRANCH  31  32
ATOM     32  O   UNL A   1      33.250  36.468  31.996  1.00  0.00    -0.460 OA
BRANCH  32  33
ATOM     33  C   UNL A   1      32.889  35.290  32.567  1.00  0.00     0.338 C 
ATOM     34  O   UNL A   1      31.780  34.960  32.912  1.00  0.00    -0.246 OA
BRANCH  33  35
ATOM     35  C   UNL A   1      34.134  34.524  32.833  1.00  0.00     0.060 A 
ATOM     36  C   UNL A   1      35.302  35.239  33.104  1.00  0.00     0.016 A 
ATOM     37  C   UNL A   1      34.169  33.129  32.662  1.00  0.00     0.016 A 
ATOM     38  C   UNL A   1      36.521  34.585  33.016  1.00  0.00     0.010 A 
ATOM     39  C   UNL A   1      35.379  32.478  32.582  1.00  0.00     0.010 A 
ATOM     40  C   UNL A   1      36.545  33.231  32.665  1.00  0.00    -0.014 A 
BRANCH  40  41
ATOM     41  C   UNL A   1      37.819  32.581  32.417  1.00  0.00     0.031 A 
ATOM     42  C   UNL A   1      38.617  32.351  33.642  1.00  0.00     0.074 A 
ATOM     43  C   UNL A   1      38.156  32.084  31.210  1.00  0.00     0.049 A 
ATOM     44  N   UNL A   1      39.669  32.988  34.036  1.00  0.00    -0.248 NA
ATOM     45  C   UNL A   1      38.061  31.426  34.644  1.00  0.00     0.031 C 
ATOM     46  C   UNL A   1      37.313  31.945  30.018  1.00  0.00     0.029 A 
ATOM     47  N   UNL A   1      39.317  31.492  30.821  1.00  0.00    -0.354 N 
ATOM     48  C   UNL A   1      40.058  32.358  35.214  1.00  0.00     0.074 A 
ATOM     49  C   UNL A   1      38.912  31.604  35.652  1.00  0.00     0.031 C 
ATOM     50  C   UNL A   1      37.912  31.108  29.137  1.00  0.00     0.029 A 
ATOM     51  C   UNL A   1      39.238  30.773  29.632  1.00  0.00     0.049 A 
ATOM     52  H   UNL A   1      40.150  31.567  31.341  1.00  0.00     0.167 HD
ATOM     53  C   UNL A   1      41.371  32.253  35.569  1.00  0.00     0.031 A 
ATOM     54  C   UNL A   1      40.177  29.928  29.128  1.00  0.00     0.031 A 
ATOM     55  C   UNL A   1      42.191  33.167  34.813  1.00  0.00     0.049 A 
ATOM     56  C   UNL A   1      41.458  30.253  29.805  1.00  0.00     0.074 A 
ATOM     57  C   UNL A   1      42.225  34.536  34.633  1.00  0.00     0.029 A 
ATOM     58  N   UNL A   1      42.898  32.635  33.761  1.00  0.00    -0.354 N 
ATOM     59  N   UNL A   1      42.083  31.389  29.658  1.00  0.00    -0.248 NA
ATOM     60  C   UNL A   1      41.785  29.508  31.009  1.00  0.00     0.031 C 
ATOM     61  C   UNL A   1      42.524  34.720  33.249  1.00  0.00     0.029 A 
ATOM     62  C   UNL A   1      42.745  33.463  32.682  1.00  0.00     0.049 A 
ATOM     63  H   UNL A   1      43.424  31.803  33.780  1.00  0.00     0.167 HD
ATOM     64  C   UNL A   1      42.543  31.707  30.929  1.00  0.00     0.074 A 
ATOM     65  C   UNL A   1      42.390  30.475  31.704  1.00  0.00     0.031 C 
ATOM     66  C   UNL A   1      42.745  33.005  31.307  1.00  0.00     0.031 A 
BRANCH  53  67
ATOM     67  C   UNL A   1      41.937  31.008  36.230  1.00  0.00    -0.014 A 
ATOM     68  C   UNL A   1      43.081  31.129  37.047  1.00  0.00     0.010 A 
ATOM     69  C   UNL A   1      41.563  29.696  35.873  1.00  0.00     0.010 A 
ATOM     70  C   UNL A   1      43.853  30.009  37.394  1.00  0.00     0.020 A 
ATOM     71  C   UNL A   1      42.298  28.572  36.246  1.00  0.00     0.020 A 
ATOM     72  C   UNL A   1      43.462  28.738  36.974  1.00  0.00     0.054 A 
BRANCH  72  73
ATOM     73  S   UNL A   1      44.503  27.306  37.333  1.00  0.00     0.124 S 
ATOM     74  O   UNL A   1      45.821  27.920  37.459  1.00  0.00    -0.237 OA
ATOM     75  O   UNL A   1      43.914  26.801  38.569  1.00  0.00    -0.237 OA
ATOM     76  O   UNL A   1      44.318  26.449  36.163  1.00  0.00    -0.744 OA
ENDBRANCH  72  73
ENDBRANCH  53  67
BRANCH  54  77
ATOM     77  C   UNL A   1      39.980  28.649  28.391  1.00  0.00    -0.014 A 
ATOM     78  C   UNL A   1      40.734  28.337  27.241  1.00  0.00     0.010 A 
ATOM     79  C   UNL A   1      39.248  27.602  28.988  1.00  0.00     0.010 A 
ATOM     80  C   UNL A   1      40.786  27.023  26.735  1.00  0.00     0.020 A 
ATOM     81  C   UNL A   1      39.292  26.293  28.489  1.00  0.00     0.020 A 
ATOM     82  C   UNL A   1      40.074  26.004  27.372  1.00  0.00     0.054 A 
BRANCH  82  83
ATOM     83  S   UNL A   1      40.249  24.285  26.798  1.00  0.00     0.124 S 
ATOM     84  O   UNL A   1      41.414  24.367  25.922  1.00  0.00    -0.237 OA
ATOM     85  O   UNL A   1      40.446  23.549  28.043  1.00  0.00    -0.237 OA
ATOM     86  O   UNL A   1      38.982  24.018  26.118  1.00  0.00    -0.744 OA
ENDBRANCH  82  83
ENDBRANCH  54  77
BRANCH  66  87
ATOM     87  C   UNL A   1      42.802  34.079  30.246  1.00  0.00    -0.014 A 
ATOM     88  C   UNL A   1      41.680  34.675  29.637  1.00  0.00     0.010 A 
ATOM     89  C   UNL A   1      44.074  34.611  29.972  1.00  0.00     0.010 A 
ATOM     90  C   UNL A   1      41.838  35.768  28.765  1.00  0.00     0.020 A 
ATOM     91  C   UNL A   1      44.236  35.706  29.124  1.00  0.00     0.020 A 
ATOM     92  C   UNL A   1      43.119  36.276  28.517  1.00  0.00     0.054 A 
BRANCH  92  93
ATOM     93  S   UNL A   1      43.327  37.716  27.430  1.00  0.00     0.124 S 
ATOM     94  O   UNL A   1      43.256  38.834  28.367  1.00  0.00    -0.237 OA
ATOM     95  O   UNL A   1      44.636  37.483  26.827  1.00  0.00    -0.237 OA
ATOM     96  O   UNL A   1      42.201  37.618  26.501  1.00  0.00    -0.744 OA
ENDBRANCH  92  93
ENDBRANCH  66  87
ENDBRANCH  40  41
ENDBRANCH  33  35
ENDBRANCH  32  33
ENDBRANCH  31  32
ENDBRANCH  30  31
ENDBRANCH  29  30
ENDBRANCH   1  29
TORSDOF 22
ENDMDL
MODEL 2
REMARK VINA RESULT:     -10.2      2.282      3.377
REMARK SMILES COc1cc(OC)cc(-c2cc3nc(C)c(CCC(=O)OCCOCCOC(=O)c4ccc(-c5c6nc(c(-c7ccc(S(=O)(=O)[O-])cc7)c7ccc([nH]7)c(-c7ccc(S(=O)(=O)[O-])cc7)c7nc(c(-c8ccc(S(=O)(=O)[O-])cc8)c8ccc5[nH]8)C=C7)C=C6)cc4)c(C)n3n2)c1
REMARK SMILES IDX 23 1 22 2 21 3 19 4 20 5 18 6 17 7 16 8 10 9 11 10 93 11
REMARK SMILES IDX 12 12 92 13 13 14 90 15 14 16 91 17 15 18 9 19 3 20 4 21
REMARK SMILES IDX 94 22 5 23 8 24 2 25 1 26 6 27 7 28 24 29 25 30 26 31 27 32
REMARK SMILES IDX 28 33 29 34 30 35 31 36 89 37 32 38 88 39 33 40 34 41 35 42
REMARK SMILES IDX 82 43 36 44 87 45 81 46 83 47 37 48 86 49 80 50 79 51 38 53
REMARK SMILES IDX 68 54 49 55 67 56 50 57 53 58 66 59 84 60 51 61 52 62 65 64
REMARK SMILES IDX 85 65 54 66 39 67 40 68 48 69 41 70 47 71 42 72 43 73 44 74
REMARK SMILES IDX 45 75 46 76 69 77 70 78 78 79 71 80 77 81 72 82 73 83 74 84
REMARK SMILES IDX 75 85 76 86 55 87 56 88 64 89 57 90 63 91 58 92 59 93 60 94
REMARK SMILES IDX 61 95 62 96
REMARK H PARENT 83 52 53 63
REMARK Flexibility Score: inf
ROOT
ATOM      1  C   UNL A   1      33.191  36.833  30.462  1.00  0.00     0.202 C 
ENDROOT
BRANCH   1   2
ATOM      2  C   UNL A   1      32.853  35.755  29.403  1.00  0.00     0.261 C 
BRANCH   2   3
ATOM      3  O   UNL A   1      34.004  35.195  28.711  1.00  0.00    -0.463 OA
BRANCH   3   4
ATOM      4  C   UNL A   1      34.698  34.170  29.250  1.00  0.00     0.306 C 
ATOM      5  O   UNL A   1      35.715  34.303  29.918  1.00  0.00    -0.252 OA
BRANCH   4   6
ATOM      6  C   UNL A   1      34.089  32.808  28.909  1.00  0.00     0.127 C 
BRANCH   6   7
ATOM      7  C   UNL A   1      34.809  31.893  27.883  1.00  0.00     0.051 C 
BRANCH   7   8
ATOM      8  C   UNL A   1      33.986  30.763  27.273  1.00  0.00    -0.005 A 
ATOM      9  C   UNL A   1      33.147  26.563  25.910  1.00  0.00     0.095 A 
ATOM     10  C   UNL A   1      32.020  27.411  25.740  1.00  0.00     0.080 A 
ATOM     11  N   UNL A   1      34.148  27.233  26.468  1.00  0.00    -0.166 NA
ATOM     12  C   UNL A   1      32.394  28.646  26.249  1.00  0.00     0.156 A 
ATOM     13  N   UNL A   1      33.723  28.501  26.562  1.00  0.00    -0.219 N 
ATOM     14  N   UNL A   1      31.789  29.865  26.384  1.00  0.00    -0.234 NA
ATOM     15  C   UNL A   1      34.512  29.564  26.956  1.00  0.00     0.046 A 
ATOM     16  C   UNL A   1      32.514  30.859  26.845  1.00  0.00     0.045 A 
ATOM     17  C   UNL A   1      35.945  29.207  26.933  1.00  0.00     0.067 C 
ATOM     18  C   UNL A   1      31.812  32.203  26.854  1.00  0.00     0.067 C 
BRANCH   9  19
ATOM     19  C   UNL A   1      33.438  25.186  25.537  1.00  0.00     0.009 A 
ATOM     20  C   UNL A   1      34.476  23.646  23.949  1.00  0.00     0.123 A 
ATOM     21  C   UNL A   1      33.623  22.640  24.387  1.00  0.00     0.092 A 
ATOM     22  C   UNL A   1      34.364  24.925  24.500  1.00  0.00     0.057 A 
ATOM     23  C   UNL A   1      32.671  22.918  25.366  1.00  0.00     0.123 A 
ATOM     24  C   UNL A   1      32.607  24.164  25.986  1.00  0.00     0.057 A 
BRANCH  20  25
ATOM     25  O   UNL A   1      35.296  23.306  22.907  1.00  0.00    -0.497 OA
ATOM     26  C   UNL A   1      36.577  22.814  23.278  1.00  0.00     0.278 C 
ENDBRANCH  20  25
BRANCH  23  27
ATOM     27  O   UNL A   1      31.744  21.955  25.661  1.00  0.00    -0.497 OA
ATOM     28  C   UNL A   1      32.167  20.710  25.084  1.00  0.00     0.278 C 
ENDBRANCH  23  27
ENDBRANCH   9  19
ENDBRANCH   7   8
ENDBRANCH   6   7
ENDBRANCH   4   6
ENDBRANCH   3   4
ENDBRANCH   2   3
ENDBRANCH   1   2
BRANCH   1  29
ATOM     29  O   UNL A   1      32.312  36.865  31.584  1.00  0.00    -0.374 OA
BRANCH  29  30
ATOM     30  C   UNL A   1      32.620  36.006  32.675  1.00  0.00     0.202 C 
BRANCH  30  31
ATOM     31  C   UNL A   1      34.091  35.623  32.817  1.00  0.00     0.261 C 
BRANCH  31  32
ATOM     32  O   UNL A   1      34.279  34.210  32.932  1.00  0.00    -0.460 OA
BRANCH  32  33
ATOM     33  C   UNL A   1      35.207  33.783  33.826  1.00  0.00     0.338 C 
ATOM     34  O   UNL A   1      35.215  33.983  35.017  1.00  0.00    -0.246 OA
BRANCH  33  35
ATOM     35  C   UNL A   1      36.305  33.142  33.058  1.00  0.00     0.060 A 
ATOM     36  C   UNL A   1      36.091  31.858  32.551  1.00  0.00     0.016 A 
ATOM     37  C   UNL A   1      37.574  33.743  32.979  1.00  0.00     0.016 A 
ATOM     38  C   UNL A   1      37.184  31.112  32.141  1.00  0.00     0.010 A 
ATOM     39  C   UNL A   1      38.658  33.005  32.564  1.00  0.00     0.010 A 
ATOM     40  C   UNL A   1      38.465  31.666  32.239  1.00  0.00    -0.014 A 
BRANCH  40  41
ATOM     41  C   UNL A   1      39.624  30.838  31.961  1.00  0.00     0.031 A 
ATOM     42  C   UNL A   1      40.413  30.495  33.165  1.00  0.00     0.074 A 
ATOM     43  C   UNL A   1      39.852  30.295  30.747  1.00  0.00     0.049 A 
ATOM     44  N   UNL A   1      41.557  30.972  33.527  1.00  0.00    -0.248 NA
ATOM     45  C   UNL A   1      39.756  29.663  34.187  1.00  0.00     0.031 C 
ATOM     46  C   UNL A   1      38.966  30.279  29.579  1.00  0.00     0.029 A 
ATOM     47  N   UNL A   1      40.903  29.540  30.331  1.00  0.00    -0.354 N 
ATOM     48  C   UNL A   1      41.882  30.294  34.698  1.00  0.00     0.074 A 
ATOM     49  C   UNL A   1      40.651  29.716  35.171  1.00  0.00     0.031 C 
ATOM     50  C   UNL A   1      39.413  29.362  28.688  1.00  0.00     0.029 A 
ATOM     51  C   UNL A   1      40.688  28.838  29.148  1.00  0.00     0.049 A 
ATOM     52  H   UNL A   1      41.753  29.493  30.828  1.00  0.00     0.167 HD
ATOM     53  C   UNL A   1      43.175  30.000  35.019  1.00  0.00     0.031 A 
ATOM     54  C   UNL A   1      41.481  27.864  28.624  1.00  0.00     0.031 A 
ATOM     55  C   UNL A   1      44.098  30.783  34.236  1.00  0.00     0.049 A 
ATOM     56  C   UNL A   1      42.813  28.001  29.265  1.00  0.00     0.074 A 
ATOM     57  C   UNL A   1      44.326  32.133  34.048  1.00  0.00     0.029 A 
ATOM     58  N   UNL A   1      44.692  30.152  33.168  1.00  0.00    -0.354 N 
ATOM     59  N   UNL A   1      43.592  29.033  29.096  1.00  0.00    -0.248 NA
ATOM     60  C   UNL A   1      43.061  27.217  30.464  1.00  0.00     0.031 C 
ATOM     61  C   UNL A   1      44.612  32.269  32.656  1.00  0.00     0.029 A 
ATOM     62  C   UNL A   1      44.631  30.992  32.089  1.00  0.00     0.049 A 
ATOM     63  H   UNL A   1      45.091  29.253  33.177  1.00  0.00     0.167 HD
ATOM     64  C   UNL A   1      44.129  29.282  30.352  1.00  0.00     0.074 A 
ATOM     65  C   UNL A   1      43.818  28.087  31.137  1.00  0.00     0.031 C 
ATOM     66  C   UNL A   1      44.527  30.537  30.718  1.00  0.00     0.031 A 
BRANCH  53  67
ATOM     67  C   UNL A   1      43.571  28.686  35.671  1.00  0.00    -0.014 A 
ATOM     68  C   UNL A   1      44.661  28.671  36.567  1.00  0.00     0.010 A 
ATOM     69  C   UNL A   1      43.100  27.428  35.242  1.00  0.00     0.010 A 
ATOM     70  C   UNL A   1      45.296  27.471  36.924  1.00  0.00     0.020 A 
ATOM     71  C   UNL A   1      43.695  26.227  35.623  1.00  0.00     0.020 A 
ATOM     72  C   UNL A   1      44.816  26.257  36.433  1.00  0.00     0.054 A 
BRANCH  72  73
ATOM     73  S   UNL A   1      45.687  24.720  36.809  1.00  0.00     0.124 S 
ATOM     74  O   UNL A   1      45.207  23.838  35.750  1.00  0.00    -0.237 OA
ATOM     75  O   UNL A   1      47.085  25.128  36.714  1.00  0.00    -0.237 OA
ATOM     76  O   UNL A   1      45.229  24.390  38.157  1.00  0.00    -0.744 OA
ENDBRANCH  72  73
ENDBRANCH  53  67
BRANCH  54  77
ATOM     77  C   UNL A   1      41.079  26.627  27.899  1.00  0.00    -0.014 A 
ATOM     78  C   UNL A   1      41.948  25.991  26.989  1.00  0.00     0.010 A 
ATOM     79  C   UNL A   1      39.944  25.905  28.322  1.00  0.00     0.010 A 
ATOM     80  C   UNL A   1      41.712  24.673  26.552  1.00  0.00     0.020 A 
ATOM     81  C   UNL A   1      39.701  24.593  27.890  1.00  0.00     0.020 A 
ATOM     82  C   UNL A   1      40.595  23.976  27.018  1.00  0.00     0.054 A 
BRANCH  82  83
ATOM     83  S   UNL A   1      40.363  22.229  26.558  1.00  0.00     0.124 S 
ATOM     84  O   UNL A   1      41.462  22.006  25.622  1.00  0.00    -0.237 OA
ATOM     85  O   UNL A   1      40.477  21.542  27.841  1.00  0.00    -0.237 OA
ATOM     86  O   UNL A   1      39.029  22.203  25.961  1.00  0.00    -0.744 OA
ENDBRANCH  82  83
ENDBRANCH  54  77
BRANCH  66  87
ATOM     87  C   UNL A   1      44.711  31.590  29.650  1.00  0.00    -0.014 A 
ATOM     88  C   UNL A   1      45.909  32.287  29.398  1.00  0.00     0.010 A 
ATOM     89  C   UNL A   1      43.638  31.761  28.758  1.00  0.00     0.010 A 
ATOM     90  C   UNL A   1      46.017  33.143  28.286  1.00  0.00     0.020 A 
ATOM     91  C   UNL A   1      43.743  32.593  27.644  1.00  0.00     0.020 A 
ATOM     92  C   UNL A   1      44.930  33.287  27.416  1.00  0.00     0.054 A 
BRANCH  92  93
ATOM     93  S   UNL A   1      45.077  34.353  25.953  1.00  0.00     0.124 S 
ATOM     94  O   UNL A   1      46.339  33.913  25.365  1.00  0.00    -0.237 OA
ATOM     95  O   UNL A   1      43.877  34.023  25.188  1.00  0.00    -0.237 OA
ATOM     96  O   UNL A   1      45.094  35.707  26.508  1.00  0.00    -0.744 OA
ENDBRANCH  92  93
ENDBRANCH  66  87
ENDBRANCH  40  41
ENDBRANCH  33  35
ENDBRANCH  32  33
ENDBRANCH  31  32
ENDBRANCH  30  31
ENDBRANCH  29  30
ENDBRANCH   1  29
TORSDOF 22
ENDMDL
MODEL 3
REMARK VINA RESULT:     -10.0      5.633     11.727
REMARK SMILES COc1cc(OC)cc(-c2cc3nc(C)c(CCC(=O)OCCOCCOC(=O)c4ccc(-c5c6nc(c(-c7ccc(S(=O)(=O)[O-])cc7)c7ccc([nH]7)c(-c7ccc(S(=O)(=O)[O-])cc7)c7nc(c(-c8ccc(S(=O)(=O)[O-])cc8)c8ccc5[nH]8)C=C7)C=C6)cc4)c(C)n3n2)c1
REMARK SMILES IDX 23 1 22 2 21 3 19 4 20 5 18 6 17 7 16 8 10 9 11 10 93 11
REMARK SMILES IDX 12 12 92 13 13 14 90 15 14 16 91 17 15 18 9 19 3 20 4 21
REMARK SMILES IDX 94 22 5 23 8 24 2 25 1 26 6 27 7 28 24 29 25 30 26 31 27 32
REMARK SMILES IDX 28 33 29 34 30 35 31 36 89 37 32 38 88 39 33 40 34 41 35 42
REMARK SMILES IDX 82 43 36 44 87 45 81 46 83 47 37 48 86 49 80 50 79 51 38 53
REMARK SMILES IDX 68 54 49 55 67 56 50 57 53 58 66 59 84 60 51 61 52 62 65 64
REMARK SMILES IDX 85 65 54 66 39 67 40 68 48 69 41 70 47 71 42 72 43 73 44 74
REMARK SMILES IDX 45 75 46 76 69 77 70 78 78 79 71 80 77 81 72 82 73 83 74 84
REMARK SMILES IDX 75 85 76 86 55 87 56 88 64 89 57 90 63 91 58 92 59 93 60 94
REMARK SMILES IDX 61 95 62 96
REMARK H PARENT 83 52 53 63
REMARK Flexibility Score: inf
ROOT
ATOM      1  C   UNL A   1      41.761  27.934  36.409  1.00  0.00     0.202 C 
ENDROOT
BRANCH   1   2
ATOM      2  C   UNL A   1      42.020  27.663  34.907  1.00  0.00     0.261 C 
BRANCH   2   3
ATOM      3  O   UNL A   1      40.826  27.401  34.118  1.00  0.00    -0.463 OA
BRANCH   3   4
ATOM      4  C   UNL A   1      40.429  28.271  33.165  1.00  0.00     0.306 C 
ATOM      5  O   UNL A   1      39.259  28.508  32.893  1.00  0.00    -0.252 OA
BRANCH   4   6
ATOM      6  C   UNL A   1      41.608  28.915  32.432  1.00  0.00     0.127 C 
BRANCH   6   7
ATOM      7  C   UNL A   1      41.902  30.423  32.651  1.00  0.00     0.051 C 
BRANCH   7   8
ATOM      8  C   UNL A   1      40.806  31.248  33.317  1.00  0.00    -0.005 A 
ATOM      9  C   UNL A   1      36.892  33.445  33.563  1.00  0.00     0.095 A 
ATOM     10  C   UNL A   1      37.571  33.428  34.812  1.00  0.00     0.080 A 
ATOM     11  N   UNL A   1      37.583  32.768  32.654  1.00  0.00    -0.166 NA
ATOM     12  C   UNL A   1      38.719  32.677  34.609  1.00  0.00     0.156 A 
ATOM     13  N   UNL A   1      38.723  32.411  33.262  1.00  0.00    -0.219 N 
ATOM     14  N   UNL A   1      39.775  32.288  35.386  1.00  0.00    -0.234 NA
ATOM     15  C   UNL A   1      39.794  31.810  32.628  1.00  0.00     0.046 A 
ATOM     16  C   UNL A   1      40.755  31.637  34.802  1.00  0.00     0.045 A 
ATOM     17  C   UNL A   1      39.676  31.917  31.160  1.00  0.00     0.067 C 
ATOM     18  C   UNL A   1      41.944  31.345  35.698  1.00  0.00     0.067 C 
BRANCH   9  19
ATOM     19  C   UNL A   1      35.682  34.097  33.082  1.00  0.00     0.009 A 
ATOM     20  C   UNL A   1      34.134  34.483  31.231  1.00  0.00     0.123 A 
ATOM     21  C   UNL A   1      33.727  35.667  31.836  1.00  0.00     0.092 A 
ATOM     22  C   UNL A   1      35.132  33.715  31.836  1.00  0.00     0.057 A 
ATOM     23  C   UNL A   1      34.316  36.070  33.033  1.00  0.00     0.123 A 
ATOM     24  C   UNL A   1      35.248  35.271  33.691  1.00  0.00     0.057 A 
BRANCH  20  25
ATOM     25  O   UNL A   1      33.581  34.231  30.005  1.00  0.00    -0.497 OA
ATOM     26  C   UNL A   1      33.883  35.185  28.996  1.00  0.00     0.278 C 
ENDBRANCH  20  25
BRANCH  23  27
ATOM     27  O   UNL A   1      34.010  37.312  33.520  1.00  0.00    -0.497 OA
ATOM     28  C   UNL A   1      33.663  38.169  32.422  1.00  0.00     0.278 C 
ENDBRANCH  23  27
ENDBRANCH   9  19
ENDBRANCH   7   8
ENDBRANCH   6   7
ENDBRANCH   4   6
ENDBRANCH   3   4
ENDBRANCH   2   3
ENDBRANCH   1   2
BRANCH   1  29
ATOM     29  O   UNL A   1      41.213  26.833  37.130  1.00  0.00    -0.374 OA
BRANCH  29  30
ATOM     30  C   UNL A   1      42.015  25.662  37.235  1.00  0.00     0.202 C 
BRANCH  30  31
ATOM     31  C   UNL A   1      43.310  25.820  38.028  1.00  0.00     0.261 C 
BRANCH  31  32
ATOM     32  O   UNL A   1      44.456  25.948  37.183  1.00  0.00    -0.460 OA
BRANCH  32  33
ATOM     33  C   UNL A   1      44.915  24.816  36.592  1.00  0.00     0.338 C 
ATOM     34  O   UNL A   1      45.094  23.743  37.116  1.00  0.00    -0.246 OA
BRANCH  33  35
ATOM     35  C   UNL A   1      45.305  25.166  35.201  1.00  0.00     0.060 A 
ATOM     36  C   UNL A   1      45.216  26.504  34.810  1.00  0.00     0.016 A 
ATOM     37  C   UNL A   1      45.603  24.161  34.264  1.00  0.00     0.016 A 
ATOM     38  C   UNL A   1      45.238  26.806  33.458  1.00  0.00     0.010 A 
ATOM     39  C   UNL A   1      45.633  24.463  32.922  1.00  0.00     0.010 A 
ATOM     40  C   UNL A   1      45.355  25.767  32.527  1.00  0.00    -0.014 A 
BRANCH  40  41
ATOM     41  C   UNL A   1      45.221  26.059  31.112  1.00  0.00     0.031 A 
ATOM     42  C   UNL A   1      46.150  27.105  30.630  1.00  0.00     0.074 A 
ATOM     43  C   UNL A   1      44.445  25.322  30.290  1.00  0.00     0.049 A 
ATOM     44  N   UNL A   1      45.877  28.329  30.323  1.00  0.00    -0.248 NA
ATOM     45  C   UNL A   1      47.590  26.803  30.683  1.00  0.00     0.031 C 
ATOM     46  C   UNL A   1      43.755  24.062  30.582  1.00  0.00     0.029 A 
ATOM     47  N   UNL A   1      44.192  25.498  28.966  1.00  0.00    -0.354 N 
ATOM     48  C   UNL A   1      47.082  28.874  29.888  1.00  0.00     0.074 A 
ATOM     49  C   UNL A   1      48.109  27.988  30.370  1.00  0.00     0.031 C 
ATOM     50  C   UNL A   1      43.369  23.480  29.421  1.00  0.00     0.029 A 
ATOM     51  C   UNL A   1      43.648  24.391  28.322  1.00  0.00     0.049 A 
ATOM     52  H   UNL A   1      44.378  26.345  28.498  1.00  0.00     0.167 HD
ATOM     53  C   UNL A   1      47.125  29.827  28.913  1.00  0.00     0.031 A 
ATOM     54  C   UNL A   1      43.491  24.225  26.981  1.00  0.00     0.031 A 
ATOM     55  C   UNL A   1      45.828  30.424  28.708  1.00  0.00     0.049 A 
ATOM     56  C   UNL A   1      43.565  25.575  26.367  1.00  0.00     0.074 A 
ATOM     57  C   UNL A   1      44.925  31.105  29.501  1.00  0.00     0.029 A 
ATOM     58  N   UNL A   1      45.112  29.984  27.620  1.00  0.00    -0.354 N 
ATOM     59  N   UNL A   1      42.681  26.511  26.578  1.00  0.00    -0.248 NA
ATOM     60  C   UNL A   1      44.868  26.032  25.913  1.00  0.00     0.031 C 
ATOM     61  C   UNL A   1      43.642  30.625  29.096  1.00  0.00     0.029 A 
ATOM     62  C   UNL A   1      43.825  29.750  28.023  1.00  0.00     0.049 A 
ATOM     63  H   UNL A   1      45.463  29.858  26.709  1.00  0.00     0.167 HD
ATOM     64  C   UNL A   1      43.424  27.678  26.702  1.00  0.00     0.074 A 
ATOM     65  C   UNL A   1      44.758  27.329  26.212  1.00  0.00     0.031 C 
ATOM     66  C   UNL A   1      42.971  28.733  27.443  1.00  0.00     0.031 A 
BRANCH  53  67
ATOM     67  C   UNL A   1      48.210  29.853  27.851  1.00  0.00    -0.014 A 
ATOM     68  C   UNL A   1      48.333  28.755  26.973  1.00  0.00     0.010 A 
ATOM     69  C   UNL A   1      49.277  30.775  27.848  1.00  0.00     0.010 A 
ATOM     70  C   UNL A   1      49.499  28.548  26.220  1.00  0.00     0.020 A 
ATOM     71  C   UNL A   1      50.424  30.602  27.074  1.00  0.00     0.020 A 
ATOM     72  C   UNL A   1      50.545  29.469  26.292  1.00  0.00     0.054 A 
BRANCH  72  73
ATOM     73  S   UNL A   1      52.087  29.158  25.402  1.00  0.00     0.124 S 
ATOM     74  O   UNL A   1      51.768  29.659  24.070  1.00  0.00    -0.237 OA
ATOM     75  O   UNL A   1      53.047  29.946  26.168  1.00  0.00    -0.237 OA
ATOM     76  O   UNL A   1      52.253  27.709  25.506  1.00  0.00    -0.744 OA
ENDBRANCH  72  73
ENDBRANCH  53  67
BRANCH  54  77
ATOM     77  C   UNL A   1      43.645  22.983  26.172  1.00  0.00    -0.014 A 
ATOM     78  C   UNL A   1      44.811  22.735  25.419  1.00  0.00     0.010 A 
ATOM     79  C   UNL A   1      42.761  21.903  26.373  1.00  0.00     0.010 A 
ATOM     80  C   UNL A   1      45.099  21.449  24.922  1.00  0.00     0.020 A 
ATOM     81  C   UNL A   1      43.040  20.621  25.879  1.00  0.00     0.020 A 
ATOM     82  C   UNL A   1      44.217  20.394  25.168  1.00  0.00     0.054 A 
BRANCH  82  83
ATOM     83  S   UNL A   1      44.655  18.708  24.641  1.00  0.00     0.124 S 
ATOM     84  O   UNL A   1      44.982  18.897  23.230  1.00  0.00    -0.237 OA
ATOM     85  O   UNL A   1      45.781  18.381  25.511  1.00  0.00    -0.237 OA
ATOM     86  O   UNL A   1      43.437  17.939  24.893  1.00  0.00    -0.744 OA
ENDBRANCH  82  83
ENDBRANCH  54  77
BRANCH  66  87
ATOM     87  C   UNL A   1      41.515  28.776  27.846  1.00  0.00    -0.014 A 
ATOM     88  C   UNL A   1      41.026  28.517  29.141  1.00  0.00     0.010 A 
ATOM     89  C   UNL A   1      40.618  29.258  26.876  1.00  0.00     0.010 A 
ATOM     90  C   UNL A   1      39.667  28.726  29.446  1.00  0.00     0.020 A 
ATOM     91  C   UNL A   1      39.276  29.484  27.176  1.00  0.00     0.020 A 
ATOM     92  C   UNL A   1      38.803  29.210  28.458  1.00  0.00     0.054 A 
BRANCH  92  93
ATOM     93  S   UNL A   1      37.059  29.527  28.856  1.00  0.00     0.124 S 
ATOM     94  O   UNL A   1      36.356  28.818  27.791  1.00  0.00    -0.237 OA
ATOM     95  O   UNL A   1      36.921  28.953  30.192  1.00  0.00    -0.237 OA
ATOM     96  O   UNL A   1      36.949  30.985  28.804  1.00  0.00    -0.744 OA
ENDBRANCH  92  93
ENDBRANCH  66  87
ENDBRANCH  40  41
ENDBRANCH  33  35
ENDBRANCH  32  33
ENDBRANCH  31  32
ENDBRANCH  30  31
ENDBRANCH  29  30
ENDBRANCH   1  29
TORSDOF 22
ENDMDL
