MODEL 1
REMARK VINA RESULT:     -11.9      0.000      0.000
REMARK SMILES CC1=Nc2ncnn2[C@H](c2ccc(F)cc2)[C@@H]1C(=O)OCCOCCOC(=O)c1ccc(-c2c3nc(c(-c4ccc(S(=O)(=O)[O-])cc4)c4ccc([nH]4)c(-c4ccc(S(=O)(=O)[O-])cc4)c4nc(c(-c5ccc(S(=O)(=O)[O-])cc5)c5ccc2[nH]5)C=C4)C=C3)cc1
REMARK SMILES IDX 24 1 23 2 22 3 21 4 20 5 18 6 19 7 17 8 1 9 2 10 3 11 4 12
REMARK SMILES IDX 9 13 5 14 8 15 6 16 7 17 10 18 11 19 16 20 12 21 15 22 13 23
REMARK SMILES IDX 14 24 25 25 26 26 27 27 28 28 29 29 30 30 88 31 31 32 87 33
REMARK SMILES IDX 32 34 33 35 34 36 81 37 35 38 86 39 80 40 82 41 36 42 85 43
REMARK SMILES IDX 79 44 78 45 37 47 67 48 48 49 66 50 49 51 52 52 65 53 83 54
REMARK SMILES IDX 50 55 51 56 64 58 84 59 53 60 38 61 39 62 47 63 40 64 46 65
REMARK SMILES IDX 41 66 42 67 43 68 44 69 45 70 68 71 69 72 77 73 70 74 76 75
REMARK SMILES IDX 71 76 72 77 73 78 74 79 75 80 54 81 55 82 63 83 56 84 62 85
REMARK SMILES IDX 57 86 58 87 59 88 60 89 61 90
REMARK H PARENT 82 46 52 57
REMARK Flexibility Score: inf
ROOT
ATOM      1  C   UNL A   1      47.560  27.228  27.431  1.00  0.00     0.202 C 
ENDROOT
BRANCH   1   2
ATOM      2  O   UNL A   1      46.529  27.748  26.607  1.00  0.00    -0.374 OA
BRANCH   2   3
ATOM      3  C   UNL A   1      46.013  27.038  25.496  1.00  0.00     0.202 C 
BRANCH   3   4
ATOM      4  C   UNL A   1      44.738  26.196  25.592  1.00  0.00     0.261 C 
BRANCH   4   5
ATOM      5  O   UNL A   1      44.771  24.927  26.251  1.00  0.00    -0.463 OA
BRANCH   5   6
ATOM      6  C   UNL A   1      44.030  23.961  25.648  1.00  0.00     0.317 C 
ATOM      7  O   UNL A   1      43.394  24.098  24.615  1.00  0.00    -0.251 OA
BRANCH   6   8
ATOM      8  C   UNL A   1      44.040  22.681  26.428  1.00  0.00     0.173 C 
ATOM      9  C   UNL A   1      45.963  21.657  24.996  1.00  0.00     0.063 C 
ATOM     10  C   UNL A   1      44.549  21.556  25.531  1.00  0.00     0.036 C 
ATOM     11  N   UNL A   1      43.891  20.487  25.213  1.00  0.00    -0.220 NA
ATOM     12  C   UNL A   1      42.648  20.309  25.704  1.00  0.00     0.248 A 
ATOM     13  C   UNL A   1      42.661  22.393  27.086  1.00  0.00     0.161 C 
ATOM     14  N   UNL A   1      41.854  19.269  25.561  1.00  0.00    -0.198 NA
ATOM     15  N   UNL A   1      42.028  21.201  26.539  1.00  0.00    -0.221 N 
ATOM     16  C   UNL A   1      40.808  19.539  26.389  1.00  0.00     0.248 A 
ATOM     17  N   UNL A   1      40.883  20.696  27.048  1.00  0.00    -0.157 NA
BRANCH  13  18
ATOM     18  C   UNL A   1      41.620  23.515  27.281  1.00  0.00    -0.022 A 
ATOM     19  C   UNL A   1      41.727  24.362  28.401  1.00  0.00     0.009 A 
ATOM     20  C   UNL A   1      40.497  23.702  26.455  1.00  0.00     0.009 A 
ATOM     21  C   UNL A   1      40.821  25.408  28.614  1.00  0.00     0.039 A 
ATOM     22  C   UNL A   1      39.640  24.796  26.614  1.00  0.00     0.039 A 
ATOM     23  C   UNL A   1      39.812  25.643  27.692  1.00  0.00     0.123 A 
ATOM     24  F   UNL A   1      38.978  26.677  27.863  1.00  0.00    -0.207 F 
ENDBRANCH  13  18
ENDBRANCH   6   8
ENDBRANCH   5   6
ENDBRANCH   4   5
ENDBRANCH   3   4
ENDBRANCH   2   3
ENDBRANCH   1   2
BRANCH   1  25
ATOM     25  C   UNL A   1      47.265  26.236  28.540  1.00  0.00     0.261 C 
BRANCH  25  26
ATOM     26  O   UNL A   1      46.428  26.758  29.551  1.00  0.00    -0.460 OA
BRANCH  26  27
ATOM     27  C   UNL A   1      45.353  25.957  29.753  1.00  0.00     0.338 C 
ATOM     28  O   UNL A   1      45.303  24.751  29.612  1.00  0.00    -0.246 OA
BRANCH  27  29
ATOM     29  C   UNL A   1      44.179  26.814  29.884  1.00  0.00     0.060 A 
ATOM     30  C   UNL A   1      43.708  27.357  28.691  1.00  0.00     0.016 A 
ATOM     31  C   UNL A   1      43.800  27.304  31.144  1.00  0.00     0.016 A 
ATOM     32  C   UNL A   1      42.985  28.519  28.757  1.00  0.00     0.010 A 
ATOM     33  C   UNL A   1      43.096  28.478  31.208  1.00  0.00     0.010 A 
ATOM     34  C   UNL A   1      42.744  29.093  30.011  1.00  0.00    -0.014 A 
BRANCH  34  35
ATOM     35  C   UNL A   1      41.893  30.254  30.034  1.00  0.00     0.031 A 
ATOM     36  C   UNL A   1      42.679  31.486  29.847  1.00  0.00     0.074 A 
ATOM     37  C   UNL A   1      40.557  30.199  30.122  1.00  0.00     0.049 A 
ATOM     38  N   UNL A   1      43.032  32.329  30.758  1.00  0.00    -0.248 NA
ATOM     39  C   UNL A   1      43.367  31.659  28.555  1.00  0.00     0.031 C 
ATOM     40  C   UNL A   1      39.708  29.012  30.008  1.00  0.00     0.029 A 
ATOM     41  N   UNL A   1      39.668  31.222  30.212  1.00  0.00    -0.354 N 
ATOM     42  C   UNL A   1      43.752  33.296  30.074  1.00  0.00     0.074 A 
ATOM     43  C   UNL A   1      44.155  32.699  28.828  1.00  0.00     0.031 C 
ATOM     44  C   UNL A   1      38.433  29.409  29.802  1.00  0.00     0.029 A 
ATOM     45  C   UNL A   1      38.368  30.860  29.896  1.00  0.00     0.049 A 
ATOM     46  H   UNL A   1      39.924  32.136  30.474  1.00  0.00     0.167 HD
ATOM     47  C   UNL A   1      43.609  34.609  30.394  1.00  0.00     0.031 A 
ATOM     48  C   UNL A   1      37.344  31.710  29.642  1.00  0.00     0.031 A 
ATOM     49  C   UNL A   1      42.987  34.775  31.684  1.00  0.00     0.049 A 
ATOM     50  C   UNL A   1      37.684  33.018  30.253  1.00  0.00     0.074 A 
ATOM     51  C   UNL A   1      43.308  34.466  32.987  1.00  0.00     0.029 A 
ATOM     52  N   UNL A   1      41.633  35.003  31.641  1.00  0.00    -0.354 N 
ATOM     53  N   UNL A   1      37.780  33.203  31.541  1.00  0.00    -0.248 NA
ATOM     54  C   UNL A   1      38.279  34.068  29.434  1.00  0.00     0.031 C 
ATOM     55  C   UNL A   1      42.065  34.259  33.655  1.00  0.00     0.029 A 
ATOM     56  C   UNL A   1      41.024  34.483  32.751  1.00  0.00     0.049 A 
ATOM     57  H   UNL A   1      41.165  35.473  30.912  1.00  0.00     0.167 HD
ATOM     58  C   UNL A   1      38.796  34.133  31.691  1.00  0.00     0.074 A 
ATOM     59  C   UNL A   1      38.939  34.747  30.377  1.00  0.00     0.031 C 
ATOM     60  C   UNL A   1      39.626  34.093  32.774  1.00  0.00     0.031 A 
BRANCH  47  61
ATOM     61  C   UNL A   1      43.511  35.684  29.333  1.00  0.00    -0.014 A 
ATOM     62  C   UNL A   1      44.290  36.846  29.482  1.00  0.00     0.010 A 
ATOM     63  C   UNL A   1      42.470  35.730  28.380  1.00  0.00     0.010 A 
ATOM     64  C   UNL A   1      43.999  38.009  28.756  1.00  0.00     0.020 A 
ATOM     65  C   UNL A   1      42.200  36.864  27.621  1.00  0.00     0.020 A 
ATOM     66  C   UNL A   1      42.949  38.010  27.838  1.00  0.00     0.054 A 
BRANCH  66  67
ATOM     67  S   UNL A   1      42.519  39.536  26.971  1.00  0.00     0.124 S 
ATOM     68  O   UNL A   1      42.281  40.451  28.082  1.00  0.00    -0.237 OA
ATOM     69  O   UNL A   1      43.720  39.787  26.181  1.00  0.00    -0.237 OA
ATOM     70  O   UNL A   1      41.336  39.163  26.197  1.00  0.00    -0.744 OA
ENDBRANCH  66  67
ENDBRANCH  47  61
BRANCH  48  71
ATOM     71  C   UNL A   1      36.241  31.533  28.666  1.00  0.00    -0.014 A 
ATOM     72  C   UNL A   1      36.149  30.360  27.895  1.00  0.00     0.010 A 
ATOM     73  C   UNL A   1      35.126  32.395  28.686  1.00  0.00     0.010 A 
ATOM     74  C   UNL A   1      34.957  30.024  27.235  1.00  0.00     0.020 A 
ATOM     75  C   UNL A   1      33.940  32.075  28.017  1.00  0.00     0.020 A 
ATOM     76  C   UNL A   1      33.852  30.874  27.321  1.00  0.00     0.054 A 
BRANCH  76  77
ATOM     77  S   UNL A   1      32.257  30.341  26.635  1.00  0.00     0.124 S 
ATOM     78  O   UNL A   1      31.469  31.569  26.693  1.00  0.00    -0.237 OA
ATOM     79  O   UNL A   1      32.623  29.886  25.296  1.00  0.00    -0.237 OA
ATOM     80  O   UNL A   1      31.826  29.284  27.548  1.00  0.00    -0.744 OA
ENDBRANCH  76  77
ENDBRANCH  48  71
BRANCH  60  81
ATOM     81  C   UNL A   1      39.106  33.448  34.034  1.00  0.00    -0.014 A 
ATOM     82  C   UNL A   1      39.256  32.088  34.358  1.00  0.00     0.010 A 
ATOM     83  C   UNL A   1      38.481  34.294  34.969  1.00  0.00     0.010 A 
ATOM     84  C   UNL A   1      38.751  31.581  35.565  1.00  0.00     0.020 A 
ATOM     85  C   UNL A   1      37.998  33.803  36.181  1.00  0.00     0.020 A 
ATOM     86  C   UNL A   1      38.119  32.444  36.467  1.00  0.00     0.054 A 
BRANCH  86  87
ATOM     87  S   UNL A   1      37.470  31.786  38.027  1.00  0.00     0.124 S 
ATOM     88  O   UNL A   1      36.253  32.570  38.219  1.00  0.00    -0.237 OA
ATOM     89  O   UNL A   1      37.268  30.371  37.723  1.00  0.00    -0.237 OA
ATOM     90  O   UNL A   1      38.537  32.057  38.990  1.00  0.00    -0.744 OA
ENDBRANCH  86  87
ENDBRANCH  60  81
ENDBRANCH  34  35
ENDBRANCH  27  29
ENDBRANCH  26  27
ENDBRANCH  25  26
ENDBRANCH   1  25
TORSDOF 18
ENDMDL
MODEL 2
REMARK VINA RESULT:     -11.9      5.024      7.358
REMARK SMILES CC1=Nc2ncnn2[C@H](c2ccc(F)cc2)[C@@H]1C(=O)OCCOCCOC(=O)c1ccc(-c2c3nc(c(-c4ccc(S(=O)(=O)[O-])cc4)c4ccc([nH]4)c(-c4ccc(S(=O)(=O)[O-])cc4)c4nc(c(-c5ccc(S(=O)(=O)[O-])cc5)c5ccc2[nH]5)C=C4)C=C3)cc1
REMARK SMILES IDX 24 1 23 2 22 3 21 4 20 5 18 6 19 7 17 8 1 9 2 10 3 11 4 12
REMARK SMILES IDX 9 13 5 14 8 15 6 16 7 17 10 18 11 19 16 20 12 21 15 22 13 23
REMARK SMILES IDX 14 24 25 25 26 26 27 27 28 28 29 29 30 30 88 31 31 32 87 33
REMARK SMILES IDX 32 34 33 35 34 36 81 37 35 38 86 39 80 40 82 41 36 42 85 43
REMARK SMILES IDX 79 44 78 45 37 47 67 48 48 49 66 50 49 51 52 52 65 53 83 54
REMARK SMILES IDX 50 55 51 56 64 58 84 59 53 60 38 61 39 62 47 63 40 64 46 65
REMARK SMILES IDX 41 66 42 67 43 68 44 69 45 70 68 71 69 72 77 73 70 74 76 75
REMARK SMILES IDX 71 76 72 77 73 78 74 79 75 80 54 81 55 82 63 83 56 84 62 85
REMARK SMILES IDX 57 86 58 87 59 88 60 89 61 90
REMARK H PARENT 82 46 52 57
REMARK Flexibility Score: inf
ROOT
ATOM      1  C   UNL A   1      39.538  21.312  26.452  1.00  0.00     0.202 C 
ENDROOT
BRANCH   1   2
ATOM      2  O   UNL A   1      38.595  21.481  25.405  1.00  0.00    -0.374 OA
BRANCH   2   3
ATOM      3  C   UNL A   1      37.350  22.127  25.600  1.00  0.00     0.202 C 
BRANCH   3   4
ATOM      4  C   UNL A   1      36.064  21.630  24.934  1.00  0.00     0.261 C 
BRANCH   4   5
ATOM      5  O   UNL A   1      34.888  22.442  24.965  1.00  0.00    -0.463 OA
BRANCH   5   6
ATOM      6  C   UNL A   1      34.494  22.908  23.751  1.00  0.00     0.317 C 
ATOM      7  O   UNL A   1      35.160  22.869  22.729  1.00  0.00    -0.251 OA
BRANCH   6   8
ATOM      8  C   UNL A   1      33.132  23.530  23.806  1.00  0.00     0.173 C 
ATOM      9  C   UNL A   1      34.080  25.893  24.373  1.00  0.00     0.063 C 
ATOM     10  C   UNL A   1      33.173  24.736  24.743  1.00  0.00     0.036 C 
ATOM     11  N   UNL A   1      32.466  24.881  25.817  1.00  0.00    -0.220 NA
ATOM     12  C   UNL A   1      31.598  23.913  26.170  1.00  0.00     0.248 A 
ATOM     13  C   UNL A   1      32.033  22.490  24.160  1.00  0.00     0.161 C 
ATOM     14  N   UNL A   1      30.746  23.906  27.173  1.00  0.00    -0.198 NA
ATOM     15  N   UNL A   1      31.408  22.765  25.447  1.00  0.00    -0.221 N 
ATOM     16  C   UNL A   1      30.008  22.779  26.968  1.00  0.00     0.248 A 
ATOM     17  N   UNL A   1      30.346  22.062  25.896  1.00  0.00    -0.157 NA
BRANCH  13  18
ATOM     18  C   UNL A   1      32.283  20.977  23.995  1.00  0.00    -0.022 A 
ATOM     19  C   UNL A   1      32.112  20.388  22.727  1.00  0.00     0.009 A 
ATOM     20  C   UNL A   1      32.589  20.107  25.057  1.00  0.00     0.009 A 
ATOM     21  C   UNL A   1      32.347  19.024  22.518  1.00  0.00     0.039 A 
ATOM     22  C   UNL A   1      32.907  18.762  24.840  1.00  0.00     0.039 A 
ATOM     23  C   UNL A   1      32.786  18.233  23.569  1.00  0.00     0.123 A 
ATOM     24  F   UNL A   1      33.066  16.940  23.361  1.00  0.00    -0.207 F 
ENDBRANCH  13  18
ENDBRANCH   6   8
ENDBRANCH   5   6
ENDBRANCH   4   5
ENDBRANCH   3   4
ENDBRANCH   2   3
ENDBRANCH   1   2
BRANCH   1  25
ATOM     25  C   UNL A   1      40.691  20.334  26.332  1.00  0.00     0.261 C 
BRANCH  25  26
ATOM     26  O   UNL A   1      41.848  20.742  27.032  1.00  0.00    -0.460 OA
BRANCH  26  27
ATOM     27  C   UNL A   1      42.779  21.240  26.181  1.00  0.00     0.338 C 
ATOM     28  O   UNL A   1      43.493  20.607  25.428  1.00  0.00    -0.246 OA
BRANCH  27  29
ATOM     29  C   UNL A   1      42.996  22.640  26.530  1.00  0.00     0.060 A 
ATOM     30  C   UNL A   1      43.415  22.865  27.839  1.00  0.00     0.016 A 
ATOM     31  C   UNL A   1      42.485  23.659  25.709  1.00  0.00     0.016 A 
ATOM     32  C   UNL A   1      43.155  24.091  28.394  1.00  0.00     0.010 A 
ATOM     33  C   UNL A   1      42.206  24.877  26.271  1.00  0.00     0.010 A 
ATOM     34  C   UNL A   1      42.499  25.056  27.620  1.00  0.00    -0.014 A 
BRANCH  34  35
ATOM     35  C   UNL A   1      42.343  26.359  28.212  1.00  0.00     0.031 A 
ATOM     36  C   UNL A   1      43.488  27.226  27.884  1.00  0.00     0.074 A 
ATOM     37  C   UNL A   1      41.254  26.744  28.891  1.00  0.00     0.049 A 
ATOM     38  N   UNL A   1      44.477  27.531  28.654  1.00  0.00    -0.248 NA
ATOM     39  C   UNL A   1      43.686  27.576  26.466  1.00  0.00     0.031 C 
ATOM     40  C   UNL A   1      39.974  26.040  28.991  1.00  0.00     0.029 A 
ATOM     41  N   UNL A   1      41.027  27.918  29.537  1.00  0.00    -0.354 N 
ATOM     42  C   UNL A   1      45.276  28.358  27.879  1.00  0.00     0.074 A 
ATOM     43  C   UNL A   1      44.902  28.119  26.509  1.00  0.00     0.031 C 
ATOM     44  C   UNL A   1      39.041  26.901  29.456  1.00  0.00     0.029 A 
ATOM     45  C   UNL A   1      39.687  28.160  29.797  1.00  0.00     0.049 A 
ATOM     46  H   UNL A   1      41.746  28.538  29.794  1.00  0.00     0.167 HD
ATOM     47  C   UNL A   1      45.871  29.447  28.432  1.00  0.00     0.031 A 
ATOM     48  C   UNL A   1      39.151  29.345  30.176  1.00  0.00     0.031 A 
ATOM     49  C   UNL A   1      45.883  29.371  29.872  1.00  0.00     0.049 A 
ATOM     50  C   UNL A   1      40.240  30.163  30.763  1.00  0.00     0.074 A 
ATOM     51  C   UNL A   1      46.452  28.548  30.817  1.00  0.00     0.029 A 
ATOM     52  N   UNL A   1      44.863  30.055  30.488  1.00  0.00    -0.354 N 
ATOM     53  N   UNL A   1      40.848  29.855  31.876  1.00  0.00    -0.248 NA
ATOM     54  C   UNL A   1      40.928  31.152  29.940  1.00  0.00     0.031 C 
ATOM     55  C   UNL A   1      45.569  28.571  31.937  1.00  0.00     0.029 A 
ATOM     56  C   UNL A   1      44.509  29.436  31.656  1.00  0.00     0.049 A 
ATOM     57  H   UNL A   1      44.445  30.876  30.138  1.00  0.00     0.167 HD
ATOM     58  C   UNL A   1      42.158  30.263  31.690  1.00  0.00     0.074 A 
ATOM     59  C   UNL A   1      42.104  31.196  30.572  1.00  0.00     0.031 C 
ATOM     60  C   UNL A   1      43.193  29.573  32.253  1.00  0.00     0.031 A 
BRANCH  47  61
ATOM     61  C   UNL A   1      45.920  30.781  27.718  1.00  0.00    -0.014 A 
ATOM     62  C   UNL A   1      47.083  31.563  27.836  1.00  0.00     0.010 A 
ATOM     63  C   UNL A   1      44.769  31.419  27.205  1.00  0.00     0.010 A 
ATOM     64  C   UNL A   1      47.072  32.926  27.513  1.00  0.00     0.020 A 
ATOM     65  C   UNL A   1      44.759  32.761  26.838  1.00  0.00     0.020 A 
ATOM     66  C   UNL A   1      45.906  33.516  27.025  1.00  0.00     0.054 A 
BRANCH  66  67
ATOM     67  S   UNL A   1      45.870  35.292  26.696  1.00  0.00     0.124 S 
ATOM     68  O   UNL A   1      44.438  35.542  26.573  1.00  0.00    -0.237 OA
ATOM     69  O   UNL A   1      46.514  35.836  27.887  1.00  0.00    -0.237 OA
ATOM     70  O   UNL A   1      46.641  35.423  25.461  1.00  0.00    -0.744 OA
ENDBRANCH  66  67
ENDBRANCH  47  61
BRANCH  48  71
ATOM     71  C   UNL A   1      37.831  29.904  29.798  1.00  0.00    -0.014 A 
ATOM     72  C   UNL A   1      37.057  30.609  30.737  1.00  0.00     0.010 A 
ATOM     73  C   UNL A   1      37.450  29.983  28.442  1.00  0.00     0.010 A 
ATOM     74  C   UNL A   1      35.993  31.428  30.325  1.00  0.00     0.020 A 
ATOM     75  C   UNL A   1      36.381  30.782  28.027  1.00  0.00     0.020 A 
ATOM     76  C   UNL A   1      35.677  31.526  28.968  1.00  0.00     0.054 A 
BRANCH  76  77
ATOM     77  S   UNL A   1      34.435  32.733  28.423  1.00  0.00     0.124 S 
ATOM     78  O   UNL A   1      33.962  33.285  29.689  1.00  0.00    -0.237 OA
ATOM     79  O   UNL A   1      35.219  33.641  27.590  1.00  0.00    -0.237 OA
ATOM     80  O   UNL A   1      33.460  31.919  27.698  1.00  0.00    -0.744 OA
ENDBRANCH  76  77
ENDBRANCH  48  71
BRANCH  60  81
ATOM     81  C   UNL A   1      42.904  28.762  33.492  1.00  0.00    -0.014 A 
ATOM     82  C   UNL A   1      42.831  29.288  34.794  1.00  0.00     0.010 A 
ATOM     83  C   UNL A   1      42.632  27.394  33.305  1.00  0.00     0.010 A 
ATOM     84  C   UNL A   1      42.539  28.456  35.885  1.00  0.00     0.020 A 
ATOM     85  C   UNL A   1      42.319  26.565  34.381  1.00  0.00     0.020 A 
ATOM     86  C   UNL A   1      42.291  27.096  35.670  1.00  0.00     0.054 A 
BRANCH  86  87
ATOM     87  S   UNL A   1      41.912  26.023  37.083  1.00  0.00     0.124 S 
ATOM     88  O   UNL A   1      40.545  26.413  37.418  1.00  0.00    -0.237 OA
ATOM     89  O   UNL A   1      42.068  24.683  36.523  1.00  0.00    -0.237 OA
ATOM     90  O   UNL A   1      42.920  26.389  38.078  1.00  0.00    -0.744 OA
ENDBRANCH  86  87
ENDBRANCH  60  81
ENDBRANCH  34  35
ENDBRANCH  27  29
ENDBRANCH  26  27
ENDBRANCH  25  26
ENDBRANCH   1  25
TORSDOF 18
ENDMDL
MODEL 3
REMARK VINA RESULT:     -11.8      4.709     10.803
REMARK SMILES CC1=Nc2ncnn2[C@H](c2ccc(F)cc2)[C@@H]1C(=O)OCCOCCOC(=O)c1ccc(-c2c3nc(c(-c4ccc(S(=O)(=O)[O-])cc4)c4ccc([nH]4)c(-c4ccc(S(=O)(=O)[O-])cc4)c4nc(c(-c5ccc(S(=O)(=O)[O-])cc5)c5ccc2[nH]5)C=C4)C=C3)cc1
REMARK SMILES IDX 24 1 23 2 22 3 21 4 20 5 18 6 19 7 17 8 1 9 2 10 3 11 4 12
REMARK SMILES IDX 9 13 5 14 8 15 6 16 7 17 10 18 11 19 16 20 12 21 15 22 13 23
REMARK SMILES IDX 14 24 25 25 26 26 27 27 28 28 29 29 30 30 88 31 31 32 87 33
REMARK SMILES IDX 32 34 33 35 34 36 81 37 35 38 86 39 80 40 82 41 36 42 85 43
REMARK SMILES IDX 79 44 78 45 37 47 67 48 48 49 66 50 49 51 52 52 65 53 83 54
REMARK SMILES IDX 50 55 51 56 64 58 84 59 53 60 38 61 39 62 47 63 40 64 46 65
REMARK SMILES IDX 41 66 42 67 43 68 44 69 45 70 68 71 69 72 77 73 70 74 76 75
REMARK SMILES IDX 71 76 72 77 73 78 74 79 75 80 54 81 55 82 63 83 56 84 62 85
REMARK SMILES IDX 57 86 58 87 59 88 60 89 61 90
REMARK H PARENT 82 46 52 57
REMARK Flexibility Score: inf
ROOT
ATOM      1  C   UNL A   1      31.857  29.970  26.522  1.00  0.00     0.202 C 
ENDROOT
BRANCH   1   2
ATOM      2  O   UNL A   1      32.028  29.106  25.409  1.00  0.00    -0.374 OA
BRANCH   2   3
ATOM      3  C   UNL A   1      32.976  29.361  24.388  1.00  0.00     0.202 C 
BRANCH   3   4
ATOM      4  C   UNL A   1      33.883  28.262  23.830  1.00  0.00     0.261 C 
BRANCH   4   5
ATOM      5  O   UNL A   1      33.604  26.890  24.127  1.00  0.00    -0.463 OA
BRANCH   5   6
ATOM      6  C   UNL A   1      33.413  26.106  23.035  1.00  0.00     0.317 C 
ATOM      7  O   UNL A   1      34.008  26.212  21.974  1.00  0.00    -0.251 OA
BRANCH   6   8
ATOM      8  C   UNL A   1      32.332  25.092  23.258  1.00  0.00     0.173 C 
ATOM      9  C   UNL A   1      30.426  26.841  22.924  1.00  0.00     0.063 C 
ATOM     10  C   UNL A   1      31.091  25.798  23.800  1.00  0.00     0.036 C 
ATOM     11  N   UNL A   1      30.522  25.557  24.937  1.00  0.00    -0.220 NA
ATOM     12  C   UNL A   1      31.031  24.600  25.738  1.00  0.00     0.248 A 
ATOM     13  C   UNL A   1      32.821  23.907  24.136  1.00  0.00     0.161 C 
ATOM     14  N   UNL A   1      30.560  24.160  26.885  1.00  0.00    -0.198 NA
ATOM     15  N   UNL A   1      32.130  23.847  25.417  1.00  0.00    -0.221 N 
ATOM     16  C   UNL A   1      31.352  23.091  27.177  1.00  0.00     0.248 A 
ATOM     17  N   UNL A   1      32.308  22.829  26.285  1.00  0.00    -0.157 NA
BRANCH  13  18
ATOM     18  C   UNL A   1      34.325  23.619  24.323  1.00  0.00    -0.022 A 
ATOM     19  C   UNL A   1      34.972  24.082  25.486  1.00  0.00     0.009 A 
ATOM     20  C   UNL A   1      35.135  22.994  23.358  1.00  0.00     0.009 A 
ATOM     21  C   UNL A   1      36.331  23.830  25.714  1.00  0.00     0.039 A 
ATOM     22  C   UNL A   1      36.470  22.665  23.617  1.00  0.00     0.039 A 
ATOM     23  C   UNL A   1      37.055  23.084  24.797  1.00  0.00     0.123 A 
ATOM     24  F   UNL A   1      38.340  22.793  25.039  1.00  0.00    -0.207 F 
ENDBRANCH  13  18
ENDBRANCH   6   8
ENDBRANCH   5   6
ENDBRANCH   4   5
ENDBRANCH   3   4
ENDBRANCH   2   3
ENDBRANCH   1   2
BRANCH   1  25
ATOM     25  C   UNL A   1      32.854  31.071  26.832  1.00  0.00     0.261 C 
BRANCH  25  26
ATOM     26  O   UNL A   1      33.711  30.764  27.911  1.00  0.00    -0.460 OA
BRANCH  26  27
ATOM     27  C   UNL A   1      34.634  31.740  28.092  1.00  0.00     0.338 C 
ATOM     28  O   UNL A   1      34.621  32.856  27.610  1.00  0.00    -0.246 OA
BRANCH  27  29
ATOM     29  C   UNL A   1      35.803  31.135  28.723  1.00  0.00     0.060 A 
ATOM     30  C   UNL A   1      36.849  32.014  28.995  1.00  0.00     0.016 A 
ATOM     31  C   UNL A   1      35.962  29.740  28.721  1.00  0.00     0.016 A 
ATOM     32  C   UNL A   1      38.113  31.495  29.093  1.00  0.00     0.010 A 
ATOM     33  C   UNL A   1      37.230  29.224  28.799  1.00  0.00     0.010 A 
ATOM     34  C   UNL A   1      38.290  30.116  28.932  1.00  0.00    -0.014 A 
BRANCH  34  35
ATOM     35  C   UNL A   1      39.620  29.608  29.148  1.00  0.00     0.031 A 
ATOM     36  C   UNL A   1      39.939  29.564  30.585  1.00  0.00     0.074 A 
ATOM     37  C   UNL A   1      40.414  29.155  28.168  1.00  0.00     0.049 A 
ATOM     38  N   UNL A   1      40.674  30.394  31.245  1.00  0.00    -0.248 NA
ATOM     39  C   UNL A   1      39.142  28.653  31.427  1.00  0.00     0.031 C 
ATOM     40  C   UNL A   1      40.046  28.895  26.775  1.00  0.00     0.029 A 
ATOM     41  N   UNL A   1      41.696  28.713  28.250  1.00  0.00    -0.354 N 
ATOM     42  C   UNL A   1      40.652  29.917  32.547  1.00  0.00     0.074 A 
ATOM     43  C   UNL A   1      39.506  29.052  32.645  1.00  0.00     0.031 C 
ATOM     44  C   UNL A   1      41.005  28.130  26.209  1.00  0.00     0.029 A 
ATOM     45  C   UNL A   1      42.096  27.959  27.158  1.00  0.00     0.049 A 
ATOM     46  H   UNL A   1      42.285  28.909  29.014  1.00  0.00     0.167 HD
ATOM     47  C   UNL A   1      41.782  29.940  33.301  1.00  0.00     0.031 A 
ATOM     48  C   UNL A   1      43.203  27.181  27.090  1.00  0.00     0.031 A 
ATOM     49  C   UNL A   1      42.775  30.823  32.744  1.00  0.00     0.049 A 
ATOM     50  C   UNL A   1      44.154  27.662  28.121  1.00  0.00     0.074 A 
ATOM     51  C   UNL A   1      42.878  32.175  32.503  1.00  0.00     0.029 A 
ATOM     52  N   UNL A   1      43.726  30.199  31.974  1.00  0.00    -0.354 N 
ATOM     53  N   UNL A   1      44.731  28.832  28.073  1.00  0.00    -0.248 NA
ATOM     54  C   UNL A   1      44.212  27.000  29.419  1.00  0.00     0.031 C 
ATOM     55  C   UNL A   1      43.737  32.306  31.373  1.00  0.00     0.029 A 
ATOM     56  C   UNL A   1      44.162  31.035  30.980  1.00  0.00     0.049 A 
ATOM     57  H   UNL A   1      44.049  29.280  32.115  1.00  0.00     0.167 HD
ATOM     58  C   UNL A   1      44.832  29.232  29.395  1.00  0.00     0.074 A 
ATOM     59  C   UNL A   1      44.662  28.010  30.171  1.00  0.00     0.031 C 
ATOM     60  C   UNL A   1      44.733  30.550  29.737  1.00  0.00     0.031 A 
BRANCH  47  61
ATOM     61  C   UNL A   1      42.176  28.775  34.184  1.00  0.00    -0.014 A 
ATOM     62  C   UNL A   1      42.525  29.036  35.522  1.00  0.00     0.010 A 
ATOM     63  C   UNL A   1      42.512  27.503  33.672  1.00  0.00     0.010 A 
ATOM     64  C   UNL A   1      43.227  28.091  36.282  1.00  0.00     0.020 A 
ATOM     65  C   UNL A   1      43.169  26.540  34.432  1.00  0.00     0.020 A 
ATOM     66  C   UNL A   1      43.551  26.853  35.726  1.00  0.00     0.054 A 
BRANCH  66  67
ATOM     67  S   UNL A   1      44.534  25.673  36.677  1.00  0.00     0.124 S 
ATOM     68  O   UNL A   1      45.571  25.309  35.718  1.00  0.00    -0.237 OA
ATOM     69  O   UNL A   1      44.969  26.482  37.812  1.00  0.00    -0.237 OA
ATOM     70  O   UNL A   1      43.576  24.618  37.002  1.00  0.00    -0.744 OA
ENDBRANCH  66  67
ENDBRANCH  47  61
BRANCH  48  71
ATOM     71  C   UNL A   1      43.356  25.884  26.389  1.00  0.00    -0.014 A 
ATOM     72  C   UNL A   1      44.406  25.684  25.474  1.00  0.00     0.010 A 
ATOM     73  C   UNL A   1      42.635  24.750  26.818  1.00  0.00     0.010 A 
ATOM     74  C   UNL A   1      44.773  24.391  25.070  1.00  0.00     0.020 A 
ATOM     75  C   UNL A   1      42.984  23.460  26.406  1.00  0.00     0.020 A 
ATOM     76  C   UNL A   1      44.073  23.285  25.557  1.00  0.00     0.054 A 
BRANCH  76  77
ATOM     77  S   UNL A   1      44.673  21.611  25.190  1.00  0.00     0.124 S 
ATOM     78  O   UNL A   1      43.715  20.774  25.904  1.00  0.00    -0.237 OA
ATOM     79  O   UNL A   1      44.597  21.560  23.732  1.00  0.00    -0.237 OA
ATOM     80  O   UNL A   1      46.030  21.606  25.735  1.00  0.00    -0.744 OA
ENDBRANCH  76  77
ENDBRANCH  48  71
BRANCH  60  81
ATOM     81  C   UNL A   1      45.086  31.575  28.689  1.00  0.00    -0.014 A 
ATOM     82  C   UNL A   1      44.160  32.199  27.834  1.00  0.00     0.010 A 
ATOM     83  C   UNL A   1      46.435  31.969  28.616  1.00  0.00     0.010 A 
ATOM     84  C   UNL A   1      44.582  33.156  26.899  1.00  0.00     0.020 A 
ATOM     85  C   UNL A   1      46.859  32.937  27.707  1.00  0.00     0.020 A 
ATOM     86  C   UNL A   1      45.933  33.514  26.838  1.00  0.00     0.054 A 
BRANCH  86  87
ATOM     87  S   UNL A   1      46.475  34.754  25.631  1.00  0.00     0.124 S 
ATOM     88  O   UNL A   1      47.877  34.402  25.424  1.00  0.00    -0.237 OA
ATOM     89  O   UNL A   1      45.588  34.509  24.496  1.00  0.00    -0.237 OA
ATOM     90  O   UNL A   1      46.252  36.027  26.315  1.00  0.00    -0.744 OA
ENDBRANCH  86  87
ENDBRANCH  60  81
ENDBRANCH  34  35
ENDBRANCH  27  29
ENDBRANCH  26  27
ENDBRANCH  25  26
ENDBRANCH   1  25
TORSDOF 18
ENDMDL
