MODEL 1
REMARK VINA RESULT:      -9.4      0.000      0.000
REMARK SMILES C[NH2+]CCC(=O)N1CC[C@@H](C(=O)OCCOCCOC(=O)c2ccc(-c3c4nc(c(-c5ccc(S(=O)(=O)[O-])cc5)c5ccc([nH]5)c(-c5ccc(S(=O)(=O)[O-])cc5)c5nc(c(-c6ccc(S(=O)(=O)[O-])cc6)c6ccc3[nH]6)C=C5)C=C4)cc2)[C@@H]1C
REMARK SMILES IDX 15 1 14 2 13 3 11 4 12 5 10 6 7 7 8 8 82 9 9 10 83 11 5 12
REMARK SMILES IDX 6 13 4 14 3 15 2 16 1 17 16 20 17 21 18 22 19 23 20 24 21 25
REMARK SMILES IDX 22 26 23 27 81 28 24 29 80 30 25 31 26 32 27 33 74 34 28 35
REMARK SMILES IDX 79 36 73 37 75 38 29 39 78 40 72 41 71 42 30 44 60 45 41 46
REMARK SMILES IDX 59 47 42 48 45 49 58 50 76 51 43 52 44 53 57 55 77 56 46 57
REMARK SMILES IDX 31 58 32 59 40 60 33 61 39 62 34 63 35 64 36 65 37 66 38 67
REMARK SMILES IDX 61 68 62 69 70 70 63 71 69 72 64 73 65 74 66 75 67 76 68 77
REMARK SMILES IDX 47 78 48 79 56 80 49 81 55 82 50 83 51 84 52 85 53 86 54 87
REMARK H PARENT 2 18 2 19 75 43 45 54
REMARK Flexibility Score: inf
ROOT
ATOM      1  C   UNL A   1      39.565  22.407  26.386  1.00  0.00     0.202 C 
ENDROOT
BRANCH   1   2
ATOM      2  C   UNL A   1      38.495  23.492  26.512  1.00  0.00     0.261 C 
BRANCH   2   3
ATOM      3  O   UNL A   1      37.651  23.529  25.343  1.00  0.00    -0.463 OA
BRANCH   3   4
ATOM      4  C   UNL A   1      36.315  23.410  25.558  1.00  0.00     0.311 C 
ATOM      5  O   UNL A   1      35.509  24.330  25.514  1.00  0.00    -0.252 OA
BRANCH   4   6
ATOM      6  C   UNL A   1      35.906  21.996  25.911  1.00  0.00     0.123 C 
ATOM      7  N   UNL A   1      34.126  20.494  25.376  1.00  0.00    -0.339 N 
ATOM      8  C   UNL A   1      35.376  19.856  25.022  1.00  0.00     0.121 C 
ATOM      9  C   UNL A   1      34.388  21.757  26.073  1.00  0.00     0.096 C 
ATOM     10  C   UNL A   1      36.334  21.013  24.827  1.00  0.00     0.039 C 
ATOM     11  C   UNL A   1      34.019  21.658  27.556  1.00  0.00     0.032 C 
BRANCH   7  12
ATOM     12  C   UNL A   1      32.962  19.760  25.315  1.00  0.00     0.228 C 
ATOM     13  O   UNL A   1      31.893  20.330  25.063  1.00  0.00    -0.275 OA
BRANCH  12  14
ATOM     14  C   UNL A   1      32.920  18.324  25.823  1.00  0.00     0.161 C 
BRANCH  14  15
ATOM     15  C   UNL A   1      32.254  17.210  25.027  1.00  0.00     0.270 C 
BRANCH  15  16
ATOM     16  N   UNL A   1      33.079  16.188  24.391  1.00  0.00    -0.348 N 
ATOM     17  C   UNL A   1      33.954  16.664  23.332  1.00  0.00     0.330 C 
ATOM     18  H   UNL A   1      33.660  15.758  25.111  1.00  0.00     0.346 HD
ATOM     19  H   UNL A   1      32.430  15.537  23.949  1.00  0.00     0.346 HD
ENDBRANCH  15  16
ENDBRANCH  14  15
ENDBRANCH  12  14
ENDBRANCH   7  12
ENDBRANCH   4   6
ENDBRANCH   3   4
ENDBRANCH   2   3
ENDBRANCH   1   2
BRANCH   1  20
ATOM     20  O   UNL A   1      40.502  22.368  27.464  1.00  0.00    -0.374 OA
BRANCH  20  21
ATOM     21  C   UNL A   1      41.878  22.350  27.092  1.00  0.00     0.202 C 
BRANCH  21  22
ATOM     22  C   UNL A   1      42.219  23.099  25.799  1.00  0.00     0.261 C 
BRANCH  22  23
ATOM     23  O   UNL A   1      42.928  24.320  26.072  1.00  0.00    -0.460 OA
BRANCH  23  24
ATOM     24  C   UNL A   1      42.184  25.449  25.993  1.00  0.00     0.338 C 
ATOM     25  O   UNL A   1      41.493  25.798  25.049  1.00  0.00    -0.246 OA
BRANCH  24  26
ATOM     26  C   UNL A   1      42.154  26.140  27.303  1.00  0.00     0.060 A 
ATOM     27  C   UNL A   1      41.210  25.703  28.239  1.00  0.00     0.016 A 
ATOM     28  C   UNL A   1      43.005  27.203  27.619  1.00  0.00     0.016 A 
ATOM     29  C   UNL A   1      41.052  26.380  29.448  1.00  0.00     0.010 A 
ATOM     30  C   UNL A   1      42.878  27.852  28.855  1.00  0.00     0.010 A 
ATOM     31  C   UNL A   1      41.847  27.496  29.744  1.00  0.00    -0.014 A 
BRANCH  31  32
ATOM     32  C   UNL A   1      41.431  28.412  30.844  1.00  0.00     0.031 A 
ATOM     33  C   UNL A   1      42.231  28.400  32.129  1.00  0.00     0.074 A 
ATOM     34  C   UNL A   1      40.431  29.304  30.691  1.00  0.00     0.049 A 
ATOM     35  N   UNL A   1      42.101  29.148  33.194  1.00  0.00    -0.248 NA
ATOM     36  C   UNL A   1      43.319  27.410  32.230  1.00  0.00     0.031 C 
ATOM     37  C   UNL A   1      39.588  29.446  29.504  1.00  0.00     0.029 A 
ATOM     38  N   UNL A   1      39.963  30.276  31.545  1.00  0.00    -0.354 N 
ATOM     39  C   UNL A   1      43.068  28.704  34.090  1.00  0.00     0.074 A 
ATOM     40  C   UNL A   1      43.751  27.595  33.467  1.00  0.00     0.031 C 
ATOM     41  C   UNL A   1      38.719  30.455  29.699  1.00  0.00     0.029 A 
ATOM     42  C   UNL A   1      38.923  31.017  31.033  1.00  0.00     0.049 A 
ATOM     43  H   UNL A   1      40.338  30.427  32.442  1.00  0.00     0.167 HD
ATOM     44  C   UNL A   1      43.382  29.183  35.316  1.00  0.00     0.031 A 
ATOM     45  C   UNL A   1      38.215  32.029  31.575  1.00  0.00     0.031 A 
ATOM     46  C   UNL A   1      42.737  30.309  35.933  1.00  0.00     0.049 A 
ATOM     47  C   UNL A   1      38.573  32.529  32.956  1.00  0.00     0.074 A 
ATOM     48  C   UNL A   1      43.023  30.898  37.153  1.00  0.00     0.029 A 
ATOM     49  N   UNL A   1      41.681  31.017  35.383  1.00  0.00    -0.354 N 
ATOM     50  N   UNL A   1      39.528  32.127  33.761  1.00  0.00    -0.248 NA
ATOM     51  C   UNL A   1      37.769  33.639  33.490  1.00  0.00     0.031 C 
ATOM     52  C   UNL A   1      42.098  31.922  37.371  1.00  0.00     0.029 A 
ATOM     53  C   UNL A   1      41.288  32.021  36.251  1.00  0.00     0.049 A 
ATOM     54  H   UNL A   1      41.273  30.834  34.507  1.00  0.00     0.167 HD
ATOM     55  C   UNL A   1      39.468  32.967  34.871  1.00  0.00     0.074 A 
ATOM     56  C   UNL A   1      38.396  33.907  34.627  1.00  0.00     0.031 C 
ATOM     57  C   UNL A   1      40.234  32.965  35.991  1.00  0.00     0.031 A 
BRANCH  44  58
ATOM     58  C   UNL A   1      44.466  28.484  36.095  1.00  0.00    -0.014 A 
ATOM     59  C   UNL A   1      45.717  29.087  36.314  1.00  0.00     0.010 A 
ATOM     60  C   UNL A   1      44.188  27.241  36.691  1.00  0.00     0.010 A 
ATOM     61  C   UNL A   1      46.676  28.452  37.107  1.00  0.00     0.020 A 
ATOM     62  C   UNL A   1      45.133  26.617  37.509  1.00  0.00     0.020 A 
ATOM     63  C   UNL A   1      46.374  27.225  37.708  1.00  0.00     0.054 A 
BRANCH  63  64
ATOM     64  S   UNL A   1      47.606  26.465  38.801  1.00  0.00     0.124 S 
ATOM     65  O   UNL A   1      48.270  25.526  37.901  1.00  0.00    -0.237 OA
ATOM     66  O   UNL A   1      48.409  27.611  39.218  1.00  0.00    -0.237 OA
ATOM     67  O   UNL A   1      46.803  25.853  39.857  1.00  0.00    -0.744 OA
ENDBRANCH  63  64
ENDBRANCH  44  58
BRANCH  45  68
ATOM     68  C   UNL A   1      37.072  32.645  30.836  1.00  0.00    -0.014 A 
ATOM     69  C   UNL A   1      37.280  33.679  29.903  1.00  0.00     0.010 A 
ATOM     70  C   UNL A   1      35.753  32.248  31.124  1.00  0.00     0.010 A 
ATOM     71  C   UNL A   1      36.193  34.338  29.319  1.00  0.00     0.020 A 
ATOM     72  C   UNL A   1      34.665  32.879  30.514  1.00  0.00     0.020 A 
ATOM     73  C   UNL A   1      34.892  33.937  29.633  1.00  0.00     0.054 A 
BRANCH  73  74
ATOM     74  S   UNL A   1      33.495  34.810  28.871  1.00  0.00     0.124 S 
ATOM     75  O   UNL A   1      32.515  34.818  29.952  1.00  0.00    -0.237 OA
ATOM     76  O   UNL A   1      34.079  36.105  28.533  1.00  0.00    -0.237 OA
ATOM     77  O   UNL A   1      33.155  33.970  27.723  1.00  0.00    -0.744 OA
ENDBRANCH  73  74
ENDBRANCH  45  68
BRANCH  57  78
ATOM     78  C   UNL A   1      40.000  34.057  37.004  1.00  0.00    -0.014 A 
ATOM     79  C   UNL A   1      40.418  35.381  36.781  1.00  0.00     0.010 A 
ATOM     80  C   UNL A   1      39.317  33.748  38.196  1.00  0.00     0.010 A 
ATOM     81  C   UNL A   1      40.214  36.360  37.759  1.00  0.00     0.020 A 
ATOM     82  C   UNL A   1      39.078  34.732  39.159  1.00  0.00     0.020 A 
ATOM     83  C   UNL A   1      39.551  36.027  38.945  1.00  0.00     0.054 A 
BRANCH  83  84
ATOM     84  S   UNL A   1      39.300  37.312  40.199  1.00  0.00     0.124 S 
ATOM     85  O   UNL A   1      38.575  36.585  41.237  1.00  0.00    -0.237 OA
ATOM     86  O   UNL A   1      40.667  37.700  40.540  1.00  0.00    -0.237 OA
ATOM     87  O   UNL A   1      38.526  38.334  39.498  1.00  0.00    -0.744 OA
ENDBRANCH  83  84
ENDBRANCH  57  78
ENDBRANCH  31  32
ENDBRANCH  24  26
ENDBRANCH  23  24
ENDBRANCH  22  23
ENDBRANCH  21  22
ENDBRANCH  20  21
ENDBRANCH   1  20
TORSDOF 21
ENDMDL
MODEL 2
REMARK VINA RESULT:      -9.2      3.263      9.475
REMARK SMILES C[NH2+]CCC(=O)N1CC[C@@H](C(=O)OCCOCCOC(=O)c2ccc(-c3c4nc(c(-c5ccc(S(=O)(=O)[O-])cc5)c5ccc([nH]5)c(-c5ccc(S(=O)(=O)[O-])cc5)c5nc(c(-c6ccc(S(=O)(=O)[O-])cc6)c6ccc3[nH]6)C=C5)C=C4)cc2)[C@@H]1C
REMARK SMILES IDX 15 1 14 2 13 3 11 4 12 5 10 6 7 7 8 8 82 9 9 10 83 11 5 12
REMARK SMILES IDX 6 13 4 14 3 15 2 16 1 17 16 20 17 21 18 22 19 23 20 24 21 25
REMARK SMILES IDX 22 26 23 27 81 28 24 29 80 30 25 31 26 32 27 33 74 34 28 35
REMARK SMILES IDX 79 36 73 37 75 38 29 39 78 40 72 41 71 42 30 44 60 45 41 46
REMARK SMILES IDX 59 47 42 48 45 49 58 50 76 51 43 52 44 53 57 55 77 56 46 57
REMARK SMILES IDX 31 58 32 59 40 60 33 61 39 62 34 63 35 64 36 65 37 66 38 67
REMARK SMILES IDX 61 68 62 69 70 70 63 71 69 72 64 73 65 74 66 75 67 76 68 77
REMARK SMILES IDX 47 78 48 79 56 80 49 81 55 82 50 83 51 84 52 85 53 86 54 87
REMARK H PARENT 2 18 2 19 75 43 45 54
REMARK Flexibility Score: inf
ROOT
ATOM      1  C   UNL A   1      31.466  27.867  26.265  1.00  0.00     0.202 C 
ENDROOT
BRANCH   1   2
ATOM      2  C   UNL A   1      31.203  26.430  25.814  1.00  0.00     0.261 C 
BRANCH   2   3
ATOM      3  O   UNL A   1      31.053  25.548  26.946  1.00  0.00    -0.463 OA
BRANCH   3   4
ATOM      4  C   UNL A   1      31.119  24.216  26.687  1.00  0.00     0.311 C 
ATOM      5  O   UNL A   1      30.562  23.343  27.341  1.00  0.00    -0.252 OA
BRANCH   4   6
ATOM      6  C   UNL A   1      32.006  23.896  25.503  1.00  0.00     0.123 C 
ATOM      7  N   UNL A   1      33.702  22.305  24.956  1.00  0.00    -0.339 N 
ATOM      8  C   UNL A   1      32.648  22.196  23.970  1.00  0.00     0.121 C 
ATOM      9  C   UNL A   1      33.443  23.441  25.846  1.00  0.00     0.096 C 
ATOM     10  C   UNL A   1      31.429  22.751  24.678  1.00  0.00     0.039 C 
ATOM     11  C   UNL A   1      34.436  24.579  25.593  1.00  0.00     0.032 C 
BRANCH   7  12
ATOM     12  C   UNL A   1      34.872  21.602  24.762  1.00  0.00     0.228 C 
ATOM     13  O   UNL A   1      34.901  20.388  24.997  1.00  0.00    -0.275 OA
BRANCH  12  14
ATOM     14  C   UNL A   1      36.190  22.334  24.537  1.00  0.00     0.161 C 
BRANCH  14  15
ATOM     15  C   UNL A   1      37.527  21.711  24.915  1.00  0.00     0.270 C 
BRANCH  15  16
ATOM     16  N   UNL A   1      38.237  22.192  26.096  1.00  0.00    -0.348 N 
ATOM     17  C   UNL A   1      38.293  23.637  26.242  1.00  0.00     0.330 C 
ATOM     18  H   UNL A   1      37.772  21.810  26.921  1.00  0.00     0.346 HD
ATOM     19  H   UNL A   1      39.202  21.882  25.991  1.00  0.00     0.346 HD
ENDBRANCH  15  16
ENDBRANCH  14  15
ENDBRANCH  12  14
ENDBRANCH   7  12
ENDBRANCH   4   6
ENDBRANCH   3   4
ENDBRANCH   2   3
ENDBRANCH   1   2
BRANCH   1  20
ATOM     20  O   UNL A   1      31.446  28.832  25.213  1.00  0.00    -0.374 OA
BRANCH  20  21
ATOM     21  C   UNL A   1      31.601  30.193  25.613  1.00  0.00     0.202 C 
BRANCH  21  22
ATOM     22  C   UNL A   1      32.293  30.405  26.964  1.00  0.00     0.261 C 
BRANCH  22  23
ATOM     23  O   UNL A   1      33.721  30.486  26.814  1.00  0.00    -0.460 OA
BRANCH  23  24
ATOM     24  C   UNL A   1      34.335  31.392  27.613  1.00  0.00     0.338 C 
ATOM     25  O   UNL A   1      33.829  32.390  28.101  1.00  0.00    -0.246 OA
BRANCH  24  26
ATOM     26  C   UNL A   1      35.682  30.911  27.996  1.00  0.00     0.060 A 
ATOM     27  C   UNL A   1      35.856  29.531  28.143  1.00  0.00     0.016 A 
ATOM     28  C   UNL A   1      36.757  31.775  28.230  1.00  0.00     0.016 A 
ATOM     29  C   UNL A   1      37.067  29.018  28.608  1.00  0.00     0.010 A 
ATOM     30  C   UNL A   1      37.988  31.254  28.651  1.00  0.00     0.010 A 
ATOM     31  C   UNL A   1      38.127  29.881  28.920  1.00  0.00    -0.014 A 
BRANCH  31  32
ATOM     32  C   UNL A   1      39.258  29.370  29.746  1.00  0.00     0.031 A 
ATOM     33  C   UNL A   1      39.342  29.804  31.194  1.00  0.00     0.074 A 
ATOM     34  C   UNL A   1      40.143  28.471  29.268  1.00  0.00     0.049 A 
ATOM     35  N   UNL A   1      40.192  29.441  32.120  1.00  0.00    -0.248 NA
ATOM     36  C   UNL A   1      38.339  30.779  31.659  1.00  0.00     0.031 C 
ATOM     37  C   UNL A   1      40.173  27.947  27.902  1.00  0.00     0.029 A 
ATOM     38  N   UNL A   1      41.187  27.827  29.891  1.00  0.00    -0.354 N 
ATOM     39  C   UNL A   1      39.840  30.158  33.259  1.00  0.00     0.074 A 
ATOM     40  C   UNL A   1      38.728  31.007  32.903  1.00  0.00     0.031 C 
ATOM     41  C   UNL A   1      41.172  27.051  27.797  1.00  0.00     0.029 A 
ATOM     42  C   UNL A   1      41.871  26.955  29.078  1.00  0.00     0.049 A 
ATOM     43  H   UNL A   1      41.423  27.978  30.835  1.00  0.00     0.167 HD
ATOM     44  C   UNL A   1      40.374  30.105  34.501  1.00  0.00     0.031 A 
ATOM     45  C   UNL A   1      42.939  26.170  29.332  1.00  0.00     0.031 A 
ATOM     46  C   UNL A   1      41.455  29.237  34.881  1.00  0.00     0.049 A 
ATOM     47  C   UNL A   1      43.529  26.148  30.723  1.00  0.00     0.074 A 
ATOM     48  C   UNL A   1      42.028  29.079  36.130  1.00  0.00     0.029 A 
ATOM     49  N   UNL A   1      42.124  28.383  34.020  1.00  0.00    -0.354 N 
ATOM     50  N   UNL A   1      43.143  26.794  31.797  1.00  0.00    -0.248 NA
ATOM     51  C   UNL A   1      44.688  25.267  30.940  1.00  0.00     0.031 C 
ATOM     52  C   UNL A   1      43.088  28.176  36.012  1.00  0.00     0.029 A 
ATOM     53  C   UNL A   1      43.122  27.713  34.707  1.00  0.00     0.049 A 
ATOM     54  H   UNL A   1      41.920  28.269  33.064  1.00  0.00     0.167 HD
ATOM     55  C   UNL A   1      43.980  26.360  32.823  1.00  0.00     0.074 A 
ATOM     56  C   UNL A   1      44.880  25.386  32.246  1.00  0.00     0.031 C 
ATOM     57  C   UNL A   1      43.999  26.731  34.129  1.00  0.00     0.031 A 
BRANCH  44  58
ATOM     58  C   UNL A   1      39.813  31.025  35.555  1.00  0.00    -0.014 A 
ATOM     59  C   UNL A   1      38.585  30.757  36.184  1.00  0.00     0.010 A 
ATOM     60  C   UNL A   1      40.578  32.127  35.979  1.00  0.00     0.010 A 
ATOM     61  C   UNL A   1      38.127  31.583  37.215  1.00  0.00     0.020 A 
ATOM     62  C   UNL A   1      40.137  32.936  37.029  1.00  0.00     0.020 A 
ATOM     63  C   UNL A   1      38.911  32.661  37.637  1.00  0.00     0.054 A 
BRANCH  63  64
ATOM     64  S   UNL A   1      38.331  33.664  39.032  1.00  0.00     0.124 S 
ATOM     65  O   UNL A   1      39.242  33.255  40.098  1.00  0.00    -0.237 OA
ATOM     66  O   UNL A   1      38.513  35.027  38.540  1.00  0.00    -0.237 OA
ATOM     67  O   UNL A   1      36.942  33.248  39.207  1.00  0.00    -0.744 OA
ENDBRANCH  63  64
ENDBRANCH  44  58
BRANCH  45  68
ATOM     68  C   UNL A   1      43.553  25.341  28.252  1.00  0.00    -0.014 A 
ATOM     69  C   UNL A   1      44.409  25.912  27.291  1.00  0.00     0.010 A 
ATOM     70  C   UNL A   1      43.218  23.978  28.135  1.00  0.00     0.010 A 
ATOM     71  C   UNL A   1      44.869  25.154  26.208  1.00  0.00     0.020 A 
ATOM     72  C   UNL A   1      43.706  23.209  27.075  1.00  0.00     0.020 A 
ATOM     73  C   UNL A   1      44.509  23.808  26.105  1.00  0.00     0.054 A 
BRANCH  73  74
ATOM     74  S   UNL A   1      45.109  22.844  24.689  1.00  0.00     0.124 S 
ATOM     75  O   UNL A   1      45.996  21.880  25.332  1.00  0.00    -0.237 OA
ATOM     76  O   UNL A   1      43.874  22.298  24.133  1.00  0.00    -0.237 OA
ATOM     77  O   UNL A   1      45.771  23.844  23.853  1.00  0.00    -0.744 OA
ENDBRANCH  73  74
ENDBRANCH  45  68
BRANCH  57  78
ATOM     78  C   UNL A   1      44.968  26.026  35.044  1.00  0.00    -0.014 A 
ATOM     79  C   UNL A   1      46.262  26.521  35.281  1.00  0.00     0.010 A 
ATOM     80  C   UNL A   1      44.555  24.854  35.705  1.00  0.00     0.010 A 
ATOM     81  C   UNL A   1      47.146  25.822  36.111  1.00  0.00     0.020 A 
ATOM     82  C   UNL A   1      45.420  24.173  36.564  1.00  0.00     0.020 A 
ATOM     83  C   UNL A   1      46.720  24.647  36.741  1.00  0.00     0.054 A 
BRANCH  83  84
ATOM     84  S   UNL A   1      47.883  23.757  37.810  1.00  0.00     0.124 S 
ATOM     85  O   UNL A   1      47.183  23.765  39.091  1.00  0.00    -0.237 OA
ATOM     86  O   UNL A   1      47.986  22.453  37.157  1.00  0.00    -0.237 OA
ATOM     87  O   UNL A   1      49.096  24.571  37.758  1.00  0.00    -0.744 OA
ENDBRANCH  83  84
ENDBRANCH  57  78
ENDBRANCH  31  32
ENDBRANCH  24  26
ENDBRANCH  23  24
ENDBRANCH  22  23
ENDBRANCH  21  22
ENDBRANCH  20  21
ENDBRANCH   1  20
TORSDOF 21
ENDMDL
MODEL 3
REMARK VINA RESULT:      -9.2      3.258      9.476
REMARK SMILES C[NH2+]CCC(=O)N1CC[C@@H](C(=O)OCCOCCOC(=O)c2ccc(-c3c4nc(c(-c5ccc(S(=O)(=O)[O-])cc5)c5ccc([nH]5)c(-c5ccc(S(=O)(=O)[O-])cc5)c5nc(c(-c6ccc(S(=O)(=O)[O-])cc6)c6ccc3[nH]6)C=C5)C=C4)cc2)[C@@H]1C
REMARK SMILES IDX 15 1 14 2 13 3 11 4 12 5 10 6 7 7 8 8 82 9 9 10 83 11 5 12
REMARK SMILES IDX 6 13 4 14 3 15 2 16 1 17 16 20 17 21 18 22 19 23 20 24 21 25
REMARK SMILES IDX 22 26 23 27 81 28 24 29 80 30 25 31 26 32 27 33 74 34 28 35
REMARK SMILES IDX 79 36 73 37 75 38 29 39 78 40 72 41 71 42 30 44 60 45 41 46
REMARK SMILES IDX 59 47 42 48 45 49 58 50 76 51 43 52 44 53 57 55 77 56 46 57
REMARK SMILES IDX 31 58 32 59 40 60 33 61 39 62 34 63 35 64 36 65 37 66 38 67
REMARK SMILES IDX 61 68 62 69 70 70 63 71 69 72 64 73 65 74 66 75 67 76 68 77
REMARK SMILES IDX 47 78 48 79 56 80 49 81 55 82 50 83 51 84 52 85 53 86 54 87
REMARK H PARENT 2 18 2 19 75 43 45 54
REMARK Flexibility Score: inf
ROOT
ATOM      1  C   UNL A   1      31.632  27.677  26.200  1.00  0.00     0.202 C 
ENDROOT
BRANCH   1   2
ATOM      2  C   UNL A   1      32.105  26.291  25.761  1.00  0.00     0.261 C 
BRANCH   2   3
ATOM      3  O   UNL A   1      33.501  26.096  26.066  1.00  0.00    -0.463 OA
BRANCH   3   4
ATOM      4  C   UNL A   1      34.058  24.935  25.633  1.00  0.00     0.311 C 
ATOM      5  O   UNL A   1      35.082  24.850  24.967  1.00  0.00    -0.252 OA
BRANCH   4   6
ATOM      6  C   UNL A   1      33.248  23.718  26.027  1.00  0.00     0.123 C 
ATOM      7  N   UNL A   1      33.337  21.357  25.673  1.00  0.00    -0.339 N 
ATOM      8  C   UNL A   1      33.338  21.599  27.101  1.00  0.00     0.121 C 
ATOM      9  C   UNL A   1      33.129  22.615  24.950  1.00  0.00     0.096 C 
ATOM     10  C   UNL A   1      33.865  23.014  27.230  1.00  0.00     0.039 C 
ATOM     11  C   UNL A   1      31.745  22.655  24.297  1.00  0.00     0.032 C 
BRANCH   7  12
ATOM     12  C   UNL A   1      33.218  20.062  25.217  1.00  0.00     0.228 C 
ATOM     13  O   UNL A   1      32.167  19.440  25.412  1.00  0.00    -0.275 OA
BRANCH  12  14
ATOM     14  C   UNL A   1      34.441  19.293  24.734  1.00  0.00     0.161 C 
BRANCH  14  15
ATOM     15  C   UNL A   1      34.333  17.874  24.191  1.00  0.00     0.270 C 
BRANCH  15  16
ATOM     16  N   UNL A   1      33.040  17.376  23.730  1.00  0.00    -0.348 N 
ATOM     17  C   UNL A   1      32.731  17.644  22.336  1.00  0.00     0.330 C 
ATOM     18  H   UNL A   1      33.024  16.364  23.869  1.00  0.00     0.346 HD
ATOM     19  H   UNL A   1      32.337  17.873  24.276  1.00  0.00     0.346 HD
ENDBRANCH  15  16
ENDBRANCH  14  15
ENDBRANCH  12  14
ENDBRANCH   7  12
ENDBRANCH   4   6
ENDBRANCH   3   4
ENDBRANCH   2   3
ENDBRANCH   1   2
BRANCH   1  20
ATOM     20  O   UNL A   1      31.569  28.643  25.150  1.00  0.00    -0.374 OA
BRANCH  20  21
ATOM     21  C   UNL A   1      31.613  30.009  25.557  1.00  0.00     0.202 C 
BRANCH  21  22
ATOM     22  C   UNL A   1      32.321  30.275  26.890  1.00  0.00     0.261 C 
BRANCH  22  23
ATOM     23  O   UNL A   1      33.736  30.456  26.704  1.00  0.00    -0.460 OA
BRANCH  23  24
ATOM     24  C   UNL A   1      34.324  31.328  27.558  1.00  0.00     0.338 C 
ATOM     25  O   UNL A   1      33.782  32.264  28.126  1.00  0.00    -0.246 OA
BRANCH  24  26
ATOM     26  C   UNL A   1      35.698  30.883  27.885  1.00  0.00     0.060 A 
ATOM     27  C   UNL A   1      35.963  29.510  27.819  1.00  0.00     0.016 A 
ATOM     28  C   UNL A   1      36.711  31.768  28.267  1.00  0.00     0.016 A 
ATOM     29  C   UNL A   1      37.202  29.013  28.219  1.00  0.00     0.010 A 
ATOM     30  C   UNL A   1      37.971  31.270  28.623  1.00  0.00     0.010 A 
ATOM     31  C   UNL A   1      38.200  29.883  28.679  1.00  0.00    -0.014 A 
BRANCH  31  32
ATOM     32  C   UNL A   1      39.358  29.325  29.434  1.00  0.00     0.031 A 
ATOM     33  C   UNL A   1      39.502  29.688  30.897  1.00  0.00     0.074 A 
ATOM     34  C   UNL A   1      40.215  28.444  28.879  1.00  0.00     0.049 A 
ATOM     35  N   UNL A   1      40.384  29.276  31.771  1.00  0.00    -0.248 NA
ATOM     36  C   UNL A   1      38.527  30.647  31.447  1.00  0.00     0.031 C 
ATOM     37  C   UNL A   1      40.188  27.986  27.490  1.00  0.00     0.029 A 
ATOM     38  N   UNL A   1      41.277  27.764  29.430  1.00  0.00    -0.354 N 
ATOM     39  C   UNL A   1      40.083  29.939  32.956  1.00  0.00     0.074 A 
ATOM     40  C   UNL A   1      38.966  30.813  32.684  1.00  0.00     0.031 C 
ATOM     41  C   UNL A   1      41.174  27.089  27.303  1.00  0.00     0.029 A 
ATOM     42  C   UNL A   1      41.922  26.927  28.549  1.00  0.00     0.049 A 
ATOM     43  H   UNL A   1      41.551  27.867  30.369  1.00  0.00     0.167 HD
ATOM     44  C   UNL A   1      40.664  29.823  34.172  1.00  0.00     0.031 A 
ATOM     45  C   UNL A   1      42.991  26.123  28.723  1.00  0.00     0.031 A 
ATOM     46  C   UNL A   1      41.751  28.930  34.466  1.00  0.00     0.049 A 
ATOM     47  C   UNL A   1      43.634  26.029  30.088  1.00  0.00     0.074 A 
ATOM     48  C   UNL A   1      42.371  28.708  35.684  1.00  0.00     0.029 A 
ATOM     49  N   UNL A   1      42.379  28.114  33.540  1.00  0.00    -0.354 N 
ATOM     50  N   UNL A   1      43.296  26.626  31.206  1.00  0.00    -0.248 NA
ATOM     51  C   UNL A   1      44.793  25.131  30.217  1.00  0.00     0.031 C 
ATOM     52  C   UNL A   1      43.418  27.804  35.481  1.00  0.00     0.029 A 
ATOM     53  C   UNL A   1      43.397  27.405  34.155  1.00  0.00     0.049 A 
ATOM     54  H   UNL A   1      42.137  28.047  32.588  1.00  0.00     0.167 HD
ATOM     55  C   UNL A   1      44.168  26.138  32.176  1.00  0.00     0.074 A 
ATOM     56  C   UNL A   1      45.036  25.186  31.518  1.00  0.00     0.031 C 
ATOM     57  C   UNL A   1      44.242  26.445  33.496  1.00  0.00     0.031 A 
BRANCH  44  58
ATOM     58  C   UNL A   1      40.153  30.695  35.289  1.00  0.00    -0.014 A 
ATOM     59  C   UNL A   1      40.953  31.699  35.862  1.00  0.00     0.010 A 
ATOM     60  C   UNL A   1      38.816  30.559  35.706  1.00  0.00     0.010 A 
ATOM     61  C   UNL A   1      40.427  32.546  36.841  1.00  0.00     0.020 A 
ATOM     62  C   UNL A   1      38.279  31.424  36.662  1.00  0.00     0.020 A 
ATOM     63  C   UNL A   1      39.090  32.409  37.228  1.00  0.00     0.054 A 
BRANCH  63  64
ATOM     64  S   UNL A   1      38.411  33.577  38.438  1.00  0.00     0.124 S 
ATOM     65  O   UNL A   1      38.274  34.793  37.640  1.00  0.00    -0.237 OA
ATOM     66  O   UNL A   1      37.157  32.937  38.827  1.00  0.00    -0.237 OA
ATOM     67  O   UNL A   1      39.430  33.629  39.482  1.00  0.00    -0.744 OA
ENDBRANCH  63  64
ENDBRANCH  44  58
BRANCH  45  68
ATOM     68  C   UNL A   1      43.556  25.342  27.582  1.00  0.00    -0.014 A 
ATOM     69  C   UNL A   1      43.142  24.021  27.327  1.00  0.00     0.010 A 
ATOM     70  C   UNL A   1      44.576  25.898  26.787  1.00  0.00     0.010 A 
ATOM     71  C   UNL A   1      43.775  23.256  26.340  1.00  0.00     0.020 A 
ATOM     72  C   UNL A   1      45.184  25.149  25.775  1.00  0.00     0.020 A 
ATOM     73  C   UNL A   1      44.796  23.824  25.575  1.00  0.00     0.054 A 
BRANCH  73  74
ATOM     74  S   UNL A   1      45.609  22.814  24.305  1.00  0.00     0.124 S 
ATOM     75  O   UNL A   1      46.142  21.707  25.093  1.00  0.00    -0.237 OA
ATOM     76  O   UNL A   1      44.503  22.481  23.411  1.00  0.00    -0.237 OA
ATOM     77  O   UNL A   1      46.608  23.718  23.739  1.00  0.00    -0.744 OA
ENDBRANCH  73  74
ENDBRANCH  45  68
BRANCH  57  78
ATOM     78  C   UNL A   1      45.240  25.690  34.338  1.00  0.00    -0.014 A 
ATOM     79  C   UNL A   1      46.550  26.158  34.539  1.00  0.00     0.010 A 
ATOM     80  C   UNL A   1      44.838  24.496  34.968  1.00  0.00     0.010 A 
ATOM     81  C   UNL A   1      47.458  25.414  35.299  1.00  0.00     0.020 A 
ATOM     82  C   UNL A   1      45.730  23.769  35.759  1.00  0.00     0.020 A 
ATOM     83  C   UNL A   1      47.043  24.219  35.898  1.00  0.00     0.054 A 
BRANCH  83  84
ATOM     84  S   UNL A   1      48.239  23.270  36.877  1.00  0.00     0.124 S 
ATOM     85  O   UNL A   1      49.412  24.138  36.846  1.00  0.00    -0.237 OA
ATOM     86  O   UNL A   1      47.574  23.156  38.173  1.00  0.00    -0.237 OA
ATOM     87  O   UNL A   1      48.373  22.015  36.139  1.00  0.00    -0.744 OA
ENDBRANCH  83  84
ENDBRANCH  57  78
ENDBRANCH  31  32
ENDBRANCH  24  26
ENDBRANCH  23  24
ENDBRANCH  22  23
ENDBRANCH  21  22
ENDBRANCH  20  21
ENDBRANCH   1  20
TORSDOF 21
ENDMDL
