MODEL 1
REMARK VINA RESULT:      -9.4      0.000      0.000
REMARK SMILES Cc1cc(C)c2c(OCCCC(=O)OCCOCCOC(=O)c3ccc(-c4c5nc(c(-c6ccc(S(=O)(=O)[O-])cc6)c6ccc([nH]6)c(-c6ccc(S(=O)(=O)[O-])cc6)c6nc(c(-c7ccc(S(=O)(=O)[O-])cc7)c7ccc4[nH]7)C=C6)C=C5)cc3)nsc2n1
REMARK SMILES IDX 16 1 15 2 14 3 12 4 13 5 11 6 10 7 9 8 8 9 7 10 1 11 2 12
REMARK SMILES IDX 3 13 86 14 4 15 85 16 5 17 6 18 84 19 83 20 17 21 18 22
REMARK SMILES IDX 19 23 20 24 21 25 22 26 23 27 24 28 82 29 25 30 81 31 26 32
REMARK SMILES IDX 27 33 28 34 75 35 29 36 80 37 74 38 76 39 30 40 79 41 73 42
REMARK SMILES IDX 72 43 31 45 61 46 42 47 60 48 43 49 46 50 59 51 77 52 44 53
REMARK SMILES IDX 45 54 58 56 78 57 47 58 32 59 33 60 41 61 34 62 40 63 35 64
REMARK SMILES IDX 36 65 37 66 38 67 39 68 62 69 63 70 71 71 64 72 70 73 65 74
REMARK SMILES IDX 66 75 67 76 68 77 69 78 48 79 49 80 57 81 50 82 56 83 51 84
REMARK SMILES IDX 52 85 53 86 54 87 55 88
REMARK H PARENT 76 44 46 55
REMARK Flexibility Score: inf
ROOT
ATOM      1  C   UNL A   1      42.309  18.709  26.288  1.00  0.00     0.202 C 
ENDROOT
BRANCH   1   2
ATOM      2  C   UNL A   1      43.534  18.725  25.384  1.00  0.00     0.261 C 
BRANCH   2   3
ATOM      3  O   UNL A   1      43.880  20.032  24.838  1.00  0.00    -0.463 OA
BRANCH   3   4
ATOM      4  C   UNL A   1      45.213  20.231  24.673  1.00  0.00     0.305 C 
ATOM      5  O   UNL A   1      45.950  19.417  24.118  1.00  0.00    -0.252 OA
BRANCH   4   6
ATOM      6  C   UNL A   1      45.812  21.483  25.301  1.00  0.00     0.126 C 
BRANCH   6   7
ATOM      7  C   UNL A   1      46.112  22.760  24.521  1.00  0.00     0.053 C 
BRANCH   7   8
ATOM      8  C   UNL A   1      45.501  24.116  24.927  1.00  0.00     0.232 C 
BRANCH   8   9
ATOM      9  O   UNL A   1      46.075  24.868  25.984  1.00  0.00    -0.477 OA
BRANCH   9  10
ATOM     10  C   UNL A   1      46.232  26.206  25.848  1.00  0.00     0.235 A 
ATOM     11  C   UNL A   1      49.413  30.094  28.129  1.00  0.00     0.067 C 
ATOM     12  C   UNL A   1      48.226  29.283  27.694  1.00  0.00     0.039 A 
ATOM     13  C   UNL A   1      47.588  28.457  28.609  1.00  0.00     0.027 A 
ATOM     14  N   UNL A   1      47.932  29.295  26.386  1.00  0.00    -0.240 NA
ATOM     15  C   UNL A   1      46.742  27.414  28.185  1.00  0.00    -0.034 A 
ATOM     16  C   UNL A   1      47.134  28.285  25.998  1.00  0.00     0.147 A 
ATOM     17  C   UNL A   1      46.094  26.567  29.247  1.00  0.00     0.045 C 
ATOM     18  C   UNL A   1      46.625  27.242  26.779  1.00  0.00     0.078 A 
ATOM     19  S   UNL A   1      46.637  28.099  24.383  1.00  0.00    -0.012 S 
ATOM     20  N   UNL A   1      46.050  26.569  24.577  1.00  0.00    -0.153 NA
ENDBRANCH   9  10
ENDBRANCH   8   9
ENDBRANCH   7   8
ENDBRANCH   6   7
ENDBRANCH   4   6
ENDBRANCH   3   4
ENDBRANCH   2   3
ENDBRANCH   1   2
BRANCH   1  21
ATOM     21  O   UNL A   1      41.057  18.977  25.662  1.00  0.00    -0.374 OA
BRANCH  21  22
ATOM     22  C   UNL A   1      40.313  20.109  26.097  1.00  0.00     0.202 C 
BRANCH  22  23
ATOM     23  C   UNL A   1      40.960  20.995  27.156  1.00  0.00     0.261 C 
BRANCH  23  24
ATOM     24  O   UNL A   1      41.614  22.131  26.605  1.00  0.00    -0.460 OA
BRANCH  24  25
ATOM     25  C   UNL A   1      40.886  23.266  26.716  1.00  0.00     0.338 C 
ATOM     26  O   UNL A   1      39.676  23.347  26.911  1.00  0.00    -0.246 OA
BRANCH  25  27
ATOM     27  C   UNL A   1      41.731  24.436  26.437  1.00  0.00     0.060 A 
ATOM     28  C   UNL A   1      42.729  24.651  27.390  1.00  0.00     0.016 A 
ATOM     29  C   UNL A   1      41.178  25.481  25.682  1.00  0.00     0.016 A 
ATOM     30  C   UNL A   1      42.852  25.924  27.884  1.00  0.00     0.010 A 
ATOM     31  C   UNL A   1      41.313  26.757  26.170  1.00  0.00     0.010 A 
ATOM     32  C   UNL A   1      42.025  26.920  27.356  1.00  0.00    -0.014 A 
BRANCH  32  33
ATOM     33  C   UNL A   1      41.823  28.092  28.176  1.00  0.00     0.031 A 
ATOM     34  C   UNL A   1      42.910  29.082  28.100  1.00  0.00     0.074 A 
ATOM     35  C   UNL A   1      40.711  28.270  28.911  1.00  0.00     0.049 A 
ATOM     36  N   UNL A   1      43.729  29.437  29.030  1.00  0.00    -0.248 NA
ATOM     37  C   UNL A   1      43.193  29.640  26.773  1.00  0.00     0.031 C 
ATOM     38  C   UNL A   1      39.447  27.529  28.856  1.00  0.00     0.029 A 
ATOM     39  N   UNL A   1      40.446  29.268  29.792  1.00  0.00    -0.354 N 
ATOM     40  C   UNL A   1      44.551  30.391  28.447  1.00  0.00     0.074 A 
ATOM     41  C   UNL A   1      44.277  30.367  27.029  1.00  0.00     0.031 C 
ATOM     42  C   UNL A   1      38.484  28.262  29.464  1.00  0.00     0.029 A 
ATOM     43  C   UNL A   1      39.098  29.439  30.060  1.00  0.00     0.049 A 
ATOM     44  H   UNL A   1      41.150  29.820  30.203  1.00  0.00     0.167 HD
ATOM     45  C   UNL A   1      45.271  31.288  29.170  1.00  0.00     0.031 A 
ATOM     46  C   UNL A   1      38.537  30.538  30.622  1.00  0.00     0.031 A 
ATOM     47  C   UNL A   1      45.354  30.950  30.562  1.00  0.00     0.049 A 
ATOM     48  C   UNL A   1      39.619  31.286  31.316  1.00  0.00     0.074 A 
ATOM     49  C   UNL A   1      45.914  29.906  31.272  1.00  0.00     0.029 A 
ATOM     50  N   UNL A   1      44.468  31.558  31.420  1.00  0.00    -0.354 N 
ATOM     51  N   UNL A   1      40.251  30.836  32.364  1.00  0.00    -0.248 NA
ATOM     52  C   UNL A   1      40.307  32.341  30.587  1.00  0.00     0.031 C 
ATOM     53  C   UNL A   1      45.012  29.658  32.347  1.00  0.00     0.029 A 
ATOM     54  C   UNL A   1      43.969  30.582  32.251  1.00  0.00     0.049 A 
ATOM     55  H   UNL A   1      44.233  32.514  31.436  1.00  0.00     0.167 HD
ATOM     56  C   UNL A   1      41.567  31.245  32.200  1.00  0.00     0.074 A 
ATOM     57  C   UNL A   1      41.520  32.250  31.142  1.00  0.00     0.031 C 
ATOM     58  C   UNL A   1      42.606  30.541  32.743  1.00  0.00     0.031 A 
BRANCH  45  59
ATOM     59  C   UNL A   1      45.621  32.638  28.627  1.00  0.00    -0.014 A 
ATOM     60  C   UNL A   1      46.946  32.940  28.277  1.00  0.00     0.010 A 
ATOM     61  C   UNL A   1      44.691  33.703  28.657  1.00  0.00     0.010 A 
ATOM     62  C   UNL A   1      47.322  34.256  27.974  1.00  0.00     0.020 A 
ATOM     63  C   UNL A   1      45.045  35.003  28.310  1.00  0.00     0.020 A 
ATOM     64  C   UNL A   1      46.368  35.277  27.997  1.00  0.00     0.054 A 
BRANCH  64  65
ATOM     65  S   UNL A   1      46.881  36.983  27.689  1.00  0.00     0.124 S 
ATOM     66  O   UNL A   1      45.653  37.577  27.171  1.00  0.00    -0.237 OA
ATOM     67  O   UNL A   1      47.291  37.430  29.018  1.00  0.00    -0.237 OA
ATOM     68  O   UNL A   1      47.968  36.846  26.722  1.00  0.00    -0.744 OA
ENDBRANCH  64  65
ENDBRANCH  45  59
BRANCH  46  69
ATOM     69  C   UNL A   1      37.251  31.164  30.228  1.00  0.00    -0.014 A 
ATOM     70  C   UNL A   1      36.463  31.851  31.168  1.00  0.00     0.010 A 
ATOM     71  C   UNL A   1      36.933  31.323  28.861  1.00  0.00     0.010 A 
ATOM     72  C   UNL A   1      35.433  32.713  30.752  1.00  0.00     0.020 A 
ATOM     73  C   UNL A   1      35.903  32.170  28.440  1.00  0.00     0.020 A 
ATOM     74  C   UNL A   1      35.175  32.882  29.388  1.00  0.00     0.054 A 
BRANCH  74  75
ATOM     75  S   UNL A   1      33.968  34.130  28.853  1.00  0.00     0.124 S 
ATOM     76  O   UNL A   1      33.259  34.427  30.093  1.00  0.00    -0.237 OA
ATOM     77  O   UNL A   1      34.824  35.196  28.341  1.00  0.00    -0.237 OA
ATOM     78  O   UNL A   1      33.178  33.433  27.838  1.00  0.00    -0.744 OA
ENDBRANCH  74  75
ENDBRANCH  46  69
BRANCH  58  79
ATOM     79  C   UNL A   1      42.278  29.447  33.737  1.00  0.00    -0.014 A 
ATOM     80  C   UNL A   1      42.258  28.079  33.399  1.00  0.00     0.010 A 
ATOM     81  C   UNL A   1      42.128  29.802  35.089  1.00  0.00     0.010 A 
ATOM     82  C   UNL A   1      42.060  27.096  34.380  1.00  0.00     0.020 A 
ATOM     83  C   UNL A   1      41.948  28.827  36.076  1.00  0.00     0.020 A 
ATOM     84  C   UNL A   1      41.905  27.479  35.715  1.00  0.00     0.054 A 
BRANCH  84  85
ATOM     85  S   UNL A   1      41.688  26.199  36.985  1.00  0.00     0.124 S 
ATOM     86  O   UNL A   1      42.869  26.381  37.825  1.00  0.00    -0.237 OA
ATOM     87  O   UNL A   1      40.415  26.565  37.601  1.00  0.00    -0.237 OA
ATOM     88  O   UNL A   1      41.660  24.951  36.221  1.00  0.00    -0.744 OA
ENDBRANCH  84  85
ENDBRANCH  58  79
ENDBRANCH  32  33
ENDBRANCH  25  27
ENDBRANCH  24  25
ENDBRANCH  23  24
ENDBRANCH  22  23
ENDBRANCH  21  22
ENDBRANCH   1  21
TORSDOF 21
ENDMDL
MODEL 2
REMARK VINA RESULT:      -8.3      4.623     11.638
REMARK SMILES Cc1cc(C)c2c(OCCCC(=O)OCCOCCOC(=O)c3ccc(-c4c5nc(c(-c6ccc(S(=O)(=O)[O-])cc6)c6ccc([nH]6)c(-c6ccc(S(=O)(=O)[O-])cc6)c6nc(c(-c7ccc(S(=O)(=O)[O-])cc7)c7ccc4[nH]7)C=C6)C=C5)cc3)nsc2n1
REMARK SMILES IDX 16 1 15 2 14 3 12 4 13 5 11 6 10 7 9 8 8 9 7 10 1 11 2 12
REMARK SMILES IDX 3 13 86 14 4 15 85 16 5 17 6 18 84 19 83 20 17 21 18 22
REMARK SMILES IDX 19 23 20 24 21 25 22 26 23 27 24 28 82 29 25 30 81 31 26 32
REMARK SMILES IDX 27 33 28 34 75 35 29 36 80 37 74 38 76 39 30 40 79 41 73 42
REMARK SMILES IDX 72 43 31 45 61 46 42 47 60 48 43 49 46 50 59 51 77 52 44 53
REMARK SMILES IDX 45 54 58 56 78 57 47 58 32 59 33 60 41 61 34 62 40 63 35 64
REMARK SMILES IDX 36 65 37 66 38 67 39 68 62 69 63 70 71 71 64 72 70 73 65 74
REMARK SMILES IDX 66 75 67 76 68 77 69 78 48 79 49 80 57 81 50 82 56 83 51 84
REMARK SMILES IDX 52 85 53 86 54 87 55 88
REMARK H PARENT 76 44 46 55
REMARK Flexibility Score: inf
ROOT
ATOM      1  C   UNL A   1      31.872  30.070  25.665  1.00  0.00     0.202 C 
ENDROOT
BRANCH   1   2
ATOM      2  C   UNL A   1      31.310  29.092  24.642  1.00  0.00     0.261 C 
BRANCH   2   3
ATOM      3  O   UNL A   1      30.275  29.638  23.772  1.00  0.00    -0.463 OA
BRANCH   3   4
ATOM      4  C   UNL A   1      30.028  28.891  22.664  1.00  0.00     0.305 C 
ATOM      5  O   UNL A   1      29.548  29.359  21.633  1.00  0.00    -0.252 OA
BRANCH   4   6
ATOM      6  C   UNL A   1      30.273  27.391  22.769  1.00  0.00     0.126 C 
BRANCH   6   7
ATOM      7  C   UNL A   1      31.387  26.663  22.022  1.00  0.00     0.053 C 
BRANCH   7   8
ATOM      8  C   UNL A   1      32.061  25.404  22.605  1.00  0.00     0.232 C 
BRANCH   8   9
ATOM      9  O   UNL A   1      33.009  25.523  23.652  1.00  0.00    -0.477 OA
BRANCH   9  10
ATOM     10  C   UNL A   1      33.636  24.418  24.119  1.00  0.00     0.235 A 
ATOM     11  C   UNL A   1      32.546  19.014  24.334  1.00  0.00     0.067 C 
ATOM     12  C   UNL A   1      32.835  20.436  24.718  1.00  0.00     0.039 A 
ATOM     13  C   UNL A   1      31.803  21.246  25.174  1.00  0.00     0.027 A 
ATOM     14  N   UNL A   1      34.069  20.894  24.461  1.00  0.00    -0.240 NA
ATOM     15  C   UNL A   1      31.926  22.649  25.181  1.00  0.00    -0.034 A 
ATOM     16  C   UNL A   1      34.163  22.235  24.461  1.00  0.00     0.147 A 
ATOM     17  C   UNL A   1      30.756  23.447  25.690  1.00  0.00     0.045 C 
ATOM     18  C   UNL A   1      33.140  23.169  24.658  1.00  0.00     0.078 A 
ATOM     19  S   UNL A   1      35.631  23.035  24.152  1.00  0.00    -0.012 S 
ATOM     20  N   UNL A   1      34.955  24.528  23.955  1.00  0.00    -0.153 NA
ENDBRANCH   9  10
ENDBRANCH   8   9
ENDBRANCH   7   8
ENDBRANCH   6   7
ENDBRANCH   4   6
ENDBRANCH   3   4
ENDBRANCH   2   3
ENDBRANCH   1   2
BRANCH   1  21
ATOM     21  O   UNL A   1      33.264  29.959  25.949  1.00  0.00    -0.374 OA
BRANCH  21  22
ATOM     22  C   UNL A   1      33.711  30.246  27.268  1.00  0.00     0.202 C 
BRANCH  22  23
ATOM     23  C   UNL A   1      33.882  31.717  27.633  1.00  0.00     0.261 C 
BRANCH  23  24
ATOM     24  O   UNL A   1      34.484  31.905  28.908  1.00  0.00    -0.460 OA
BRANCH  24  25
ATOM     25  C   UNL A   1      35.835  31.884  28.864  1.00  0.00     0.338 C 
ATOM     26  O   UNL A   1      36.550  32.368  27.989  1.00  0.00    -0.246 OA
BRANCH  25  27
ATOM     27  C   UNL A   1      36.363  31.068  29.966  1.00  0.00     0.060 A 
ATOM     28  C   UNL A   1      37.270  31.743  30.784  1.00  0.00     0.016 A 
ATOM     29  C   UNL A   1      36.402  29.676  29.793  1.00  0.00     0.016 A 
ATOM     30  C   UNL A   1      38.449  31.102  31.066  1.00  0.00     0.010 A 
ATOM     31  C   UNL A   1      37.578  29.032  30.088  1.00  0.00     0.010 A 
ATOM     32  C   UNL A   1      38.629  29.805  30.576  1.00  0.00    -0.014 A 
BRANCH  32  33
ATOM     33  C   UNL A   1      39.993  29.342  30.462  1.00  0.00     0.031 A 
ATOM     34  C   UNL A   1      40.668  29.115  31.750  1.00  0.00     0.074 A 
ATOM     35  C   UNL A   1      40.573  29.104  29.272  1.00  0.00     0.049 A 
ATOM     36  N   UNL A   1      41.670  29.756  32.248  1.00  0.00    -0.248 NA
ATOM     37  C   UNL A   1      40.049  28.132  32.647  1.00  0.00     0.031 C 
ATOM     38  C   UNL A   1      39.946  29.004  27.950  1.00  0.00     0.029 A 
ATOM     39  N   UNL A   1      41.864  28.767  29.027  1.00  0.00    -0.354 N 
ATOM     40  C   UNL A   1      41.915  29.154  33.474  1.00  0.00     0.074 A 
ATOM     41  C   UNL A   1      40.804  28.269  33.734  1.00  0.00     0.031 C 
ATOM     42  C   UNL A   1      40.801  28.379  27.107  1.00  0.00     0.029 A 
ATOM     43  C   UNL A   1      42.066  28.169  27.794  1.00  0.00     0.049 A 
ATOM     44  H   UNL A   1      42.592  28.933  29.669  1.00  0.00     0.167 HD
ATOM     45  C   UNL A   1      43.104  29.258  34.124  1.00  0.00     0.031 A 
ATOM     46  C   UNL A   1      43.157  27.449  27.434  1.00  0.00     0.031 A 
ATOM     47  C   UNL A   1      43.945  30.293  33.594  1.00  0.00     0.049 A 
ATOM     48  C   UNL A   1      44.257  27.809  28.368  1.00  0.00     0.074 A 
ATOM     49  C   UNL A   1      43.852  31.668  33.514  1.00  0.00     0.029 A 
ATOM     50  N   UNL A   1      44.914  29.926  32.690  1.00  0.00    -0.354 N 
ATOM     51  N   UNL A   1      44.812  28.988  28.412  1.00  0.00    -0.248 NA
ATOM     52  C   UNL A   1      44.447  26.994  29.560  1.00  0.00     0.031 C 
ATOM     53  C   UNL A   1      44.429  32.009  32.257  1.00  0.00     0.029 A 
ATOM     54  C   UNL A   1      44.869  30.829  31.655  1.00  0.00     0.049 A 
ATOM     55  H   UNL A   1      45.527  29.160  32.770  1.00  0.00     0.167 HD
ATOM     56  C   UNL A   1      45.062  29.224  29.757  1.00  0.00     0.074 A 
ATOM     57  C   UNL A   1      44.908  27.923  30.403  1.00  0.00     0.031 C 
ATOM     58  C   UNL A   1      45.102  30.494  30.263  1.00  0.00     0.031 A 
BRANCH  45  59
ATOM     59  C   UNL A   1      43.597  28.182  35.039  1.00  0.00    -0.014 A 
ATOM     60  C   UNL A   1      43.693  28.415  36.420  1.00  0.00     0.010 A 
ATOM     61  C   UNL A   1      44.180  26.998  34.532  1.00  0.00     0.010 A 
ATOM     62  C   UNL A   1      44.350  27.501  37.255  1.00  0.00     0.020 A 
ATOM     63  C   UNL A   1      44.791  26.061  35.360  1.00  0.00     0.020 A 
ATOM     64  C   UNL A   1      44.897  26.333  36.715  1.00  0.00     0.054 A 
BRANCH  64  65
ATOM     65  S   UNL A   1      45.818  25.203  37.786  1.00  0.00     0.124 S 
ATOM     66  O   UNL A   1      47.088  25.906  37.942  1.00  0.00    -0.237 OA
ATOM     67  O   UNL A   1      44.973  25.145  38.977  1.00  0.00    -0.237 OA
ATOM     68  O   UNL A   1      45.877  23.966  37.011  1.00  0.00    -0.744 OA
ENDBRANCH  64  65
ENDBRANCH  45  59
BRANCH  46  69
ATOM     69  C   UNL A   1      43.158  26.201  26.633  1.00  0.00    -0.014 A 
ATOM     70  C   UNL A   1      44.040  26.036  25.551  1.00  0.00     0.010 A 
ATOM     71  C   UNL A   1      42.479  25.057  27.107  1.00  0.00     0.010 A 
ATOM     72  C   UNL A   1      44.279  24.764  25.003  1.00  0.00     0.020 A 
ATOM     73  C   UNL A   1      42.703  23.790  26.561  1.00  0.00     0.020 A 
ATOM     74  C   UNL A   1      43.624  23.645  25.528  1.00  0.00     0.054 A 
BRANCH  74  75
ATOM     75  S   UNL A   1      44.072  21.987  24.937  1.00  0.00     0.124 S 
ATOM     76  O   UNL A   1      42.915  21.192  25.337  1.00  0.00    -0.237 OA
ATOM     77  O   UNL A   1      44.231  22.198  23.501  1.00  0.00    -0.237 OA
ATOM     78  O   UNL A   1      45.310  21.688  25.657  1.00  0.00    -0.744 OA
ENDBRANCH  74  75
ENDBRANCH  46  69
BRANCH  58  79
ATOM     79  C   UNL A   1      45.118  31.648  29.283  1.00  0.00    -0.014 A 
ATOM     80  C   UNL A   1      46.302  32.163  28.718  1.00  0.00     0.010 A 
ATOM     81  C   UNL A   1      43.886  32.132  28.808  1.00  0.00     0.010 A 
ATOM     82  C   UNL A   1      46.255  33.159  27.730  1.00  0.00     0.020 A 
ATOM     83  C   UNL A   1      43.832  33.111  27.810  1.00  0.00     0.020 A 
ATOM     84  C   UNL A   1      45.017  33.627  27.283  1.00  0.00     0.054 A 
BRANCH  84  85
ATOM     85  S   UNL A   1      44.965  34.887  25.976  1.00  0.00     0.124 S 
ATOM     86  O   UNL A   1      43.639  34.688  25.396  1.00  0.00    -0.237 OA
ATOM     87  O   UNL A   1      45.148  36.132  26.718  1.00  0.00    -0.237 OA
ATOM     88  O   UNL A   1      46.081  34.528  25.100  1.00  0.00    -0.744 OA
ENDBRANCH  84  85
ENDBRANCH  58  79
ENDBRANCH  32  33
ENDBRANCH  25  27
ENDBRANCH  24  25
ENDBRANCH  23  24
ENDBRANCH  22  23
ENDBRANCH  21  22
ENDBRANCH   1  21
TORSDOF 21
ENDMDL
MODEL 3
REMARK VINA RESULT:      -8.2      3.740      6.563
REMARK SMILES Cc1cc(C)c2c(OCCCC(=O)OCCOCCOC(=O)c3ccc(-c4c5nc(c(-c6ccc(S(=O)(=O)[O-])cc6)c6ccc([nH]6)c(-c6ccc(S(=O)(=O)[O-])cc6)c6nc(c(-c7ccc(S(=O)(=O)[O-])cc7)c7ccc4[nH]7)C=C6)C=C5)cc3)nsc2n1
REMARK SMILES IDX 16 1 15 2 14 3 12 4 13 5 11 6 10 7 9 8 8 9 7 10 1 11 2 12
REMARK SMILES IDX 3 13 86 14 4 15 85 16 5 17 6 18 84 19 83 20 17 21 18 22
REMARK SMILES IDX 19 23 20 24 21 25 22 26 23 27 24 28 82 29 25 30 81 31 26 32
REMARK SMILES IDX 27 33 28 34 75 35 29 36 80 37 74 38 76 39 30 40 79 41 73 42
REMARK SMILES IDX 72 43 31 45 61 46 42 47 60 48 43 49 46 50 59 51 77 52 44 53
REMARK SMILES IDX 45 54 58 56 78 57 47 58 32 59 33 60 41 61 34 62 40 63 35 64
REMARK SMILES IDX 36 65 37 66 38 67 39 68 62 69 63 70 71 71 64 72 70 73 65 74
REMARK SMILES IDX 66 75 67 76 68 77 69 78 48 79 49 80 57 81 50 82 56 83 51 84
REMARK SMILES IDX 52 85 53 86 54 87 55 88
REMARK H PARENT 76 44 46 55
REMARK Flexibility Score: inf
ROOT
ATOM      1  C   UNL A   1      41.262  19.554  26.123  1.00  0.00     0.202 C 
ENDROOT
BRANCH   1   2
ATOM      2  C   UNL A   1      40.626  20.685  26.920  1.00  0.00     0.261 C 
BRANCH   2   3
ATOM      3  O   UNL A   1      39.576  21.417  26.220  1.00  0.00    -0.463 OA
BRANCH   3   4
ATOM      4  C   UNL A   1      39.444  22.711  26.612  1.00  0.00     0.305 C 
ATOM      5  O   UNL A   1      40.346  23.342  27.161  1.00  0.00    -0.252 OA
BRANCH   4   6
ATOM      6  C   UNL A   1      38.072  23.351  26.441  1.00  0.00     0.126 C 
BRANCH   6   7
ATOM      7  C   UNL A   1      37.354  23.465  25.099  1.00  0.00     0.053 C 
BRANCH   7   8
ATOM      8  C   UNL A   1      36.513  22.303  24.533  1.00  0.00     0.232 C 
BRANCH   8   9
ATOM      9  O   UNL A   1      35.803  22.464  23.317  1.00  0.00    -0.477 OA
BRANCH   9  10
ATOM     10  C   UNL A   1      34.560  23.002  23.331  1.00  0.00     0.235 A 
ATOM     11  C   UNL A   1      30.285  23.057  26.818  1.00  0.00     0.067 C 
ATOM     12  C   UNL A   1      31.150  22.834  25.612  1.00  0.00     0.039 A 
ATOM     13  C   UNL A   1      31.671  21.571  25.365  1.00  0.00     0.027 A 
ATOM     14  N   UNL A   1      31.493  23.920  24.904  1.00  0.00    -0.240 NA
ATOM     15  C   UNL A   1      32.766  21.389  24.498  1.00  0.00    -0.034 A 
ATOM     16  C   UNL A   1      32.548  23.731  24.092  1.00  0.00     0.147 A 
ATOM     17  C   UNL A   1      33.266  19.984  24.293  1.00  0.00     0.045 C 
ATOM     18  C   UNL A   1      33.318  22.573  23.939  1.00  0.00     0.078 A 
ATOM     19  S   UNL A   1      33.160  24.973  23.106  1.00  0.00    -0.012 S 
ATOM     20  N   UNL A   1      34.559  24.186  22.718  1.00  0.00    -0.153 NA
ENDBRANCH   9  10
ENDBRANCH   8   9
ENDBRANCH   7   8
ENDBRANCH   6   7
ENDBRANCH   4   6
ENDBRANCH   3   4
ENDBRANCH   2   3
ENDBRANCH   1   2
BRANCH   1  21
ATOM     21  O   UNL A   1      42.623  19.257  26.423  1.00  0.00    -0.374 OA
BRANCH  21  22
ATOM     22  C   UNL A   1      43.554  19.195  25.349  1.00  0.00     0.202 C 
BRANCH  22  23
ATOM     23  C   UNL A   1      44.501  20.379  25.189  1.00  0.00     0.261 C 
BRANCH  23  24
ATOM     24  O   UNL A   1      44.249  21.421  26.123  1.00  0.00    -0.460 OA
BRANCH  24  25
ATOM     25  C   UNL A   1      43.677  22.510  25.560  1.00  0.00     0.338 C 
ATOM     26  O   UNL A   1      42.628  22.542  24.923  1.00  0.00    -0.246 OA
BRANCH  25  27
ATOM     27  C   UNL A   1      44.564  23.674  25.699  1.00  0.00     0.060 A 
ATOM     28  C   UNL A   1      45.197  23.756  26.940  1.00  0.00     0.016 A 
ATOM     29  C   UNL A   1      44.284  24.809  24.923  1.00  0.00     0.016 A 
ATOM     30  C   UNL A   1      45.149  24.967  27.583  1.00  0.00     0.010 A 
ATOM     31  C   UNL A   1      44.250  26.023  25.564  1.00  0.00     0.010 A 
ATOM     32  C   UNL A   1      44.537  26.038  26.927  1.00  0.00    -0.014 A 
BRANCH  32  33
ATOM     33  C   UNL A   1      44.076  27.125  27.760  1.00  0.00     0.031 A 
ATOM     34  C   UNL A   1      44.974  28.291  27.791  1.00  0.00     0.074 A 
ATOM     35  C   UNL A   1      42.901  27.079  28.415  1.00  0.00     0.049 A 
ATOM     36  N   UNL A   1      45.653  28.746  28.789  1.00  0.00    -0.248 NA
ATOM     37  C   UNL A   1      45.246  28.940  26.504  1.00  0.00     0.031 C 
ATOM     38  C   UNL A   1      41.794  26.133  28.246  1.00  0.00     0.029 A 
ATOM     39  N   UNL A   1      42.405  27.981  29.298  1.00  0.00    -0.354 N 
ATOM     40  C   UNL A   1      46.333  29.850  28.294  1.00  0.00     0.074 A 
ATOM     41  C   UNL A   1      46.166  29.833  26.859  1.00  0.00     0.031 C 
ATOM     42  C   UNL A   1      40.678  26.664  28.799  1.00  0.00     0.029 A 
ATOM     43  C   UNL A   1      41.033  27.905  29.470  1.00  0.00     0.049 A 
ATOM     44  H   UNL A   1      42.971  28.631  29.775  1.00  0.00     0.167 HD
ATOM     45  C   UNL A   1      46.832  30.829  29.092  1.00  0.00     0.031 A 
ATOM     46  C   UNL A   1      40.250  28.868  30.016  1.00  0.00     0.031 A 
ATOM     47  C   UNL A   1      46.877  30.457  30.477  1.00  0.00     0.049 A 
ATOM     48  C   UNL A   1      41.133  29.765  30.808  1.00  0.00     0.074 A 
ATOM     49  C   UNL A   1      47.561  29.500  31.199  1.00  0.00     0.029 A 
ATOM     50  N   UNL A   1      45.840  30.869  31.281  1.00  0.00    -0.354 N 
ATOM     51  N   UNL A   1      41.761  29.392  31.889  1.00  0.00    -0.248 NA
ATOM     52  C   UNL A   1      41.675  30.951  30.161  1.00  0.00     0.031 C 
ATOM     53  C   UNL A   1      46.644  29.058  32.196  1.00  0.00     0.029 A 
ATOM     54  C   UNL A   1      45.465  29.790  32.047  1.00  0.00     0.049 A 
ATOM     55  H   UNL A   1      45.441  31.768  31.305  1.00  0.00     0.167 HD
ATOM     56  C   UNL A   1      42.993  30.029  31.834  1.00  0.00     0.074 A 
ATOM     57  C   UNL A   1      42.843  31.050  30.802  1.00  0.00     0.031 C 
ATOM     58  C   UNL A   1      44.099  29.495  32.435  1.00  0.00     0.031 A 
BRANCH  45  59
ATOM     59  C   UNL A   1      46.976  32.239  28.612  1.00  0.00    -0.014 A 
ATOM     60  C   UNL A   1      45.889  32.900  28.018  1.00  0.00     0.010 A 
ATOM     61  C   UNL A   1      48.242  32.864  28.539  1.00  0.00     0.010 A 
ATOM     62  C   UNL A   1      46.068  34.133  27.375  1.00  0.00     0.020 A 
ATOM     63  C   UNL A   1      48.420  34.110  27.947  1.00  0.00     0.020 A 
ATOM     64  C   UNL A   1      47.334  34.725  27.342  1.00  0.00     0.054 A 
BRANCH  64  65
ATOM     65  S   UNL A   1      47.570  36.272  26.435  1.00  0.00     0.124 S 
ATOM     66  O   UNL A   1      48.004  37.177  27.496  1.00  0.00    -0.237 OA
ATOM     67  O   UNL A   1      48.588  35.906  25.455  1.00  0.00    -0.237 OA
ATOM     68  O   UNL A   1      46.248  36.549  25.878  1.00  0.00    -0.744 OA
ENDBRANCH  64  65
ENDBRANCH  45  59
BRANCH  46  69
ATOM     69  C   UNL A   1      38.905  29.277  29.544  1.00  0.00    -0.014 A 
ATOM     70  C   UNL A   1      37.881  29.588  30.456  1.00  0.00     0.010 A 
ATOM     71  C   UNL A   1      38.708  29.628  28.190  1.00  0.00     0.010 A 
ATOM     72  C   UNL A   1      36.731  30.280  30.039  1.00  0.00     0.020 A 
ATOM     73  C   UNL A   1      37.562  30.307  27.766  1.00  0.00     0.020 A 
ATOM     74  C   UNL A   1      36.590  30.654  28.698  1.00  0.00     0.054 A 
BRANCH  74  75
ATOM     75  S   UNL A   1      35.191  31.702  28.204  1.00  0.00     0.124 S 
ATOM     76  O   UNL A   1      34.450  30.825  27.304  1.00  0.00    -0.237 OA
ATOM     77  O   UNL A   1      34.548  31.990  29.482  1.00  0.00    -0.237 OA
ATOM     78  O   UNL A   1      35.832  32.850  27.563  1.00  0.00    -0.744 OA
ENDBRANCH  74  75
ENDBRANCH  46  69
BRANCH  58  79
ATOM     79  C   UNL A   1      43.901  28.323  33.373  1.00  0.00    -0.014 A 
ATOM     80  C   UNL A   1      43.847  28.458  34.774  1.00  0.00     0.010 A 
ATOM     81  C   UNL A   1      43.617  27.065  32.813  1.00  0.00     0.010 A 
ATOM     82  C   UNL A   1      43.549  27.359  35.594  1.00  0.00     0.020 A 
ATOM     83  C   UNL A   1      43.302  25.969  33.623  1.00  0.00     0.020 A 
ATOM     84  C   UNL A   1      43.279  26.119  35.010  1.00  0.00     0.054 A 
BRANCH  84  85
ATOM     85  S   UNL A   1      42.857  24.710  36.076  1.00  0.00     0.124 S 
ATOM     86  O   UNL A   1      44.038  23.859  35.961  1.00  0.00    -0.237 OA
ATOM     87  O   UNL A   1      42.657  25.337  37.380  1.00  0.00    -0.237 OA
ATOM     88  O   UNL A   1      41.642  24.165  35.468  1.00  0.00    -0.744 OA
ENDBRANCH  84  85
ENDBRANCH  58  79
ENDBRANCH  32  33
ENDBRANCH  25  27
ENDBRANCH  24  25
ENDBRANCH  23  24
ENDBRANCH  22  23
ENDBRANCH  21  22
ENDBRANCH   1  21
TORSDOF 21
ENDMDL
