MODEL 1
REMARK VINA RESULT:     -10.3      0.000      0.000
REMARK SMILES CC(C)n1cncc1C[NH2+][C@H]1[C@@H]2CC[C@@H](C2)[C@@H]1C(=O)OCCOCCOC(=O)c1ccc(-c2c3nc(c(-c4ccc(S(=O)(=O)[O-])cc4)c4ccc([nH]4)c(-c4ccc(S(=O)(=O)[O-])cc4)c4nc(c(-c5ccc(S(=O)(=O)[O-])cc5)c5ccc2[nH]5)C=C4)C=C3)cc1
REMARK SMILES IDX 22 1 21 2 20 3 18 4 19 5 17 6 11 7 12 8 13 9 16 10 15 11
REMARK SMILES IDX 14 12 10 13 9 16 8 17 4 18 5 19 6 20 7 21 2 22 1 23 3 24
REMARK SMILES IDX 23 25 24 26 25 27 26 28 27 29 28 30 29 31 30 32 88 33 31 34
REMARK SMILES IDX 87 35 32 36 33 37 34 38 81 39 35 40 86 41 80 42 82 43 36 44
REMARK SMILES IDX 85 45 79 46 78 47 37 49 67 50 48 51 66 52 49 53 52 54 65 55
REMARK SMILES IDX 83 56 50 57 51 58 64 60 84 61 53 62 38 63 39 64 47 65 40 66
REMARK SMILES IDX 46 67 41 68 42 69 43 70 44 71 45 72 68 73 69 74 77 75 70 76
REMARK SMILES IDX 76 77 71 78 72 79 73 80 74 81 75 82 54 83 55 84 63 85 56 86
REMARK SMILES IDX 62 87 57 88 58 89 59 90 60 91 61 92
REMARK H PARENT 10 14 10 15 82 48 52 59
REMARK Flexibility Score: inf
ROOT
ATOM      1  C   UNL A   1      33.564  28.396  24.990  1.00  0.00     0.202 C 
ENDROOT
BRANCH   1   2
ATOM      2  C   UNL A   1      32.910  27.023  24.847  1.00  0.00     0.261 C 
BRANCH   2   3
ATOM      3  O   UNL A   1      33.208  26.162  25.955  1.00  0.00    -0.463 OA
BRANCH   3   4
ATOM      4  C   UNL A   1      32.208  25.305  26.247  1.00  0.00     0.315 C 
ATOM      5  O   UNL A   1      31.078  25.670  26.559  1.00  0.00    -0.252 OA
BRANCH   4   6
ATOM      6  C   UNL A   1      32.575  23.843  26.152  1.00  0.00     0.160 C 
ATOM      7  C   UNL A   1      33.916  23.639  25.414  1.00  0.00     0.200 C 
ATOM      8  C   UNL A   1      33.635  22.336  24.616  1.00  0.00     0.049 C 
ATOM      9  C   UNL A   1      32.775  22.708  23.390  1.00  0.00     0.010 C 
ATOM     10  C   UNL A   1      32.603  21.597  25.478  1.00  0.00     0.014 C 
ATOM     11  C   UNL A   1      31.639  22.796  25.512  1.00  0.00     0.010 C 
ATOM     12  C   UNL A   1      31.402  23.000  24.007  1.00  0.00     0.005 C 
BRANCH   7  13
ATOM     13  N   UNL A   1      35.050  23.504  26.349  1.00  0.00    -0.338 N 
ATOM     14  H   UNL A   1      34.806  23.930  27.243  1.00  0.00     0.346 HD
ATOM     15  H   UNL A   1      35.258  22.515  26.486  1.00  0.00     0.346 HD
BRANCH  13  16
ATOM     16  C   UNL A   1      36.229  24.176  25.794  1.00  0.00     0.317 C 
BRANCH  16  17
ATOM     17  C   UNL A   1      37.499  23.530  26.185  1.00  0.00     0.093 A 
ATOM     18  N   UNL A   1      37.955  22.311  25.731  1.00  0.00    -0.327 N 
ATOM     19  C   UNL A   1      39.236  22.170  26.192  1.00  0.00     0.200 A 
ATOM     20  N   UNL A   1      39.621  23.200  26.909  1.00  0.00    -0.245 NA
ATOM     21  C   UNL A   1      38.557  24.056  26.901  1.00  0.00     0.140 A 
BRANCH  18  22
ATOM     22  C   UNL A   1      37.226  21.369  24.883  1.00  0.00     0.082 C 
ATOM     23  C   UNL A   1      37.020  21.922  23.469  1.00  0.00     0.031 C 
ATOM     24  C   UNL A   1      37.870  19.982  24.815  1.00  0.00     0.031 C 
ENDBRANCH  18  22
ENDBRANCH  16  17
ENDBRANCH  13  16
ENDBRANCH   7  13
ENDBRANCH   4   6
ENDBRANCH   3   4
ENDBRANCH   2   3
ENDBRANCH   1   2
BRANCH   1  25
ATOM     25  O   UNL A   1      32.728  29.528  25.216  1.00  0.00    -0.374 OA
BRANCH  25  26
ATOM     26  C   UNL A   1      32.373  29.920  26.539  1.00  0.00     0.202 C 
BRANCH  26  27
ATOM     27  C   UNL A   1      32.943  31.210  27.105  1.00  0.00     0.261 C 
BRANCH  27  28
ATOM     28  O   UNL A   1      34.362  31.184  27.182  1.00  0.00    -0.460 OA
BRANCH  28  29
ATOM     29  C   UNL A   1      34.856  31.882  28.227  1.00  0.00     0.338 C 
ATOM     30  O   UNL A   1      34.581  33.038  28.534  1.00  0.00    -0.246 OA
BRANCH  29  31
ATOM     31  C   UNL A   1      35.926  31.112  28.856  1.00  0.00     0.060 A 
ATOM     32  C   UNL A   1      36.976  31.855  29.391  1.00  0.00     0.016 A 
ATOM     33  C   UNL A   1      36.026  29.728  28.641  1.00  0.00     0.016 A 
ATOM     34  C   UNL A   1      38.207  31.253  29.489  1.00  0.00     0.010 A 
ATOM     35  C   UNL A   1      37.259  29.127  28.741  1.00  0.00     0.010 A 
ATOM     36  C   UNL A   1      38.351  29.919  29.079  1.00  0.00    -0.014 A 
BRANCH  36  37
ATOM     37  C   UNL A   1      39.659  29.317  29.214  1.00  0.00     0.031 A 
ATOM     38  C   UNL A   1      39.954  29.033  30.631  1.00  0.00     0.074 A 
ATOM     39  C   UNL A   1      40.489  29.028  28.195  1.00  0.00     0.049 A 
ATOM     40  N   UNL A   1      40.623  29.796  31.428  1.00  0.00    -0.248 NA
ATOM     41  C   UNL A   1      39.209  27.958  31.304  1.00  0.00     0.031 C 
ATOM     42  C   UNL A   1      40.226  29.059  26.757  1.00  0.00     0.029 A 
ATOM     43  N   UNL A   1      41.765  28.563  28.258  1.00  0.00    -0.354 N 
ATOM     44  C   UNL A   1      40.627  29.130  32.641  1.00  0.00     0.074 A 
ATOM     45  C   UNL A   1      39.553  28.174  32.576  1.00  0.00     0.031 C 
ATOM     46  C   UNL A   1      41.224  28.411  26.106  1.00  0.00     0.029 A 
ATOM     47  C   UNL A   1      42.261  28.053  27.062  1.00  0.00     0.049 A 
ATOM     48  H   UNL A   1      42.297  28.584  29.086  1.00  0.00     0.167 HD
ATOM     49  C   UNL A   1      41.727  29.182  33.441  1.00  0.00     0.031 A 
ATOM     50  C   UNL A   1      43.421  27.361  26.897  1.00  0.00     0.031 A 
ATOM     51  C   UNL A   1      42.617  30.249  33.045  1.00  0.00     0.049 A 
ATOM     52  C   UNL A   1      44.299  27.710  28.041  1.00  0.00     0.074 A 
ATOM     53  C   UNL A   1      42.499  31.617  32.897  1.00  0.00     0.029 A 
ATOM     54  N   UNL A   1      43.727  29.879  32.320  1.00  0.00    -0.354 N 
ATOM     55  N   UNL A   1      44.806  28.898  28.207  1.00  0.00    -0.248 NA
ATOM     56  C   UNL A   1      44.226  26.891  29.240  1.00  0.00     0.031 C 
ATOM     57  C   UNL A   1      43.269  31.934  31.738  1.00  0.00     0.029 A 
ATOM     58  C   UNL A   1      43.888  30.767  31.290  1.00  0.00     0.049 A 
ATOM     59  H   UNL A   1      44.307  29.107  32.511  1.00  0.00     0.167 HD
ATOM     60  C   UNL A   1      44.671  29.149  29.565  1.00  0.00     0.074 A 
ATOM     61  C   UNL A   1      44.401  27.841  30.163  1.00  0.00     0.031 C 
ATOM     62  C   UNL A   1      44.509  30.425  30.027  1.00  0.00     0.031 A 
BRANCH  49  63
ATOM     63  C   UNL A   1      42.215  27.983  34.214  1.00  0.00    -0.014 A 
ATOM     64  C   UNL A   1      42.309  28.084  35.615  1.00  0.00     0.010 A 
ATOM     65  C   UNL A   1      42.851  26.879  33.608  1.00  0.00     0.010 A 
ATOM     66  C   UNL A   1      43.055  27.163  36.359  1.00  0.00     0.020 A 
ATOM     67  C   UNL A   1      43.559  25.930  34.343  1.00  0.00     0.020 A 
ATOM     68  C   UNL A   1      43.679  26.095  35.713  1.00  0.00     0.054 A 
BRANCH  68  69
ATOM     69  S   UNL A   1      44.679  24.939  36.676  1.00  0.00     0.124 S 
ATOM     70  O   UNL A   1      44.226  25.212  38.036  1.00  0.00    -0.237 OA
ATOM     71  O   UNL A   1      44.277  23.651  36.116  1.00  0.00    -0.237 OA
ATOM     72  O   UNL A   1      46.050  25.343  36.375  1.00  0.00    -0.744 OA
ENDBRANCH  68  69
ENDBRANCH  49  63
BRANCH  50  73
ATOM     73  C   UNL A   1      43.693  26.178  26.036  1.00  0.00    -0.014 A 
ATOM     74  C   UNL A   1      45.010  25.859  25.641  1.00  0.00     0.010 A 
ATOM     75  C   UNL A   1      42.708  25.185  25.871  1.00  0.00     0.010 A 
ATOM     76  C   UNL A   1      45.344  24.570  25.185  1.00  0.00     0.020 A 
ATOM     77  C   UNL A   1      43.032  23.901  25.412  1.00  0.00     0.020 A 
ATOM     78  C   UNL A   1      44.354  23.589  25.100  1.00  0.00     0.054 A 
BRANCH  78  79
ATOM     79  S   UNL A   1      44.819  21.872  24.717  1.00  0.00     0.124 S 
ATOM     80  O   UNL A   1      43.859  21.104  25.503  1.00  0.00    -0.237 OA
ATOM     81  O   UNL A   1      44.644  21.808  23.268  1.00  0.00    -0.237 OA
ATOM     82  O   UNL A   1      46.206  21.782  25.173  1.00  0.00    -0.744 OA
ENDBRANCH  78  79
ENDBRANCH  50  73
BRANCH  62  83
ATOM     83  C   UNL A   1      44.843  31.571  29.099  1.00  0.00    -0.014 A 
ATOM     84  C   UNL A   1      43.946  32.165  28.189  1.00  0.00     0.010 A 
ATOM     85  C   UNL A   1      46.127  32.130  29.230  1.00  0.00     0.010 A 
ATOM     86  C   UNL A   1      44.348  33.248  27.391  1.00  0.00     0.020 A 
ATOM     87  C   UNL A   1      46.527  33.220  28.456  1.00  0.00     0.020 A 
ATOM     88  C   UNL A   1      45.643  33.761  27.524  1.00  0.00     0.054 A 
BRANCH  88  89
ATOM     89  S   UNL A   1      46.178  35.141  26.475  1.00  0.00     0.124 S 
ATOM     90  O   UNL A   1      46.626  34.463  25.263  1.00  0.00    -0.237 OA
ATOM     91  O   UNL A   1      44.961  35.937  26.339  1.00  0.00    -0.237 OA
ATOM     92  O   UNL A   1      47.241  35.778  27.252  1.00  0.00    -0.744 OA
ENDBRANCH  88  89
ENDBRANCH  62  83
ENDBRANCH  36  37
ENDBRANCH  29  31
ENDBRANCH  28  29
ENDBRANCH  27  28
ENDBRANCH  26  27
ENDBRANCH  25  26
ENDBRANCH   1  25
TORSDOF 21
ENDMDL
MODEL 2
REMARK VINA RESULT:     -10.1      2.304      3.957
REMARK SMILES CC(C)n1cncc1C[NH2+][C@H]1[C@@H]2CC[C@@H](C2)[C@@H]1C(=O)OCCOCCOC(=O)c1ccc(-c2c3nc(c(-c4ccc(S(=O)(=O)[O-])cc4)c4ccc([nH]4)c(-c4ccc(S(=O)(=O)[O-])cc4)c4nc(c(-c5ccc(S(=O)(=O)[O-])cc5)c5ccc2[nH]5)C=C4)C=C3)cc1
REMARK SMILES IDX 22 1 21 2 20 3 18 4 19 5 17 6 11 7 12 8 13 9 16 10 15 11
REMARK SMILES IDX 14 12 10 13 9 16 8 17 4 18 5 19 6 20 7 21 2 22 1 23 3 24
REMARK SMILES IDX 23 25 24 26 25 27 26 28 27 29 28 30 29 31 30 32 88 33 31 34
REMARK SMILES IDX 87 35 32 36 33 37 34 38 81 39 35 40 86 41 80 42 82 43 36 44
REMARK SMILES IDX 85 45 79 46 78 47 37 49 67 50 48 51 66 52 49 53 52 54 65 55
REMARK SMILES IDX 83 56 50 57 51 58 64 60 84 61 53 62 38 63 39 64 47 65 40 66
REMARK SMILES IDX 46 67 41 68 42 69 43 70 44 71 45 72 68 73 69 74 77 75 70 76
REMARK SMILES IDX 76 77 71 78 72 79 73 80 74 81 75 82 54 83 55 84 63 85 56 86
REMARK SMILES IDX 62 87 57 88 58 89 59 90 60 91 61 92
REMARK H PARENT 10 14 10 15 82 48 52 59
REMARK Flexibility Score: inf
ROOT
ATOM      1  C   UNL A   1      35.112  32.704  28.292  1.00  0.00     0.202 C 
ENDROOT
BRANCH   1   2
ATOM      2  C   UNL A   1      34.412  31.655  27.430  1.00  0.00     0.261 C 
BRANCH   2   3
ATOM      3  O   UNL A   1      34.209  30.422  28.136  1.00  0.00    -0.463 OA
BRANCH   3   4
ATOM      4  C   UNL A   1      34.491  29.332  27.393  1.00  0.00     0.315 C 
ATOM      5  O   UNL A   1      35.611  29.088  26.952  1.00  0.00    -0.252 OA
BRANCH   4   6
ATOM      6  C   UNL A   1      33.320  28.412  27.144  1.00  0.00     0.160 C 
ATOM      7  C   UNL A   1      33.441  27.692  25.783  1.00  0.00     0.200 C 
ATOM      8  C   UNL A   1      31.959  27.664  25.315  1.00  0.00     0.049 C 
ATOM      9  C   UNL A   1      31.606  29.068  24.780  1.00  0.00     0.010 C 
ATOM     10  C   UNL A   1      31.164  27.647  26.627  1.00  0.00     0.014 C 
ATOM     11  C   UNL A   1      31.858  28.909  27.169  1.00  0.00     0.010 C 
ATOM     12  C   UNL A   1      31.515  29.911  26.057  1.00  0.00     0.005 C 
BRANCH   7  13
ATOM     13  N   UNL A   1      34.023  26.343  25.918  1.00  0.00    -0.338 N 
ATOM     14  H   UNL A   1      34.974  26.345  25.548  1.00  0.00     0.346 HD
ATOM     15  H   UNL A   1      34.040  26.080  26.903  1.00  0.00     0.346 HD
BRANCH  13  16
ATOM     16  C   UNL A   1      33.211  25.378  25.171  1.00  0.00     0.317 C 
BRANCH  16  17
ATOM     17  C   UNL A   1      32.838  24.193  25.971  1.00  0.00     0.093 A 
ATOM     18  N   UNL A   1      33.597  23.053  26.121  1.00  0.00    -0.327 N 
ATOM     19  C   UNL A   1      32.980  22.288  27.074  1.00  0.00     0.200 A 
ATOM     20  N   UNL A   1      31.886  22.852  27.530  1.00  0.00    -0.245 NA
ATOM     21  C   UNL A   1      31.795  24.041  26.863  1.00  0.00     0.140 A 
BRANCH  18  22
ATOM     22  C   UNL A   1      34.845  22.739  25.427  1.00  0.00     0.082 C 
ATOM     23  C   UNL A   1      35.537  21.513  26.034  1.00  0.00     0.031 C 
ATOM     24  C   UNL A   1      34.677  22.552  23.917  1.00  0.00     0.031 C 
ENDBRANCH  18  22
ENDBRANCH  16  17
ENDBRANCH  13  16
ENDBRANCH   7  13
ENDBRANCH   4   6
ENDBRANCH   3   4
ENDBRANCH   2   3
ENDBRANCH   1   2
BRANCH   1  25
ATOM     25  O   UNL A   1      34.735  34.070  28.142  1.00  0.00    -0.374 OA
BRANCH  25  26
ATOM     26  C   UNL A   1      33.460  34.528  28.586  1.00  0.00     0.202 C 
BRANCH  26  27
ATOM     27  C   UNL A   1      33.351  35.216  29.936  1.00  0.00     0.261 C 
BRANCH  27  28
ATOM     28  O   UNL A   1      33.586  34.324  31.017  1.00  0.00    -0.460 OA
BRANCH  28  29
ATOM     29  C   UNL A   1      34.391  34.837  31.971  1.00  0.00     0.338 C 
ATOM     30  O   UNL A   1      34.384  35.988  32.397  1.00  0.00    -0.246 OA
BRANCH  29  31
ATOM     31  C   UNL A   1      35.419  33.857  32.311  1.00  0.00     0.060 A 
ATOM     32  C   UNL A   1      36.727  34.336  32.351  1.00  0.00     0.016 A 
ATOM     33  C   UNL A   1      35.129  32.483  32.278  1.00  0.00     0.016 A 
ATOM     34  C   UNL A   1      37.747  33.445  32.119  1.00  0.00     0.010 A 
ATOM     35  C   UNL A   1      36.153  31.593  32.046  1.00  0.00     0.010 A 
ATOM     36  C   UNL A   1      37.438  32.097  31.881  1.00  0.00    -0.014 A 
BRANCH  36  37
ATOM     37  C   UNL A   1      38.541  31.190  31.658  1.00  0.00     0.031 A 
ATOM     38  C   UNL A   1      39.271  30.944  32.915  1.00  0.00     0.074 A 
ATOM     39  C   UNL A   1      38.851  30.623  30.478  1.00  0.00     0.049 A 
ATOM     40  N   UNL A   1      40.335  31.564  33.302  1.00  0.00    -0.248 NA
ATOM     41  C   UNL A   1      38.617  30.149  33.966  1.00  0.00     0.031 C 
ATOM     42  C   UNL A   1      38.088  30.616  29.230  1.00  0.00     0.029 A 
ATOM     43  N   UNL A   1      39.928  29.849  30.175  1.00  0.00    -0.354 N 
ATOM     44  C   UNL A   1      40.646  31.010  34.531  1.00  0.00     0.074 A 
ATOM     45  C   UNL A   1      39.445  30.361  34.991  1.00  0.00     0.031 C 
ATOM     46  C   UNL A   1      38.609  29.686  28.392  1.00  0.00     0.029 A 
ATOM     47  C   UNL A   1      39.824  29.143  28.981  1.00  0.00     0.049 A 
ATOM     48  H   UNL A   1      40.721  29.793  30.757  1.00  0.00     0.167 HD
ATOM     49  C   UNL A   1      41.947  30.834  34.888  1.00  0.00     0.031 A 
ATOM     50  C   UNL A   1      40.664  28.165  28.545  1.00  0.00     0.031 A 
ATOM     51  C   UNL A   1      42.833  31.602  34.045  1.00  0.00     0.049 A 
ATOM     52  C   UNL A   1      41.956  28.358  29.248  1.00  0.00     0.074 A 
ATOM     53  C   UNL A   1      42.965  32.941  33.727  1.00  0.00     0.029 A 
ATOM     54  N   UNL A   1      43.489  30.907  33.055  1.00  0.00    -0.354 N 
ATOM     55  N   UNL A   1      42.730  29.383  29.037  1.00  0.00    -0.248 NA
ATOM     56  C   UNL A   1      42.158  27.675  30.516  1.00  0.00     0.031 C 
ATOM     57  C   UNL A   1      43.299  32.962  32.340  1.00  0.00     0.029 A 
ATOM     58  C   UNL A   1      43.443  31.645  31.903  1.00  0.00     0.049 A 
ATOM     59  H   UNL A   1      43.918  30.027  33.159  1.00  0.00     0.167 HD
ATOM     60  C   UNL A   1      43.165  29.759  30.299  1.00  0.00     0.074 A 
ATOM     61  C   UNL A   1      42.862  28.612  31.157  1.00  0.00     0.031 C 
ATOM     62  C   UNL A   1      43.463  31.063  30.576  1.00  0.00     0.031 A 
BRANCH  49  63
ATOM     63  C   UNL A   1      42.417  29.609  35.631  1.00  0.00    -0.014 A 
ATOM     64  C   UNL A   1      43.469  29.751  36.556  1.00  0.00     0.010 A 
ATOM     65  C   UNL A   1      42.072  28.295  35.252  1.00  0.00     0.010 A 
ATOM     66  C   UNL A   1      44.178  28.639  37.023  1.00  0.00     0.020 A 
ATOM     67  C   UNL A   1      42.739  27.176  35.746  1.00  0.00     0.020 A 
ATOM     68  C   UNL A   1      43.808  27.358  36.609  1.00  0.00     0.054 A 
BRANCH  68  69
ATOM     69  S   UNL A   1      44.758  25.932  37.181  1.00  0.00     0.124 S 
ATOM     70  O   UNL A   1      44.646  25.023  36.045  1.00  0.00    -0.237 OA
ATOM     71  O   UNL A   1      46.078  26.517  37.403  1.00  0.00    -0.237 OA
ATOM     72  O   UNL A   1      44.054  25.518  38.392  1.00  0.00    -0.744 OA
ENDBRANCH  68  69
ENDBRANCH  49  63
BRANCH  50  73
ATOM     73  C   UNL A   1      40.337  26.892  27.845  1.00  0.00    -0.014 A 
ATOM     74  C   UNL A   1      41.154  26.412  26.800  1.00  0.00     0.010 A 
ATOM     75  C   UNL A   1      39.417  25.991  28.415  1.00  0.00     0.010 A 
ATOM     76  C   UNL A   1      41.114  25.062  26.403  1.00  0.00     0.020 A 
ATOM     77  C   UNL A   1      39.367  24.647  28.021  1.00  0.00     0.020 A 
ATOM     78  C   UNL A   1      40.237  24.181  27.038  1.00  0.00     0.054 A 
BRANCH  78  79
ATOM     79  S   UNL A   1      40.333  22.399  26.676  1.00  0.00     0.124 S 
ATOM     80  O   UNL A   1      41.479  22.324  25.775  1.00  0.00    -0.237 OA
ATOM     81  O   UNL A   1      40.530  21.814  27.999  1.00  0.00    -0.237 OA
ATOM     82  O   UNL A   1      39.040  22.105  26.059  1.00  0.00    -0.744 OA
ENDBRANCH  78  79
ENDBRANCH  50  73
BRANCH  62  83
ATOM     83  C   UNL A   1      43.667  32.014  29.418  1.00  0.00    -0.014 A 
ATOM     84  C   UNL A   1      43.019  33.256  29.266  1.00  0.00     0.010 A 
ATOM     85  C   UNL A   1      44.644  31.651  28.474  1.00  0.00     0.010 A 
ATOM     86  C   UNL A   1      43.303  34.080  28.164  1.00  0.00     0.020 A 
ATOM     87  C   UNL A   1      44.946  32.475  27.390  1.00  0.00     0.020 A 
ATOM     88  C   UNL A   1      44.259  33.676  27.227  1.00  0.00     0.054 A 
BRANCH  88  89
ATOM     89  S   UNL A   1      44.608  34.723  25.786  1.00  0.00     0.124 S 
ATOM     90  O   UNL A   1      43.469  34.452  24.914  1.00  0.00    -0.237 OA
ATOM     91  O   UNL A   1      44.655  36.064  26.363  1.00  0.00    -0.237 OA
ATOM     92  O   UNL A   1      45.892  34.223  25.295  1.00  0.00    -0.744 OA
ENDBRANCH  88  89
ENDBRANCH  62  83
ENDBRANCH  36  37
ENDBRANCH  29  31
ENDBRANCH  28  29
ENDBRANCH  27  28
ENDBRANCH  26  27
ENDBRANCH  25  26
ENDBRANCH   1  25
TORSDOF 21
ENDMDL
MODEL 3
REMARK VINA RESULT:     -10.1      3.972     11.985
REMARK SMILES CC(C)n1cncc1C[NH2+][C@H]1[C@@H]2CC[C@@H](C2)[C@@H]1C(=O)OCCOCCOC(=O)c1ccc(-c2c3nc(c(-c4ccc(S(=O)(=O)[O-])cc4)c4ccc([nH]4)c(-c4ccc(S(=O)(=O)[O-])cc4)c4nc(c(-c5ccc(S(=O)(=O)[O-])cc5)c5ccc2[nH]5)C=C4)C=C3)cc1
REMARK SMILES IDX 22 1 21 2 20 3 18 4 19 5 17 6 11 7 12 8 13 9 16 10 15 11
REMARK SMILES IDX 14 12 10 13 9 16 8 17 4 18 5 19 6 20 7 21 2 22 1 23 3 24
REMARK SMILES IDX 23 25 24 26 25 27 26 28 27 29 28 30 29 31 30 32 88 33 31 34
REMARK SMILES IDX 87 35 32 36 33 37 34 38 81 39 35 40 86 41 80 42 82 43 36 44
REMARK SMILES IDX 85 45 79 46 78 47 37 49 67 50 48 51 66 52 49 53 52 54 65 55
REMARK SMILES IDX 83 56 50 57 51 58 64 60 84 61 53 62 38 63 39 64 47 65 40 66
REMARK SMILES IDX 46 67 41 68 42 69 43 70 44 71 45 72 68 73 69 74 77 75 70 76
REMARK SMILES IDX 76 77 71 78 72 79 73 80 74 81 75 82 54 83 55 84 63 85 56 86
REMARK SMILES IDX 62 87 57 88 58 89 59 90 60 91 61 92
REMARK H PARENT 10 14 10 15 82 48 52 59
REMARK Flexibility Score: inf
ROOT
ATOM      1  C   UNL A   1      46.306  22.469  24.392  1.00  0.00     0.202 C 
ENDROOT
BRANCH   1   2
ATOM      2  C   UNL A   1      45.892  23.805  25.007  1.00  0.00     0.261 C 
BRANCH   2   3
ATOM      3  O   UNL A   1      46.960  24.416  25.746  1.00  0.00    -0.463 OA
BRANCH   3   4
ATOM      4  C   UNL A   1      47.709  25.255  25.002  1.00  0.00     0.315 C 
ATOM      5  O   UNL A   1      47.731  25.229  23.774  1.00  0.00    -0.252 OA
BRANCH   4   6
ATOM      6  C   UNL A   1      48.524  26.250  25.792  1.00  0.00     0.160 C 
ATOM      7  C   UNL A   1      49.914  26.478  25.159  1.00  0.00     0.200 C 
ATOM      8  C   UNL A   1      50.808  26.629  26.422  1.00  0.00     0.049 C 
ATOM      9  C   UNL A   1      51.065  25.218  26.991  1.00  0.00     0.010 C 
ATOM     10  C   UNL A   1      49.852  27.197  27.478  1.00  0.00     0.014 C 
ATOM     11  C   UNL A   1      48.830  26.061  27.294  1.00  0.00     0.010 C 
ATOM     12  C   UNL A   1      49.713  24.843  27.608  1.00  0.00     0.005 C 
BRANCH   7  13
ATOM     13  N   UNL A   1      49.941  27.672  24.293  1.00  0.00    -0.338 N 
ATOM     14  H   UNL A   1      49.263  27.560  23.539  1.00  0.00     0.346 HD
ATOM     15  H   UNL A   1      49.706  28.495  24.846  1.00  0.00     0.346 HD
BRANCH  13  16
ATOM     16  C   UNL A   1      51.282  27.837  23.723  1.00  0.00     0.317 C 
BRANCH  16  17
ATOM     17  C   UNL A   1      51.310  28.757  22.567  1.00  0.00     0.093 A 
ATOM     18  N   UNL A   1      50.786  28.497  21.319  1.00  0.00    -0.327 N 
ATOM     19  C   UNL A   1      50.860  29.663  20.607  1.00  0.00     0.200 A 
ATOM     20  N   UNL A   1      51.399  30.636  21.304  1.00  0.00    -0.245 NA
ATOM     21  C   UNL A   1      51.670  30.089  22.526  1.00  0.00     0.140 A 
BRANCH  18  22
ATOM     22  C   UNL A   1      50.218  27.230  20.859  1.00  0.00     0.082 C 
ATOM     23  C   UNL A   1      48.691  27.299  20.756  1.00  0.00     0.031 C 
ATOM     24  C   UNL A   1      50.811  26.738  19.536  1.00  0.00     0.031 C 
ENDBRANCH  18  22
ENDBRANCH  16  17
ENDBRANCH  13  16
ENDBRANCH   7  13
ENDBRANCH   4   6
ENDBRANCH   3   4
ENDBRANCH   2   3
ENDBRANCH   1   2
BRANCH   1  25
ATOM     25  O   UNL A   1      46.141  21.284  25.166  1.00  0.00    -0.374 OA
BRANCH  25  26
ATOM     26  C   UNL A   1      45.747  20.060  24.550  1.00  0.00     0.202 C 
BRANCH  26  27
ATOM     27  C   UNL A   1      44.615  19.255  25.166  1.00  0.00     0.261 C 
BRANCH  27  28
ATOM     28  O   UNL A   1      43.341  19.828  24.904  1.00  0.00    -0.460 OA
BRANCH  28  29
ATOM     29  C   UNL A   1      42.706  20.256  26.016  1.00  0.00     0.338 C 
ATOM     30  O   UNL A   1      41.891  19.628  26.684  1.00  0.00    -0.246 OA
BRANCH  29  31
ATOM     31  C   UNL A   1      42.993  21.674  26.217  1.00  0.00     0.060 A 
ATOM     32  C   UNL A   1      43.525  22.016  27.459  1.00  0.00     0.016 A 
ATOM     33  C   UNL A   1      42.468  22.637  25.340  1.00  0.00     0.016 A 
ATOM     34  C   UNL A   1      43.315  23.293  27.920  1.00  0.00     0.010 A 
ATOM     35  C   UNL A   1      42.259  23.915  25.804  1.00  0.00     0.010 A 
ATOM     36  C   UNL A   1      42.605  24.202  27.120  1.00  0.00    -0.014 A 
BRANCH  36  37
ATOM     37  C   UNL A   1      42.420  25.540  27.635  1.00  0.00     0.031 A 
ATOM     38  C   UNL A   1      43.545  26.407  27.238  1.00  0.00     0.074 A 
ATOM     39  C   UNL A   1      41.361  25.954  28.355  1.00  0.00     0.049 A 
ATOM     40  N   UNL A   1      44.585  26.667  27.956  1.00  0.00    -0.248 NA
ATOM     41  C   UNL A   1      43.672  26.793  25.824  1.00  0.00     0.031 C 
ATOM     42  C   UNL A   1      40.101  25.260  28.621  1.00  0.00     0.029 A 
ATOM     43  N   UNL A   1      41.174  27.160  28.955  1.00  0.00    -0.354 N 
ATOM     44  C   UNL A   1      45.361  27.503  27.173  1.00  0.00     0.074 A 
ATOM     45  C   UNL A   1      44.894  27.332  25.821  1.00  0.00     0.031 C 
ATOM     46  C   UNL A   1      39.202  26.143  29.123  1.00  0.00     0.029 A 
ATOM     47  C   UNL A   1      39.865  27.419  29.350  1.00  0.00     0.049 A 
ATOM     48  H   UNL A   1      41.907  27.800  29.099  1.00  0.00     0.167 HD
ATOM     49  C   UNL A   1      46.069  28.511  27.750  1.00  0.00     0.031 A 
ATOM     50  C   UNL A   1      39.375  28.609  29.793  1.00  0.00     0.031 A 
ATOM     51  C   UNL A   1      46.180  28.327  29.178  1.00  0.00     0.049 A 
ATOM     52  C   UNL A   1      40.530  29.393  30.295  1.00  0.00     0.074 A 
ATOM     53  C   UNL A   1      46.675  27.333  30.001  1.00  0.00     0.029 A 
ATOM     54  N   UNL A   1      45.340  29.087  29.959  1.00  0.00    -0.354 N 
ATOM     55  N   UNL A   1      41.206  29.056  31.356  1.00  0.00    -0.248 NA
ATOM     56  C   UNL A   1      41.227  30.265  29.364  1.00  0.00     0.031 C 
ATOM     57  C   UNL A   1      45.769  27.277  31.102  1.00  0.00     0.029 A 
ATOM     58  C   UNL A   1      44.823  28.291  30.944  1.00  0.00     0.049 A 
ATOM     59  H   UNL A   1      45.144  30.043  29.828  1.00  0.00     0.167 HD
ATOM     60  C   UNL A   1      42.532  29.267  31.007  1.00  0.00     0.074 A 
ATOM     61  C   UNL A   1      42.476  30.105  29.809  1.00  0.00     0.031 C 
ATOM     62  C   UNL A   1      43.528  28.509  31.555  1.00  0.00     0.031 A 
BRANCH  49  63
ATOM     63  C   UNL A   1      46.200  29.870  27.109  1.00  0.00    -0.014 A 
ATOM     64  C   UNL A   1      47.462  30.493  27.115  1.00  0.00     0.010 A 
ATOM     65  C   UNL A   1      45.091  30.673  26.767  1.00  0.00     0.010 A 
ATOM     66  C   UNL A   1      47.595  31.862  26.855  1.00  0.00     0.020 A 
ATOM     67  C   UNL A   1      45.216  32.026  26.461  1.00  0.00     0.020 A 
ATOM     68  C   UNL A   1      46.467  32.618  26.534  1.00  0.00     0.054 A 
BRANCH  68  69
ATOM     69  S   UNL A   1      46.642  34.393  26.247  1.00  0.00     0.124 S 
ATOM     70  O   UNL A   1      48.083  34.526  26.062  1.00  0.00    -0.237 OA
ATOM     71  O   UNL A   1      45.825  34.589  25.052  1.00  0.00    -0.237 OA
ATOM     72  O   UNL A   1      46.105  34.990  27.468  1.00  0.00    -0.744 OA
ENDBRANCH  68  69
ENDBRANCH  49  63
BRANCH  50  73
ATOM     73  C   UNL A   1      38.063  29.249  29.503  1.00  0.00    -0.014 A 
ATOM     74  C   UNL A   1      37.208  29.653  30.551  1.00  0.00     0.010 A 
ATOM     75  C   UNL A   1      37.796  29.756  28.217  1.00  0.00     0.010 A 
ATOM     76  C   UNL A   1      36.184  30.595  30.337  1.00  0.00     0.020 A 
ATOM     77  C   UNL A   1      36.774  30.689  27.995  1.00  0.00     0.020 A 
ATOM     78  C   UNL A   1      35.993  31.128  29.061  1.00  0.00     0.054 A 
BRANCH  78  79
ATOM     79  S   UNL A   1      34.815  32.497  28.826  1.00  0.00     0.124 S 
ATOM     80  O   UNL A   1      33.848  31.922  27.896  1.00  0.00    -0.237 OA
ATOM     81  O   UNL A   1      34.325  32.733  30.181  1.00  0.00    -0.237 OA
ATOM     82  O   UNL A   1      35.643  33.570  28.276  1.00  0.00    -0.744 OA
ENDBRANCH  78  79
ENDBRANCH  50  73
BRANCH  62  83
ATOM     83  C   UNL A   1      43.216  27.705  32.797  1.00  0.00    -0.014 A 
ATOM     84  C   UNL A   1      43.571  26.356  33.000  1.00  0.00     0.010 A 
ATOM     85  C   UNL A   1      42.598  28.398  33.854  1.00  0.00     0.010 A 
ATOM     86  C   UNL A   1      43.259  25.708  34.206  1.00  0.00     0.020 A 
ATOM     87  C   UNL A   1      42.306  27.766  35.063  1.00  0.00     0.020 A 
ATOM     88  C   UNL A   1      42.617  26.418  35.226  1.00  0.00     0.054 A 
BRANCH  88  89
ATOM     89  S   UNL A   1      42.186  25.577  36.775  1.00  0.00     0.124 S 
ATOM     90  O   UNL A   1      43.495  25.246  37.331  1.00  0.00    -0.237 OA
ATOM     91  O   UNL A   1      41.433  26.597  37.501  1.00  0.00    -0.237 OA
ATOM     92  O   UNL A   1      41.394  24.428  36.339  1.00  0.00    -0.744 OA
ENDBRANCH  88  89
ENDBRANCH  62  83
ENDBRANCH  36  37
ENDBRANCH  29  31
ENDBRANCH  28  29
ENDBRANCH  27  28
ENDBRANCH  26  27
ENDBRANCH  25  26
ENDBRANCH   1  25
TORSDOF 21
ENDMDL
