MODEL 1
REMARK VINA RESULT:     -10.3      0.000      0.000
REMARK SMILES O=C(OCCOCCOC(=O)c1ccc(-c2c3nc(c(-c4ccc(S(=O)(=O)[O-])cc4)c4ccc([nH]4)c(-c4ccc(S(=O)(=O)[O-])cc4)c4nc(c(-c5ccc(S(=O)(=O)[O-])cc5)c5ccc2[nH]5)C=C4)C=C3)cc1)C1=Cc2cc(OC(F)(F)F)ccc2O[C@@H]1C(F)(F)F
REMARK SMILES IDX 7 1 6 2 5 3 4 4 3 5 2 6 1 7 72 8 73 9 86 10 74 11 85 12
REMARK SMILES IDX 75 13 84 14 76 15 83 16 82 17 87 18 88 19 89 20 90 21 77 22
REMARK SMILES IDX 78 23 79 24 80 25 81 26 8 27 9 28 10 29 11 30 12 31 13 32
REMARK SMILES IDX 71 33 14 34 70 35 15 36 16 37 17 38 64 39 18 40 69 41 63 42
REMARK SMILES IDX 65 43 19 44 68 45 62 46 61 47 20 49 50 50 31 51 49 52 32 53
REMARK SMILES IDX 35 54 48 55 66 56 33 57 34 58 47 60 67 61 36 62 21 63 22 64
REMARK SMILES IDX 30 65 23 66 29 67 24 68 25 69 26 70 27 71 28 72 51 73 52 74
REMARK SMILES IDX 60 75 53 76 59 77 54 78 55 79 56 80 57 81 58 82 37 83 38 84
REMARK SMILES IDX 46 85 39 86 45 87 40 88 41 89 42 90 43 91 44 92
REMARK H PARENT 65 48 35 59
REMARK Flexibility Score: inf
ROOT
ATOM      1  C   UNL A   1      32.819  33.240  27.576  1.00  0.00     0.202 C 
ENDROOT
BRANCH   1   2
ATOM      2  O   UNL A   1      32.423  34.541  28.046  1.00  0.00    -0.374 OA
BRANCH   2   3
ATOM      3  C   UNL A   1      33.087  35.599  29.073  1.00  0.00     0.202 C 
BRANCH   3   4
ATOM      4  C   UNL A   1      33.144  35.670  31.241  1.00  0.00     0.261 C 
BRANCH   4   5
ATOM      5  O   UNL A   1      34.391  35.438  32.133  1.00  0.00    -0.460 OA
BRANCH   5   6
ATOM      6  C   UNL A   1      34.716  34.147  32.241  1.00  0.00     0.338 C 
ATOM      7  O   UNL A   1      34.026  33.182  32.441  1.00  0.00    -0.246 OA
BRANCH   6   8
ATOM      8  C   UNL A   1      36.133  34.374  32.384  1.00  0.00     0.087 C 
ATOM      9  C   UNL A   1      36.501  34.522  33.813  1.00  0.00     0.027 C 
ATOM     10  C   UNL A   1      36.720  32.926  31.235  1.00  0.00     0.316 C 
ATOM     11  C   UNL A   1      37.382  33.247  34.752  1.00  0.00     0.021 A 
ATOM     12  O   UNL A   1      37.616  31.538  32.236  1.00  0.00    -0.475 OA
ATOM     13  C   UNL A   1      37.483  33.378  36.109  1.00  0.00     0.058 A 
ATOM     14  C   UNL A   1      37.866  31.753  34.030  1.00  0.00     0.128 A 
ATOM     15  C   UNL A   1      37.946  32.243  36.808  1.00  0.00     0.130 A 
ATOM     16  C   UNL A   1      38.198  30.668  34.785  1.00  0.00     0.051 A 
ATOM     17  C   UNL A   1      38.242  30.957  36.184  1.00  0.00     0.050 A 
BRANCH  10  18
ATOM     18  C   UNL A   1      37.197  33.787  29.993  1.00  0.00     0.430 C 
ATOM     19  F   UNL A   1      38.266  34.576  30.207  1.00  0.00    -0.167 F 
ATOM     20  F   UNL A   1      37.606  32.906  29.028  1.00  0.00    -0.167 F 
ATOM     21  F   UNL A   1      36.228  34.517  29.396  1.00  0.00    -0.167 F 
ENDBRANCH  10  18
BRANCH  15  22
ATOM     22  O   UNL A   1      37.992  32.492  38.161  1.00  0.00    -0.406 OA
BRANCH  22  23
ATOM     23  C   UNL A   1      39.115  33.170  38.693  1.00  0.00     0.573 C 
ATOM     24  F   UNL A   1      39.206  32.960  40.020  1.00  0.00    -0.132 F 
ATOM     25  F   UNL A   1      40.257  32.788  38.088  1.00  0.00    -0.132 F 
ATOM     26  F   UNL A   1      38.948  34.495  38.479  1.00  0.00    -0.132 F 
ENDBRANCH  22  23
ENDBRANCH  15  22
ENDBRANCH   6   8
ENDBRANCH   5   6
ENDBRANCH   4   5
ENDBRANCH   3   4
ENDBRANCH   2   3
ENDBRANCH   1   2
BRANCH   1  27
ATOM     27  C   UNL A   1      34.216  32.774  27.966  1.00  0.00     0.261 C 
BRANCH  27  28
ATOM     28  O   UNL A   1      34.194  31.580  28.732  1.00  0.00    -0.460 OA
BRANCH  28  29
ATOM     29  C   UNL A   1      34.461  30.462  28.022  1.00  0.00     0.338 C 
ATOM     30  O   UNL A   1      33.719  29.861  27.265  1.00  0.00    -0.246 OA
BRANCH  29  31
ATOM     31  C   UNL A   1      35.854  30.074  28.304  1.00  0.00     0.060 A 
ATOM     32  C   UNL A   1      36.162  29.611  29.586  1.00  0.00     0.016 A 
ATOM     33  C   UNL A   1      36.830  30.117  27.300  1.00  0.00     0.016 A 
ATOM     34  C   UNL A   1      37.437  29.123  29.850  1.00  0.00     0.010 A 
ATOM     35  C   UNL A   1      38.110  29.655  27.572  1.00  0.00     0.010 A 
ATOM     36  C   UNL A   1      38.411  29.150  28.844  1.00  0.00    -0.014 A 
BRANCH  36  37
ATOM     37  C   UNL A   1      39.807  28.808  29.157  1.00  0.00     0.031 A 
ATOM     38  C   UNL A   1      40.682  29.900  29.687  1.00  0.00     0.074 A 
ATOM     39  C   UNL A   1      40.282  27.575  28.911  1.00  0.00     0.049 A 
ATOM     40  N   UNL A   1      41.958  29.873  29.952  1.00  0.00    -0.248 NA
ATOM     41  C   UNL A   1      40.033  31.198  29.949  1.00  0.00     0.031 C 
ATOM     42  C   UNL A   1      39.494  26.445  28.415  1.00  0.00     0.029 A 
ATOM     43  N   UNL A   1      41.553  27.074  29.025  1.00  0.00    -0.354 N 
ATOM     44  C   UNL A   1      42.269  31.150  30.397  1.00  0.00     0.074 A 
ATOM     45  C   UNL A   1      41.054  31.931  30.362  1.00  0.00     0.031 C 
ATOM     46  C   UNL A   1      40.310  25.388  28.245  1.00  0.00     0.029 A 
ATOM     47  C   UNL A   1      41.677  25.779  28.578  1.00  0.00     0.049 A 
ATOM     48  H   UNL A   1      42.305  27.592  29.392  1.00  0.00     0.167 HD
ATOM     49  C   UNL A   1      43.471  31.627  30.784  1.00  0.00     0.031 A 
ATOM     50  C   UNL A   1      42.781  25.020  28.421  1.00  0.00     0.031 A 
ATOM     51  C   UNL A   1      44.675  30.844  30.776  1.00  0.00     0.049 A 
ATOM     52  C   UNL A   1      44.121  25.609  28.794  1.00  0.00     0.074 A 
ATOM     53  C   UNL A   1      45.940  31.220  31.184  1.00  0.00     0.029 A 
ATOM     54  N   UNL A   1      44.768  29.542  30.310  1.00  0.00    -0.354 N 
ATOM     55  N   UNL A   1      44.392  26.791  29.298  1.00  0.00    -0.248 NA
ATOM     56  C   UNL A   1      45.305  24.765  28.575  1.00  0.00     0.031 C 
ATOM     57  C   UNL A   1      46.817  30.175  30.883  1.00  0.00     0.029 A 
ATOM     58  C   UNL A   1      46.082  29.116  30.370  1.00  0.00     0.049 A 
ATOM     59  H   UNL A   1      44.012  29.001  29.986  1.00  0.00     0.167 HD
ATOM     60  C   UNL A   1      45.771  26.819  29.480  1.00  0.00     0.074 A 
ATOM     61  C   UNL A   1      46.275  25.530  29.056  1.00  0.00     0.031 C 
ATOM     62  C   UNL A   1      46.555  27.821  29.949  1.00  0.00     0.031 A 
BRANCH  49  63
ATOM     63  C   UNL A   1      43.558  33.070  31.191  1.00  0.00    -0.014 A 
ATOM     64  C   UNL A   1      43.411  33.466  32.532  1.00  0.00     0.010 A 
ATOM     65  C   UNL A   1      43.863  34.037  30.216  1.00  0.00     0.010 A 
ATOM     66  C   UNL A   1      43.565  34.807  32.888  1.00  0.00     0.020 A 
ATOM     67  C   UNL A   1      44.045  35.374  30.574  1.00  0.00     0.020 A 
ATOM     68  C   UNL A   1      43.891  35.751  31.909  1.00  0.00     0.054 A 
BRANCH  68  69
ATOM     69  S   UNL A   1      44.164  37.469  32.415  1.00  0.00     0.124 S 
ATOM     70  O   UNL A   1      43.216  37.613  33.517  1.00  0.00    -0.237 OA
ATOM     71  O   UNL A   1      45.574  37.466  32.796  1.00  0.00    -0.237 OA
ATOM     72  O   UNL A   1      43.845  38.241  31.217  1.00  0.00    -0.744 OA
ENDBRANCH  68  69
ENDBRANCH  49  63
BRANCH  50  73
ATOM     73  C   UNL A   1      42.688  23.653  27.832  1.00  0.00    -0.014 A 
ATOM     74  C   UNL A   1      42.848  23.446  26.449  1.00  0.00     0.010 A 
ATOM     75  C   UNL A   1      42.386  22.549  28.651  1.00  0.00     0.010 A 
ATOM     76  C   UNL A   1      42.664  22.174  25.895  1.00  0.00     0.020 A 
ATOM     77  C   UNL A   1      42.239  21.270  28.107  1.00  0.00     0.020 A 
ATOM     78  C   UNL A   1      42.359  21.094  26.728  1.00  0.00     0.054 A 
BRANCH  78  79
ATOM     79  S   UNL A   1      42.134  19.453  25.988  1.00  0.00     0.124 S 
ATOM     80  O   UNL A   1      43.026  19.516  24.835  1.00  0.00    -0.237 OA
ATOM     81  O   UNL A   1      42.556  18.563  27.067  1.00  0.00    -0.237 OA
ATOM     82  O   UNL A   1      40.707  19.410  25.676  1.00  0.00    -0.744 OA
ENDBRANCH  78  79
ENDBRANCH  50  73
BRANCH  62  83
ATOM     83  C   UNL A   1      48.035  27.564  30.060  1.00  0.00    -0.014 A 
ATOM     84  C   UNL A   1      48.900  27.806  28.981  1.00  0.00     0.010 A 
ATOM     85  C   UNL A   1      48.576  27.173  31.300  1.00  0.00     0.010 A 
ATOM     86  C   UNL A   1      50.280  27.648  29.133  1.00  0.00     0.020 A 
ATOM     87  C   UNL A   1      49.956  27.048  31.466  1.00  0.00     0.020 A 
ATOM     88  C   UNL A   1      50.799  27.280  30.379  1.00  0.00     0.054 A 
BRANCH  88  89
ATOM     89  S   UNL A   1      52.598  27.161  30.568  1.00  0.00     0.124 S 
ATOM     90  O   UNL A   1      52.861  28.142  31.618  1.00  0.00    -0.237 OA
ATOM     91  O   UNL A   1      52.786  25.764  30.952  1.00  0.00    -0.237 OA
ATOM     92  O   UNL A   1      53.112  27.513  29.246  1.00  0.00    -0.744 OA
ENDBRANCH  88  89
ENDBRANCH  62  83
ENDBRANCH  36  37
ENDBRANCH  29  31
ENDBRANCH  28  29
ENDBRANCH  27  28
ENDBRANCH   1  27
TORSDOF 20
ENDMDL
MODEL 2
REMARK VINA RESULT:     -10.1      5.189     11.615
REMARK SMILES O=C(OCCOCCOC(=O)c1ccc(-c2c3nc(c(-c4ccc(S(=O)(=O)[O-])cc4)c4ccc([nH]4)c(-c4ccc(S(=O)(=O)[O-])cc4)c4nc(c(-c5ccc(S(=O)(=O)[O-])cc5)c5ccc2[nH]5)C=C4)C=C3)cc1)C1=Cc2cc(OC(F)(F)F)ccc2O[C@@H]1C(F)(F)F
REMARK SMILES IDX 7 1 6 2 5 3 4 4 3 5 2 6 1 7 72 8 73 9 86 10 74 11 85 12
REMARK SMILES IDX 75 13 84 14 76 15 83 16 82 17 87 18 88 19 89 20 90 21 77 22
REMARK SMILES IDX 78 23 79 24 80 25 81 26 8 27 9 28 10 29 11 30 12 31 13 32
REMARK SMILES IDX 71 33 14 34 70 35 15 36 16 37 17 38 64 39 18 40 69 41 63 42
REMARK SMILES IDX 65 43 19 44 68 45 62 46 61 47 20 49 50 50 31 51 49 52 32 53
REMARK SMILES IDX 35 54 48 55 66 56 33 57 34 58 47 60 67 61 36 62 21 63 22 64
REMARK SMILES IDX 30 65 23 66 29 67 24 68 25 69 26 70 27 71 28 72 51 73 52 74
REMARK SMILES IDX 60 75 53 76 59 77 54 78 55 79 56 80 57 81 58 82 37 83 38 84
REMARK SMILES IDX 46 85 39 86 45 87 40 88 41 89 42 90 43 91 44 92
REMARK H PARENT 65 48 35 59
REMARK Flexibility Score: inf
ROOT
ATOM      1  C   UNL A   1      32.102  29.539  25.304  1.00  0.00     0.202 C 
ENDROOT
BRANCH   1   2
ATOM      2  O   UNL A   1      30.908  29.074  24.651  1.00  0.00    -0.374 OA
BRANCH   2   3
ATOM      3  C   UNL A   1      30.629  28.339  23.238  1.00  0.00     0.202 C 
BRANCH   3   4
ATOM      4  C   UNL A   1      31.671  26.735  22.212  1.00  0.00     0.261 C 
BRANCH   4   5
ATOM      5  O   UNL A   1      31.451  25.215  22.426  1.00  0.00    -0.460 OA
BRANCH   5   6
ATOM      6  C   UNL A   1      32.593  24.523  22.426  1.00  0.00     0.338 C 
ATOM      7  O   UNL A   1      33.241  24.086  21.511  1.00  0.00    -0.246 OA
BRANCH   6   8
ATOM      8  C   UNL A   1      32.561  24.206  23.832  1.00  0.00     0.087 C 
ATOM      9  C   UNL A   1      32.151  22.796  24.046  1.00  0.00     0.027 C 
ATOM     10  C   UNL A   1      34.305  24.929  24.276  1.00  0.00     0.316 C 
ATOM     11  C   UNL A   1      33.299  21.491  24.555  1.00  0.00     0.021 A 
ATOM     12  O   UNL A   1      35.550  23.539  24.771  1.00  0.00    -0.475 OA
ATOM     13  C   UNL A   1      32.881  20.190  24.513  1.00  0.00     0.058 A 
ATOM     14  C   UNL A   1      34.975  21.809  24.837  1.00  0.00     0.128 A 
ATOM     15  C   UNL A   1      33.885  19.211  24.669  1.00  0.00     0.130 A 
ATOM     16  C   UNL A   1      35.899  20.807  24.869  1.00  0.00     0.051 A 
ATOM     17  C   UNL A   1      35.309  19.506  24.795  1.00  0.00     0.050 A 
BRANCH  10  18
ATOM     18  C   UNL A   1      33.833  26.228  25.051  1.00  0.00     0.430 C 
ATOM     19  F   UNL A   1      34.485  26.491  26.198  1.00  0.00    -0.167 F 
ATOM     20  F   UNL A   1      34.109  27.300  24.244  1.00  0.00    -0.167 F 
ATOM     21  F   UNL A   1      32.502  26.309  25.277  1.00  0.00    -0.167 F 
ENDBRANCH  10  18
BRANCH  15  22
ATOM     22  O   UNL A   1      33.346  17.947  24.596  1.00  0.00    -0.406 OA
BRANCH  22  23
ATOM     23  C   UNL A   1      33.566  17.177  23.428  1.00  0.00     0.573 C 
ATOM     24  F   UNL A   1      32.994  15.965  23.549  1.00  0.00    -0.132 F 
ATOM     25  F   UNL A   1      33.096  17.799  22.328  1.00  0.00    -0.132 F 
ATOM     26  F   UNL A   1      34.900  17.009  23.279  1.00  0.00    -0.132 F 
ENDBRANCH  22  23
ENDBRANCH  15  22
ENDBRANCH   6   8
ENDBRANCH   5   6
ENDBRANCH   4   5
ENDBRANCH   3   4
ENDBRANCH   2   3
ENDBRANCH   1   2
BRANCH   1  27
ATOM     27  C   UNL A   1      32.232  29.219  26.788  1.00  0.00     0.261 C 
BRANCH  27  28
ATOM     28  O   UNL A   1      33.585  29.144  27.209  1.00  0.00    -0.460 OA
BRANCH  28  29
ATOM     29  C   UNL A   1      34.110  30.326  27.600  1.00  0.00     0.338 C 
ATOM     30  O   UNL A   1      33.555  31.409  27.657  1.00  0.00    -0.246 OA
BRANCH  29  31
ATOM     31  C   UNL A   1      35.513  30.089  27.981  1.00  0.00     0.060 A 
ATOM     32  C   UNL A   1      35.786  29.745  29.307  1.00  0.00     0.016 A 
ATOM     33  C   UNL A   1      36.538  30.153  27.028  1.00  0.00     0.016 A 
ATOM     34  C   UNL A   1      37.082  29.396  29.672  1.00  0.00     0.010 A 
ATOM     35  C   UNL A   1      37.836  29.831  27.398  1.00  0.00     0.010 A 
ATOM     36  C   UNL A   1      38.106  29.444  28.718  1.00  0.00    -0.014 A 
BRANCH  36  37
ATOM     37  C   UNL A   1      39.507  29.254  29.126  1.00  0.00     0.031 A 
ATOM     38  C   UNL A   1      40.152  27.946  28.788  1.00  0.00     0.074 A 
ATOM     39  C   UNL A   1      40.151  30.201  29.829  1.00  0.00     0.049 A 
ATOM     40  N   UNL A   1      41.334  27.507  29.112  1.00  0.00    -0.248 NA
ATOM     41  C   UNL A   1      39.352  27.006  27.981  1.00  0.00     0.031 C 
ATOM     42  C   UNL A   1      39.606  31.513  30.184  1.00  0.00     0.029 A 
ATOM     43  N   UNL A   1      41.400  30.193  30.392  1.00  0.00    -0.354 N 
ATOM     44  C   UNL A   1      41.419  26.235  28.563  1.00  0.00     0.074 A 
ATOM     45  C   UNL A   1      40.169  25.968  27.890  1.00  0.00     0.031 C 
ATOM     46  C   UNL A   1      40.512  32.174  30.927  1.00  0.00     0.029 A 
ATOM     47  C   UNL A   1      41.678  31.317  31.135  1.00  0.00     0.049 A 
ATOM     48  H   UNL A   1      42.038  29.453  30.277  1.00  0.00     0.167 HD
ATOM     49  C   UNL A   1      42.449  25.365  28.633  1.00  0.00     0.031 A 
ATOM     50  C   UNL A   1      42.736  31.595  31.922  1.00  0.00     0.031 A 
ATOM     51  C   UNL A   1      43.670  25.636  29.339  1.00  0.00     0.049 A 
ATOM     52  C   UNL A   1      43.839  30.569  32.038  1.00  0.00     0.074 A 
ATOM     53  C   UNL A   1      44.792  24.836  29.441  1.00  0.00     0.029 A 
ATOM     54  N   UNL A   1      43.914  26.778  30.086  1.00  0.00    -0.354 N 
ATOM     55  N   UNL A   1      43.948  29.404  31.442  1.00  0.00    -0.248 NA
ATOM     56  C   UNL A   1      44.960  30.891  32.933  1.00  0.00     0.031 C 
ATOM     57  C   UNL A   1      45.682  25.456  30.323  1.00  0.00     0.029 A 
ATOM     58  C   UNL A   1      45.150  26.681  30.698  1.00  0.00     0.049 A 
ATOM     59  H   UNL A   1      43.300  27.543  30.168  1.00  0.00     0.167 HD
ATOM     60  C   UNL A   1      45.159  28.870  31.871  1.00  0.00     0.074 A 
ATOM     61  C   UNL A   1      45.757  29.847  32.755  1.00  0.00     0.031 C 
ATOM     62  C   UNL A   1      45.726  27.676  31.567  1.00  0.00     0.031 A 
BRANCH  49  63
ATOM     63  C   UNL A   1      42.280  24.023  27.983  1.00  0.00    -0.014 A 
ATOM     64  C   UNL A   1      43.007  23.666  26.833  1.00  0.00     0.010 A 
ATOM     65  C   UNL A   1      41.429  23.076  28.580  1.00  0.00     0.010 A 
ATOM     66  C   UNL A   1      42.879  22.386  26.291  1.00  0.00     0.020 A 
ATOM     67  C   UNL A   1      41.321  21.786  28.058  1.00  0.00     0.020 A 
ATOM     68  C   UNL A   1      42.045  21.451  26.913  1.00  0.00     0.054 A 
BRANCH  68  69
ATOM     69  S   UNL A   1      41.963  19.772  26.233  1.00  0.00     0.124 S 
ATOM     70  O   UNL A   1      40.547  19.652  25.897  1.00  0.00    -0.237 OA
ATOM     71  O   UNL A   1      42.874  19.849  25.093  1.00  0.00    -0.237 OA
ATOM     72  O   UNL A   1      42.415  18.927  27.335  1.00  0.00    -0.744 OA
ENDBRANCH  68  69
ENDBRANCH  49  63
BRANCH  50  73
ATOM     73  C   UNL A   1      42.789  32.859  32.712  1.00  0.00    -0.014 A 
ATOM     74  C   UNL A   1      42.266  32.922  34.017  1.00  0.00     0.010 A 
ATOM     75  C   UNL A   1      43.319  34.030  32.137  1.00  0.00     0.010 A 
ATOM     76  C   UNL A   1      42.234  34.137  34.712  1.00  0.00     0.020 A 
ATOM     77  C   UNL A   1      43.323  35.237  32.843  1.00  0.00     0.020 A 
ATOM     78  C   UNL A   1      42.762  35.287  34.118  1.00  0.00     0.054 A 
BRANCH  78  79
ATOM     79  S   UNL A   1      42.717  36.848  35.042  1.00  0.00     0.124 S 
ATOM     80  O   UNL A   1      41.471  36.722  35.791  1.00  0.00    -0.237 OA
ATOM     81  O   UNL A   1      43.943  36.778  35.834  1.00  0.00    -0.237 OA
ATOM     82  O   UNL A   1      42.718  37.866  33.994  1.00  0.00    -0.744 OA
ENDBRANCH  78  79
ENDBRANCH  50  73
BRANCH  62  83
ATOM     83  C   UNL A   1      47.072  27.364  32.167  1.00  0.00    -0.014 A 
ATOM     84  C   UNL A   1      47.186  26.669  33.382  1.00  0.00     0.010 A 
ATOM     85  C   UNL A   1      48.239  27.682  31.446  1.00  0.00     0.010 A 
ATOM     86  C   UNL A   1      48.443  26.310  33.875  1.00  0.00     0.020 A 
ATOM     87  C   UNL A   1      49.494  27.294  31.917  1.00  0.00     0.020 A 
ATOM     88  C   UNL A   1      49.589  26.616  33.133  1.00  0.00     0.054 A 
BRANCH  88  89
ATOM     89  S   UNL A   1      51.200  26.066  33.757  1.00  0.00     0.124 S 
ATOM     90  O   UNL A   1      50.868  25.616  35.106  1.00  0.00    -0.237 OA
ATOM     91  O   UNL A   1      51.563  25.012  32.814  1.00  0.00    -0.237 OA
ATOM     92  O   UNL A   1      52.028  27.269  33.690  1.00  0.00    -0.744 OA
ENDBRANCH  88  89
ENDBRANCH  62  83
ENDBRANCH  36  37
ENDBRANCH  29  31
ENDBRANCH  28  29
ENDBRANCH  27  28
ENDBRANCH   1  27
TORSDOF 20
ENDMDL
MODEL 3
REMARK VINA RESULT:     -10.1      1.072      8.116
REMARK SMILES O=C(OCCOCCOC(=O)c1ccc(-c2c3nc(c(-c4ccc(S(=O)(=O)[O-])cc4)c4ccc([nH]4)c(-c4ccc(S(=O)(=O)[O-])cc4)c4nc(c(-c5ccc(S(=O)(=O)[O-])cc5)c5ccc2[nH]5)C=C4)C=C3)cc1)C1=Cc2cc(OC(F)(F)F)ccc2O[C@@H]1C(F)(F)F
REMARK SMILES IDX 7 1 6 2 5 3 4 4 3 5 2 6 1 7 72 8 73 9 86 10 74 11 85 12
REMARK SMILES IDX 75 13 84 14 76 15 83 16 82 17 87 18 88 19 89 20 90 21 77 22
REMARK SMILES IDX 78 23 79 24 80 25 81 26 8 27 9 28 10 29 11 30 12 31 13 32
REMARK SMILES IDX 71 33 14 34 70 35 15 36 16 37 17 38 64 39 18 40 69 41 63 42
REMARK SMILES IDX 65 43 19 44 68 45 62 46 61 47 20 49 50 50 31 51 49 52 32 53
REMARK SMILES IDX 35 54 48 55 66 56 33 57 34 58 47 60 67 61 36 62 21 63 22 64
REMARK SMILES IDX 30 65 23 66 29 67 24 68 25 69 26 70 27 71 28 72 51 73 52 74
REMARK SMILES IDX 60 75 53 76 59 77 54 78 55 79 56 80 57 81 58 82 37 83 38 84
REMARK SMILES IDX 46 85 39 86 45 87 40 88 41 89 42 90 43 91 44 92
REMARK H PARENT 65 48 35 59
REMARK Flexibility Score: inf
ROOT
ATOM      1  C   UNL A   1      32.721  33.058  27.691  1.00  0.00     0.202 C 
ENDROOT
BRANCH   1   2
ATOM      2  O   UNL A   1      32.533  34.451  27.995  1.00  0.00    -0.374 OA
BRANCH   2   3
ATOM      3  C   UNL A   1      33.198  35.451  29.079  1.00  0.00     0.202 C 
BRANCH   3   4
ATOM      4  C   UNL A   1      33.102  35.506  31.246  1.00  0.00     0.261 C 
BRANCH   4   5
ATOM      5  O   UNL A   1      34.267  35.201  32.223  1.00  0.00    -0.460 OA
BRANCH   5   6
ATOM      6  C   UNL A   1      34.682  33.934  32.154  1.00  0.00     0.338 C 
ATOM      7  O   UNL A   1      34.062  32.905  32.219  1.00  0.00    -0.246 OA
BRANCH   6   8
ATOM      8  C   UNL A   1      36.081  34.238  32.328  1.00  0.00     0.087 C 
ATOM      9  C   UNL A   1      36.397  34.464  33.760  1.00  0.00     0.027 C 
ATOM     10  C   UNL A   1      36.774  32.774  31.260  1.00  0.00     0.316 C 
ATOM     11  C   UNL A   1      37.309  33.276  34.778  1.00  0.00     0.021 A 
ATOM     12  O   UNL A   1      37.705  31.477  32.346  1.00  0.00    -0.475 OA
ATOM     13  C   UNL A   1      37.362  33.468  36.131  1.00  0.00     0.058 A 
ATOM     14  C   UNL A   1      37.888  31.779  34.136  1.00  0.00     0.128 A 
ATOM     15  C   UNL A   1      37.857  32.388  36.891  1.00  0.00     0.130 A 
ATOM     16  C   UNL A   1      38.250  30.744  34.946  1.00  0.00     0.051 A 
ATOM     17  C   UNL A   1      38.236  31.094  36.333  1.00  0.00     0.050 A 
BRANCH  10  18
ATOM     18  C   UNL A   1      37.246  33.605  29.997  1.00  0.00     0.430 C 
ATOM     19  F   UNL A   1      38.301  34.417  30.194  1.00  0.00    -0.167 F 
ATOM     20  F   UNL A   1      37.677  32.703  29.061  1.00  0.00    -0.167 F 
ATOM     21  F   UNL A   1      36.271  34.302  29.372  1.00  0.00    -0.167 F 
ENDBRANCH  10  18
BRANCH  15  22
ATOM     22  O   UNL A   1      37.849  32.695  38.233  1.00  0.00    -0.406 OA
BRANCH  22  23
ATOM     23  C   UNL A   1      38.979  33.338  38.793  1.00  0.00     0.573 C 
ATOM     24  F   UNL A   1      39.996  33.353  37.913  1.00  0.00    -0.132 F 
ATOM     25  F   UNL A   1      38.690  34.596  39.185  1.00  0.00    -0.132 F 
ATOM     26  F   UNL A   1      39.366  32.637  39.884  1.00  0.00    -0.132 F 
ENDBRANCH  22  23
ENDBRANCH  15  22
ENDBRANCH   6   8
ENDBRANCH   5   6
ENDBRANCH   4   5
ENDBRANCH   3   4
ENDBRANCH   2   3
ENDBRANCH   1   2
BRANCH   1  27
ATOM     27  C   UNL A   1      34.147  32.530  27.786  1.00  0.00     0.261 C 
BRANCH  27  28
ATOM     28  O   UNL A   1      34.239  31.360  28.583  1.00  0.00    -0.460 OA
BRANCH  28  29
ATOM     29  C   UNL A   1      34.594  30.250  27.899  1.00  0.00     0.338 C 
ATOM     30  O   UNL A   1      33.906  29.582  27.147  1.00  0.00    -0.246 OA
BRANCH  29  31
ATOM     31  C   UNL A   1      36.008  29.971  28.202  1.00  0.00     0.060 A 
ATOM     32  C   UNL A   1      36.326  29.490  29.475  1.00  0.00     0.016 A 
ATOM     33  C   UNL A   1      36.999  30.130  27.225  1.00  0.00     0.016 A 
ATOM     34  C   UNL A   1      37.632  29.102  29.754  1.00  0.00     0.010 A 
ATOM     35  C   UNL A   1      38.307  29.768  27.512  1.00  0.00     0.010 A 
ATOM     36  C   UNL A   1      38.622  29.245  28.775  1.00  0.00    -0.014 A 
BRANCH  36  37
ATOM     37  C   UNL A   1      40.035  29.010  29.110  1.00  0.00     0.031 A 
ATOM     38  C   UNL A   1      40.620  27.684  28.737  1.00  0.00     0.074 A 
ATOM     39  C   UNL A   1      40.743  29.935  29.780  1.00  0.00     0.049 A 
ATOM     40  N   UNL A   1      41.803  27.207  28.999  1.00  0.00    -0.248 NA
ATOM     41  C   UNL A   1      39.751  26.772  27.970  1.00  0.00     0.031 C 
ATOM     42  C   UNL A   1      40.259  31.261  30.164  1.00  0.00     0.029 A 
ATOM     43  N   UNL A   1      42.019  29.885  30.279  1.00  0.00    -0.354 N 
ATOM     44  C   UNL A   1      41.820  25.935  28.445  1.00  0.00     0.074 A 
ATOM     45  C   UNL A   1      40.529  25.710  27.836  1.00  0.00     0.031 C 
ATOM     46  C   UNL A   1      41.223  31.891  30.861  1.00  0.00     0.029 A 
ATOM     47  C   UNL A   1      42.369  30.998  31.008  1.00  0.00     0.049 A 
ATOM     48  H   UNL A   1      42.627  29.126  30.130  1.00  0.00     0.167 HD
ATOM     49  C   UNL A   1      42.823  25.033  28.460  1.00  0.00     0.031 A 
ATOM     50  C   UNL A   1      43.475  31.240  31.741  1.00  0.00     0.031 A 
ATOM     51  C   UNL A   1      44.087  25.263  29.103  1.00  0.00     0.049 A 
ATOM     52  C   UNL A   1      44.549  30.179  31.798  1.00  0.00     0.074 A 
ATOM     53  C   UNL A   1      45.187  24.428  29.146  1.00  0.00     0.029 A 
ATOM     54  N   UNL A   1      44.405  26.394  29.839  1.00  0.00    -0.354 N 
ATOM     55  N   UNL A   1      44.591  29.013  31.195  1.00  0.00    -0.248 NA
ATOM     56  C   UNL A   1      45.724  30.463  32.635  1.00  0.00     0.031 C 
ATOM     57  C   UNL A   1      46.140  25.016  29.982  1.00  0.00     0.029 A 
ATOM     58  C   UNL A   1      45.667  26.256  30.386  1.00  0.00     0.049 A 
ATOM     59  H   UNL A   1      43.821  27.177  29.953  1.00  0.00     0.167 HD
ATOM     60  C   UNL A   1      45.805  28.440  31.560  1.00  0.00     0.074 A 
ATOM     61  C   UNL A   1      46.478  29.395  32.414  1.00  0.00     0.031 C 
ATOM     62  C   UNL A   1      46.318  27.230  31.226  1.00  0.00     0.031 A 
BRANCH  49  63
ATOM     63  C   UNL A   1      42.580  23.698  27.817  1.00  0.00    -0.014 A 
ATOM     64  C   UNL A   1      43.136  23.371  26.568  1.00  0.00     0.010 A 
ATOM     65  C   UNL A   1      41.836  22.729  28.515  1.00  0.00     0.010 A 
ATOM     66  C   UNL A   1      42.947  22.098  26.027  1.00  0.00     0.020 A 
ATOM     67  C   UNL A   1      41.671  21.446  27.990  1.00  0.00     0.020 A 
ATOM     68  C   UNL A   1      42.225  21.140  26.746  1.00  0.00     0.054 A 
BRANCH  68  69
ATOM     69  S   UNL A   1      42.067  19.472  26.056  1.00  0.00     0.124 S 
ATOM     70  O   UNL A   1      40.621  19.353  25.884  1.00  0.00    -0.237 OA
ATOM     71  O   UNL A   1      42.840  19.567  24.820  1.00  0.00    -0.237 OA
ATOM     72  O   UNL A   1      42.644  18.612  27.085  1.00  0.00    -0.744 OA
ENDBRANCH  68  69
ENDBRANCH  49  63
BRANCH  50  73
ATOM     73  C   UNL A   1      43.608  32.499  32.528  1.00  0.00    -0.014 A 
ATOM     74  C   UNL A   1      43.135  32.581  33.851  1.00  0.00     0.010 A 
ATOM     75  C   UNL A   1      44.166  33.648  31.936  1.00  0.00     0.010 A 
ATOM     76  C   UNL A   1      43.178  33.794  34.547  1.00  0.00     0.020 A 
ATOM     77  C   UNL A   1      44.245  34.852  32.642  1.00  0.00     0.020 A 
ATOM     78  C   UNL A   1      43.731  34.923  33.937  1.00  0.00     0.054 A 
BRANCH  78  79
ATOM     79  S   UNL A   1      43.784  36.483  34.862  1.00  0.00     0.124 S 
ATOM     80  O   UNL A   1      42.461  37.038  34.596  1.00  0.00    -0.237 OA
ATOM     81  O   UNL A   1      44.017  36.027  36.231  1.00  0.00    -0.237 OA
ATOM     82  O   UNL A   1      44.900  37.203  34.255  1.00  0.00    -0.744 OA
ENDBRANCH  78  79
ENDBRANCH  50  73
BRANCH  62  83
ATOM     83  C   UNL A   1      47.683  26.873  31.756  1.00  0.00    -0.014 A 
ATOM     84  C   UNL A   1      47.835  26.075  32.901  1.00  0.00     0.010 A 
ATOM     85  C   UNL A   1      48.826  27.260  31.031  1.00  0.00     0.010 A 
ATOM     86  C   UNL A   1      49.107  25.681  33.323  1.00  0.00     0.020 A 
ATOM     87  C   UNL A   1      50.096  26.839  31.428  1.00  0.00     0.020 A 
ATOM     88  C   UNL A   1      50.229  26.057  32.577  1.00  0.00     0.054 A 
BRANCH  88  89
ATOM     89  S   UNL A   1      51.860  25.464  33.102  1.00  0.00     0.124 S 
ATOM     90  O   UNL A   1      51.511  24.420  34.062  1.00  0.00    -0.237 OA
ATOM     91  O   UNL A   1      52.446  24.996  31.849  1.00  0.00    -0.237 OA
ATOM     92  O   UNL A   1      52.493  26.649  33.676  1.00  0.00    -0.744 OA
ENDBRANCH  88  89
ENDBRANCH  62  83
ENDBRANCH  36  37
ENDBRANCH  29  31
ENDBRANCH  28  29
ENDBRANCH  27  28
ENDBRANCH   1  27
TORSDOF 20
ENDMDL
