MODEL 1
REMARK VINA RESULT:      -9.7      0.000      0.000
REMARK SMILES CCC[NH2+]C[C@H]1CCC[N@@H+](Cc2ccc(C(=O)OCCOCCOC(=O)c3ccc(-c4c5nc(c(-c6ccc(S(=O)(=O)[O-])cc6)c6ccc([nH]6)c(-c6ccc(S(=O)(=O)[O-])cc6)c6nc(c(-c7ccc(S(=O)(=O)[O-])cc7)c7ccc4[nH]7)C=C6)C=C5)cc3)cc2)C1
REMARK SMILES IDX 19 1 18 2 16 3 17 4 15 5 12 6 13 7 88 8 14 9 87 10 11 11
REMARK SMILES IDX 10 12 6 13 7 14 89 15 8 16 9 17 5 19 4 20 3 23 2 24 1 25
REMARK SMILES IDX 20 26 21 27 22 28 23 29 24 30 25 31 26 32 27 33 28 34 86 35
REMARK SMILES IDX 29 36 85 37 30 38 31 39 32 40 79 41 33 42 84 43 78 44 80 45
REMARK SMILES IDX 34 46 83 47 77 48 76 49 35 51 65 52 46 53 64 54 47 55 50 56
REMARK SMILES IDX 63 57 81 58 48 59 49 60 62 62 82 63 51 64 36 65 37 66 45 67
REMARK SMILES IDX 38 68 44 69 39 70 40 71 41 72 42 73 43 74 66 75 67 76 75 77
REMARK SMILES IDX 68 78 74 79 69 80 70 81 71 82 72 83 73 84 52 85 53 86 61 87
REMARK SMILES IDX 54 88 60 89 55 90 56 91 57 92 58 93 59 94
REMARK H PARENT 10 18 4 21 4 22 80 50 50 61
REMARK Flexibility Score: inf
ROOT
ATOM      1  C   UNL A   1      36.064  20.995  25.527  1.00  0.00     0.261 C 
ENDROOT
BRANCH   1   2
ATOM      2  O   UNL A   1      35.156  20.350  24.626  1.00  0.00    -0.460 OA
BRANCH   2   3
ATOM      3  C   UNL A   1      33.853  20.423  24.985  1.00  0.00     0.338 C 
ATOM      4  O   UNL A   1      33.223  19.595  25.625  1.00  0.00    -0.246 OA
BRANCH   3   5
ATOM      5  C   UNL A   1      33.289  21.743  24.610  1.00  0.00     0.060 A 
ATOM      6  C   UNL A   1      31.946  24.112  23.982  1.00  0.00     0.006 A 
ATOM      7  C   UNL A   1      31.981  23.654  25.306  1.00  0.00     0.010 A 
ATOM      8  C   UNL A   1      32.742  23.473  23.018  1.00  0.00     0.010 A 
ATOM      9  C   UNL A   1      32.646  22.472  25.616  1.00  0.00     0.016 A 
ATOM     10  C   UNL A   1      33.388  22.274  23.319  1.00  0.00     0.016 A 
BRANCH   6  11
ATOM     11  C   UNL A   1      30.896  25.134  23.574  1.00  0.00     0.299 C 
BRANCH  11  12
ATOM     12  N   UNL A   1      31.309  26.551  23.751  1.00  0.00    -0.331 N 
ATOM     13  C   UNL A   1      31.082  28.908  22.860  1.00  0.00     0.099 C 
ATOM     14  C   UNL A   1      30.749  29.389  24.279  1.00  0.00     0.021 C 
ATOM     15  C   UNL A   1      30.707  27.422  22.730  1.00  0.00     0.271 C 
ATOM     16  C   UNL A   1      31.453  28.503  25.300  1.00  0.00     0.062 C 
ATOM     17  C   UNL A   1      31.046  27.043  25.114  1.00  0.00     0.262 C 
ATOM     18  H   UNL A   1      32.320  26.584  23.620  1.00  0.00     0.348 HD
BRANCH  13  19
ATOM     19  C   UNL A   1      30.340  29.688  21.748  1.00  0.00     0.269 C 
BRANCH  19  20
ATOM     20  N   UNL A   1      29.706  30.942  22.131  1.00  0.00    -0.346 N 
ATOM     21  H   UNL A   1      29.915  31.116  23.115  1.00  0.00     0.346 HD
ATOM     22  H   UNL A   1      30.084  31.658  21.510  1.00  0.00     0.346 HD
BRANCH  20  23
ATOM     23  C   UNL A   1      28.261  30.971  21.963  1.00  0.00     0.260 C 
BRANCH  23  24
ATOM     24  C   UNL A   1      27.547  30.436  23.210  1.00  0.00     0.058 C 
ATOM     25  C   UNL A   1      27.128  28.973  23.094  1.00  0.00     0.010 C 
ENDBRANCH  23  24
ENDBRANCH  20  23
ENDBRANCH  19  20
ENDBRANCH  13  19
ENDBRANCH  11  12
ENDBRANCH   6  11
ENDBRANCH   3   5
ENDBRANCH   2   3
ENDBRANCH   1   2
BRANCH   1  26
ATOM     26  C   UNL A   1      37.335  21.436  24.795  1.00  0.00     0.202 C 
BRANCH  26  27
ATOM     27  O   UNL A   1      38.580  21.197  25.450  1.00  0.00    -0.374 OA
BRANCH  27  28
ATOM     28  C   UNL A   1      39.076  19.857  25.467  1.00  0.00     0.202 C 
BRANCH  28  29
ATOM     29  C   UNL A   1      40.394  19.592  26.205  1.00  0.00     0.261 C 
BRANCH  29  30
ATOM     30  O   UNL A   1      41.527  19.567  25.322  1.00  0.00    -0.460 OA
BRANCH  30  31
ATOM     31  C   UNL A   1      42.722  19.778  25.923  1.00  0.00     0.338 C 
ATOM     32  O   UNL A   1      43.621  18.964  26.085  1.00  0.00    -0.246 OA
BRANCH  31  33
ATOM     33  C   UNL A   1      42.887  21.214  26.200  1.00  0.00     0.060 A 
ATOM     34  C   UNL A   1      42.923  22.097  25.111  1.00  0.00     0.016 A 
ATOM     35  C   UNL A   1      43.060  21.682  27.503  1.00  0.00     0.016 A 
ATOM     36  C   UNL A   1      43.168  23.452  25.319  1.00  0.00     0.010 A 
ATOM     37  C   UNL A   1      43.317  23.039  27.707  1.00  0.00     0.010 A 
ATOM     38  C   UNL A   1      43.402  23.924  26.616  1.00  0.00    -0.014 A 
BRANCH  38  39
ATOM     39  C   UNL A   1      43.868  25.312  26.841  1.00  0.00     0.031 A 
ATOM     40  C   UNL A   1      45.330  25.619  26.681  1.00  0.00     0.074 A 
ATOM     41  C   UNL A   1      43.010  26.271  27.226  1.00  0.00     0.049 A 
ATOM     42  N   UNL A   1      45.982  26.716  26.962  1.00  0.00    -0.248 NA
ATOM     43  C   UNL A   1      46.170  24.535  26.144  1.00  0.00     0.031 C 
ATOM     44  C   UNL A   1      41.566  26.101  27.377  1.00  0.00     0.029 A 
ATOM     45  N   UNL A   1      43.239  27.574  27.589  1.00  0.00    -0.354 N 
ATOM     46  C   UNL A   1      47.313  26.449  26.665  1.00  0.00     0.074 A 
ATOM     47  C   UNL A   1      47.376  25.080  26.200  1.00  0.00     0.031 C 
ATOM     48  C   UNL A   1      41.040  27.249  27.838  1.00  0.00     0.029 A 
ATOM     49  C   UNL A   1      42.116  28.216  28.054  1.00  0.00     0.049 A 
ATOM     50  H   UNL A   1      44.120  28.007  27.524  1.00  0.00     0.167 HD
ATOM     51  C   UNL A   1      48.385  27.269  26.776  1.00  0.00     0.031 A 
ATOM     52  C   UNL A   1      41.977  29.426  28.631  1.00  0.00     0.031 A 
ATOM     53  C   UNL A   1      48.311  28.622  27.261  1.00  0.00     0.049 A 
ATOM     54  C   UNL A   1      43.187  30.305  28.804  1.00  0.00     0.074 A 
ATOM     55  C   UNL A   1      49.332  29.547  27.385  1.00  0.00     0.029 A 
ATOM     56  N   UNL A   1      47.155  29.238  27.716  1.00  0.00    -0.354 N 
ATOM     57  N   UNL A   1      44.436  30.055  28.487  1.00  0.00    -0.248 NA
ATOM     58  C   UNL A   1      42.971  31.628  29.403  1.00  0.00     0.031 C 
ATOM     59  C   UNL A   1      48.805  30.699  27.978  1.00  0.00     0.029 A 
ATOM     60  C   UNL A   1      47.441  30.519  28.154  1.00  0.00     0.049 A 
ATOM     61  H   UNL A   1      46.261  28.824  27.726  1.00  0.00     0.167 HD
ATOM     62  C   UNL A   1      45.150  31.201  28.822  1.00  0.00     0.074 A 
ATOM     63  C   UNL A   1      44.192  32.146  29.362  1.00  0.00     0.031 C 
ATOM     64  C   UNL A   1      46.476  31.450  28.688  1.00  0.00     0.031 A 
BRANCH  51  65
ATOM     65  C   UNL A   1      49.733  26.696  26.424  1.00  0.00    -0.014 A 
ATOM     66  C   UNL A   1      50.226  26.723  25.106  1.00  0.00     0.010 A 
ATOM     67  C   UNL A   1      50.523  26.119  27.435  1.00  0.00     0.010 A 
ATOM     68  C   UNL A   1      51.451  26.128  24.796  1.00  0.00     0.020 A 
ATOM     69  C   UNL A   1      51.765  25.551  27.136  1.00  0.00     0.020 A 
ATOM     70  C   UNL A   1      52.209  25.537  25.812  1.00  0.00     0.054 A 
BRANCH  70  71
ATOM     71  S   UNL A   1      53.786  24.753  25.381  1.00  0.00     0.124 S 
ATOM     72  O   UNL A   1      53.359  23.408  25.001  1.00  0.00    -0.237 OA
ATOM     73  O   UNL A   1      54.271  25.590  24.286  1.00  0.00    -0.237 OA
ATOM     74  O   UNL A   1      54.564  24.834  26.614  1.00  0.00    -0.744 OA
ENDBRANCH  70  71
ENDBRANCH  51  65
BRANCH  52  75
ATOM     75  C   UNL A   1      40.635  29.851  29.113  1.00  0.00    -0.014 A 
ATOM     76  C   UNL A   1      39.535  29.887  28.241  1.00  0.00     0.010 A 
ATOM     77  C   UNL A   1      40.442  30.168  30.472  1.00  0.00     0.010 A 
ATOM     78  C   UNL A   1      38.265  30.226  28.720  1.00  0.00     0.020 A 
ATOM     79  C   UNL A   1      39.171  30.480  30.959  1.00  0.00     0.020 A 
ATOM     80  C   UNL A   1      38.089  30.509  30.078  1.00  0.00     0.054 A 
BRANCH  80  81
ATOM     81  S   UNL A   1      36.416  30.850  30.691  1.00  0.00     0.124 S 
ATOM     82  O   UNL A   1      35.641  30.892  29.455  1.00  0.00    -0.237 OA
ATOM     83  O   UNL A   1      36.161  29.703  31.559  1.00  0.00    -0.237 OA
ATOM     84  O   UNL A   1      36.558  32.127  31.387  1.00  0.00    -0.744 OA
ENDBRANCH  80  81
ENDBRANCH  52  75
BRANCH  64  85
ATOM     85  C   UNL A   1      46.982  32.813  29.087  1.00  0.00    -0.014 A 
ATOM     86  C   UNL A   1      46.814  33.932  28.253  1.00  0.00     0.010 A 
ATOM     87  C   UNL A   1      47.548  32.988  30.364  1.00  0.00     0.010 A 
ATOM     88  C   UNL A   1      47.215  35.200  28.686  1.00  0.00     0.020 A 
ATOM     89  C   UNL A   1      47.924  34.257  30.811  1.00  0.00     0.020 A 
ATOM     90  C   UNL A   1      47.761  35.356  29.965  1.00  0.00     0.054 A 
BRANCH  90  91
ATOM     91  S   UNL A   1      48.202  37.022  30.531  1.00  0.00     0.124 S 
ATOM     92  O   UNL A   1      49.457  37.261  29.828  1.00  0.00    -0.237 OA
ATOM     93  O   UNL A   1      47.066  37.824  30.080  1.00  0.00    -0.237 OA
ATOM     94  O   UNL A   1      48.317  36.878  31.980  1.00  0.00    -0.744 OA
ENDBRANCH  90  91
ENDBRANCH  64  85
ENDBRANCH  38  39
ENDBRANCH  31  33
ENDBRANCH  30  31
ENDBRANCH  29  30
ENDBRANCH  28  29
ENDBRANCH  27  28
ENDBRANCH  26  27
ENDBRANCH   1  26
TORSDOF 23
ENDMDL
MODEL 2
REMARK VINA RESULT:      -9.6      4.873      9.673
REMARK SMILES CCC[NH2+]C[C@H]1CCC[N@@H+](Cc2ccc(C(=O)OCCOCCOC(=O)c3ccc(-c4c5nc(c(-c6ccc(S(=O)(=O)[O-])cc6)c6ccc([nH]6)c(-c6ccc(S(=O)(=O)[O-])cc6)c6nc(c(-c7ccc(S(=O)(=O)[O-])cc7)c7ccc4[nH]7)C=C6)C=C5)cc3)cc2)C1
REMARK SMILES IDX 19 1 18 2 16 3 17 4 15 5 12 6 13 7 88 8 14 9 87 10 11 11
REMARK SMILES IDX 10 12 6 13 7 14 89 15 8 16 9 17 5 19 4 20 3 23 2 24 1 25
REMARK SMILES IDX 20 26 21 27 22 28 23 29 24 30 25 31 26 32 27 33 28 34 86 35
REMARK SMILES IDX 29 36 85 37 30 38 31 39 32 40 79 41 33 42 84 43 78 44 80 45
REMARK SMILES IDX 34 46 83 47 77 48 76 49 35 51 65 52 46 53 64 54 47 55 50 56
REMARK SMILES IDX 63 57 81 58 48 59 49 60 62 62 82 63 51 64 36 65 37 66 45 67
REMARK SMILES IDX 38 68 44 69 39 70 40 71 41 72 42 73 43 74 66 75 67 76 75 77
REMARK SMILES IDX 68 78 74 79 69 80 70 81 71 82 72 83 73 84 52 85 53 86 61 87
REMARK SMILES IDX 54 88 60 89 55 90 56 91 57 92 58 93 59 94
REMARK H PARENT 10 18 4 21 4 22 80 50 50 61
REMARK Flexibility Score: inf
ROOT
ATOM      1  C   UNL A   1      41.838  19.243  26.068  1.00  0.00     0.261 C 
ENDROOT
BRANCH   1   2
ATOM      2  O   UNL A   1      41.187  20.478  25.742  1.00  0.00    -0.460 OA
BRANCH   2   3
ATOM      3  C   UNL A   1      40.402  20.981  26.723  1.00  0.00     0.338 C 
ATOM      4  O   UNL A   1      40.586  20.886  27.928  1.00  0.00    -0.246 OA
BRANCH   3   5
ATOM      5  C   UNL A   1      39.319  21.810  26.142  1.00  0.00     0.060 A 
ATOM      6  C   UNL A   1      37.160  23.391  25.337  1.00  0.00     0.006 A 
ATOM      7  C   UNL A   1      38.125  23.912  26.208  1.00  0.00     0.010 A 
ATOM      8  C   UNL A   1      37.388  22.145  24.733  1.00  0.00     0.010 A 
ATOM      9  C   UNL A   1      39.196  23.122  26.612  1.00  0.00     0.016 A 
ATOM     10  C   UNL A   1      38.446  21.340  25.155  1.00  0.00     0.016 A 
BRANCH   6  11
ATOM     11  C   UNL A   1      35.802  24.071  25.234  1.00  0.00     0.299 C 
BRANCH  11  12
ATOM     12  N   UNL A   1      34.640  23.163  25.426  1.00  0.00    -0.331 N 
ATOM     13  C   UNL A   1      32.213  23.016  26.126  1.00  0.00     0.099 C 
ATOM     14  C   UNL A   1      31.908  22.255  24.829  1.00  0.00     0.021 C 
ATOM     15  C   UNL A   1      33.460  23.892  25.916  1.00  0.00     0.271 C 
ATOM     16  C   UNL A   1      33.135  21.458  24.401  1.00  0.00     0.062 C 
ATOM     17  C   UNL A   1      34.337  22.380  24.216  1.00  0.00     0.262 C 
ATOM     18  H   UNL A   1      34.903  22.493  26.148  1.00  0.00     0.348 HD
BRANCH  13  19
ATOM     19  C   UNL A   1      31.058  23.933  26.597  1.00  0.00     0.269 C 
BRANCH  19  20
ATOM     20  N   UNL A   1      31.386  25.329  26.850  1.00  0.00    -0.346 N 
ATOM     21  H   UNL A   1      31.181  25.531  27.830  1.00  0.00     0.346 HD
ATOM     22  H   UNL A   1      32.373  25.441  26.618  1.00  0.00     0.346 HD
BRANCH  20  23
ATOM     23  C   UNL A   1      30.658  26.284  26.028  1.00  0.00     0.260 C 
BRANCH  23  24
ATOM     24  C   UNL A   1      30.031  25.600  24.807  1.00  0.00     0.058 C 
ATOM     25  C   UNL A   1      29.252  26.553  23.906  1.00  0.00     0.010 C 
ENDBRANCH  23  24
ENDBRANCH  20  23
ENDBRANCH  19  20
ENDBRANCH  13  19
ENDBRANCH  11  12
ENDBRANCH   6  11
ENDBRANCH   3   5
ENDBRANCH   2   3
ENDBRANCH   1   2
BRANCH   1  26
ATOM     26  C   UNL A   1      43.354  19.365  25.886  1.00  0.00     0.202 C 
BRANCH  26  27
ATOM     27  O   UNL A   1      43.840  19.508  24.552  1.00  0.00    -0.374 OA
BRANCH  27  28
ATOM     28  C   UNL A   1      45.014  20.297  24.355  1.00  0.00     0.202 C 
BRANCH  28  29
ATOM     29  C   UNL A   1      45.364  21.340  25.424  1.00  0.00     0.261 C 
BRANCH  29  30
ATOM     30  O   UNL A   1      45.201  22.689  24.957  1.00  0.00    -0.460 OA
BRANCH  30  31
ATOM     31  C   UNL A   1      43.917  23.107  24.858  1.00  0.00     0.338 C 
ATOM     32  O   UNL A   1      43.078  22.735  24.048  1.00  0.00    -0.246 OA
BRANCH  31  33
ATOM     33  C   UNL A   1      43.588  23.960  26.012  1.00  0.00     0.060 A 
ATOM     34  C   UNL A   1      44.058  25.280  26.012  1.00  0.00     0.016 A 
ATOM     35  C   UNL A   1      42.877  23.456  27.102  1.00  0.00     0.016 A 
ATOM     36  C   UNL A   1      43.849  26.096  27.121  1.00  0.00     0.010 A 
ATOM     37  C   UNL A   1      42.680  24.272  28.218  1.00  0.00     0.010 A 
ATOM     38  C   UNL A   1      43.190  25.584  28.245  1.00  0.00    -0.014 A 
BRANCH  38  39
ATOM     39  C   UNL A   1      43.139  26.357  29.508  1.00  0.00     0.031 A 
ATOM     40  C   UNL A   1      42.001  27.313  29.726  1.00  0.00     0.074 A 
ATOM     41  C   UNL A   1      44.116  26.242  30.422  1.00  0.00     0.049 A 
ATOM     42  N   UNL A   1      41.827  28.189  30.679  1.00  0.00    -0.248 NA
ATOM     43  C   UNL A   1      40.922  27.282  28.725  1.00  0.00     0.031 C 
ATOM     44  C   UNL A   1      45.250  25.322  30.337  1.00  0.00     0.029 A 
ATOM     45  N   UNL A   1      44.325  26.931  31.590  1.00  0.00    -0.354 N 
ATOM     46  C   UNL A   1      40.635  28.837  30.380  1.00  0.00     0.074 A 
ATOM     47  C   UNL A   1      40.139  28.264  29.147  1.00  0.00     0.031 C 
ATOM     48  C   UNL A   1      46.055  25.529  31.393  1.00  0.00     0.029 A 
ATOM     49  C   UNL A   1      45.517  26.623  32.200  1.00  0.00     0.049 A 
ATOM     50  H   UNL A   1      43.683  27.582  31.956  1.00  0.00     0.167 HD
ATOM     51  C   UNL A   1      40.013  29.825  31.067  1.00  0.00     0.031 A 
ATOM     52  C   UNL A   1      46.129  27.188  33.260  1.00  0.00     0.031 A 
ATOM     53  C   UNL A   1      40.528  30.401  32.282  1.00  0.00     0.049 A 
ATOM     54  C   UNL A   1      45.455  28.326  33.980  1.00  0.00     0.074 A 
ATOM     55  C   UNL A   1      39.962  31.385  33.073  1.00  0.00     0.029 A 
ATOM     56  N   UNL A   1      41.736  30.058  32.871  1.00  0.00    -0.354 N 
ATOM     57  N   UNL A   1      44.310  28.908  33.709  1.00  0.00    -0.248 NA
ATOM     58  C   UNL A   1      46.148  28.878  35.151  1.00  0.00     0.031 C 
ATOM     59  C   UNL A   1      40.860  31.683  34.103  1.00  0.00     0.029 A 
ATOM     60  C   UNL A   1      41.951  30.833  33.997  1.00  0.00     0.049 A 
ATOM     61  H   UNL A   1      42.350  29.364  32.537  1.00  0.00     0.167 HD
ATOM     62  C   UNL A   1      44.132  29.875  34.693  1.00  0.00     0.074 A 
ATOM     63  C   UNL A   1      45.285  29.797  35.568  1.00  0.00     0.031 C 
ATOM     64  C   UNL A   1      43.104  30.743  34.860  1.00  0.00     0.031 A 
BRANCH  51  65
ATOM     65  C   UNL A   1      38.741  30.380  30.482  1.00  0.00    -0.014 A 
ATOM     66  C   UNL A   1      37.519  29.688  30.579  1.00  0.00     0.010 A 
ATOM     67  C   UNL A   1      38.770  31.622  29.821  1.00  0.00     0.010 A 
ATOM     68  C   UNL A   1      36.368  30.196  29.972  1.00  0.00     0.020 A 
ATOM     69  C   UNL A   1      37.613  32.150  29.241  1.00  0.00     0.020 A 
ATOM     70  C   UNL A   1      36.425  31.420  29.298  1.00  0.00     0.054 A 
BRANCH  70  71
ATOM     71  S   UNL A   1      34.921  32.048  28.501  1.00  0.00     0.124 S 
ATOM     72  O   UNL A   1      34.368  30.833  27.906  1.00  0.00    -0.237 OA
ATOM     73  O   UNL A   1      34.168  32.595  29.626  1.00  0.00    -0.237 OA
ATOM     74  O   UNL A   1      35.419  33.037  27.549  1.00  0.00    -0.744 OA
ENDBRANCH  70  71
ENDBRANCH  51  65
BRANCH  52  75
ATOM     75  C   UNL A   1      47.471  26.696  33.672  1.00  0.00    -0.014 A 
ATOM     76  C   UNL A   1      47.600  25.627  34.573  1.00  0.00     0.010 A 
ATOM     77  C   UNL A   1      48.632  27.266  33.115  1.00  0.00     0.010 A 
ATOM     78  C   UNL A   1      48.865  25.130  34.904  1.00  0.00     0.020 A 
ATOM     79  C   UNL A   1      49.895  26.755  33.422  1.00  0.00     0.020 A 
ATOM     80  C   UNL A   1      50.004  25.690  34.317  1.00  0.00     0.054 A 
BRANCH  80  81
ATOM     81  S   UNL A   1      51.625  24.965  34.688  1.00  0.00     0.124 S 
ATOM     82  O   UNL A   1      51.364  23.538  34.533  1.00  0.00    -0.237 OA
ATOM     83  O   UNL A   1      52.479  25.567  33.665  1.00  0.00    -0.237 OA
ATOM     84  O   UNL A   1      51.897  25.410  36.053  1.00  0.00    -0.744 OA
ENDBRANCH  80  81
ENDBRANCH  52  75
BRANCH  64  85
ATOM     85  C   UNL A   1      43.142  31.659  36.056  1.00  0.00    -0.014 A 
ATOM     86  C   UNL A   1      43.691  32.951  35.976  1.00  0.00     0.010 A 
ATOM     87  C   UNL A   1      42.528  31.250  37.255  1.00  0.00     0.010 A 
ATOM     88  C   UNL A   1      43.635  33.811  37.077  1.00  0.00     0.020 A 
ATOM     89  C   UNL A   1      42.446  32.116  38.348  1.00  0.00     0.020 A 
ATOM     90  C   UNL A   1      43.007  33.391  38.254  1.00  0.00     0.054 A 
BRANCH  90  91
ATOM     91  S   UNL A   1      42.880  34.553  39.641  1.00  0.00     0.124 S 
ATOM     92  O   UNL A   1      44.257  34.606  40.122  1.00  0.00    -0.237 OA
ATOM     93  O   UNL A   1      42.393  35.770  38.995  1.00  0.00    -0.237 OA
ATOM     94  O   UNL A   1      41.928  33.912  40.546  1.00  0.00    -0.744 OA
ENDBRANCH  90  91
ENDBRANCH  64  85
ENDBRANCH  38  39
ENDBRANCH  31  33
ENDBRANCH  30  31
ENDBRANCH  29  30
ENDBRANCH  28  29
ENDBRANCH  27  28
ENDBRANCH  26  27
ENDBRANCH   1  26
TORSDOF 23
ENDMDL
MODEL 3
REMARK VINA RESULT:      -9.6      0.772      8.068
REMARK SMILES CCC[NH2+]C[C@H]1CCC[N@@H+](Cc2ccc(C(=O)OCCOCCOC(=O)c3ccc(-c4c5nc(c(-c6ccc(S(=O)(=O)[O-])cc6)c6ccc([nH]6)c(-c6ccc(S(=O)(=O)[O-])cc6)c6nc(c(-c7ccc(S(=O)(=O)[O-])cc7)c7ccc4[nH]7)C=C6)C=C5)cc3)cc2)C1
REMARK SMILES IDX 19 1 18 2 16 3 17 4 15 5 12 6 13 7 88 8 14 9 87 10 11 11
REMARK SMILES IDX 10 12 6 13 7 14 89 15 8 16 9 17 5 19 4 20 3 23 2 24 1 25
REMARK SMILES IDX 20 26 21 27 22 28 23 29 24 30 25 31 26 32 27 33 28 34 86 35
REMARK SMILES IDX 29 36 85 37 30 38 31 39 32 40 79 41 33 42 84 43 78 44 80 45
REMARK SMILES IDX 34 46 83 47 77 48 76 49 35 51 65 52 46 53 64 54 47 55 50 56
REMARK SMILES IDX 63 57 81 58 48 59 49 60 62 62 82 63 51 64 36 65 37 66 45 67
REMARK SMILES IDX 38 68 44 69 39 70 40 71 41 72 42 73 43 74 66 75 67 76 75 77
REMARK SMILES IDX 68 78 74 79 69 80 70 81 71 82 72 83 73 84 52 85 53 86 61 87
REMARK SMILES IDX 54 88 60 89 55 90 56 91 57 92 58 93 59 94
REMARK H PARENT 10 18 4 21 4 22 80 50 50 61
REMARK Flexibility Score: inf
ROOT
ATOM      1  C   UNL A   1      35.309  20.636  25.440  1.00  0.00     0.261 C 
ENDROOT
BRANCH   1   2
ATOM      2  O   UNL A   1      34.477  19.872  24.557  1.00  0.00    -0.460 OA
BRANCH   2   3
ATOM      3  C   UNL A   1      33.148  19.992  24.785  1.00  0.00     0.338 C 
ATOM      4  O   UNL A   1      32.406  19.140  25.250  1.00  0.00    -0.246 OA
BRANCH   3   5
ATOM      5  C   UNL A   1      32.704  21.382  24.519  1.00  0.00     0.060 A 
ATOM      6  C   UNL A   1      31.572  23.890  24.031  1.00  0.00     0.006 A 
ATOM      7  C   UNL A   1      31.359  23.251  25.259  1.00  0.00     0.010 A 
ATOM      8  C   UNL A   1      32.503  23.347  23.131  1.00  0.00     0.010 A 
ATOM      9  C   UNL A   1      31.919  22.000  25.498  1.00  0.00     0.016 A 
ATOM     10  C   UNL A   1      33.046  22.081  23.356  1.00  0.00     0.016 A 
BRANCH   6  11
ATOM     11  C   UNL A   1      30.645  25.019  23.606  1.00  0.00     0.299 C 
BRANCH  11  12
ATOM     12  N   UNL A   1      31.251  26.375  23.670  1.00  0.00    -0.331 N 
ATOM     13  C   UNL A   1      31.007  28.795  22.970  1.00  0.00     0.099 C 
ATOM     14  C   UNL A   1      31.225  29.216  24.430  1.00  0.00     0.021 C 
ATOM     15  C   UNL A   1      30.445  27.363  22.936  1.00  0.00     0.271 C 
ATOM     16  C   UNL A   1      32.125  28.202  25.127  1.00  0.00     0.062 C 
ATOM     17  C   UNL A   1      31.517  26.804  25.053  1.00  0.00     0.262 C 
ATOM     18  H   UNL A   1      32.157  26.318  23.204  1.00  0.00     0.348 HD
BRANCH  13  19
ATOM     19  C   UNL A   1      30.028  29.711  22.197  1.00  0.00     0.269 C 
BRANCH  19  20
ATOM     20  N   UNL A   1      28.965  30.342  22.968  1.00  0.00    -0.346 N 
ATOM     21  H   UNL A   1      28.801  29.778  23.803  1.00  0.00     0.346 HD
ATOM     22  H   UNL A   1      29.284  31.287  23.180  1.00  0.00     0.346 HD
BRANCH  20  23
ATOM     23  C   UNL A   1      27.702  30.482  22.260  1.00  0.00     0.260 C 
BRANCH  23  24
ATOM     24  C   UNL A   1      27.907  31.115  20.879  1.00  0.00     0.058 C 
ATOM     25  C   UNL A   1      27.966  32.639  20.908  1.00  0.00     0.010 C 
ENDBRANCH  23  24
ENDBRANCH  20  23
ENDBRANCH  19  20
ENDBRANCH  13  19
ENDBRANCH  11  12
ENDBRANCH   6  11
ENDBRANCH   3   5
ENDBRANCH   2   3
ENDBRANCH   1   2
BRANCH   1  26
ATOM     26  C   UNL A   1      36.459  21.291  24.670  1.00  0.00     0.202 C 
BRANCH  26  27
ATOM     27  O   UNL A   1      37.782  21.063  25.156  1.00  0.00    -0.374 OA
BRANCH  27  28
ATOM     28  C   UNL A   1      38.317  19.745  25.030  1.00  0.00     0.202 C 
BRANCH  28  29
ATOM     29  C   UNL A   1      39.516  19.373  25.911  1.00  0.00     0.261 C 
BRANCH  29  30
ATOM     30  O   UNL A   1      40.767  19.816  25.360  1.00  0.00    -0.460 OA
BRANCH  30  31
ATOM     31  C   UNL A   1      41.813  19.781  26.219  1.00  0.00     0.338 C 
ATOM     32  O   UNL A   1      42.479  18.804  26.533  1.00  0.00    -0.246 OA
BRANCH  31  33
ATOM     33  C   UNL A   1      42.182  21.155  26.599  1.00  0.00     0.060 A 
ATOM     34  C   UNL A   1      42.383  22.092  25.576  1.00  0.00     0.016 A 
ATOM     35  C   UNL A   1      42.382  21.504  27.935  1.00  0.00     0.016 A 
ATOM     36  C   UNL A   1      42.821  23.378  25.883  1.00  0.00     0.010 A 
ATOM     37  C   UNL A   1      42.834  22.790  28.239  1.00  0.00     0.010 A 
ATOM     38  C   UNL A   1      43.083  23.722  27.214  1.00  0.00    -0.014 A 
BRANCH  38  39
ATOM     39  C   UNL A   1      43.744  25.006  27.545  1.00  0.00     0.031 A 
ATOM     40  C   UNL A   1      42.898  26.158  28.007  1.00  0.00     0.074 A 
ATOM     41  C   UNL A   1      45.070  25.155  27.391  1.00  0.00     0.049 A 
ATOM     42  N   UNL A   1      43.236  27.403  28.213  1.00  0.00    -0.248 NA
ATOM     43  C   UNL A   1      41.477  25.864  28.257  1.00  0.00     0.031 C 
ATOM     44  C   UNL A   1      45.998  24.099  26.985  1.00  0.00     0.029 A 
ATOM     45  N   UNL A   1      45.861  26.267  27.530  1.00  0.00    -0.354 N 
ATOM     46  C   UNL A   1      42.065  28.052  28.588  1.00  0.00     0.074 A 
ATOM     47  C   UNL A   1      41.007  27.065  28.563  1.00  0.00     0.031 C 
ATOM     48  C   UNL A   1      47.230  24.625  26.873  1.00  0.00     0.029 A 
ATOM     49  C   UNL A   1      47.167  26.058  27.156  1.00  0.00     0.049 A 
ATOM     50  H   UNL A   1      45.527  27.130  27.864  1.00  0.00     0.167 HD
ATOM     51  C   UNL A   1      41.888  29.354  28.918  1.00  0.00     0.031 A 
ATOM     52  C   UNL A   1      48.185  26.930  27.012  1.00  0.00     0.031 A 
ATOM     53  C   UNL A   1      42.946  30.330  28.918  1.00  0.00     0.049 A 
ATOM     54  C   UNL A   1      47.960  28.385  27.324  1.00  0.00     0.074 A 
ATOM     55  C   UNL A   1      42.880  31.668  29.265  1.00  0.00     0.029 A 
ATOM     56  N   UNL A   1      44.256  30.078  28.540  1.00  0.00    -0.354 N 
ATOM     57  N   UNL A   1      46.858  28.982  27.712  1.00  0.00    -0.248 NA
ATOM     58  C   UNL A   1      49.115  29.283  27.187  1.00  0.00     0.031 C 
ATOM     59  C   UNL A   1      44.135  32.239  29.030  1.00  0.00     0.029 A 
ATOM     60  C   UNL A   1      45.002  31.241  28.611  1.00  0.00     0.049 A 
ATOM     61  H   UNL A   1      44.605  29.200  28.261  1.00  0.00     0.167 HD
ATOM     62  C   UNL A   1      47.193  30.320  27.894  1.00  0.00     0.074 A 
ATOM     63  C   UNL A   1      48.602  30.444  27.577  1.00  0.00     0.031 C 
ATOM     64  C   UNL A   1      46.406  31.350  28.293  1.00  0.00     0.031 A 
BRANCH  51  65
ATOM     65  C   UNL A   1      40.487  29.801  29.243  1.00  0.00    -0.014 A 
ATOM     66  C   UNL A   1      39.487  29.873  28.256  1.00  0.00     0.010 A 
ATOM     67  C   UNL A   1      40.166  30.156  30.566  1.00  0.00     0.010 A 
ATOM     68  C   UNL A   1      38.213  30.352  28.572  1.00  0.00     0.020 A 
ATOM     69  C   UNL A   1      38.883  30.605  30.894  1.00  0.00     0.020 A 
ATOM     70  C   UNL A   1      37.922  30.724  29.888  1.00  0.00     0.054 A 
BRANCH  70  71
ATOM     71  S   UNL A   1      36.267  31.361  30.269  1.00  0.00     0.124 S 
ATOM     72  O   UNL A   1      36.010  30.764  31.578  1.00  0.00    -0.237 OA
ATOM     73  O   UNL A   1      36.473  32.807  30.268  1.00  0.00    -0.237 OA
ATOM     74  O   UNL A   1      35.439  30.851  29.179  1.00  0.00    -0.744 OA
ENDBRANCH  70  71
ENDBRANCH  51  65
BRANCH  52  75
ATOM     75  C   UNL A   1      49.499  26.437  26.516  1.00  0.00    -0.014 A 
ATOM     76  C   UNL A   1      49.846  26.555  25.160  1.00  0.00     0.010 A 
ATOM     77  C   UNL A   1      50.435  25.895  27.418  1.00  0.00     0.010 A 
ATOM     78  C   UNL A   1      51.109  26.147  24.716  1.00  0.00     0.020 A 
ATOM     79  C   UNL A   1      51.706  25.513  26.984  1.00  0.00     0.020 A 
ATOM     80  C   UNL A   1      52.034  25.640  25.633  1.00  0.00     0.054 A 
BRANCH  80  81
ATOM     81  S   UNL A   1      53.697  25.209  25.049  1.00  0.00     0.124 S 
ATOM     82  O   UNL A   1      54.067  24.124  25.952  1.00  0.00    -0.237 OA
ATOM     83  O   UNL A   1      53.451  24.822  23.661  1.00  0.00    -0.237 OA
ATOM     84  O   UNL A   1      54.452  26.449  25.215  1.00  0.00    -0.744 OA
ENDBRANCH  80  81
ENDBRANCH  52  75
BRANCH  64  85
ATOM     85  C   UNL A   1      47.047  32.704  28.459  1.00  0.00    -0.014 A 
ATOM     86  C   UNL A   1      46.940  33.694  27.466  1.00  0.00     0.010 A 
ATOM     87  C   UNL A   1      47.685  33.018  29.673  1.00  0.00     0.010 A 
ATOM     88  C   UNL A   1      47.471  34.969  27.682  1.00  0.00     0.020 A 
ATOM     89  C   UNL A   1      48.191  34.299  29.904  1.00  0.00     0.020 A 
ATOM     90  C   UNL A   1      48.087  35.267  28.903  1.00  0.00     0.054 A 
BRANCH  90  91
ATOM     91  S   UNL A   1      48.698  36.951  29.187  1.00  0.00     0.124 S 
ATOM     92  O   UNL A   1      49.576  36.766  30.338  1.00  0.00    -0.237 OA
ATOM     93  O   UNL A   1      49.371  37.263  27.928  1.00  0.00    -0.237 OA
ATOM     94  O   UNL A   1      47.485  37.722  29.446  1.00  0.00    -0.744 OA
ENDBRANCH  90  91
ENDBRANCH  64  85
ENDBRANCH  38  39
ENDBRANCH  31  33
ENDBRANCH  30  31
ENDBRANCH  29  30
ENDBRANCH  28  29
ENDBRANCH  27  28
ENDBRANCH  26  27
ENDBRANCH   1  26
TORSDOF 23
ENDMDL
