MODEL 1
REMARK VINA RESULT:      -8.9      0.000      0.000
REMARK SMILES C[C@H](C[N@H+](C)[C@H]1CC[C@H]([NH3+])CC1)C(=O)OCCOCCOC(=O)c1ccc(-c2c3nc(c(-c4ccc(S(=O)(=O)[O-])cc4)c4ccc([nH]4)c(-c4ccc(S(=O)(=O)[O-])cc4)c4nc(c(-c5ccc(S(=O)(=O)[O-])cc5)c5ccc2[nH]5)C=C4)C=C3)cc1
REMARK SMILES IDX 17 1 16 2 15 3 13 4 14 5 2 6 1 7 3 8 4 9 5 10 6 12 7 13
REMARK SMILES IDX 12 14 8 15 11 16 9 17 10 18 18 22 19 23 20 24 21 25 22 26
REMARK SMILES IDX 23 27 24 28 25 29 83 30 26 31 82 32 27 33 28 34 29 35 76 36
REMARK SMILES IDX 30 37 81 38 75 39 77 40 31 41 80 42 74 43 73 44 32 46 62 47
REMARK SMILES IDX 43 48 61 49 44 50 47 51 60 52 78 53 45 54 46 55 59 57 79 58
REMARK SMILES IDX 48 59 33 60 34 61 42 62 35 63 41 64 36 65 37 66 38 67 39 68
REMARK SMILES IDX 40 69 63 70 64 71 72 72 65 73 71 74 66 75 67 76 68 77 69 78
REMARK SMILES IDX 70 79 49 80 50 81 58 82 51 83 57 84 52 85 53 86 54 87 55 88
REMARK SMILES IDX 56 89
REMARK H PARENT 4 11 10 19 10 20 10 21 77 45 47 56
REMARK Flexibility Score: inf
ROOT
ATOM      1  C   UNL A   1      34.078  28.477  26.220  1.00  0.00     0.202 C 
ENDROOT
BRANCH   1   2
ATOM      2  C   UNL A   1      33.410  27.104  26.101  1.00  0.00     0.261 C 
BRANCH   2   3
ATOM      3  O   UNL A   1      33.423  26.668  24.733  1.00  0.00    -0.463 OA
BRANCH   3   4
ATOM      4  C   UNL A   1      32.587  27.307  23.874  1.00  0.00     0.314 C 
ATOM      5  O   UNL A   1      32.959  27.887  22.862  1.00  0.00    -0.252 OA
BRANCH   4   6
ATOM      6  C   UNL A   1      31.119  27.090  24.244  1.00  0.00     0.151 C 
ATOM      7  C   UNL A   1      30.604  25.755  23.708  1.00  0.00     0.026 C 
BRANCH   6   8
ATOM      8  C   UNL A   1      30.153  28.272  23.989  1.00  0.00     0.277 C 
BRANCH   8   9
ATOM      9  N   UNL A   1      30.597  29.665  23.865  1.00  0.00    -0.334 N 
ATOM     10  C   UNL A   1      31.037  30.305  25.089  1.00  0.00     0.332 C 
ATOM     11  H   UNL A   1      31.486  29.574  23.372  1.00  0.00     0.348 HD
BRANCH   9  12
ATOM     12  C   UNL A   1      29.821  30.485  22.939  1.00  0.00     0.184 C 
ATOM     13  C   UNL A   1      29.172  31.682  23.641  1.00  0.00     0.071 C 
ATOM     14  C   UNL A   1      28.724  29.758  22.151  1.00  0.00     0.071 C 
ATOM     15  C   UNL A   1      28.658  32.654  22.579  1.00  0.00     0.071 C 
ATOM     16  C   UNL A   1      28.216  30.652  21.028  1.00  0.00     0.071 C 
ATOM     17  C   UNL A   1      27.734  32.014  21.529  1.00  0.00     0.181 C 
BRANCH  17  18
ATOM     18  N   UNL A   1      27.592  32.874  20.351  1.00  0.00    -0.355 N 
ATOM     19  H   UNL A   1      28.281  33.624  20.392  1.00  0.00     0.344 HD
ATOM     20  H   UNL A   1      26.653  33.274  20.335  1.00  0.00     0.344 HD
ATOM     21  H   UNL A   1      27.739  32.321  19.507  1.00  0.00     0.344 HD
ENDBRANCH  17  18
ENDBRANCH   9  12
ENDBRANCH   8   9
ENDBRANCH   6   8
ENDBRANCH   4   6
ENDBRANCH   3   4
ENDBRANCH   2   3
ENDBRANCH   1   2
BRANCH   1  22
ATOM     22  O   UNL A   1      33.505  29.361  27.187  1.00  0.00    -0.374 OA
BRANCH  22  23
ATOM     23  C   UNL A   1      34.102  30.647  27.336  1.00  0.00     0.202 C 
BRANCH  23  24
ATOM     24  C   UNL A   1      33.165  31.832  27.617  1.00  0.00     0.261 C 
BRANCH  24  25
ATOM     25  O   UNL A   1      33.758  33.137  27.472  1.00  0.00    -0.460 OA
BRANCH  25  26
ATOM     26  C   UNL A   1      33.690  33.910  28.587  1.00  0.00     0.338 C 
ATOM     27  O   UNL A   1      32.825  34.725  28.858  1.00  0.00    -0.246 OA
BRANCH  26  28
ATOM     28  C   UNL A   1      34.782  33.604  29.537  1.00  0.00     0.060 A 
ATOM     29  C   UNL A   1      36.080  34.008  29.201  1.00  0.00     0.016 A 
ATOM     30  C   UNL A   1      34.571  32.785  30.647  1.00  0.00     0.016 A 
ATOM     31  C   UNL A   1      37.176  33.565  29.951  1.00  0.00     0.010 A 
ATOM     32  C   UNL A   1      35.671  32.339  31.396  1.00  0.00     0.010 A 
ATOM     33  C   UNL A   1      36.986  32.698  31.036  1.00  0.00    -0.014 A 
BRANCH  33  34
ATOM     34  C   UNL A   1      38.151  32.082  31.736  1.00  0.00     0.031 A 
ATOM     35  C   UNL A   1      38.560  32.590  33.092  1.00  0.00     0.074 A 
ATOM     36  C   UNL A   1      38.864  31.086  31.175  1.00  0.00     0.049 A 
ATOM     37  N   UNL A   1      39.562  32.210  33.840  1.00  0.00    -0.248 NA
ATOM     38  C   UNL A   1      37.718  33.637  33.691  1.00  0.00     0.031 C 
ATOM     39  C   UNL A   1      38.534  30.432  29.919  1.00  0.00     0.029 A 
ATOM     40  N   UNL A   1      40.027  30.469  31.567  1.00  0.00    -0.354 N 
ATOM     41  C   UNL A   1      39.458  32.945  35.012  1.00  0.00     0.074 A 
ATOM     42  C   UNL A   1      38.325  33.833  34.854  1.00  0.00     0.031 C 
ATOM     43  C   UNL A   1      39.520  29.589  29.575  1.00  0.00     0.029 A 
ATOM     44  C   UNL A   1      40.539  29.611  30.619  1.00  0.00     0.049 A 
ATOM     45  H   UNL A   1      40.455  30.626  32.440  1.00  0.00     0.167 HD
ATOM     46  C   UNL A   1      40.220  32.870  36.129  1.00  0.00     0.031 A 
ATOM     47  C   UNL A   1      41.697  28.923  30.586  1.00  0.00     0.031 A 
ATOM     48  C   UNL A   1      41.359  32.003  36.283  1.00  0.00     0.049 A 
ATOM     49  C   UNL A   1      42.605  28.959  31.784  1.00  0.00     0.074 A 
ATOM     50  C   UNL A   1      42.162  31.832  37.398  1.00  0.00     0.029 A 
ATOM     51  N   UNL A   1      41.871  31.179  35.293  1.00  0.00    -0.354 N 
ATOM     52  N   UNL A   1      42.447  29.606  32.912  1.00  0.00    -0.248 NA
ATOM     53  C   UNL A   1      43.825  28.140  31.720  1.00  0.00     0.031 C 
ATOM     54  C   UNL A   1      43.194  30.949  37.064  1.00  0.00     0.029 A 
ATOM     55  C   UNL A   1      43.002  30.529  35.758  1.00  0.00     0.049 A 
ATOM     56  H   UNL A   1      41.487  31.072  34.393  1.00  0.00     0.167 HD
ATOM     57  C   UNL A   1      43.519  29.233  33.713  1.00  0.00     0.074 A 
ATOM     58  C   UNL A   1      44.321  28.308  32.938  1.00  0.00     0.031 C 
ATOM     59  C   UNL A   1      43.800  29.610  34.984  1.00  0.00     0.031 A 
BRANCH  46  60
ATOM     60  C   UNL A   1      39.847  33.757  37.284  1.00  0.00    -0.014 A 
ATOM     61  C   UNL A   1      39.059  33.268  38.342  1.00  0.00     0.010 A 
ATOM     62  C   UNL A   1      40.342  35.071  37.344  1.00  0.00     0.010 A 
ATOM     63  C   UNL A   1      38.754  34.089  39.431  1.00  0.00     0.020 A 
ATOM     64  C   UNL A   1      40.056  35.888  38.441  1.00  0.00     0.020 A 
ATOM     65  C   UNL A   1      39.254  35.394  39.472  1.00  0.00     0.054 A 
BRANCH  65  66
ATOM     66  S   UNL A   1      38.877  36.423  40.917  1.00  0.00     0.124 S 
ATOM     67  O   UNL A   1      37.775  35.686  41.531  1.00  0.00    -0.237 OA
ATOM     68  O   UNL A   1      40.134  36.408  41.660  1.00  0.00    -0.237 OA
ATOM     69  O   UNL A   1      38.514  37.715  40.339  1.00  0.00    -0.744 OA
ENDBRANCH  65  66
ENDBRANCH  46  60
BRANCH  47  70
ATOM     70  C   UNL A   1      42.068  28.135  29.379  1.00  0.00    -0.014 A 
ATOM     71  C   UNL A   1      41.692  26.787  29.254  1.00  0.00     0.010 A 
ATOM     72  C   UNL A   1      42.829  28.731  28.356  1.00  0.00     0.010 A 
ATOM     73  C   UNL A   1      42.096  26.039  28.144  1.00  0.00     0.020 A 
ATOM     74  C   UNL A   1      43.218  27.993  27.235  1.00  0.00     0.020 A 
ATOM     75  C   UNL A   1      42.863  26.646  27.144  1.00  0.00     0.054 A 
BRANCH  75  76
ATOM     76  S   UNL A   1      43.366  25.660  25.706  1.00  0.00     0.124 S 
ATOM     77  O   UNL A   1      42.390  26.069  24.701  1.00  0.00    -0.237 OA
ATOM     78  O   UNL A   1      44.737  26.112  25.479  1.00  0.00    -0.237 OA
ATOM     79  O   UNL A   1      43.243  24.283  26.176  1.00  0.00    -0.744 OA
ENDBRANCH  75  76
ENDBRANCH  47  70
BRANCH  59  80
ATOM     80  C   UNL A   1      45.006  28.996  35.641  1.00  0.00    -0.014 A 
ATOM     81  C   UNL A   1      46.256  29.640  35.618  1.00  0.00     0.010 A 
ATOM     82  C   UNL A   1      44.876  27.775  36.328  1.00  0.00     0.010 A 
ATOM     83  C   UNL A   1      47.361  29.059  36.248  1.00  0.00     0.020 A 
ATOM     84  C   UNL A   1      45.972  27.205  36.981  1.00  0.00     0.020 A 
ATOM     85  C   UNL A   1      47.212  27.844  36.925  1.00  0.00     0.054 A 
BRANCH  85  86
ATOM     86  S   UNL A   1      48.648  27.132  37.773  1.00  0.00     0.124 S 
ATOM     87  O   UNL A   1      48.075  25.942  38.395  1.00  0.00    -0.237 OA
ATOM     88  O   UNL A   1      49.579  26.882  36.675  1.00  0.00    -0.237 OA
ATOM     89  O   UNL A   1      49.059  28.184  38.699  1.00  0.00    -0.744 OA
ENDBRANCH  85  86
ENDBRANCH  59  80
ENDBRANCH  33  34
ENDBRANCH  26  28
ENDBRANCH  25  26
ENDBRANCH  24  25
ENDBRANCH  23  24
ENDBRANCH  22  23
ENDBRANCH   1  22
TORSDOF 21
ENDMDL
MODEL 2
REMARK VINA RESULT:      -8.9      3.933      9.415
REMARK SMILES C[C@H](C[N@H+](C)[C@H]1CC[C@H]([NH3+])CC1)C(=O)OCCOCCOC(=O)c1ccc(-c2c3nc(c(-c4ccc(S(=O)(=O)[O-])cc4)c4ccc([nH]4)c(-c4ccc(S(=O)(=O)[O-])cc4)c4nc(c(-c5ccc(S(=O)(=O)[O-])cc5)c5ccc2[nH]5)C=C4)C=C3)cc1
REMARK SMILES IDX 17 1 16 2 15 3 13 4 14 5 2 6 1 7 3 8 4 9 5 10 6 12 7 13
REMARK SMILES IDX 12 14 8 15 11 16 9 17 10 18 18 22 19 23 20 24 21 25 22 26
REMARK SMILES IDX 23 27 24 28 25 29 83 30 26 31 82 32 27 33 28 34 29 35 76 36
REMARK SMILES IDX 30 37 81 38 75 39 77 40 31 41 80 42 74 43 73 44 32 46 62 47
REMARK SMILES IDX 43 48 61 49 44 50 47 51 60 52 78 53 45 54 46 55 59 57 79 58
REMARK SMILES IDX 48 59 33 60 34 61 42 62 35 63 41 64 36 65 37 66 38 67 39 68
REMARK SMILES IDX 40 69 63 70 64 71 72 72 65 73 71 74 66 75 67 76 68 77 69 78
REMARK SMILES IDX 70 79 49 80 50 81 58 82 51 83 57 84 52 85 53 86 54 87 55 88
REMARK SMILES IDX 56 89
REMARK H PARENT 4 11 10 19 10 20 10 21 77 45 47 56
REMARK Flexibility Score: inf
ROOT
ATOM      1  C   UNL A   1      37.700  21.524  24.983  1.00  0.00     0.202 C 
ENDROOT
BRANCH   1   2
ATOM      2  C   UNL A   1      36.234  21.857  24.691  1.00  0.00     0.261 C 
BRANCH   2   3
ATOM      3  O   UNL A   1      36.120  23.213  24.230  1.00  0.00    -0.463 OA
BRANCH   3   4
ATOM      4  C   UNL A   1      34.878  23.762  24.231  1.00  0.00     0.314 C 
ATOM      5  O   UNL A   1      34.617  24.862  24.702  1.00  0.00    -0.252 OA
BRANCH   4   6
ATOM      6  C   UNL A   1      33.879  22.910  23.447  1.00  0.00     0.151 C 
ATOM      7  C   UNL A   1      33.627  23.490  22.057  1.00  0.00     0.026 C 
BRANCH   6   8
ATOM      8  C   UNL A   1      32.585  22.493  24.187  1.00  0.00     0.277 C 
BRANCH   8   9
ATOM      9  N   UNL A   1      32.530  21.397  25.161  1.00  0.00    -0.334 N 
ATOM     10  C   UNL A   1      32.948  21.723  26.510  1.00  0.00     0.332 C 
ATOM     11  H   UNL A   1      31.528  21.270  25.301  1.00  0.00     0.348 HD
BRANCH   9  12
ATOM     12  C   UNL A   1      32.931  20.089  24.649  1.00  0.00     0.184 C 
ATOM     13  C   UNL A   1      32.152  19.705  23.388  1.00  0.00     0.071 C 
ATOM     14  C   UNL A   1      32.828  18.918  25.634  1.00  0.00     0.071 C 
ATOM     15  C   UNL A   1      32.836  18.503  22.736  1.00  0.00     0.071 C 
ATOM     16  C   UNL A   1      33.554  17.704  25.072  1.00  0.00     0.071 C 
ATOM     17  C   UNL A   1      33.054  17.309  23.681  1.00  0.00     0.181 C 
BRANCH  17  18
ATOM     18  N   UNL A   1      34.032  16.368  23.130  1.00  0.00    -0.355 N 
ATOM     19  H   UNL A   1      34.052  15.524  23.702  1.00  0.00     0.344 HD
ATOM     20  H   UNL A   1      34.956  16.800  23.128  1.00  0.00     0.344 HD
ATOM     21  H   UNL A   1      33.770  16.125  22.174  1.00  0.00     0.344 HD
ENDBRANCH  17  18
ENDBRANCH   9  12
ENDBRANCH   8   9
ENDBRANCH   6   8
ENDBRANCH   4   6
ENDBRANCH   3   4
ENDBRANCH   2   3
ENDBRANCH   1   2
BRANCH   1  22
ATOM     22  O   UNL A   1      38.278  22.206  26.098  1.00  0.00    -0.374 OA
BRANCH  22  23
ATOM     23  C   UNL A   1      39.680  22.057  26.305  1.00  0.00     0.202 C 
BRANCH  23  24
ATOM     24  C   UNL A   1      40.496  23.334  26.560  1.00  0.00     0.261 C 
BRANCH  24  25
ATOM     25  O   UNL A   1      39.779  24.571  26.383  1.00  0.00    -0.460 OA
BRANCH  25  26
ATOM     26  C   UNL A   1      40.569  25.675  26.346  1.00  0.00     0.338 C 
ATOM     27  O   UNL A   1      41.096  26.163  25.361  1.00  0.00    -0.246 OA
BRANCH  26  28
ATOM     28  C   UNL A   1      40.680  26.318  27.674  1.00  0.00     0.060 A 
ATOM     29  C   UNL A   1      39.647  26.108  28.596  1.00  0.00     0.016 A 
ATOM     30  C   UNL A   1      41.683  27.248  27.950  1.00  0.00     0.016 A 
ATOM     31  C   UNL A   1      39.591  26.854  29.779  1.00  0.00     0.010 A 
ATOM     32  C   UNL A   1      41.624  27.997  29.136  1.00  0.00     0.010 A 
ATOM     33  C   UNL A   1      40.561  27.830  30.046  1.00  0.00    -0.014 A 
BRANCH  33  34
ATOM     34  C   UNL A   1      40.421  28.748  31.215  1.00  0.00     0.031 A 
ATOM     35  C   UNL A   1      39.464  29.906  31.142  1.00  0.00     0.074 A 
ATOM     36  C   UNL A   1      41.145  28.575  32.337  1.00  0.00     0.049 A 
ATOM     37  N   UNL A   1      39.230  30.832  32.035  1.00  0.00    -0.248 NA
ATOM     38  C   UNL A   1      38.651  30.022  29.921  1.00  0.00     0.031 C 
ATOM     39  C   UNL A   1      42.036  27.453  32.587  1.00  0.00     0.029 A 
ATOM     40  N   UNL A   1      41.276  29.352  33.462  1.00  0.00    -0.354 N 
ATOM     41  C   UNL A   1      38.221  31.623  31.503  1.00  0.00     0.074 A 
ATOM     42  C   UNL A   1      37.926  31.100  30.185  1.00  0.00     0.031 C 
ATOM     43  C   UNL A   1      42.711  27.658  33.730  1.00  0.00     0.029 A 
ATOM     44  C   UNL A   1      42.264  28.916  34.318  1.00  0.00     0.049 A 
ATOM     45  H   UNL A   1      40.720  30.145  33.640  1.00  0.00     0.167 HD
ATOM     46  C   UNL A   1      37.581  32.672  32.071  1.00  0.00     0.031 A 
ATOM     47  C   UNL A   1      42.759  29.464  35.444  1.00  0.00     0.031 A 
ATOM     48  C   UNL A   1      37.885  33.207  33.372  1.00  0.00     0.049 A 
ATOM     49  C   UNL A   1      42.126  30.713  35.991  1.00  0.00     0.074 A 
ATOM     50  C   UNL A   1      37.256  34.243  34.042  1.00  0.00     0.029 A 
ATOM     51  N   UNL A   1      38.913  32.768  34.192  1.00  0.00    -0.354 N 
ATOM     52  N   UNL A   1      41.122  31.403  35.507  1.00  0.00    -0.248 NA
ATOM     53  C   UNL A   1      42.664  31.234  37.257  1.00  0.00     0.031 C 
ATOM     54  C   UNL A   1      37.940  34.469  35.242  1.00  0.00     0.029 A 
ATOM     55  C   UNL A   1      38.961  33.538  35.343  1.00  0.00     0.049 A 
ATOM     56  H   UNL A   1      39.519  32.020  33.987  1.00  0.00     0.167 HD
ATOM     57  C   UNL A   1      40.874  32.408  36.434  1.00  0.00     0.074 A 
ATOM     58  C   UNL A   1      41.836  32.240  37.504  1.00  0.00     0.031 C 
ATOM     59  C   UNL A   1      39.921  33.370  36.405  1.00  0.00     0.031 A 
BRANCH  46  60
ATOM     60  C   UNL A   1      36.479  33.321  31.281  1.00  0.00    -0.014 A 
ATOM     61  C   UNL A   1      35.194  33.478  31.833  1.00  0.00     0.010 A 
ATOM     62  C   UNL A   1      36.746  33.838  30.001  1.00  0.00     0.010 A 
ATOM     63  C   UNL A   1      34.189  34.121  31.106  1.00  0.00     0.020 A 
ATOM     64  C   UNL A   1      35.750  34.499  29.281  1.00  0.00     0.020 A 
ATOM     65  C   UNL A   1      34.473  34.627  29.834  1.00  0.00     0.054 A 
BRANCH  65  66
ATOM     66  S   UNL A   1      33.161  35.492  28.930  1.00  0.00     0.124 S 
ATOM     67  O   UNL A   1      32.561  34.407  28.158  1.00  0.00    -0.237 OA
ATOM     68  O   UNL A   1      32.332  36.030  30.005  1.00  0.00    -0.237 OA
ATOM     69  O   UNL A   1      33.880  36.491  28.144  1.00  0.00    -0.744 OA
ENDBRANCH  65  66
ENDBRANCH  46  60
BRANCH  47  70
ATOM     70  C   UNL A   1      43.916  28.837  36.138  1.00  0.00    -0.014 A 
ATOM     71  C   UNL A   1      45.228  29.276  35.895  1.00  0.00     0.010 A 
ATOM     72  C   UNL A   1      43.706  27.769  37.031  1.00  0.00     0.010 A 
ATOM     73  C   UNL A   1      46.313  28.639  36.507  1.00  0.00     0.020 A 
ATOM     74  C   UNL A   1      44.785  27.143  37.661  1.00  0.00     0.020 A 
ATOM     75  C   UNL A   1      46.084  27.573  37.381  1.00  0.00     0.054 A 
BRANCH  75  76
ATOM     76  S   UNL A   1      47.505  26.769  38.174  1.00  0.00     0.124 S 
ATOM     77  O   UNL A   1      48.230  26.232  37.027  1.00  0.00    -0.237 OA
ATOM     78  O   UNL A   1      48.151  27.882  38.867  1.00  0.00    -0.237 OA
ATOM     79  O   UNL A   1      46.890  25.774  39.049  1.00  0.00    -0.744 OA
ENDBRANCH  75  76
ENDBRANCH  47  70
BRANCH  59  80
ATOM     80  C   UNL A   1      39.838  34.301  37.585  1.00  0.00    -0.014 A 
ATOM     81  C   UNL A   1      39.069  33.977  38.717  1.00  0.00     0.010 A 
ATOM     82  C   UNL A   1      40.577  35.499  37.578  1.00  0.00     0.010 A 
ATOM     83  C   UNL A   1      39.019  34.848  39.809  1.00  0.00     0.020 A 
ATOM     84  C   UNL A   1      40.549  36.359  38.678  1.00  0.00     0.020 A 
ATOM     85  C   UNL A   1      39.759  36.035  39.782  1.00  0.00     0.054 A 
BRANCH  85  86
ATOM     86  S   UNL A   1      39.713  37.128  41.228  1.00  0.00     0.124 S 
ATOM     87  O   UNL A   1      41.133  37.351  41.486  1.00  0.00    -0.237 OA
ATOM     88  O   UNL A   1      38.974  38.287  40.734  1.00  0.00    -0.237 OA
ATOM     89  O   UNL A   1      39.013  36.337  42.238  1.00  0.00    -0.744 OA
ENDBRANCH  85  86
ENDBRANCH  59  80
ENDBRANCH  33  34
ENDBRANCH  26  28
ENDBRANCH  25  26
ENDBRANCH  24  25
ENDBRANCH  23  24
ENDBRANCH  22  23
ENDBRANCH   1  22
TORSDOF 21
ENDMDL
MODEL 3
REMARK VINA RESULT:      -8.8      2.936      8.844
REMARK SMILES C[C@H](C[N@H+](C)[C@H]1CC[C@H]([NH3+])CC1)C(=O)OCCOCCOC(=O)c1ccc(-c2c3nc(c(-c4ccc(S(=O)(=O)[O-])cc4)c4ccc([nH]4)c(-c4ccc(S(=O)(=O)[O-])cc4)c4nc(c(-c5ccc(S(=O)(=O)[O-])cc5)c5ccc2[nH]5)C=C4)C=C3)cc1
REMARK SMILES IDX 17 1 16 2 15 3 13 4 14 5 2 6 1 7 3 8 4 9 5 10 6 12 7 13
REMARK SMILES IDX 12 14 8 15 11 16 9 17 10 18 18 22 19 23 20 24 21 25 22 26
REMARK SMILES IDX 23 27 24 28 25 29 83 30 26 31 82 32 27 33 28 34 29 35 76 36
REMARK SMILES IDX 30 37 81 38 75 39 77 40 31 41 80 42 74 43 73 44 32 46 62 47
REMARK SMILES IDX 43 48 61 49 44 50 47 51 60 52 78 53 45 54 46 55 59 57 79 58
REMARK SMILES IDX 48 59 33 60 34 61 42 62 35 63 41 64 36 65 37 66 38 67 39 68
REMARK SMILES IDX 40 69 63 70 64 71 72 72 65 73 71 74 66 75 67 76 68 77 69 78
REMARK SMILES IDX 70 79 49 80 50 81 58 82 51 83 57 84 52 85 53 86 54 87 55 88
REMARK SMILES IDX 56 89
REMARK H PARENT 4 11 10 19 10 20 10 21 77 45 47 56
REMARK Flexibility Score: inf
ROOT
ATOM      1  C   UNL A   1      38.080  22.737  25.633  1.00  0.00     0.202 C 
ENDROOT
BRANCH   1   2
ATOM      2  C   UNL A   1      37.307  21.431  25.421  1.00  0.00     0.261 C 
BRANCH   2   3
ATOM      3  O   UNL A   1      35.970  21.563  25.930  1.00  0.00    -0.463 OA
BRANCH   3   4
ATOM      4  C   UNL A   1      34.953  21.316  25.064  1.00  0.00     0.314 C 
ATOM      5  O   UNL A   1      34.503  20.200  24.839  1.00  0.00    -0.252 OA
BRANCH   4   6
ATOM      6  C   UNL A   1      34.346  22.609  24.519  1.00  0.00     0.151 C 
ATOM      7  C   UNL A   1      35.030  23.038  23.222  1.00  0.00     0.026 C 
BRANCH   6   8
ATOM      8  C   UNL A   1      34.149  23.768  25.526  1.00  0.00     0.277 C 
BRANCH   8   9
ATOM      9  N   UNL A   1      32.941  24.600  25.572  1.00  0.00    -0.334 N 
ATOM     10  C   UNL A   1      31.873  24.223  24.667  1.00  0.00     0.332 C 
ATOM     11  H   UNL A   1      32.527  24.345  26.469  1.00  0.00     0.348 HD
BRANCH   9  12
ATOM     12  C   UNL A   1      33.179  26.031  25.746  1.00  0.00     0.184 C 
ATOM     13  C   UNL A   1      32.098  26.690  26.607  1.00  0.00     0.071 C 
ATOM     14  C   UNL A   1      33.313  26.853  24.459  1.00  0.00     0.071 C 
ATOM     15  C   UNL A   1      32.574  28.085  27.010  1.00  0.00     0.071 C 
ATOM     16  C   UNL A   1      33.853  28.239  24.784  1.00  0.00     0.071 C 
ATOM     17  C   UNL A   1      33.009  28.971  25.829  1.00  0.00     0.181 C 
BRANCH  17  18
ATOM     18  N   UNL A   1      33.799  30.116  26.287  1.00  0.00    -0.355 N 
ATOM     19  H   UNL A   1      34.592  29.785  26.837  1.00  0.00     0.344 HD
ATOM     20  H   UNL A   1      33.215  30.723  26.863  1.00  0.00     0.344 HD
ATOM     21  H   UNL A   1      34.139  30.639  25.480  1.00  0.00     0.344 HD
ENDBRANCH  17  18
ENDBRANCH   9  12
ENDBRANCH   8   9
ENDBRANCH   6   8
ENDBRANCH   4   6
ENDBRANCH   3   4
ENDBRANCH   2   3
ENDBRANCH   1   2
BRANCH   1  22
ATOM     22  O   UNL A   1      39.098  22.694  26.636  1.00  0.00    -0.374 OA
BRANCH  22  23
ATOM     23  C   UNL A   1      40.193  21.807  26.423  1.00  0.00     0.202 C 
BRANCH  23  24
ATOM     24  C   UNL A   1      41.599  22.424  26.357  1.00  0.00     0.261 C 
BRANCH  24  25
ATOM     25  O   UNL A   1      41.847  23.496  27.287  1.00  0.00    -0.460 OA
BRANCH  25  26
ATOM     26  C   UNL A   1      41.973  24.720  26.709  1.00  0.00     0.338 C 
ATOM     27  O   UNL A   1      42.315  24.953  25.562  1.00  0.00    -0.246 OA
BRANCH  26  28
ATOM     28  C   UNL A   1      41.562  25.806  27.625  1.00  0.00     0.060 A 
ATOM     29  C   UNL A   1      42.490  26.817  27.907  1.00  0.00     0.016 A 
ATOM     30  C   UNL A   1      40.360  25.745  28.331  1.00  0.00     0.016 A 
ATOM     31  C   UNL A   1      42.236  27.748  28.921  1.00  0.00     0.010 A 
ATOM     32  C   UNL A   1      40.109  26.678  29.350  1.00  0.00     0.010 A 
ATOM     33  C   UNL A   1      41.058  27.668  29.676  1.00  0.00    -0.014 A 
BRANCH  33  34
ATOM     34  C   UNL A   1      40.852  28.542  30.868  1.00  0.00     0.031 A 
ATOM     35  C   UNL A   1      39.849  29.661  30.807  1.00  0.00     0.074 A 
ATOM     36  C   UNL A   1      41.559  28.366  32.001  1.00  0.00     0.049 A 
ATOM     37  N   UNL A   1      39.554  30.547  31.722  1.00  0.00    -0.248 NA
ATOM     38  C   UNL A   1      39.059  29.780  29.572  1.00  0.00     0.031 C 
ATOM     39  C   UNL A   1      42.492  27.276  32.239  1.00  0.00     0.029 A 
ATOM     40  N   UNL A   1      41.631  29.112  33.152  1.00  0.00    -0.354 N 
ATOM     41  C   UNL A   1      38.525  31.311  31.191  1.00  0.00     0.074 A 
ATOM     42  C   UNL A   1      38.281  30.817  29.851  1.00  0.00     0.031 C 
ATOM     43  C   UNL A   1      43.132  27.474  33.402  1.00  0.00     0.029 A 
ATOM     44  C   UNL A   1      42.617  28.693  34.017  1.00  0.00     0.049 A 
ATOM     45  H   UNL A   1      41.037  29.874  33.340  1.00  0.00     0.167 HD
ATOM     46  C   UNL A   1      37.827  32.314  31.775  1.00  0.00     0.031 A 
ATOM     47  C   UNL A   1      43.063  29.226  35.171  1.00  0.00     0.031 A 
ATOM     48  C   UNL A   1      38.079  32.821  33.098  1.00  0.00     0.049 A 
ATOM     49  C   UNL A   1      42.364  30.429  35.740  1.00  0.00     0.074 A 
ATOM     50  C   UNL A   1      37.391  33.807  33.784  1.00  0.00     0.029 A 
ATOM     51  N   UNL A   1      39.106  32.401  33.929  1.00  0.00    -0.354 N 
ATOM     52  N   UNL A   1      41.343  31.090  35.253  1.00  0.00    -0.248 NA
ATOM     53  C   UNL A   1      42.851  30.933  37.034  1.00  0.00     0.031 C 
ATOM     54  C   UNL A   1      38.038  34.024  35.006  1.00  0.00     0.029 A 
ATOM     55  C   UNL A   1      39.096  33.135  35.103  1.00  0.00     0.049 A 
ATOM     56  H   UNL A   1      39.749  31.685  33.715  1.00  0.00     0.167 HD
ATOM     57  C   UNL A   1      41.031  32.055  36.204  1.00  0.00     0.074 A 
ATOM     58  C   UNL A   1      41.975  31.895  37.291  1.00  0.00     0.031 C 
ATOM     59  C   UNL A   1      40.038  32.976  36.182  1.00  0.00     0.031 A 
BRANCH  46  60
ATOM     60  C   UNL A   1      36.716  32.939  30.979  1.00  0.00    -0.014 A 
ATOM     61  C   UNL A   1      35.373  32.609  31.236  1.00  0.00     0.010 A 
ATOM     62  C   UNL A   1      37.012  33.915  30.011  1.00  0.00     0.010 A 
ATOM     63  C   UNL A   1      34.346  33.228  30.519  1.00  0.00     0.020 A 
ATOM     64  C   UNL A   1      35.987  34.551  29.308  1.00  0.00     0.020 A 
ATOM     65  C   UNL A   1      34.659  34.195  29.559  1.00  0.00     0.054 A 
BRANCH  65  66
ATOM     66  S   UNL A   1      33.304  35.011  28.673  1.00  0.00     0.124 S 
ATOM     67  O   UNL A   1      32.467  35.483  29.774  1.00  0.00    -0.237 OA
ATOM     68  O   UNL A   1      33.995  36.053  27.919  1.00  0.00    -0.237 OA
ATOM     69  O   UNL A   1      32.723  33.943  27.864  1.00  0.00    -0.744 OA
ENDBRANCH  65  66
ENDBRANCH  46  60
BRANCH  47  70
ATOM     70  C   UNL A   1      44.230  28.627  35.873  1.00  0.00    -0.014 A 
ATOM     71  C   UNL A   1      44.051  27.646  36.863  1.00  0.00     0.010 A 
ATOM     72  C   UNL A   1      45.534  29.062  35.568  1.00  0.00     0.010 A 
ATOM     73  C   UNL A   1      45.151  27.133  37.559  1.00  0.00     0.020 A 
ATOM     74  C   UNL A   1      46.637  28.536  36.246  1.00  0.00     0.020 A 
ATOM     75  C   UNL A   1      46.437  27.586  37.249  1.00  0.00     0.054 A 
BRANCH  75  76
ATOM     76  S   UNL A   1      47.850  26.898  38.155  1.00  0.00     0.124 S 
ATOM     77  O   UNL A   1      47.421  25.523  38.388  1.00  0.00    -0.237 OA
ATOM     78  O   UNL A   1      48.947  27.067  37.205  1.00  0.00    -0.237 OA
ATOM     79  O   UNL A   1      47.934  27.739  39.347  1.00  0.00    -0.744 OA
ENDBRANCH  75  76
ENDBRANCH  47  70
BRANCH  59  80
ATOM     80  C   UNL A   1      39.889  33.865  37.387  1.00  0.00    -0.014 A 
ATOM     81  C   UNL A   1      40.616  35.063  37.504  1.00  0.00     0.010 A 
ATOM     82  C   UNL A   1      38.974  33.517  38.398  1.00  0.00     0.010 A 
ATOM     83  C   UNL A   1      40.450  35.882  38.625  1.00  0.00     0.020 A 
ATOM     84  C   UNL A   1      38.787  34.346  39.507  1.00  0.00     0.020 A 
ATOM     85  C   UNL A   1      39.537  35.517  39.620  1.00  0.00     0.054 A 
BRANCH  85  86
ATOM     86  S   UNL A   1      39.307  36.619  41.042  1.00  0.00     0.124 S 
ATOM     87  O   UNL A   1      40.685  36.875  41.454  1.00  0.00    -0.237 OA
ATOM     88  O   UNL A   1      38.604  37.757  40.457  1.00  0.00    -0.237 OA
ATOM     89  O   UNL A   1      38.517  35.820  41.975  1.00  0.00    -0.744 OA
ENDBRANCH  85  86
ENDBRANCH  59  80
ENDBRANCH  33  34
ENDBRANCH  26  28
ENDBRANCH  25  26
ENDBRANCH  24  25
ENDBRANCH  23  24
ENDBRANCH  22  23
ENDBRANCH   1  22
TORSDOF 21
ENDMDL
