MODEL 1
REMARK VINA RESULT:     -11.6      0.000      0.000
REMARK SMILES NS(=O)(=O)c1ccc(-n2nc(C(F)(F)F)cc2-c2ccc(C(=O)OCCOCCOC(=O)c3ccc(-c4c5nc(c(-c6ccc(S(=O)(=O)[O-])cc6)c6ccc([nH]6)c(-c6ccc(S(=O)(=O)[O-])cc6)c6nc(c(-c7ccc(S(=O)(=O)[O-])cc7)c7ccc4[nH]7)C=C6)C=C5)cc3)cc2)cc1
REMARK SMILES IDX 26 1 25 2 24 3 22 4 23 5 21 6 18 7 19 8 94 9 20 10 93 11
REMARK SMILES IDX 17 12 9 13 10 14 11 15 16 16 8 17 5 18 6 19 96 20 7 21 95 22
REMARK SMILES IDX 2 23 3 24 4 25 1 26 12 29 13 30 14 31 15 32 27 33 28 34
REMARK SMILES IDX 29 35 30 36 31 37 32 38 33 39 34 40 92 41 35 42 91 43 36 44
REMARK SMILES IDX 37 45 38 46 85 47 39 48 90 49 84 50 86 51 40 52 89 53 83 54
REMARK SMILES IDX 82 55 41 57 71 58 52 59 70 60 53 61 56 62 69 63 87 64 54 65
REMARK SMILES IDX 55 66 68 68 88 69 57 70 42 71 43 72 51 73 44 74 50 75 45 76
REMARK SMILES IDX 46 77 47 78 48 79 49 80 72 81 73 82 81 83 74 84 80 85 75 86
REMARK SMILES IDX 76 87 77 88 78 89 79 90 58 91 59 92 67 93 60 94 66 95 61 96
REMARK SMILES IDX 62 97 63 98 64 99 65 100
REMARK H PARENT 1 27 1 28 86 56 56 67
REMARK Flexibility Score: inf
ROOT
ATOM      1  C   UNL A   1      41.277  21.698  27.531  1.00  0.00     0.202 C 
ENDROOT
BRANCH   1   2
ATOM      2  C   UNL A   1      39.993  22.510  27.355  1.00  0.00     0.261 C 
BRANCH   2   3
ATOM      3  O   UNL A   1      39.639  22.692  25.975  1.00  0.00    -0.460 OA
BRANCH   3   4
ATOM      4  C   UNL A   1      38.617  21.909  25.559  1.00  0.00     0.338 C 
ATOM      5  O   UNL A   1      38.572  20.689  25.576  1.00  0.00    -0.246 OA
BRANCH   4   6
ATOM      6  C   UNL A   1      37.441  22.731  25.207  1.00  0.00     0.060 A 
ATOM      7  C   UNL A   1      35.046  24.094  24.731  1.00  0.00     0.000 A 
ATOM      8  C   UNL A   1      35.578  24.029  26.027  1.00  0.00     0.011 A 
ATOM      9  C   UNL A   1      35.758  23.523  23.666  1.00  0.00     0.011 A 
ATOM     10  C   UNL A   1      36.769  23.352  26.264  1.00  0.00     0.016 A 
ATOM     11  C   UNL A   1      36.963  22.850  23.900  1.00  0.00     0.016 A 
BRANCH   7  12
ATOM     12  C   UNL A   1      33.708  24.648  24.530  1.00  0.00     0.075 A 
ATOM     13  N   UNL A   1      32.607  23.956  24.041  1.00  0.00    -0.233 N 
ATOM     14  N   UNL A   1      31.653  24.795  23.561  1.00  0.00    -0.163 NA
ATOM     15  C   UNL A   1      32.037  26.022  23.972  1.00  0.00     0.167 A 
ATOM     16  C   UNL A   1      33.324  25.974  24.560  1.00  0.00     0.064 A 
BRANCH  13  17
ATOM     17  C   UNL A   1      32.459  22.549  23.942  1.00  0.00     0.065 A 
ATOM     18  C   UNL A   1      32.408  19.776  23.745  1.00  0.00     0.082 A 
ATOM     19  C   UNL A   1      32.449  20.376  25.007  1.00  0.00     0.024 A 
ATOM     20  C   UNL A   1      32.367  20.554  22.582  1.00  0.00     0.024 A 
ATOM     21  C   UNL A   1      32.484  21.766  25.106  1.00  0.00     0.030 A 
ATOM     22  C   UNL A   1      32.362  21.949  22.681  1.00  0.00     0.030 A 
BRANCH  18  23
ATOM     23  S   UNL A   1      32.452  18.012  23.662  1.00  0.00     0.238 S 
ATOM     24  O   UNL A   1      32.094  17.604  22.321  1.00  0.00    -0.207 OA
ATOM     25  O   UNL A   1      31.827  17.479  24.846  1.00  0.00    -0.207 OA
BRANCH  23  26
ATOM     26  N   UNL A   1      34.083  17.626  23.833  1.00  0.00    -0.225 NA
ATOM     27  H   UNL A   1      34.560  18.379  24.328  1.00  0.00     0.137 HD
ATOM     28  H   UNL A   1      34.502  17.507  22.910  1.00  0.00     0.137 HD
ENDBRANCH  23  26
ENDBRANCH  18  23
ENDBRANCH  13  17
BRANCH  15  29
ATOM     29  C   UNL A   1      31.214  27.265  23.766  1.00  0.00     0.435 C 
ATOM     30  F   UNL A   1      30.918  27.502  22.461  1.00  0.00    -0.164 F 
ATOM     31  F   UNL A   1      30.038  27.223  24.444  1.00  0.00    -0.164 F 
ATOM     32  F   UNL A   1      31.870  28.376  24.213  1.00  0.00    -0.164 F 
ENDBRANCH  15  29
ENDBRANCH   7  12
ENDBRANCH   4   6
ENDBRANCH   3   4
ENDBRANCH   2   3
ENDBRANCH   1   2
BRANCH   1  33
ATOM     33  O   UNL A   1      41.160  20.327  27.907  1.00  0.00    -0.374 OA
BRANCH  33  34
ATOM     34  C   UNL A   1      41.568  19.307  27.001  1.00  0.00     0.202 C 
BRANCH  34  35
ATOM     35  C   UNL A   1      42.364  19.697  25.765  1.00  0.00     0.261 C 
BRANCH  35  36
ATOM     36  O   UNL A   1      43.565  20.381  26.084  1.00  0.00    -0.460 OA
BRANCH  36  37
ATOM     37  C   UNL A   1      44.132  20.990  25.016  1.00  0.00     0.338 C 
ATOM     38  O   UNL A   1      44.571  20.457  24.011  1.00  0.00    -0.246 OA
BRANCH  37  39
ATOM     39  C   UNL A   1      44.312  22.407  25.332  1.00  0.00     0.060 A 
ATOM     40  C   UNL A   1      45.090  22.696  26.455  1.00  0.00     0.016 A 
ATOM     41  C   UNL A   1      43.473  23.359  24.736  1.00  0.00     0.016 A 
ATOM     42  C   UNL A   1      44.856  23.879  27.116  1.00  0.00     0.010 A 
ATOM     43  C   UNL A   1      43.219  24.523  25.413  1.00  0.00     0.010 A 
ATOM     44  C   UNL A   1      43.856  24.729  26.634  1.00  0.00    -0.014 A 
BRANCH  44  45
ATOM     45  C   UNL A   1      43.610  25.965  27.342  1.00  0.00     0.031 A 
ATOM     46  C   UNL A   1      44.665  26.954  27.037  1.00  0.00     0.074 A 
ATOM     47  C   UNL A   1      42.494  26.189  28.059  1.00  0.00     0.049 A 
ATOM     48  N   UNL A   1      45.678  27.265  27.777  1.00  0.00    -0.248 NA
ATOM     49  C   UNL A   1      44.770  27.432  25.645  1.00  0.00     0.031 C 
ATOM     50  C   UNL A   1      41.308  25.334  28.165  1.00  0.00     0.029 A 
ATOM     51  N   UNL A   1      42.133  27.294  28.763  1.00  0.00    -0.354 N 
ATOM     52  C   UNL A   1      46.357  28.230  27.047  1.00  0.00     0.074 A 
ATOM     53  C   UNL A   1      45.957  28.041  25.677  1.00  0.00     0.031 C 
ATOM     54  C   UNL A   1      40.283  26.057  28.675  1.00  0.00     0.029 A 
ATOM     55  C   UNL A   1      40.772  27.376  29.045  1.00  0.00     0.049 A 
ATOM     56  H   UNL A   1      42.780  27.978  29.050  1.00  0.00     0.167 HD
ATOM     57  C   UNL A   1      46.812  29.355  27.666  1.00  0.00     0.031 A 
ATOM     58  C   UNL A   1      40.098  28.476  29.478  1.00  0.00     0.031 A 
ATOM     59  C   UNL A   1      46.881  29.165  29.099  1.00  0.00     0.049 A 
ATOM     60  C   UNL A   1      41.107  29.403  30.049  1.00  0.00     0.074 A 
ATOM     61  C   UNL A   1      47.492  28.261  29.946  1.00  0.00     0.029 A 
ATOM     62  N   UNL A   1      45.888  29.769  29.833  1.00  0.00    -0.354 N 
ATOM     63  N   UNL A   1      41.788  29.141  31.129  1.00  0.00    -0.248 NA
ATOM     64  C   UNL A   1      41.695  30.402  29.170  1.00  0.00     0.031 C 
ATOM     65  C   UNL A   1      46.576  28.076  31.024  1.00  0.00     0.029 A 
ATOM     66  C   UNL A   1      45.487  28.927  30.831  1.00  0.00     0.049 A 
ATOM     67  H   UNL A   1      45.522  30.667  29.665  1.00  0.00     0.167 HD
ATOM     68  C   UNL A   1      43.076  29.575  30.847  1.00  0.00     0.074 A 
ATOM     69  C   UNL A   1      42.930  30.444  29.678  1.00  0.00     0.031 C 
ATOM     70  C   UNL A   1      44.157  28.952  31.406  1.00  0.00     0.031 A 
BRANCH  57  71
ATOM     71  C   UNL A   1      46.627  30.739  27.059  1.00  0.00    -0.014 A 
ATOM     72  C   UNL A   1      47.673  31.671  27.212  1.00  0.00     0.010 A 
ATOM     73  C   UNL A   1      45.380  31.255  26.643  1.00  0.00     0.010 A 
ATOM     74  C   UNL A   1      47.444  33.047  27.089  1.00  0.00     0.020 A 
ATOM     75  C   UNL A   1      45.151  32.619  26.474  1.00  0.00     0.020 A 
ATOM     76  C   UNL A   1      46.177  33.510  26.738  1.00  0.00     0.054 A 
BRANCH  76  77
ATOM     77  S   UNL A   1      45.861  35.286  26.680  1.00  0.00     0.124 S 
ATOM     78  O   UNL A   1      46.831  35.726  25.684  1.00  0.00    -0.237 OA
ATOM     79  O   UNL A   1      44.459  35.331  26.273  1.00  0.00    -0.237 OA
ATOM     80  O   UNL A   1      46.121  35.722  28.051  1.00  0.00    -0.744 OA
ENDBRANCH  76  77
ENDBRANCH  57  71
BRANCH  58  81
ATOM     81  C   UNL A   1      38.719  28.920  29.132  1.00  0.00    -0.014 A 
ATOM     82  C   UNL A   1      37.740  29.101  30.132  1.00  0.00     0.010 A 
ATOM     83  C   UNL A   1      38.445  29.451  27.856  1.00  0.00     0.010 A 
ATOM     84  C   UNL A   1      36.571  29.845  29.882  1.00  0.00     0.020 A 
ATOM     85  C   UNL A   1      37.279  30.185  27.597  1.00  0.00     0.020 A 
ATOM     86  C   UNL A   1      36.359  30.402  28.620  1.00  0.00     0.054 A 
BRANCH  86  87
ATOM     87  S   UNL A   1      34.947  31.518  28.349  1.00  0.00     0.124 S 
ATOM     88  O   UNL A   1      33.975  30.642  27.702  1.00  0.00    -0.237 OA
ATOM     89  O   UNL A   1      34.609  31.944  29.704  1.00  0.00    -0.237 OA
ATOM     90  O   UNL A   1      35.498  32.569  27.494  1.00  0.00    -0.744 OA
ENDBRANCH  86  87
ENDBRANCH  58  81
BRANCH  70  91
ATOM     91  C   UNL A   1      43.933  28.077  32.616  1.00  0.00    -0.014 A 
ATOM     92  C   UNL A   1      43.850  26.671  32.588  1.00  0.00     0.010 A 
ATOM     93  C   UNL A   1      43.918  28.725  33.863  1.00  0.00     0.010 A 
ATOM     94  C   UNL A   1      43.716  25.941  33.780  1.00  0.00     0.020 A 
ATOM     95  C   UNL A   1      43.806  28.005  35.051  1.00  0.00     0.020 A 
ATOM     96  C   UNL A   1      43.691  26.617  35.005  1.00  0.00     0.054 A 
BRANCH  96  97
ATOM     97  S   UNL A   1      43.528  25.677  36.548  1.00  0.00     0.124 S 
ATOM     98  O   UNL A   1      43.180  26.713  37.517  1.00  0.00    -0.237 OA
ATOM     99  O   UNL A   1      42.464  24.724  36.237  1.00  0.00    -0.237 OA
ATOM    100  O   UNL A   1      44.849  25.077  36.733  1.00  0.00    -0.744 OA
ENDBRANCH  96  97
ENDBRANCH  70  91
ENDBRANCH  44  45
ENDBRANCH  37  39
ENDBRANCH  36  37
ENDBRANCH  35  36
ENDBRANCH  34  35
ENDBRANCH  33  34
ENDBRANCH   1  33
TORSDOF 22
ENDMDL
MODEL 2
REMARK VINA RESULT:     -11.6      3.168      9.127
REMARK SMILES NS(=O)(=O)c1ccc(-n2nc(C(F)(F)F)cc2-c2ccc(C(=O)OCCOCCOC(=O)c3ccc(-c4c5nc(c(-c6ccc(S(=O)(=O)[O-])cc6)c6ccc([nH]6)c(-c6ccc(S(=O)(=O)[O-])cc6)c6nc(c(-c7ccc(S(=O)(=O)[O-])cc7)c7ccc4[nH]7)C=C6)C=C5)cc3)cc2)cc1
REMARK SMILES IDX 26 1 25 2 24 3 22 4 23 5 21 6 18 7 19 8 94 9 20 10 93 11
REMARK SMILES IDX 17 12 9 13 10 14 11 15 16 16 8 17 5 18 6 19 96 20 7 21 95 22
REMARK SMILES IDX 2 23 3 24 4 25 1 26 12 29 13 30 14 31 15 32 27 33 28 34
REMARK SMILES IDX 29 35 30 36 31 37 32 38 33 39 34 40 92 41 35 42 91 43 36 44
REMARK SMILES IDX 37 45 38 46 85 47 39 48 90 49 84 50 86 51 40 52 89 53 83 54
REMARK SMILES IDX 82 55 41 57 71 58 52 59 70 60 53 61 56 62 69 63 87 64 54 65
REMARK SMILES IDX 55 66 68 68 88 69 57 70 42 71 43 72 51 73 44 74 50 75 45 76
REMARK SMILES IDX 46 77 47 78 48 79 49 80 72 81 73 82 81 83 74 84 80 85 75 86
REMARK SMILES IDX 76 87 77 88 78 89 79 90 58 91 59 92 67 93 60 94 66 95 61 96
REMARK SMILES IDX 62 97 63 98 64 99 65 100
REMARK H PARENT 1 27 1 28 86 56 56 67
REMARK Flexibility Score: inf
ROOT
ATOM      1  C   UNL A   1      31.387  27.538  26.549  1.00  0.00     0.202 C 
ENDROOT
BRANCH   1   2
ATOM      2  C   UNL A   1      31.398  27.550  25.020  1.00  0.00     0.261 C 
BRANCH   2   3
ATOM      3  O   UNL A   1      31.640  26.252  24.458  1.00  0.00    -0.460 OA
BRANCH   3   4
ATOM      4  C   UNL A   1      32.654  26.218  23.563  1.00  0.00     0.338 C 
ATOM      5  O   UNL A   1      32.837  26.984  22.629  1.00  0.00    -0.246 OA
BRANCH   4   6
ATOM      6  C   UNL A   1      33.651  25.197  23.944  1.00  0.00     0.060 A 
ATOM      7  C   UNL A   1      35.725  23.506  24.758  1.00  0.00     0.000 A 
ATOM      8  C   UNL A   1      35.085  24.340  25.687  1.00  0.00     0.011 A 
ATOM      9  C   UNL A   1      35.274  23.483  23.430  1.00  0.00     0.011 A 
ATOM     10  C   UNL A   1      34.054  25.180  25.283  1.00  0.00     0.016 A 
ATOM     11  C   UNL A   1      34.228  24.319  23.023  1.00  0.00     0.016 A 
BRANCH   7  12
ATOM     12  C   UNL A   1      36.923  22.769  25.159  1.00  0.00     0.075 A 
ATOM     13  N   UNL A   1      36.993  21.402  25.399  1.00  0.00    -0.233 N 
ATOM     14  N   UNL A   1      38.075  21.076  26.153  1.00  0.00    -0.163 NA
ATOM     15  C   UNL A   1      38.825  22.197  26.182  1.00  0.00     0.167 A 
ATOM     16  C   UNL A   1      38.129  23.280  25.592  1.00  0.00     0.064 A 
BRANCH  13  17
ATOM     17  C   UNL A   1      36.049  20.418  25.012  1.00  0.00     0.065 A 
ATOM     18  C   UNL A   1      34.178  18.430  24.484  1.00  0.00     0.082 A 
ATOM     19  C   UNL A   1      33.743  19.731  24.754  1.00  0.00     0.024 A 
ATOM     20  C   UNL A   1      35.543  18.122  24.451  1.00  0.00     0.024 A 
ATOM     21  C   UNL A   1      34.680  20.725  25.028  1.00  0.00     0.030 A 
ATOM     22  C   UNL A   1      36.486  19.128  24.687  1.00  0.00     0.030 A 
BRANCH  18  23
ATOM     23  S   UNL A   1      32.955  17.181  24.227  1.00  0.00     0.238 S 
ATOM     24  O   UNL A   1      31.830  17.452  25.096  1.00  0.00    -0.207 OA
ATOM     25  O   UNL A   1      33.611  15.901  24.156  1.00  0.00    -0.207 OA
BRANCH  23  26
ATOM     26  N   UNL A   1      32.396  17.460  22.662  1.00  0.00    -0.225 NA
ATOM     27  H   UNL A   1      33.074  17.103  21.990  1.00  0.00     0.137 HD
ATOM     28  H   UNL A   1      32.270  18.463  22.520  1.00  0.00     0.137 HD
ENDBRANCH  23  26
ENDBRANCH  18  23
ENDBRANCH  13  17
BRANCH  15  29
ATOM     29  C   UNL A   1      40.188  22.273  26.816  1.00  0.00     0.435 C 
ATOM     30  F   UNL A   1      40.342  21.416  27.860  1.00  0.00    -0.164 F 
ATOM     31  F   UNL A   1      41.183  22.009  25.930  1.00  0.00    -0.164 F 
ATOM     32  F   UNL A   1      40.439  23.521  27.309  1.00  0.00    -0.164 F 
ENDBRANCH  15  29
ENDBRANCH   7  12
ENDBRANCH   4   6
ENDBRANCH   3   4
ENDBRANCH   2   3
ENDBRANCH   1   2
BRANCH   1  33
ATOM     33  O   UNL A   1      31.635  28.764  27.235  1.00  0.00    -0.374 OA
BRANCH  33  34
ATOM     34  C   UNL A   1      31.935  29.943  26.494  1.00  0.00     0.202 C 
BRANCH  34  35
ATOM     35  C   UNL A   1      32.973  30.910  27.042  1.00  0.00     0.261 C 
BRANCH  35  36
ATOM     36  O   UNL A   1      34.031  30.249  27.717  1.00  0.00    -0.460 OA
BRANCH  36  37
ATOM     37  C   UNL A   1      34.771  31.078  28.492  1.00  0.00     0.338 C 
ATOM     38  O   UNL A   1      34.364  31.984  29.199  1.00  0.00    -0.246 OA
BRANCH  37  39
ATOM     39  C   UNL A   1      36.186  30.838  28.207  1.00  0.00     0.060 A 
ATOM     40  C   UNL A   1      36.522  29.549  27.790  1.00  0.00     0.016 A 
ATOM     41  C   UNL A   1      37.145  31.754  28.659  1.00  0.00     0.016 A 
ATOM     42  C   UNL A   1      37.799  29.102  28.038  1.00  0.00     0.010 A 
ATOM     43  C   UNL A   1      38.408  31.298  28.933  1.00  0.00     0.010 A 
ATOM     44  C   UNL A   1      38.692  29.956  28.692  1.00  0.00    -0.014 A 
BRANCH  44  45
ATOM     45  C   UNL A   1      40.028  29.474  28.957  1.00  0.00     0.031 A 
ATOM     46  C   UNL A   1      40.215  29.235  30.404  1.00  0.00     0.074 A 
ATOM     47  C   UNL A   1      40.904  29.168  27.982  1.00  0.00     0.049 A 
ATOM     48  N   UNL A   1      40.818  30.006  31.248  1.00  0.00    -0.248 NA
ATOM     49  C   UNL A   1      39.395  28.182  31.033  1.00  0.00     0.031 C 
ATOM     50  C   UNL A   1      40.664  29.137  26.536  1.00  0.00     0.029 A 
ATOM     51  N   UNL A   1      42.177  28.704  28.085  1.00  0.00    -0.354 N 
ATOM     52  C   UNL A   1      40.717  29.337  32.460  1.00  0.00     0.074 A 
ATOM     53  C   UNL A   1      39.595  28.446  32.325  1.00  0.00     0.031 C 
ATOM     54  C   UNL A   1      41.662  28.449  25.934  1.00  0.00     0.029 A 
ATOM     55  C   UNL A   1      42.665  28.103  26.928  1.00  0.00     0.049 A 
ATOM     56  H   UNL A   1      42.709  28.786  28.910  1.00  0.00     0.167 HD
ATOM     57  C   UNL A   1      41.805  29.240  33.274  1.00  0.00     0.031 A 
ATOM     58  C   UNL A   1      43.773  27.321  26.826  1.00  0.00     0.031 A 
ATOM     59  C   UNL A   1      42.802  30.229  32.927  1.00  0.00     0.049 A 
ATOM     60  C   UNL A   1      44.615  27.607  28.014  1.00  0.00     0.074 A 
ATOM     61  C   UNL A   1      42.824  31.604  32.800  1.00  0.00     0.029 A 
ATOM     62  N   UNL A   1      43.899  29.762  32.243  1.00  0.00    -0.354 N 
ATOM     63  N   UNL A   1      45.194  28.757  28.219  1.00  0.00    -0.248 NA
ATOM     64  C   UNL A   1      44.433  26.784  29.199  1.00  0.00     0.031 C 
ATOM     65  C   UNL A   1      43.704  31.868  31.708  1.00  0.00     0.029 A 
ATOM     66  C   UNL A   1      44.239  30.656  31.268  1.00  0.00     0.049 A 
ATOM     67  H   UNL A   1      44.366  28.915  32.426  1.00  0.00     0.167 HD
ATOM     68  C   UNL A   1      45.028  28.999  29.576  1.00  0.00     0.074 A 
ATOM     69  C   UNL A   1      44.658  27.702  30.144  1.00  0.00     0.031 C 
ATOM     70  C   UNL A   1      44.918  30.278  30.044  1.00  0.00     0.031 A 
BRANCH  57  71
ATOM     71  C   UNL A   1      42.191  27.931  33.948  1.00  0.00    -0.014 A 
ATOM     72  C   UNL A   1      42.022  27.832  35.344  1.00  0.00     0.010 A 
ATOM     73  C   UNL A   1      42.993  26.939  33.340  1.00  0.00     0.010 A 
ATOM     74  C   UNL A   1      42.725  26.883  36.097  1.00  0.00     0.020 A 
ATOM     75  C   UNL A   1      43.663  25.962  34.074  1.00  0.00     0.020 A 
ATOM     76  C   UNL A   1      43.556  25.966  35.454  1.00  0.00     0.054 A 
BRANCH  76  77
ATOM     77  S   UNL A   1      44.537  24.812  36.435  1.00  0.00     0.124 S 
ATOM     78  O   UNL A   1      44.177  23.533  35.833  1.00  0.00    -0.237 OA
ATOM     79  O   UNL A   1      45.898  25.279  36.180  1.00  0.00    -0.237 OA
ATOM     80  O   UNL A   1      44.053  25.028  37.797  1.00  0.00    -0.744 OA
ENDBRANCH  76  77
ENDBRANCH  57  71
BRANCH  58  81
ATOM     81  C   UNL A   1      43.990  26.119  25.972  1.00  0.00    -0.014 A 
ATOM     82  C   UNL A   1      45.285  25.752  25.548  1.00  0.00     0.010 A 
ATOM     83  C   UNL A   1      42.965  25.166  25.815  1.00  0.00     0.010 A 
ATOM     84  C   UNL A   1      45.554  24.460  25.058  1.00  0.00     0.020 A 
ATOM     85  C   UNL A   1      43.223  23.881  25.319  1.00  0.00     0.020 A 
ATOM     86  C   UNL A   1      44.522  23.524  24.968  1.00  0.00     0.054 A 
BRANCH  86  87
ATOM     87  S   UNL A   1      44.900  21.802  24.514  1.00  0.00     0.124 S 
ATOM     88  O   UNL A   1      44.468  21.743  23.121  1.00  0.00    -0.237 OA
ATOM     89  O   UNL A   1      46.341  21.721  24.733  1.00  0.00    -0.237 OA
ATOM     90  O   UNL A   1      44.091  21.016  25.446  1.00  0.00    -0.744 OA
ENDBRANCH  86  87
ENDBRANCH  58  81
BRANCH  70  91
ATOM     91  C   UNL A   1      45.376  31.409  29.155  1.00  0.00    -0.014 A 
ATOM     92  C   UNL A   1      44.563  32.074  28.216  1.00  0.00     0.010 A 
ATOM     93  C   UNL A   1      46.679  31.890  29.373  1.00  0.00     0.010 A 
ATOM     94  C   UNL A   1      45.062  33.167  27.489  1.00  0.00     0.020 A 
ATOM     95  C   UNL A   1      47.172  32.987  28.670  1.00  0.00     0.020 A 
ATOM     96  C   UNL A   1      46.367  33.613  27.720  1.00  0.00     0.054 A 
BRANCH  96  97
ATOM     97  S   UNL A   1      47.012  35.031  26.789  1.00  0.00     0.124 S 
ATOM     98  O   UNL A   1      46.029  36.072  27.074  1.00  0.00    -0.237 OA
ATOM     99  O   UNL A   1      48.334  35.232  27.380  1.00  0.00    -0.237 OA
ATOM    100  O   UNL A   1      47.029  34.560  25.404  1.00  0.00    -0.744 OA
ENDBRANCH  96  97
ENDBRANCH  70  91
ENDBRANCH  44  45
ENDBRANCH  37  39
ENDBRANCH  36  37
ENDBRANCH  35  36
ENDBRANCH  34  35
ENDBRANCH  33  34
ENDBRANCH   1  33
TORSDOF 22
ENDMDL
MODEL 3
REMARK VINA RESULT:     -10.4      3.962      8.728
REMARK SMILES NS(=O)(=O)c1ccc(-n2nc(C(F)(F)F)cc2-c2ccc(C(=O)OCCOCCOC(=O)c3ccc(-c4c5nc(c(-c6ccc(S(=O)(=O)[O-])cc6)c6ccc([nH]6)c(-c6ccc(S(=O)(=O)[O-])cc6)c6nc(c(-c7ccc(S(=O)(=O)[O-])cc7)c7ccc4[nH]7)C=C6)C=C5)cc3)cc2)cc1
REMARK SMILES IDX 26 1 25 2 24 3 22 4 23 5 21 6 18 7 19 8 94 9 20 10 93 11
REMARK SMILES IDX 17 12 9 13 10 14 11 15 16 16 8 17 5 18 6 19 96 20 7 21 95 22
REMARK SMILES IDX 2 23 3 24 4 25 1 26 12 29 13 30 14 31 15 32 27 33 28 34
REMARK SMILES IDX 29 35 30 36 31 37 32 38 33 39 34 40 92 41 35 42 91 43 36 44
REMARK SMILES IDX 37 45 38 46 85 47 39 48 90 49 84 50 86 51 40 52 89 53 83 54
REMARK SMILES IDX 82 55 41 57 71 58 52 59 70 60 53 61 56 62 69 63 87 64 54 65
REMARK SMILES IDX 55 66 68 68 88 69 57 70 42 71 43 72 51 73 44 74 50 75 45 76
REMARK SMILES IDX 46 77 47 78 48 79 49 80 72 81 73 82 81 83 74 84 80 85 75 86
REMARK SMILES IDX 76 87 77 88 78 89 79 90 58 91 59 92 67 93 60 94 66 95 61 96
REMARK SMILES IDX 62 97 63 98 64 99 65 100
REMARK H PARENT 1 27 1 28 86 56 56 67
REMARK Flexibility Score: inf
ROOT
ATOM      1  C   UNL A   1      31.411  27.525  26.892  1.00  0.00     0.202 C 
ENDROOT
BRANCH   1   2
ATOM      2  C   UNL A   1      30.987  27.329  25.437  1.00  0.00     0.261 C 
BRANCH   2   3
ATOM      3  O   UNL A   1      30.665  25.963  25.134  1.00  0.00    -0.460 OA
BRANCH   3   4
ATOM      4  C   UNL A   1      31.172  25.524  23.958  1.00  0.00     0.338 C 
ATOM      5  O   UNL A   1      30.763  25.786  22.837  1.00  0.00    -0.246 OA
BRANCH   4   6
ATOM      6  C   UNL A   1      32.429  24.780  24.177  1.00  0.00     0.060 A 
ATOM      7  C   UNL A   1      34.895  23.610  24.784  1.00  0.00     0.000 A 
ATOM      8  C   UNL A   1      33.954  23.844  25.798  1.00  0.00     0.011 A 
ATOM      9  C   UNL A   1      34.564  23.911  23.456  1.00  0.00     0.011 A 
ATOM     10  C   UNL A   1      32.727  24.425  25.496  1.00  0.00     0.016 A 
ATOM     11  C   UNL A   1      33.326  24.486  23.147  1.00  0.00     0.016 A 
BRANCH   7  12
ATOM     12  C   UNL A   1      36.244  23.172  25.143  1.00  0.00     0.075 A 
ATOM     13  N   UNL A   1      36.617  21.872  25.465  1.00  0.00    -0.233 N 
ATOM     14  N   UNL A   1      37.785  21.838  26.157  1.00  0.00    -0.163 NA
ATOM     15  C   UNL A   1      38.280  23.090  26.059  1.00  0.00     0.167 A 
ATOM     16  C   UNL A   1      37.337  23.955  25.453  1.00  0.00     0.064 A 
BRANCH  13  17
ATOM     17  C   UNL A   1      35.883  20.687  25.211  1.00  0.00     0.065 A 
ATOM     18  C   UNL A   1      34.446  18.421  24.480  1.00  0.00     0.082 A 
ATOM     19  C   UNL A   1      35.843  18.372  24.504  1.00  0.00     0.024 A 
ATOM     20  C   UNL A   1      33.763  19.587  24.843  1.00  0.00     0.024 A 
ATOM     21  C   UNL A   1      36.563  19.510  24.862  1.00  0.00     0.030 A 
ATOM     22  C   UNL A   1      34.483  20.718  25.240  1.00  0.00     0.030 A 
BRANCH  18  23
ATOM     23  S   UNL A   1      33.574  16.983  23.939  1.00  0.00     0.238 S 
ATOM     24  O   UNL A   1      33.925  16.722  22.560  1.00  0.00    -0.207 OA
ATOM     25  O   UNL A   1      32.214  17.064  24.409  1.00  0.00    -0.207 OA
BRANCH  23  26
ATOM     26  N   UNL A   1      34.256  15.723  24.826  1.00  0.00    -0.225 NA
ATOM     27  H   UNL A   1      33.678  14.888  24.730  1.00  0.00     0.137 HD
ATOM     28  H   UNL A   1      34.310  15.989  25.809  1.00  0.00     0.137 HD
ENDBRANCH  23  26
ENDBRANCH  18  23
ENDBRANCH  13  17
BRANCH  15  29
ATOM     29  C   UNL A   1      39.630  23.496  26.585  1.00  0.00     0.435 C 
ATOM     30  F   UNL A   1      40.026  24.723  26.155  1.00  0.00    -0.164 F 
ATOM     31  F   UNL A   1      39.669  23.514  27.943  1.00  0.00    -0.164 F 
ATOM     32  F   UNL A   1      40.602  22.623  26.189  1.00  0.00    -0.164 F 
ENDBRANCH  15  29
ENDBRANCH   7  12
ENDBRANCH   4   6
ENDBRANCH   3   4
ENDBRANCH   2   3
ENDBRANCH   1   2
BRANCH   1  33
ATOM     33  O   UNL A   1      31.870  28.815  27.293  1.00  0.00    -0.374 OA
BRANCH  33  34
ATOM     34  C   UNL A   1      31.808  29.905  26.379  1.00  0.00     0.202 C 
BRANCH  34  35
ATOM     35  C   UNL A   1      31.699  31.319  26.929  1.00  0.00     0.261 C 
BRANCH  35  36
ATOM     36  O   UNL A   1      32.952  31.979  26.988  1.00  0.00    -0.460 OA
BRANCH  36  37
ATOM     37  C   UNL A   1      32.943  33.072  27.788  1.00  0.00     0.338 C 
ATOM     38  O   UNL A   1      32.099  33.951  27.824  1.00  0.00    -0.246 OA
BRANCH  37  39
ATOM     39  C   UNL A   1      34.223  33.140  28.494  1.00  0.00     0.060 A 
ATOM     40  C   UNL A   1      35.270  33.768  27.817  1.00  0.00     0.016 A 
ATOM     41  C   UNL A   1      34.437  32.325  29.614  1.00  0.00     0.016 A 
ATOM     42  C   UNL A   1      36.557  33.399  28.131  1.00  0.00     0.010 A 
ATOM     43  C   UNL A   1      35.718  31.934  29.905  1.00  0.00     0.010 A 
ATOM     44  C   UNL A   1      36.752  32.416  29.107  1.00  0.00    -0.014 A 
BRANCH  44  45
ATOM     45  C   UNL A   1      38.107  32.027  29.422  1.00  0.00     0.031 A 
ATOM     46  C   UNL A   1      38.320  30.598  29.114  1.00  0.00     0.074 A 
ATOM     47  C   UNL A   1      39.050  32.905  29.810  1.00  0.00     0.049 A 
ATOM     48  N   UNL A   1      38.329  29.614  29.953  1.00  0.00    -0.248 NA
ATOM     49  C   UNL A   1      38.219  30.181  27.702  1.00  0.00     0.031 C 
ATOM     50  C   UNL A   1      38.947  34.366  29.870  1.00  0.00     0.029 A 
ATOM     51  N   UNL A   1      40.353  32.682  30.130  1.00  0.00    -0.354 N 
ATOM     52  C   UNL A   1      38.565  28.493  29.169  1.00  0.00     0.074 A 
ATOM     53  C   UNL A   1      38.164  28.855  27.835  1.00  0.00     0.031 C 
ATOM     54  C   UNL A   1      40.190  34.896  29.959  1.00  0.00     0.029 A 
ATOM     55  C   UNL A   1      41.157  33.818  30.089  1.00  0.00     0.049 A 
ATOM     56  H   UNL A   1      40.697  31.792  30.371  1.00  0.00     0.167 HD
ATOM     57  C   UNL A   1      39.468  27.559  29.576  1.00  0.00     0.031 A 
ATOM     58  C   UNL A   1      42.517  33.849  30.088  1.00  0.00     0.031 A 
ATOM     59  C   UNL A   1      39.736  27.678  30.993  1.00  0.00     0.049 A 
ATOM     60  C   UNL A   1      42.979  32.540  30.614  1.00  0.00     0.074 A 
ATOM     61  C   UNL A   1      38.973  27.672  32.144  1.00  0.00     0.029 A 
ATOM     62  N   UNL A   1      40.937  28.256  31.330  1.00  0.00    -0.354 N 
ATOM     63  N   UNL A   1      42.784  32.155  31.844  1.00  0.00    -0.248 NA
ATOM     64  C   UNL A   1      43.239  31.471  29.662  1.00  0.00     0.031 C 
ATOM     65  C   UNL A   1      39.600  28.612  33.016  1.00  0.00     0.029 A 
ATOM     66  C   UNL A   1      40.755  29.091  32.395  1.00  0.00     0.049 A 
ATOM     67  H   UNL A   1      41.794  28.094  30.874  1.00  0.00     0.167 HD
ATOM     68  C   UNL A   1      42.438  30.815  31.743  1.00  0.00     0.074 A 
ATOM     69  C   UNL A   1      42.848  30.424  30.393  1.00  0.00     0.031 C 
ATOM     70  C   UNL A   1      41.590  30.246  32.652  1.00  0.00     0.031 A 
BRANCH  57  71
ATOM     71  C   UNL A   1      40.498  26.965  28.624  1.00  0.00    -0.014 A 
ATOM     72  C   UNL A   1      41.232  25.845  29.060  1.00  0.00     0.010 A 
ATOM     73  C   UNL A   1      40.992  27.636  27.483  1.00  0.00     0.010 A 
ATOM     74  C   UNL A   1      42.458  25.505  28.473  1.00  0.00     0.020 A 
ATOM     75  C   UNL A   1      42.188  27.281  26.863  1.00  0.00     0.020 A 
ATOM     76  C   UNL A   1      42.935  26.240  27.389  1.00  0.00     0.054 A 
BRANCH  76  77
ATOM     77  S   UNL A   1      44.560  25.864  26.702  1.00  0.00     0.124 S 
ATOM     78  O   UNL A   1      44.268  25.793  25.275  1.00  0.00    -0.237 OA
ATOM     79  O   UNL A   1      45.347  27.014  27.138  1.00  0.00    -0.237 OA
ATOM     80  O   UNL A   1      44.912  24.595  27.338  1.00  0.00    -0.744 OA
ENDBRANCH  76  77
ENDBRANCH  57  71
BRANCH  58  81
ATOM     81  C   UNL A   1      43.427  34.777  29.360  1.00  0.00    -0.014 A 
ATOM     82  C   UNL A   1      44.145  35.779  30.046  1.00  0.00     0.010 A 
ATOM     83  C   UNL A   1      43.818  34.494  28.037  1.00  0.00     0.010 A 
ATOM     84  C   UNL A   1      45.254  36.416  29.456  1.00  0.00     0.020 A 
ATOM     85  C   UNL A   1      44.915  35.130  27.439  1.00  0.00     0.020 A 
ATOM     86  C   UNL A   1      45.645  36.070  28.162  1.00  0.00     0.054 A 
BRANCH  86  87
ATOM     87  S   UNL A   1      47.184  36.751  27.469  1.00  0.00     0.124 S 
ATOM     88  O   UNL A   1      46.829  36.967  26.070  1.00  0.00    -0.237 OA
ATOM     89  O   UNL A   1      47.387  37.959  28.264  1.00  0.00    -0.237 OA
ATOM     90  O   UNL A   1      48.165  35.691  27.702  1.00  0.00    -0.744 OA
ENDBRANCH  86  87
ENDBRANCH  58  81
BRANCH  70  91
ATOM     91  C   UNL A   1      41.365  30.959  33.964  1.00  0.00    -0.014 A 
ATOM     92  C   UNL A   1      40.370  31.930  34.191  1.00  0.00     0.010 A 
ATOM     93  C   UNL A   1      42.143  30.528  35.053  1.00  0.00     0.010 A 
ATOM     94  C   UNL A   1      40.190  32.480  35.471  1.00  0.00     0.020 A 
ATOM     95  C   UNL A   1      41.956  31.055  36.329  1.00  0.00     0.020 A 
ATOM     96  C   UNL A   1      40.990  32.040  36.531  1.00  0.00     0.054 A 
BRANCH  96  97
ATOM     97  S   UNL A   1      40.755  32.742  38.188  1.00  0.00     0.124 S 
ATOM     98  O   UNL A   1      39.350  32.452  38.460  1.00  0.00    -0.237 OA
ATOM     99  O   UNL A   1      41.720  31.998  38.995  1.00  0.00    -0.237 OA
ATOM    100  O   UNL A   1      41.070  34.160  38.014  1.00  0.00    -0.744 OA
ENDBRANCH  96  97
ENDBRANCH  70  91
ENDBRANCH  44  45
ENDBRANCH  37  39
ENDBRANCH  36  37
ENDBRANCH  35  36
ENDBRANCH  34  35
ENDBRANCH  33  34
ENDBRANCH   1  33
TORSDOF 22
ENDMDL
