MODEL 1
REMARK VINA RESULT:     -11.7      0.000      0.000
REMARK SMILES O=C(OCCOCCOC(=O)c1ccc(-c2c3nc(c(-c4ccc(S(=O)(=O)[O-])cc4)c4ccc([nH]4)c(-c4ccc(S(=O)(=O)[O-])cc4)c4nc(c(-c5ccc(S(=O)(=O)[O-])cc5)c5ccc2[nH]5)C=C4)C=C3)cc1)c1ccc(Oc2cc(-c3ccccc3)nc(-c3cnccn3)n2)cc1
REMARK SMILES IDX 6 1 5 2 4 3 3 4 2 5 1 6 72 7 73 8 96 9 74 10 95 11 75 12
REMARK SMILES IDX 76 13 77 14 78 15 94 16 79 17 87 18 86 19 80 20 81 21 85 22
REMARK SMILES IDX 82 23 84 24 83 25 88 26 89 27 93 28 90 29 92 30 91 31 7 32
REMARK SMILES IDX 8 33 9 34 10 35 11 36 12 37 13 38 71 39 14 40 70 41 15 42
REMARK SMILES IDX 16 43 17 44 64 45 18 46 69 47 63 48 65 49 19 50 68 51 62 52
REMARK SMILES IDX 61 53 20 55 50 56 31 57 49 58 32 59 35 60 48 61 66 62 33 63
REMARK SMILES IDX 34 64 47 66 67 67 36 68 21 69 22 70 30 71 23 72 29 73 24 74
REMARK SMILES IDX 25 75 26 76 27 77 28 78 51 79 52 80 60 81 53 82 59 83 54 84
REMARK SMILES IDX 55 85 56 86 57 87 58 88 37 89 38 90 46 91 39 92 45 93 40 94
REMARK SMILES IDX 41 95 42 96 43 97 44 98
REMARK H PARENT 65 54 35 65
REMARK Flexibility Score: inf
ROOT
ATOM      1  O   UNL A   1      32.758  30.808  26.854  1.00  0.00    -0.374 OA
ENDROOT
BRANCH   1   2
ATOM      2  C   UNL A   1      31.965  30.050  25.936  1.00  0.00     0.202 C 
BRANCH   2   3
ATOM      3  C   UNL A   1      31.857  28.571  26.305  1.00  0.00     0.261 C 
BRANCH   3   4
ATOM      4  O   UNL A   1      30.856  27.938  25.491  1.00  0.00    -0.460 OA
BRANCH   4   5
ATOM      5  C   UNL A   1      31.000  27.459  24.237  1.00  0.00     0.338 C 
ATOM      6  O   UNL A   1      30.875  28.222  23.281  1.00  0.00    -0.246 OA
BRANCH   5   7
ATOM      7  C   UNL A   1      31.372  26.045  23.947  1.00  0.00     0.060 A 
ATOM      8  C   UNL A   1      30.817  24.918  24.560  1.00  0.00     0.019 A 
ATOM      9  C   UNL A   1      32.259  25.849  22.882  1.00  0.00     0.019 A 
ATOM     10  C   UNL A   1      31.201  23.630  24.186  1.00  0.00     0.048 A 
ATOM     11  C   UNL A   1      32.611  24.562  22.474  1.00  0.00     0.048 A 
ATOM     12  C   UNL A   1      32.115  23.446  23.157  1.00  0.00     0.129 A 
BRANCH  12  13
ATOM     13  O   UNL A   1      32.425  22.132  22.894  1.00  0.00    -0.439 OA
BRANCH  13  14
ATOM     14  C   UNL A   1      33.354  21.526  23.700  1.00  0.00     0.223 A 
ATOM     15  C   UNL A   1      34.380  22.247  24.261  1.00  0.00     0.098 A 
ATOM     16  N   UNL A   1      33.174  20.216  23.877  1.00  0.00    -0.191 NA
ATOM     17  C   UNL A   1      35.333  21.512  24.930  1.00  0.00     0.078 A 
ATOM     18  C   UNL A   1      34.109  19.587  24.603  1.00  0.00     0.184 A 
ATOM     19  N   UNL A   1      35.200  20.181  25.135  1.00  0.00    -0.226 NA
BRANCH  17  20
ATOM     20  C   UNL A   1      36.599  22.130  25.353  1.00  0.00     0.000 A 
ATOM     21  C   UNL A   1      36.636  23.477  25.755  1.00  0.00     0.010 A 
ATOM     22  C   UNL A   1      37.787  21.382  25.456  1.00  0.00     0.010 A 
ATOM     23  C   UNL A   1      37.807  24.050  26.256  1.00  0.00     0.001 A 
ATOM     24  C   UNL A   1      38.960  21.956  25.952  1.00  0.00     0.001 A 
ATOM     25  C   UNL A   1      38.969  23.288  26.356  1.00  0.00     0.000 A 
ENDBRANCH  17  20
BRANCH  18  26
ATOM     26  C   UNL A   1      33.849  18.179  24.911  1.00  0.00     0.126 A 
ATOM     27  C   UNL A   1      32.584  17.758  25.306  1.00  0.00     0.143 A 
ATOM     28  N   UNL A   1      34.849  17.273  24.693  1.00  0.00    -0.250 NA
ATOM     29  N   UNL A   1      32.252  16.451  25.479  1.00  0.00    -0.261 NA
ATOM     30  C   UNL A   1      34.520  15.973  24.862  1.00  0.00     0.132 A 
ATOM     31  C   UNL A   1      33.250  15.572  25.237  1.00  0.00     0.131 A 
ENDBRANCH  18  26
ENDBRANCH  13  14
ENDBRANCH  12  13
ENDBRANCH   5   7
ENDBRANCH   4   5
ENDBRANCH   3   4
ENDBRANCH   2   3
ENDBRANCH   1   2
BRANCH   1  32
ATOM     32  C   UNL A   1      34.091  30.323  27.066  1.00  0.00     0.202 C 
BRANCH  32  33
ATOM     33  C   UNL A   1      34.825  31.252  28.038  1.00  0.00     0.261 C 
BRANCH  33  34
ATOM     34  O   UNL A   1      35.697  30.451  28.845  1.00  0.00    -0.460 OA
BRANCH  34  35
ATOM     35  C   UNL A   1      36.642  31.160  29.513  1.00  0.00     0.338 C 
ATOM     36  O   UNL A   1      36.456  32.066  30.310  1.00  0.00    -0.246 OA
BRANCH  35  37
ATOM     37  C   UNL A   1      37.946  30.494  29.298  1.00  0.00     0.060 A 
ATOM     38  C   UNL A   1      38.815  30.373  30.391  1.00  0.00     0.016 A 
ATOM     39  C   UNL A   1      38.282  29.930  28.063  1.00  0.00     0.016 A 
ATOM     40  C   UNL A   1      40.031  29.708  30.247  1.00  0.00     0.010 A 
ATOM     41  C   UNL A   1      39.497  29.268  27.917  1.00  0.00     0.010 A 
ATOM     42  C   UNL A   1      40.386  29.179  29.000  1.00  0.00    -0.014 A 
BRANCH  42  43
ATOM     43  C   UNL A   1      41.761  28.697  28.752  1.00  0.00     0.031 A 
ATOM     44  C   UNL A   1      42.870  29.710  28.769  1.00  0.00     0.074 A 
ATOM     45  C   UNL A   1      42.002  27.405  28.469  1.00  0.00     0.049 A 
ATOM     46  N   UNL A   1      44.133  29.557  28.479  1.00  0.00    -0.248 NA
ATOM     47  C   UNL A   1      42.499  31.085  29.153  1.00  0.00     0.031 C 
ATOM     48  C   UNL A   1      40.999  26.339  28.441  1.00  0.00     0.029 A 
ATOM     49  N   UNL A   1      43.171  26.776  28.127  1.00  0.00    -0.354 N 
ATOM     50  C   UNL A   1      44.706  30.814  28.633  1.00  0.00     0.074 A 
ATOM     51  C   UNL A   1      43.651  31.724  29.019  1.00  0.00     0.031 C 
ATOM     52  C   UNL A   1      41.596  25.190  28.080  1.00  0.00     0.029 A 
ATOM     53  C   UNL A   1      43.012  25.446  27.821  1.00  0.00     0.049 A 
ATOM     54  H   UNL A   1      44.043  27.234  28.103  1.00  0.00     0.167 HD
ATOM     55  C   UNL A   1      45.999  31.175  28.468  1.00  0.00     0.031 A 
ATOM     56  C   UNL A   1      43.906  24.549  27.358  1.00  0.00     0.031 A 
ATOM     57  C   UNL A   1      47.036  30.266  28.068  1.00  0.00     0.049 A 
ATOM     58  C   UNL A   1      45.329  24.991  27.130  1.00  0.00     0.074 A 
ATOM     59  C   UNL A   1      48.384  30.522  27.896  1.00  0.00     0.029 A 
ATOM     60  N   UNL A   1      46.836  28.927  27.768  1.00  0.00    -0.354 N 
ATOM     61  N   UNL A   1      45.868  26.173  27.325  1.00  0.00    -0.248 NA
ATOM     62  C   UNL A   1      46.266  23.979  26.623  1.00  0.00     0.031 C 
ATOM     63  C   UNL A   1      48.992  29.347  27.442  1.00  0.00     0.029 A 
ATOM     64  C   UNL A   1      48.032  28.348  27.385  1.00  0.00     0.049 A 
ATOM     65  H   UNL A   1      45.972  28.459  27.819  1.00  0.00     0.167 HD
ATOM     66  C   UNL A   1      47.210  26.038  26.988  1.00  0.00     0.074 A 
ATOM     67  C   UNL A   1      47.405  24.658  26.592  1.00  0.00     0.031 C 
ATOM     68  C   UNL A   1      48.196  26.969  27.000  1.00  0.00     0.031 A 
BRANCH  55  69
ATOM     69  C   UNL A   1      46.352  32.619  28.695  1.00  0.00    -0.014 A 
ATOM     70  C   UNL A   1      46.737  33.080  29.967  1.00  0.00     0.010 A 
ATOM     71  C   UNL A   1      46.344  33.516  27.612  1.00  0.00     0.010 A 
ATOM     72  C   UNL A   1      47.086  34.419  30.156  1.00  0.00     0.020 A 
ATOM     73  C   UNL A   1      46.716  34.850  27.793  1.00  0.00     0.020 A 
ATOM     74  C   UNL A   1      47.075  35.296  29.067  1.00  0.00     0.054 A 
BRANCH  74  75
ATOM     75  S   UNL A   1      47.582  37.017  29.332  1.00  0.00     0.124 S 
ATOM     76  O   UNL A   1      46.301  37.718  29.294  1.00  0.00    -0.237 OA
ATOM     77  O   UNL A   1      48.229  36.962  30.640  1.00  0.00    -0.237 OA
ATOM     78  O   UNL A   1      48.476  37.292  28.209  1.00  0.00    -0.744 OA
ENDBRANCH  74  75
ENDBRANCH  55  69
BRANCH  56  79
ATOM     79  C   UNL A   1      43.484  23.154  27.052  1.00  0.00    -0.014 A 
ATOM     80  C   UNL A   1      42.930  22.337  28.052  1.00  0.00     0.010 A 
ATOM     81  C   UNL A   1      43.660  22.627  25.759  1.00  0.00     0.010 A 
ATOM     82  C   UNL A   1      42.581  21.011  27.773  1.00  0.00     0.020 A 
ATOM     83  C   UNL A   1      43.289  21.311  25.469  1.00  0.00     0.020 A 
ATOM     84  C   UNL A   1      42.764  20.506  26.482  1.00  0.00     0.054 A 
BRANCH  84  85
ATOM     85  S   UNL A   1      42.274  18.794  26.132  1.00  0.00     0.124 S 
ATOM     86  O   UNL A   1      40.882  18.955  25.725  1.00  0.00    -0.237 OA
ATOM     87  O   UNL A   1      43.204  18.410  25.072  1.00  0.00    -0.237 OA
ATOM     88  O   UNL A   1      42.481  18.113  27.408  1.00  0.00    -0.744 OA
ENDBRANCH  84  85
ENDBRANCH  56  79
BRANCH  68  89
ATOM     89  C   UNL A   1      49.577  26.521  26.607  1.00  0.00    -0.014 A 
ATOM     90  C   UNL A   1      50.465  25.987  27.556  1.00  0.00     0.010 A 
ATOM     91  C   UNL A   1      49.965  26.579  25.255  1.00  0.00     0.010 A 
ATOM     92  C   UNL A   1      51.731  25.544  27.165  1.00  0.00     0.020 A 
ATOM     93  C   UNL A   1      51.220  26.112  24.857  1.00  0.00     0.020 A 
ATOM     94  C   UNL A   1      52.101  25.612  25.817  1.00  0.00     0.054 A 
BRANCH  94  95
ATOM     95  S   UNL A   1      53.732  24.992  25.326  1.00  0.00     0.124 S 
ATOM     96  O   UNL A   1      54.530  25.262  26.519  1.00  0.00    -0.237 OA
ATOM     97  O   UNL A   1      53.471  23.581  25.051  1.00  0.00    -0.237 OA
ATOM     98  O   UNL A   1      54.070  25.796  24.154  1.00  0.00    -0.744 OA
ENDBRANCH  94  95
ENDBRANCH  68  89
ENDBRANCH  42  43
ENDBRANCH  35  37
ENDBRANCH  34  35
ENDBRANCH  33  34
ENDBRANCH  32  33
ENDBRANCH   1  32
TORSDOF 21
ENDMDL
MODEL 2
REMARK VINA RESULT:     -11.1      2.685      9.299
REMARK SMILES O=C(OCCOCCOC(=O)c1ccc(-c2c3nc(c(-c4ccc(S(=O)(=O)[O-])cc4)c4ccc([nH]4)c(-c4ccc(S(=O)(=O)[O-])cc4)c4nc(c(-c5ccc(S(=O)(=O)[O-])cc5)c5ccc2[nH]5)C=C4)C=C3)cc1)c1ccc(Oc2cc(-c3ccccc3)nc(-c3cnccn3)n2)cc1
REMARK SMILES IDX 6 1 5 2 4 3 3 4 2 5 1 6 72 7 73 8 96 9 74 10 95 11 75 12
REMARK SMILES IDX 76 13 77 14 78 15 94 16 79 17 87 18 86 19 80 20 81 21 85 22
REMARK SMILES IDX 82 23 84 24 83 25 88 26 89 27 93 28 90 29 92 30 91 31 7 32
REMARK SMILES IDX 8 33 9 34 10 35 11 36 12 37 13 38 71 39 14 40 70 41 15 42
REMARK SMILES IDX 16 43 17 44 64 45 18 46 69 47 63 48 65 49 19 50 68 51 62 52
REMARK SMILES IDX 61 53 20 55 50 56 31 57 49 58 32 59 35 60 48 61 66 62 33 63
REMARK SMILES IDX 34 64 47 66 67 67 36 68 21 69 22 70 30 71 23 72 29 73 24 74
REMARK SMILES IDX 25 75 26 76 27 77 28 78 51 79 52 80 60 81 53 82 59 83 54 84
REMARK SMILES IDX 55 85 56 86 57 87 58 88 37 89 38 90 46 91 39 92 45 93 40 94
REMARK SMILES IDX 41 95 42 96 43 97 44 98
REMARK H PARENT 65 54 35 65
REMARK Flexibility Score: inf
ROOT
ATOM      1  O   UNL A   1      36.138  33.961  31.735  1.00  0.00    -0.374 OA
ENDROOT
BRANCH   1   2
ATOM      2  C   UNL A   1      34.731  33.988  31.985  1.00  0.00     0.202 C 
BRANCH   2   3
ATOM      3  C   UNL A   1      33.963  34.903  31.032  1.00  0.00     0.261 C 
BRANCH   3   4
ATOM      4  O   UNL A   1      33.525  34.153  29.886  1.00  0.00    -0.460 OA
BRANCH   4   5
ATOM      5  C   UNL A   1      34.227  33.880  28.766  1.00  0.00     0.338 C 
ATOM      6  O   UNL A   1      34.902  34.766  28.246  1.00  0.00    -0.246 OA
BRANCH   5   7
ATOM      7  C   UNL A   1      34.281  32.522  28.154  1.00  0.00     0.060 A 
ATOM      8  C   UNL A   1      35.414  31.705  28.091  1.00  0.00     0.019 A 
ATOM      9  C   UNL A   1      33.059  31.990  27.729  1.00  0.00     0.019 A 
ATOM     10  C   UNL A   1      35.353  30.427  27.536  1.00  0.00     0.048 A 
ATOM     11  C   UNL A   1      32.984  30.694  27.217  1.00  0.00     0.048 A 
ATOM     12  C   UNL A   1      34.143  29.924  27.077  1.00  0.00     0.129 A 
BRANCH  12  13
ATOM     13  O   UNL A   1      34.217  28.661  26.537  1.00  0.00    -0.439 OA
BRANCH  13  14
ATOM     14  C   UNL A   1      33.144  28.219  25.806  1.00  0.00     0.223 A 
ATOM     15  C   UNL A   1      32.525  29.040  24.895  1.00  0.00     0.098 A 
ATOM     16  N   UNL A   1      32.771  26.964  26.060  1.00  0.00    -0.191 NA
ATOM     17  C   UNL A   1      31.373  28.543  24.327  1.00  0.00     0.078 A 
ATOM     18  C   UNL A   1      31.681  26.532  25.410  1.00  0.00     0.184 A 
ATOM     19  N   UNL A   1      30.949  27.278  24.552  1.00  0.00    -0.226 NA
BRANCH  17  20
ATOM     20  C   UNL A   1      30.488  29.414  23.536  1.00  0.00     0.000 A 
ATOM     21  C   UNL A   1      29.655  30.350  24.174  1.00  0.00     0.010 A 
ATOM     22  C   UNL A   1      30.510  29.405  22.130  1.00  0.00     0.010 A 
ATOM     23  C   UNL A   1      28.886  31.253  23.435  1.00  0.00     0.001 A 
ATOM     24  C   UNL A   1      29.737  30.304  21.390  1.00  0.00     0.001 A 
ATOM     25  C   UNL A   1      28.930  31.231  22.044  1.00  0.00     0.000 A 
ENDBRANCH  17  20
BRANCH  18  26
ATOM     26  C   UNL A   1      31.343  25.118  25.583  1.00  0.00     0.126 A 
ATOM     27  C   UNL A   1      31.149  24.293  24.479  1.00  0.00     0.143 A 
ATOM     28  N   UNL A   1      31.333  24.604  26.848  1.00  0.00    -0.250 NA
ATOM     29  N   UNL A   1      30.962  22.950  24.576  1.00  0.00    -0.261 NA
ATOM     30  C   UNL A   1      31.149  23.268  26.945  1.00  0.00     0.132 A 
ATOM     31  C   UNL A   1      30.978  22.461  25.836  1.00  0.00     0.131 A 
ENDBRANCH  18  26
ENDBRANCH  13  14
ENDBRANCH  12  13
ENDBRANCH   5   7
ENDBRANCH   4   5
ENDBRANCH   3   4
ENDBRANCH   2   3
ENDBRANCH   1   2
BRANCH   1  32
ATOM     32  C   UNL A   1      36.904  33.111  32.600  1.00  0.00     0.202 C 
BRANCH  32  33
ATOM     33  C   UNL A   1      36.192  31.765  32.757  1.00  0.00     0.261 C 
BRANCH  33  34
ATOM     34  O   UNL A   1      37.181  30.729  32.700  1.00  0.00    -0.460 OA
BRANCH  34  35
ATOM     35  C   UNL A   1      37.070  29.914  31.621  1.00  0.00     0.338 C 
ATOM     36  O   UNL A   1      36.041  29.480  31.128  1.00  0.00    -0.246 OA
BRANCH  35  37
ATOM     37  C   UNL A   1      38.403  29.821  30.984  1.00  0.00     0.060 A 
ATOM     38  C   UNL A   1      38.501  30.096  29.613  1.00  0.00     0.016 A 
ATOM     39  C   UNL A   1      39.551  29.541  31.732  1.00  0.00     0.016 A 
ATOM     40  C   UNL A   1      39.744  30.071  28.982  1.00  0.00     0.010 A 
ATOM     41  C   UNL A   1      40.792  29.513  31.102  1.00  0.00     0.010 A 
ATOM     42  C   UNL A   1      40.888  29.751  29.722  1.00  0.00    -0.014 A 
BRANCH  42  43
ATOM     43  C   UNL A   1      42.169  29.470  29.041  1.00  0.00     0.031 A 
ATOM     44  C   UNL A   1      42.395  28.077  28.527  1.00  0.00     0.074 A 
ATOM     45  C   UNL A   1      43.119  30.415  28.934  1.00  0.00     0.049 A 
ATOM     46  N   UNL A   1      43.467  27.557  27.993  1.00  0.00    -0.248 NA
ATOM     47  C   UNL A   1      41.262  27.141  28.642  1.00  0.00     0.031 C 
ATOM     48  C   UNL A   1      42.994  31.801  29.387  1.00  0.00     0.029 A 
ATOM     49  N   UNL A   1      44.390  30.339  28.427  1.00  0.00    -0.354 N 
ATOM     50  C   UNL A   1      43.144  26.234  27.721  1.00  0.00     0.074 A 
ATOM     51  C   UNL A   1      41.786  26.021  28.167  1.00  0.00     0.031 C 
ATOM     52  C   UNL A   1      44.154  32.441  29.154  1.00  0.00     0.029 A 
ATOM     53  C   UNL A   1      45.109  31.503  28.567  1.00  0.00     0.049 A 
ATOM     54  H   UNL A   1      44.754  29.529  28.002  1.00  0.00     0.167 HD
ATOM     55  C   UNL A   1      43.912  25.280  27.146  1.00  0.00     0.031 A 
ATOM     56  C   UNL A   1      46.399  31.765  28.278  1.00  0.00     0.031 A 
ATOM     57  C   UNL A   1      45.267  25.498  26.722  1.00  0.00     0.049 A 
ATOM     58  C   UNL A   1      47.251  30.669  27.690  1.00  0.00     0.074 A 
ATOM     59  C   UNL A   1      46.128  24.609  26.105  1.00  0.00     0.029 A 
ATOM     60  N   UNL A   1      45.960  26.688  26.879  1.00  0.00    -0.354 N 
ATOM     61  N   UNL A   1      46.918  29.434  27.393  1.00  0.00    -0.248 NA
ATOM     62  C   UNL A   1      48.651  31.003  27.393  1.00  0.00     0.031 C 
ATOM     63  C   UNL A   1      47.360  25.248  25.935  1.00  0.00     0.029 A 
ATOM     64  C   UNL A   1      47.248  26.551  26.396  1.00  0.00     0.049 A 
ATOM     65  H   UNL A   1      45.590  27.509  27.277  1.00  0.00     0.167 HD
ATOM     66  C   UNL A   1      48.061  28.852  26.853  1.00  0.00     0.074 A 
ATOM     67  C   UNL A   1      49.088  29.875  26.850  1.00  0.00     0.031 C 
ATOM     68  C   UNL A   1      48.249  27.587  26.402  1.00  0.00     0.031 A 
BRANCH  55  69
ATOM     69  C   UNL A   1      43.312  23.913  26.972  1.00  0.00    -0.014 A 
ATOM     70  C   UNL A   1      42.801  23.499  25.729  1.00  0.00     0.010 A 
ATOM     71  C   UNL A   1      43.302  23.014  28.053  1.00  0.00     0.010 A 
ATOM     72  C   UNL A   1      42.269  22.217  25.577  1.00  0.00     0.020 A 
ATOM     73  C   UNL A   1      42.792  21.723  27.898  1.00  0.00     0.020 A 
ATOM     74  C   UNL A   1      42.269  21.336  26.663  1.00  0.00     0.054 A 
BRANCH  74  75
ATOM     75  S   UNL A   1      41.618  19.660  26.422  1.00  0.00     0.124 S 
ATOM     76  O   UNL A   1      40.189  19.913  26.253  1.00  0.00    -0.237 OA
ATOM     77  O   UNL A   1      42.322  19.212  25.223  1.00  0.00    -0.237 OA
ATOM     78  O   UNL A   1      41.987  18.965  27.653  1.00  0.00    -0.744 OA
ENDBRANCH  74  75
ENDBRANCH  55  69
BRANCH  56  79
ATOM     79  C   UNL A   1      46.977  33.108  28.563  1.00  0.00    -0.014 A 
ATOM     80  C   UNL A   1      47.695  33.343  29.748  1.00  0.00     0.010 A 
ATOM     81  C   UNL A   1      46.790  34.168  27.657  1.00  0.00     0.010 A 
ATOM     82  C   UNL A   1      48.194  34.618  30.035  1.00  0.00     0.020 A 
ATOM     83  C   UNL A   1      47.310  35.437  27.927  1.00  0.00     0.020 A 
ATOM     84  C   UNL A   1      47.996  35.658  29.122  1.00  0.00     0.054 A 
BRANCH  84  85
ATOM     85  S   UNL A   1      48.681  37.297  29.496  1.00  0.00     0.124 S 
ATOM     86  O   UNL A   1      49.235  37.095  30.831  1.00  0.00    -0.237 OA
ATOM     87  O   UNL A   1      49.658  37.483  28.426  1.00  0.00    -0.237 OA
ATOM     88  O   UNL A   1      47.516  38.176  29.426  1.00  0.00    -0.744 OA
ENDBRANCH  84  85
ENDBRANCH  56  79
BRANCH  68  89
ATOM     89  C   UNL A   1      49.601  27.247  25.838  1.00  0.00    -0.014 A 
ATOM     90  C   UNL A   1      50.603  26.683  26.646  1.00  0.00     0.010 A 
ATOM     91  C   UNL A   1      49.847  27.440  24.466  1.00  0.00     0.010 A 
ATOM     92  C   UNL A   1      51.842  26.342  26.095  1.00  0.00     0.020 A 
ATOM     93  C   UNL A   1      51.074  27.075  23.907  1.00  0.00     0.020 A 
ATOM     94  C   UNL A   1      52.069  26.543  24.729  1.00  0.00     0.054 A 
BRANCH  94  95
ATOM     95  S   UNL A   1      53.668  26.053  24.028  1.00  0.00     0.124 S 
ATOM     96  O   UNL A   1      53.841  24.711  24.578  1.00  0.00    -0.237 OA
ATOM     97  O   UNL A   1      53.422  26.116  22.590  1.00  0.00    -0.237 OA
ATOM     98  O   UNL A   1      54.593  27.062  24.539  1.00  0.00    -0.744 OA
ENDBRANCH  94  95
ENDBRANCH  68  89
ENDBRANCH  42  43
ENDBRANCH  35  37
ENDBRANCH  34  35
ENDBRANCH  33  34
ENDBRANCH  32  33
ENDBRANCH   1  32
TORSDOF 21
ENDMDL
MODEL 3
REMARK VINA RESULT:     -10.4      3.074      9.457
REMARK SMILES O=C(OCCOCCOC(=O)c1ccc(-c2c3nc(c(-c4ccc(S(=O)(=O)[O-])cc4)c4ccc([nH]4)c(-c4ccc(S(=O)(=O)[O-])cc4)c4nc(c(-c5ccc(S(=O)(=O)[O-])cc5)c5ccc2[nH]5)C=C4)C=C3)cc1)c1ccc(Oc2cc(-c3ccccc3)nc(-c3cnccn3)n2)cc1
REMARK SMILES IDX 6 1 5 2 4 3 3 4 2 5 1 6 72 7 73 8 96 9 74 10 95 11 75 12
REMARK SMILES IDX 76 13 77 14 78 15 94 16 79 17 87 18 86 19 80 20 81 21 85 22
REMARK SMILES IDX 82 23 84 24 83 25 88 26 89 27 93 28 90 29 92 30 91 31 7 32
REMARK SMILES IDX 8 33 9 34 10 35 11 36 12 37 13 38 71 39 14 40 70 41 15 42
REMARK SMILES IDX 16 43 17 44 64 45 18 46 69 47 63 48 65 49 19 50 68 51 62 52
REMARK SMILES IDX 61 53 20 55 50 56 31 57 49 58 32 59 35 60 48 61 66 62 33 63
REMARK SMILES IDX 34 64 47 66 67 67 36 68 21 69 22 70 30 71 23 72 29 73 24 74
REMARK SMILES IDX 25 75 26 76 27 77 28 78 51 79 52 80 60 81 53 82 59 83 54 84
REMARK SMILES IDX 55 85 56 86 57 87 58 88 37 89 38 90 46 91 39 92 45 93 40 94
REMARK SMILES IDX 41 95 42 96 43 97 44 98
REMARK H PARENT 65 54 35 65
REMARK Flexibility Score: inf
ROOT
ATOM      1  O   UNL A   1      36.229  32.422  31.137  1.00  0.00    -0.374 OA
ENDROOT
BRANCH   1   2
ATOM      2  C   UNL A   1      36.195  33.784  31.571  1.00  0.00     0.202 C 
BRANCH   2   3
ATOM      3  C   UNL A   1      35.043  34.585  30.967  1.00  0.00     0.261 C 
BRANCH   3   4
ATOM      4  O   UNL A   1      34.107  33.692  30.338  1.00  0.00    -0.460 OA
BRANCH   4   5
ATOM      5  C   UNL A   1      33.727  33.680  29.043  1.00  0.00     0.338 C 
ATOM      6  O   UNL A   1      33.341  34.723  28.518  1.00  0.00    -0.246 OA
BRANCH   5   7
ATOM      7  C   UNL A   1      33.813  32.466  28.184  1.00  0.00     0.060 A 
ATOM      8  C   UNL A   1      34.938  31.645  28.050  1.00  0.00     0.019 A 
ATOM      9  C   UNL A   1      32.623  32.060  27.570  1.00  0.00     0.019 A 
ATOM     10  C   UNL A   1      34.906  30.501  27.253  1.00  0.00     0.048 A 
ATOM     11  C   UNL A   1      32.574  30.891  26.810  1.00  0.00     0.048 A 
ATOM     12  C   UNL A   1      33.731  30.130  26.613  1.00  0.00     0.129 A 
BRANCH  12  13
ATOM     13  O   UNL A   1      33.832  28.994  25.844  1.00  0.00    -0.439 OA
BRANCH  13  14
ATOM     14  C   UNL A   1      32.686  28.517  25.262  1.00  0.00     0.223 A 
ATOM     15  C   UNL A   1      31.913  29.321  24.460  1.00  0.00     0.098 A 
ATOM     16  N   UNL A   1      32.402  27.244  25.544  1.00  0.00    -0.191 NA
ATOM     17  C   UNL A   1      30.714  28.784  24.050  1.00  0.00     0.078 A 
ATOM     18  C   UNL A   1      31.250  26.775  25.045  1.00  0.00     0.184 A 
ATOM     19  N   UNL A   1      30.376  27.499  24.311  1.00  0.00    -0.226 NA
BRANCH  17  20
ATOM     20  C   UNL A   1      29.694  29.625  23.406  1.00  0.00     0.000 A 
ATOM     21  C   UNL A   1      29.380  30.892  23.930  1.00  0.00     0.010 A 
ATOM     22  C   UNL A   1      29.067  29.238  22.207  1.00  0.00     0.010 A 
ATOM     23  C   UNL A   1      28.490  31.745  23.273  1.00  0.00     0.001 A 
ATOM     24  C   UNL A   1      28.173  30.089  21.552  1.00  0.00     0.001 A 
ATOM     25  C   UNL A   1      27.889  31.344  22.083  1.00  0.00     0.000 A 
ENDBRANCH  17  20
BRANCH  18  26
ATOM     26  C   UNL A   1      30.996  25.346  25.239  1.00  0.00     0.126 A 
ATOM     27  C   UNL A   1      31.284  24.429  24.233  1.00  0.00     0.143 A 
ATOM     28  N   UNL A   1      30.575  24.923  26.468  1.00  0.00    -0.250 NA
ATOM     29  N   UNL A   1      31.191  23.084  24.401  1.00  0.00    -0.261 NA
ATOM     30  C   UNL A   1      30.485  23.585  26.637  1.00  0.00     0.132 A 
ATOM     31  C   UNL A   1      30.794  22.688  25.631  1.00  0.00     0.131 A 
ENDBRANCH  18  26
ENDBRANCH  13  14
ENDBRANCH  12  13
ENDBRANCH   5   7
ENDBRANCH   4   5
ENDBRANCH   3   4
ENDBRANCH   2   3
ENDBRANCH   1   2
BRANCH   1  32
ATOM     32  C   UNL A   1      36.769  31.485  32.080  1.00  0.00     0.202 C 
BRANCH  32  33
ATOM     33  C   UNL A   1      36.630  30.064  31.527  1.00  0.00     0.261 C 
BRANCH  33  34
ATOM     34  O   UNL A   1      37.885  29.687  30.948  1.00  0.00    -0.460 OA
BRANCH  34  35
ATOM     35  C   UNL A   1      37.780  29.102  29.728  1.00  0.00     0.338 C 
ATOM     36  O   UNL A   1      36.757  28.900  29.092  1.00  0.00    -0.246 OA
BRANCH  35  37
ATOM     37  C   UNL A   1      39.146  28.956  29.175  1.00  0.00     0.060 A 
ATOM     38  C   UNL A   1      40.166  28.528  30.036  1.00  0.00     0.016 A 
ATOM     39  C   UNL A   1      39.410  29.164  27.817  1.00  0.00     0.016 A 
ATOM     40  C   UNL A   1      41.456  28.329  29.547  1.00  0.00     0.010 A 
ATOM     41  C   UNL A   1      40.697  28.967  27.329  1.00  0.00     0.010 A 
ATOM     42  C   UNL A   1      41.729  28.576  28.196  1.00  0.00    -0.014 A 
BRANCH  42  43
ATOM     43  C   UNL A   1      43.123  28.619  27.707  1.00  0.00     0.031 A 
ATOM     44  C   UNL A   1      43.687  27.366  27.099  1.00  0.00     0.074 A 
ATOM     45  C   UNL A   1      43.874  29.724  27.850  1.00  0.00     0.049 A 
ATOM     46  N   UNL A   1      44.904  27.119  26.696  1.00  0.00    -0.248 NA
ATOM     47  C   UNL A   1      42.754  26.236  26.935  1.00  0.00     0.031 C 
ATOM     48  C   UNL A   1      43.418  30.995  28.413  1.00  0.00     0.029 A 
ATOM     49  N   UNL A   1      45.194  29.942  27.550  1.00  0.00    -0.354 N 
ATOM     50  C   UNL A   1      44.888  25.806  26.244  1.00  0.00     0.074 A 
ATOM     51  C   UNL A   1      43.549  25.299  26.441  1.00  0.00     0.031 C 
ATOM     52  C   UNL A   1      44.451  31.856  28.436  1.00  0.00     0.029 A 
ATOM     53  C   UNL A   1      45.643  31.187  27.920  1.00  0.00     0.049 A 
ATOM     54  H   UNL A   1      45.766  29.272  27.111  1.00  0.00     0.167 HD
ATOM     55  C   UNL A   1      45.901  25.087  25.709  1.00  0.00     0.031 A 
ATOM     56  C   UNL A   1      46.885  31.711  27.872  1.00  0.00     0.031 A 
ATOM     57  C   UNL A   1      47.233  25.596  25.533  1.00  0.00     0.049 A 
ATOM     58  C   UNL A   1      48.009  30.870  27.322  1.00  0.00     0.074 A 
ATOM     59  C   UNL A   1      48.329  24.962  24.978  1.00  0.00     0.029 A 
ATOM     60  N   UNL A   1      47.650  26.860  25.919  1.00  0.00    -0.354 N 
ATOM     61  N   UNL A   1      47.970  29.643  26.853  1.00  0.00    -0.248 NA
ATOM     62  C   UNL A   1      49.344  31.483  27.291  1.00  0.00     0.031 C 
ATOM     63  C   UNL A   1      49.423  25.826  25.075  1.00  0.00     0.029 A 
ATOM     64  C   UNL A   1      48.994  27.018  25.639  1.00  0.00     0.049 A 
ATOM     65  H   UNL A   1      47.074  27.544  26.332  1.00  0.00     0.167 HD
ATOM     66  C   UNL A   1      49.268  29.350  26.450  1.00  0.00     0.074 A 
ATOM     67  C   UNL A   1      50.065  30.531  26.715  1.00  0.00     0.031 C 
ATOM     68  C   UNL A   1      49.761  28.207  25.911  1.00  0.00     0.031 A 
BRANCH  55  69
ATOM     69  C   UNL A   1      45.611  23.669  25.304  1.00  0.00    -0.014 A 
ATOM     70  C   UNL A   1      46.018  22.588  26.107  1.00  0.00     0.010 A 
ATOM     71  C   UNL A   1      44.882  23.416  24.128  1.00  0.00     0.010 A 
ATOM     72  C   UNL A   1      45.720  21.277  25.729  1.00  0.00     0.020 A 
ATOM     73  C   UNL A   1      44.562  22.107  23.759  1.00  0.00     0.020 A 
ATOM     74  C   UNL A   1      44.992  21.045  24.557  1.00  0.00     0.054 A 
BRANCH  74  75
ATOM     75  S   UNL A   1      44.575  19.335  24.118  1.00  0.00     0.124 S 
ATOM     76  O   UNL A   1      45.677  18.591  24.725  1.00  0.00    -0.237 OA
ATOM     77  O   UNL A   1      43.271  19.151  24.749  1.00  0.00    -0.237 OA
ATOM     78  O   UNL A   1      44.561  19.346  22.657  1.00  0.00    -0.744 OA
ENDBRANCH  74  75
ENDBRANCH  55  69
BRANCH  56  79
ATOM     79  C   UNL A   1      47.143  33.087  28.379  1.00  0.00    -0.014 A 
ATOM     80  C   UNL A   1      46.932  34.206  27.555  1.00  0.00     0.010 A 
ATOM     81  C   UNL A   1      47.627  33.283  29.686  1.00  0.00     0.010 A 
ATOM     82  C   UNL A   1      47.222  35.494  28.019  1.00  0.00     0.020 A 
ATOM     83  C   UNL A   1      47.893  34.570  30.162  1.00  0.00     0.020 A 
ATOM     84  C   UNL A   1      47.703  35.667  29.320  1.00  0.00     0.054 A 
BRANCH  84  85
ATOM     85  S   UNL A   1      48.041  37.348  29.914  1.00  0.00     0.124 S 
ATOM     86  O   UNL A   1      47.009  37.524  30.930  1.00  0.00    -0.237 OA
ATOM     87  O   UNL A   1      49.410  37.236  30.414  1.00  0.00    -0.237 OA
ATOM     88  O   UNL A   1      47.890  38.170  28.715  1.00  0.00    -0.744 OA
ENDBRANCH  84  85
ENDBRANCH  56  79
BRANCH  68  89
ATOM     89  C   UNL A   1      51.219  28.189  25.542  1.00  0.00    -0.014 A 
ATOM     90  C   UNL A   1      52.176  27.604  26.389  1.00  0.00     0.010 A 
ATOM     91  C   UNL A   1      51.626  28.712  24.300  1.00  0.00     0.010 A 
ATOM     92  C   UNL A   1      53.521  27.567  26.013  1.00  0.00     0.020 A 
ATOM     93  C   UNL A   1      52.965  28.652  23.909  1.00  0.00     0.020 A 
ATOM     94  C   UNL A   1      53.907  28.094  24.775  1.00  0.00     0.054 A 
BRANCH  94  95
ATOM     95  S   UNL A   1      55.651  27.996  24.289  1.00  0.00     0.124 S 
ATOM     96  O   UNL A   1      55.726  28.995  23.227  1.00  0.00    -0.237 OA
ATOM     97  O   UNL A   1      56.349  28.338  25.526  1.00  0.00    -0.237 OA
ATOM     98  O   UNL A   1      55.811  26.610  23.855  1.00  0.00    -0.744 OA
ENDBRANCH  94  95
ENDBRANCH  68  89
ENDBRANCH  42  43
ENDBRANCH  35  37
ENDBRANCH  34  35
ENDBRANCH  33  34
ENDBRANCH  32  33
ENDBRANCH   1  32
TORSDOF 21
ENDMDL
