MODEL 1
REMARK VINA RESULT:     -11.3      0.000      0.000
REMARK SMILES O=C(OCCOCCOC(=O)c1cc(S(=O)(=O)Nc2cc(F)ccc2F)cc2c1OCCO2)c1ccc(-c2c3nc(c(-c4ccc(S(=O)(=O)[O-])cc4)c4ccc([nH]4)c(-c4ccc(S(=O)(=O)[O-])cc4)c4nc(c(-c5ccc(S(=O)(=O)[O-])cc5)c5ccc2[nH]5)C=C4)C=C3)cc1
REMARK SMILES IDX 6 1 5 2 4 3 3 4 2 5 1 6 34 7 35 8 93 9 36 10 92 11 37 12
REMARK SMILES IDX 38 13 39 14 86 15 40 16 91 17 85 18 87 19 41 20 90 21 84 22
REMARK SMILES IDX 83 23 42 25 72 26 53 27 71 28 54 29 57 30 70 31 88 32 55 33
REMARK SMILES IDX 56 34 69 36 89 37 58 38 43 39 44 40 52 41 45 42 51 43 46 44
REMARK SMILES IDX 47 45 48 46 49 47 50 48 73 49 74 50 82 51 75 52 81 53 76 54
REMARK SMILES IDX 77 55 78 56 79 57 80 58 59 59 60 60 68 61 61 62 67 63 62 64
REMARK SMILES IDX 63 65 64 66 65 67 66 68 7 69 8 70 9 71 10 72 11 73 12 74
REMARK SMILES IDX 13 75 29 76 14 77 28 78 30 79 27 80 33 81 31 82 32 83 15 84
REMARK SMILES IDX 16 85 17 86 18 87 19 89 20 90 25 91 21 92 24 93 26 94 22 95
REMARK SMILES IDX 23 96
REMARK H PARENT 87 24 57 35 18 88
REMARK Flexibility Score: inf
ROOT
ATOM      1  O   UNL A   1      35.425  31.745  27.639  1.00  0.00    -0.374 OA
ENDROOT
BRANCH   1   2
ATOM      2  C   UNL A   1      35.544  32.675  28.712  1.00  0.00     0.202 C 
BRANCH   2   3
ATOM      3  C   UNL A   1      35.207  32.048  30.061  1.00  0.00     0.261 C 
BRANCH   3   4
ATOM      4  O   UNL A   1      36.408  31.633  30.723  1.00  0.00    -0.460 OA
BRANCH   4   5
ATOM      5  C   UNL A   1      36.901  30.376  30.808  1.00  0.00     0.338 C 
ATOM      6  O   UNL A   1      36.301  29.582  31.533  1.00  0.00    -0.246 OA
BRANCH   5   7
ATOM      7  C   UNL A   1      38.163  29.895  30.143  1.00  0.00     0.060 A 
ATOM      8  C   UNL A   1      38.435  29.894  28.771  1.00  0.00     0.016 A 
ATOM      9  C   UNL A   1      39.213  29.526  31.003  1.00  0.00     0.016 A 
ATOM     10  C   UNL A   1      39.703  29.598  28.270  1.00  0.00     0.010 A 
ATOM     11  C   UNL A   1      40.491  29.232  30.512  1.00  0.00     0.010 A 
ATOM     12  C   UNL A   1      40.744  29.287  29.139  1.00  0.00    -0.014 A 
BRANCH  12  13
ATOM     13  C   UNL A   1      42.086  28.986  28.601  1.00  0.00     0.031 A 
ATOM     14  C   UNL A   1      42.383  27.598  28.127  1.00  0.00     0.074 A 
ATOM     15  C   UNL A   1      43.011  29.961  28.523  1.00  0.00     0.049 A 
ATOM     16  N   UNL A   1      43.510  27.096  27.702  1.00  0.00    -0.248 NA
ATOM     17  C   UNL A   1      41.256  26.651  28.127  1.00  0.00     0.031 C 
ATOM     18  C   UNL A   1      42.793  31.363  28.891  1.00  0.00     0.029 A 
ATOM     19  N   UNL A   1      44.317  29.925  28.110  1.00  0.00    -0.354 N 
ATOM     20  C   UNL A   1      43.240  25.765  27.411  1.00  0.00     0.074 A 
ATOM     21  C   UNL A   1      41.842  25.539  27.709  1.00  0.00     0.031 C 
ATOM     22  C   UNL A   1      43.929  32.051  28.686  1.00  0.00     0.029 A 
ATOM     23  C   UNL A   1      44.966  31.133  28.225  1.00  0.00     0.049 A 
ATOM     24  H   UNL A   1      44.750  29.111  27.763  1.00  0.00     0.167 HD
ATOM     25  C   UNL A   1      44.089  24.817  26.951  1.00  0.00     0.031 A 
ATOM     26  C   UNL A   1      46.258  31.449  28.013  1.00  0.00     0.031 A 
ATOM     27  C   UNL A   1      45.483  25.056  26.692  1.00  0.00     0.049 A 
ATOM     28  C   UNL A   1      47.199  30.360  27.568  1.00  0.00     0.074 A 
ATOM     29  C   UNL A   1      46.446  24.162  26.261  1.00  0.00     0.029 A 
ATOM     30  N   UNL A   1      46.114  26.283  26.850  1.00  0.00    -0.354 N 
ATOM     31  N   UNL A   1      46.937  29.098  27.316  1.00  0.00    -0.248 NA
ATOM     32  C   UNL A   1      48.608  30.731  27.385  1.00  0.00     0.031 C 
ATOM     33  C   UNL A   1      47.670  24.840  26.204  1.00  0.00     0.029 A 
ATOM     34  C   UNL A   1      47.457  26.168  26.544  1.00  0.00     0.049 A 
ATOM     35  H   UNL A   1      45.669  27.113  27.138  1.00  0.00     0.167 HD
ATOM     36  C   UNL A   1      48.144  28.529  26.932  1.00  0.00     0.074 A 
ATOM     37  C   UNL A   1      49.134  29.588  26.964  1.00  0.00     0.031 C 
ATOM     38  C   UNL A   1      48.416  27.245  26.587  1.00  0.00     0.031 A 
BRANCH  25  39
ATOM     39  C   UNL A   1      43.532  23.431  26.780  1.00  0.00    -0.014 A 
ATOM     40  C   UNL A   1      43.069  22.685  27.879  1.00  0.00     0.010 A 
ATOM     41  C   UNL A   1      43.505  22.852  25.498  1.00  0.00     0.010 A 
ATOM     42  C   UNL A   1      42.644  21.365  27.707  1.00  0.00     0.020 A 
ATOM     43  C   UNL A   1      43.057  21.540  25.319  1.00  0.00     0.020 A 
ATOM     44  C   UNL A   1      42.652  20.797  26.430  1.00  0.00     0.054 A 
BRANCH  44  45
ATOM     45  S   UNL A   1      42.124  19.072  26.236  1.00  0.00     0.124 S 
ATOM     46  O   UNL A   1      42.384  18.529  27.568  1.00  0.00    -0.237 OA
ATOM     47  O   UNL A   1      40.714  19.207  25.879  1.00  0.00    -0.237 OA
ATOM     48  O   UNL A   1      42.988  18.561  25.175  1.00  0.00    -0.744 OA
ENDBRANCH  44  45
ENDBRANCH  25  39
BRANCH  26  49
ATOM     49  C   UNL A   1      46.742  32.837  28.263  1.00  0.00    -0.014 A 
ATOM     50  C   UNL A   1      47.299  33.196  29.502  1.00  0.00     0.010 A 
ATOM     51  C   UNL A   1      46.657  33.809  27.249  1.00  0.00     0.010 A 
ATOM     52  C   UNL A   1      47.749  34.503  29.726  1.00  0.00     0.020 A 
ATOM     53  C   UNL A   1      47.131  35.108  27.458  1.00  0.00     0.020 A 
ATOM     54  C   UNL A   1      47.664  35.450  28.701  1.00  0.00     0.054 A 
BRANCH  54  55
ATOM     55  S   UNL A   1      48.303  37.124  28.994  1.00  0.00     0.124 S 
ATOM     56  O   UNL A   1      47.262  37.955  28.398  1.00  0.00    -0.237 OA
ATOM     57  O   UNL A   1      48.399  37.176  30.451  1.00  0.00    -0.237 OA
ATOM     58  O   UNL A   1      49.586  37.127  28.293  1.00  0.00    -0.744 OA
ENDBRANCH  54  55
ENDBRANCH  26  49
BRANCH  38  59
ATOM     59  C   UNL A   1      49.831  26.922  26.192  1.00  0.00    -0.014 A 
ATOM     60  C   UNL A   1      50.730  26.352  27.110  1.00  0.00     0.010 A 
ATOM     61  C   UNL A   1      50.240  27.126  24.862  1.00  0.00     0.010 A 
ATOM     62  C   UNL A   1      52.023  26.010  26.708  1.00  0.00     0.020 A 
ATOM     63  C   UNL A   1      51.524  26.761  24.451  1.00  0.00     0.020 A 
ATOM     64  C   UNL A   1      52.411  26.215  25.380  1.00  0.00     0.054 A 
BRANCH  64  65
ATOM     65  S   UNL A   1      54.074  25.704  24.866  1.00  0.00     0.124 S 
ATOM     66  O   UNL A   1      54.123  26.179  23.485  1.00  0.00    -0.237 OA
ATOM     67  O   UNL A   1      54.934  26.417  25.807  1.00  0.00    -0.237 OA
ATOM     68  O   UNL A   1      54.055  24.253  25.027  1.00  0.00    -0.744 OA
ENDBRANCH  64  65
ENDBRANCH  38  59
ENDBRANCH  12  13
ENDBRANCH   5   7
ENDBRANCH   4   5
ENDBRANCH   3   4
ENDBRANCH   2   3
ENDBRANCH   1   2
BRANCH   1  69
ATOM     69  C   UNL A   1      34.543  30.641  27.876  1.00  0.00     0.202 C 
BRANCH  69  70
ATOM     70  C   UNL A   1      33.197  30.956  27.226  1.00  0.00     0.261 C 
BRANCH  70  71
ATOM     71  O   UNL A   1      33.044  30.089  26.092  1.00  0.00    -0.460 OA
BRANCH  71  72
ATOM     72  C   UNL A   1      32.167  29.058  26.232  1.00  0.00     0.342 C 
ATOM     73  O   UNL A   1      31.492  28.790  27.205  1.00  0.00    -0.246 OA
BRANCH  72  74
ATOM     74  C   UNL A   1      31.951  28.427  24.902  1.00  0.00     0.107 A 
ATOM     75  C   UNL A   1      32.592  27.192  24.666  1.00  0.00     0.042 A 
ATOM     76  C   UNL A   1      31.051  28.946  23.962  1.00  0.00     0.175 A 
ATOM     77  C   UNL A   1      32.279  26.461  23.519  1.00  0.00     0.092 A 
ATOM     78  C   UNL A   1      30.804  28.237  22.782  1.00  0.00     0.163 A 
ATOM     79  O   UNL A   1      30.430  30.144  24.217  1.00  0.00    -0.485 OA
ATOM     80  C   UNL A   1      31.402  26.997  22.567  1.00  0.00     0.072 A 
ATOM     81  O   UNL A   1      29.944  28.668  21.803  1.00  0.00    -0.486 OA
ATOM     82  C   UNL A   1      29.217  30.268  23.474  1.00  0.00     0.271 C 
ATOM     83  C   UNL A   1      29.518  30.022  22.009  1.00  0.00     0.271 C 
BRANCH  77  84
ATOM     84  S   UNL A   1      32.865  24.812  23.194  1.00  0.00     0.262 S 
ATOM     85  O   UNL A   1      31.703  24.045  22.798  1.00  0.00    -0.201 OA
ATOM     86  O   UNL A   1      33.995  24.967  22.302  1.00  0.00    -0.201 OA
BRANCH  84  87
ATOM     87  N   UNL A   1      33.502  24.192  24.595  1.00  0.00    -0.277 N 
ATOM     88  H   UNL A   1      32.912  24.202  25.383  1.00  0.00     0.180 HD
BRANCH  87  89
ATOM     89  C   UNL A   1      34.804  23.648  24.788  1.00  0.00     0.087 A 
ATOM     90  C   UNL A   1      35.856  24.322  25.402  1.00  0.00     0.069 A 
ATOM     91  C   UNL A   1      34.993  22.313  24.400  1.00  0.00     0.147 A 
ATOM     92  C   UNL A   1      37.078  23.669  25.569  1.00  0.00     0.125 A 
ATOM     93  C   UNL A   1      36.218  21.672  24.551  1.00  0.00     0.044 A 
ATOM     94  F   UNL A   1      33.966  21.636  23.862  1.00  0.00    -0.205 F 
ATOM     95  F   UNL A   1      38.088  24.319  26.163  1.00  0.00    -0.207 F 
ATOM     96  C   UNL A   1      37.275  22.361  25.137  1.00  0.00     0.042 A 
ENDBRANCH  87  89
ENDBRANCH  84  87
ENDBRANCH  77  84
ENDBRANCH  72  74
ENDBRANCH  71  72
ENDBRANCH  70  71
ENDBRANCH  69  70
ENDBRANCH   1  69
TORSDOF 20
ENDMDL
MODEL 2
REMARK VINA RESULT:     -11.0      2.806      8.627
REMARK SMILES O=C(OCCOCCOC(=O)c1cc(S(=O)(=O)Nc2cc(F)ccc2F)cc2c1OCCO2)c1ccc(-c2c3nc(c(-c4ccc(S(=O)(=O)[O-])cc4)c4ccc([nH]4)c(-c4ccc(S(=O)(=O)[O-])cc4)c4nc(c(-c5ccc(S(=O)(=O)[O-])cc5)c5ccc2[nH]5)C=C4)C=C3)cc1
REMARK SMILES IDX 6 1 5 2 4 3 3 4 2 5 1 6 34 7 35 8 93 9 36 10 92 11 37 12
REMARK SMILES IDX 38 13 39 14 86 15 40 16 91 17 85 18 87 19 41 20 90 21 84 22
REMARK SMILES IDX 83 23 42 25 72 26 53 27 71 28 54 29 57 30 70 31 88 32 55 33
REMARK SMILES IDX 56 34 69 36 89 37 58 38 43 39 44 40 52 41 45 42 51 43 46 44
REMARK SMILES IDX 47 45 48 46 49 47 50 48 73 49 74 50 82 51 75 52 81 53 76 54
REMARK SMILES IDX 77 55 78 56 79 57 80 58 59 59 60 60 68 61 61 62 67 63 62 64
REMARK SMILES IDX 63 65 64 66 65 67 66 68 7 69 8 70 9 71 10 72 11 73 12 74
REMARK SMILES IDX 13 75 29 76 14 77 28 78 30 79 27 80 33 81 31 82 32 83 15 84
REMARK SMILES IDX 16 85 17 86 18 87 19 89 20 90 25 91 21 92 24 93 26 94 22 95
REMARK SMILES IDX 23 96
REMARK H PARENT 87 24 57 35 18 88
REMARK Flexibility Score: inf
ROOT
ATOM      1  O   UNL A   1      33.641  27.357  25.081  1.00  0.00    -0.374 OA
ENDROOT
BRANCH   1   2
ATOM      2  C   UNL A   1      33.200  27.887  26.329  1.00  0.00     0.202 C 
BRANCH   2   3
ATOM      3  C   UNL A   1      33.187  29.412  26.337  1.00  0.00     0.261 C 
BRANCH   3   4
ATOM      4  O   UNL A   1      33.394  29.897  27.669  1.00  0.00    -0.460 OA
BRANCH   4   5
ATOM      5  C   UNL A   1      34.457  30.598  28.127  1.00  0.00     0.338 C 
ATOM      6  O   UNL A   1      34.273  31.785  28.402  1.00  0.00    -0.246 OA
BRANCH   5   7
ATOM      7  C   UNL A   1      35.857  30.061  28.258  1.00  0.00     0.060 A 
ATOM      8  C   UNL A   1      36.846  30.060  27.269  1.00  0.00     0.016 A 
ATOM      9  C   UNL A   1      36.236  29.632  29.542  1.00  0.00     0.016 A 
ATOM     10  C   UNL A   1      38.167  29.706  27.547  1.00  0.00     0.010 A 
ATOM     11  C   UNL A   1      37.559  29.279  29.834  1.00  0.00     0.010 A 
ATOM     12  C   UNL A   1      38.536  29.334  28.836  1.00  0.00    -0.014 A 
BRANCH  12  13
ATOM     13  C   UNL A   1      39.938  28.972  29.123  1.00  0.00     0.031 A 
ATOM     14  C   UNL A   1      40.839  29.992  29.744  1.00  0.00     0.074 A 
ATOM     15  C   UNL A   1      40.380  27.731  28.845  1.00  0.00     0.049 A 
ATOM     16  N   UNL A   1      42.116  29.917  30.000  1.00  0.00    -0.248 NA
ATOM     17  C   UNL A   1      40.213  31.266  30.134  1.00  0.00     0.031 C 
ATOM     18  C   UNL A   1      39.558  26.642  28.307  1.00  0.00     0.029 A 
ATOM     19  N   UNL A   1      41.626  27.174  28.975  1.00  0.00    -0.354 N 
ATOM     20  C   UNL A   1      42.459  31.144  30.554  1.00  0.00     0.074 A 
ATOM     21  C   UNL A   1      41.253  31.944  30.596  1.00  0.00     0.031 C 
ATOM     22  C   UNL A   1      40.325  25.550  28.154  1.00  0.00     0.029 A 
ATOM     23  C   UNL A   1      41.697  25.873  28.532  1.00  0.00     0.049 A 
ATOM     24  H   UNL A   1      42.395  27.659  29.352  1.00  0.00     0.167 HD
ATOM     25  C   UNL A   1      43.674  31.566  30.974  1.00  0.00     0.031 A 
ATOM     26  C   UNL A   1      42.759  25.053  28.413  1.00  0.00     0.031 A 
ATOM     27  C   UNL A   1      44.865  30.766  30.893  1.00  0.00     0.049 A 
ATOM     28  C   UNL A   1      44.114  25.570  28.824  1.00  0.00     0.074 A 
ATOM     29  C   UNL A   1      46.157  31.102  31.253  1.00  0.00     0.029 A 
ATOM     30  N   UNL A   1      44.908  29.464  30.409  1.00  0.00    -0.354 N 
ATOM     31  N   UNL A   1      44.430  26.740  29.328  1.00  0.00    -0.248 NA
ATOM     32  C   UNL A   1      45.255  24.662  28.645  1.00  0.00     0.031 C 
ATOM     33  C   UNL A   1      46.988  30.020  30.941  1.00  0.00     0.029 A 
ATOM     34  C   UNL A   1      46.206  28.989  30.442  1.00  0.00     0.049 A 
ATOM     35  H   UNL A   1      44.128  28.956  30.088  1.00  0.00     0.167 HD
ATOM     36  C   UNL A   1      45.803  26.705  29.538  1.00  0.00     0.074 A 
ATOM     37  C   UNL A   1      46.254  25.390  29.127  1.00  0.00     0.031 C 
ATOM     38  C   UNL A   1      46.621  27.673  30.023  1.00  0.00     0.031 A 
BRANCH  25  39
ATOM     39  C   UNL A   1      43.764  32.978  31.483  1.00  0.00    -0.014 A 
ATOM     40  C   UNL A   1      43.996  34.058  30.612  1.00  0.00     0.010 A 
ATOM     41  C   UNL A   1      43.651  33.223  32.863  1.00  0.00     0.010 A 
ATOM     42  C   UNL A   1      44.170  35.348  31.118  1.00  0.00     0.020 A 
ATOM     43  C   UNL A   1      43.801  34.517  33.371  1.00  0.00     0.020 A 
ATOM     44  C   UNL A   1      44.084  35.567  32.497  1.00  0.00     0.054 A 
BRANCH  44  45
ATOM     45  S   UNL A   1      44.344  37.246  33.133  1.00  0.00     0.124 S 
ATOM     46  O   UNL A   1      44.727  37.969  31.923  1.00  0.00    -0.237 OA
ATOM     47  O   UNL A   1      43.034  37.588  33.680  1.00  0.00    -0.237 OA
ATOM     48  O   UNL A   1      45.405  37.082  34.123  1.00  0.00    -0.744 OA
ENDBRANCH  44  45
ENDBRANCH  25  39
BRANCH  26  49
ATOM     49  C   UNL A   1      42.592  23.685  27.845  1.00  0.00    -0.014 A 
ATOM     50  C   UNL A   1      42.263  22.595  28.669  1.00  0.00     0.010 A 
ATOM     51  C   UNL A   1      42.753  23.468  26.463  1.00  0.00     0.010 A 
ATOM     52  C   UNL A   1      42.110  21.314  28.124  1.00  0.00     0.020 A 
ATOM     53  C   UNL A   1      42.574  22.196  25.911  1.00  0.00     0.020 A 
ATOM     54  C   UNL A   1      42.264  21.123  26.748  1.00  0.00     0.054 A 
BRANCH  54  55
ATOM     55  S   UNL A   1      42.008  19.465  26.054  1.00  0.00     0.124 S 
ATOM     56  O   UNL A   1      42.835  19.507  24.853  1.00  0.00    -0.237 OA
ATOM     57  O   UNL A   1      42.490  18.596  27.125  1.00  0.00    -0.237 OA
ATOM     58  O   UNL A   1      40.566  19.412  25.822  1.00  0.00    -0.744 OA
ENDBRANCH  54  55
ENDBRANCH  26  49
BRANCH  38  59
ATOM     59  C   UNL A   1      48.081  27.335  30.160  1.00  0.00    -0.014 A 
ATOM     60  C   UNL A   1      48.990  27.609  29.124  1.00  0.00     0.010 A 
ATOM     61  C   UNL A   1      48.555  26.806  31.374  1.00  0.00     0.010 A 
ATOM     62  C   UNL A   1      50.350  27.338  29.293  1.00  0.00     0.020 A 
ATOM     63  C   UNL A   1      49.918  26.558  31.554  1.00  0.00     0.020 A 
ATOM     64  C   UNL A   1      50.805  26.816  30.508  1.00  0.00     0.054 A 
BRANCH  64  65
ATOM     65  S   UNL A   1      52.583  26.532  30.727  1.00  0.00     0.124 S 
ATOM     66  O   UNL A   1      53.007  27.760  31.394  1.00  0.00    -0.237 OA
ATOM     67  O   UNL A   1      52.617  25.325  31.549  1.00  0.00    -0.237 OA
ATOM     68  O   UNL A   1      53.076  26.361  29.362  1.00  0.00    -0.744 OA
ENDBRANCH  64  65
ENDBRANCH  38  59
ENDBRANCH  12  13
ENDBRANCH   5   7
ENDBRANCH   4   5
ENDBRANCH   3   4
ENDBRANCH   2   3
ENDBRANCH   1   2
BRANCH   1  69
ATOM     69  C   UNL A   1      33.816  28.316  24.032  1.00  0.00     0.202 C 
BRANCH  69  70
ATOM     70  C   UNL A   1      34.333  27.584  22.795  1.00  0.00     0.261 C 
BRANCH  70  71
ATOM     71  O   UNL A   1      33.277  27.567  21.822  1.00  0.00    -0.460 OA
BRANCH  71  72
ATOM     72  C   UNL A   1      32.800  26.343  21.467  1.00  0.00     0.342 C 
ATOM     73  O   UNL A   1      33.210  25.619  20.583  1.00  0.00    -0.246 OA
BRANCH  72  74
ATOM     74  C   UNL A   1      31.835  25.886  22.502  1.00  0.00     0.107 A 
ATOM     75  C   UNL A   1      32.207  24.765  23.275  1.00  0.00     0.042 A 
ATOM     76  C   UNL A   1      30.667  26.598  22.807  1.00  0.00     0.175 A 
ATOM     77  C   UNL A   1      31.436  24.405  24.382  1.00  0.00     0.092 A 
ATOM     78  C   UNL A   1      29.866  26.180  23.875  1.00  0.00     0.163 A 
ATOM     79  O   UNL A   1      30.331  27.692  22.049  1.00  0.00    -0.485 OA
ATOM     80  C   UNL A   1      30.254  25.101  24.666  1.00  0.00     0.072 A 
ATOM     81  O   UNL A   1      28.705  26.810  24.245  1.00  0.00    -0.486 OA
ATOM     82  C   UNL A   1      29.468  28.575  22.767  1.00  0.00     0.271 C 
ATOM     83  C   UNL A   1      28.282  27.783  23.280  1.00  0.00     0.271 C 
BRANCH  77  84
ATOM     84  S   UNL A   1      31.893  23.140  25.548  1.00  0.00     0.262 S 
ATOM     85  O   UNL A   1      32.634  23.808  26.596  1.00  0.00    -0.201 OA
ATOM     86  O   UNL A   1      30.671  22.420  25.843  1.00  0.00    -0.201 OA
BRANCH  84  87
ATOM     87  N   UNL A   1      32.867  22.039  24.778  1.00  0.00    -0.277 N 
ATOM     88  H   UNL A   1      32.410  21.285  24.341  1.00  0.00     0.180 HD
BRANCH  87  89
ATOM     89  C   UNL A   1      34.287  22.062  24.676  1.00  0.00     0.087 A 
ATOM     90  C   UNL A   1      34.991  22.648  23.628  1.00  0.00     0.069 A 
ATOM     91  C   UNL A   1      35.006  21.525  25.754  1.00  0.00     0.147 A 
ATOM     92  C   UNL A   1      36.387  22.642  23.656  1.00  0.00     0.125 A 
ATOM     93  C   UNL A   1      36.397  21.503  25.770  1.00  0.00     0.044 A 
ATOM     94  F   UNL A   1      34.334  21.012  26.797  1.00  0.00    -0.205 F 
ATOM     95  F   UNL A   1      37.062  23.208  22.648  1.00  0.00    -0.207 F 
ATOM     96  C   UNL A   1      37.095  22.063  24.705  1.00  0.00     0.042 A 
ENDBRANCH  87  89
ENDBRANCH  84  87
ENDBRANCH  77  84
ENDBRANCH  72  74
ENDBRANCH  71  72
ENDBRANCH  70  71
ENDBRANCH  69  70
ENDBRANCH   1  69
TORSDOF 20
ENDMDL
MODEL 3
REMARK VINA RESULT:     -10.6      1.219      8.077
REMARK SMILES O=C(OCCOCCOC(=O)c1cc(S(=O)(=O)Nc2cc(F)ccc2F)cc2c1OCCO2)c1ccc(-c2c3nc(c(-c4ccc(S(=O)(=O)[O-])cc4)c4ccc([nH]4)c(-c4ccc(S(=O)(=O)[O-])cc4)c4nc(c(-c5ccc(S(=O)(=O)[O-])cc5)c5ccc2[nH]5)C=C4)C=C3)cc1
REMARK SMILES IDX 6 1 5 2 4 3 3 4 2 5 1 6 34 7 35 8 93 9 36 10 92 11 37 12
REMARK SMILES IDX 38 13 39 14 86 15 40 16 91 17 85 18 87 19 41 20 90 21 84 22
REMARK SMILES IDX 83 23 42 25 72 26 53 27 71 28 54 29 57 30 70 31 88 32 55 33
REMARK SMILES IDX 56 34 69 36 89 37 58 38 43 39 44 40 52 41 45 42 51 43 46 44
REMARK SMILES IDX 47 45 48 46 49 47 50 48 73 49 74 50 82 51 75 52 81 53 76 54
REMARK SMILES IDX 77 55 78 56 79 57 80 58 59 59 60 60 68 61 61 62 67 63 62 64
REMARK SMILES IDX 63 65 64 66 65 67 66 68 7 69 8 70 9 71 10 72 11 73 12 74
REMARK SMILES IDX 13 75 29 76 14 77 28 78 30 79 27 80 33 81 31 82 32 83 15 84
REMARK SMILES IDX 16 85 17 86 18 87 19 89 20 90 25 91 21 92 24 93 26 94 22 95
REMARK SMILES IDX 23 96
REMARK H PARENT 87 24 57 35 18 88
REMARK Flexibility Score: inf
ROOT
ATOM      1  O   UNL A   1      34.618  30.842  27.303  1.00  0.00    -0.374 OA
ENDROOT
BRANCH   1   2
ATOM      2  C   UNL A   1      34.816  32.154  27.823  1.00  0.00     0.202 C 
BRANCH   2   3
ATOM      3  C   UNL A   1      34.987  32.155  29.339  1.00  0.00     0.261 C 
BRANCH   3   4
ATOM      4  O   UNL A   1      35.635  30.948  29.759  1.00  0.00    -0.460 OA
BRANCH   4   5
ATOM      5  C   UNL A   1      36.632  30.830  30.666  1.00  0.00     0.338 C 
ATOM      6  O   UNL A   1      36.344  31.019  31.848  1.00  0.00    -0.246 OA
BRANCH   5   7
ATOM      7  C   UNL A   1      38.074  30.555  30.336  1.00  0.00     0.060 A 
ATOM      8  C   UNL A   1      39.097  30.265  31.243  1.00  0.00     0.016 A 
ATOM      9  C   UNL A   1      38.388  30.463  28.968  1.00  0.00     0.016 A 
ATOM     10  C   UNL A   1      40.361  29.847  30.823  1.00  0.00     0.010 A 
ATOM     11  C   UNL A   1      39.650  30.039  28.534  1.00  0.00     0.010 A 
ATOM     12  C   UNL A   1      40.637  29.710  29.466  1.00  0.00    -0.014 A 
BRANCH  12  13
ATOM     13  C   UNL A   1      41.973  29.255  29.031  1.00  0.00     0.031 A 
ATOM     14  C   UNL A   1      43.100  30.239  28.999  1.00  0.00     0.074 A 
ATOM     15  C   UNL A   1      42.164  27.967  28.690  1.00  0.00     0.049 A 
ATOM     16  N   UNL A   1      44.322  30.079  28.573  1.00  0.00    -0.248 NA
ATOM     17  C   UNL A   1      42.810  31.583  29.527  1.00  0.00     0.031 C 
ATOM     18  C   UNL A   1      41.146  26.915  28.759  1.00  0.00     0.029 A 
ATOM     19  N   UNL A   1      43.279  27.321  28.220  1.00  0.00    -0.354 N 
ATOM     20  C   UNL A   1      44.944  31.308  28.749  1.00  0.00     0.074 A 
ATOM     21  C   UNL A   1      43.962  32.204  29.322  1.00  0.00     0.031 C 
ATOM     22  C   UNL A   1      41.685  25.756  28.345  1.00  0.00     0.029 A 
ATOM     23  C   UNL A   1      43.066  25.993  27.934  1.00  0.00     0.049 A 
ATOM     24  H   UNL A   1      44.149  27.767  28.100  1.00  0.00     0.167 HD
ATOM     25  C   UNL A   1      46.216  31.658  28.445  1.00  0.00     0.031 A 
ATOM     26  C   UNL A   1      43.885  25.083  27.371  1.00  0.00     0.031 A 
ATOM     27  C   UNL A   1      47.165  30.760  27.846  1.00  0.00     0.049 A 
ATOM     28  C   UNL A   1      45.274  25.515  26.978  1.00  0.00     0.074 A 
ATOM     29  C   UNL A   1      48.468  31.014  27.460  1.00  0.00     0.029 A 
ATOM     30  N   UNL A   1      46.907  29.430  27.540  1.00  0.00    -0.354 N 
ATOM     31  N   UNL A   1      45.845  26.687  27.131  1.00  0.00    -0.248 NA
ATOM     32  C   UNL A   1      46.126  24.508  26.332  1.00  0.00     0.031 C 
ATOM     33  C   UNL A   1      48.981  29.850  26.876  1.00  0.00     0.029 A 
ATOM     34  C   UNL A   1      48.018  28.855  26.952  1.00  0.00     0.049 A 
ATOM     35  H   UNL A   1      46.056  28.966  27.715  1.00  0.00     0.167 HD
ATOM     36  C   UNL A   1      47.127  26.556  26.612  1.00  0.00     0.074 A 
ATOM     37  C   UNL A   1      47.255  25.184  26.161  1.00  0.00     0.031 C 
ATOM     38  C   UNL A   1      48.111  27.484  26.512  1.00  0.00     0.031 A 
BRANCH  25  39
ATOM     39  C   UNL A   1      46.605  33.089  28.693  1.00  0.00    -0.014 A 
ATOM     40  C   UNL A   1      47.131  33.502  29.930  1.00  0.00     0.010 A 
ATOM     41  C   UNL A   1      46.406  34.043  27.679  1.00  0.00     0.010 A 
ATOM     42  C   UNL A   1      47.396  34.853  30.168  1.00  0.00     0.020 A 
ATOM     43  C   UNL A   1      46.694  35.393  27.905  1.00  0.00     0.020 A 
ATOM     44  C   UNL A   1      47.164  35.792  29.158  1.00  0.00     0.054 A 
BRANCH  44  45
ATOM     45  S   UNL A   1      47.488  37.544  29.500  1.00  0.00     0.124 S 
ATOM     46  O   UNL A   1      46.586  38.204  28.558  1.00  0.00    -0.237 OA
ATOM     47  O   UNL A   1      47.122  37.668  30.909  1.00  0.00    -0.237 OA
ATOM     48  O   UNL A   1      48.911  37.697  29.213  1.00  0.00    -0.744 OA
ENDBRANCH  44  45
ENDBRANCH  25  39
BRANCH  26  49
ATOM     49  C   UNL A   1      43.401  23.698  27.107  1.00  0.00    -0.014 A 
ATOM     50  C   UNL A   1      43.305  22.755  28.144  1.00  0.00     0.010 A 
ATOM     51  C   UNL A   1      43.020  23.317  25.806  1.00  0.00     0.010 A 
ATOM     52  C   UNL A   1      42.851  21.456  27.884  1.00  0.00     0.020 A 
ATOM     53  C   UNL A   1      42.539  22.030  25.546  1.00  0.00     0.020 A 
ATOM     54  C   UNL A   1      42.469  21.103  26.587  1.00  0.00     0.054 A 
BRANCH  54  55
ATOM     55  S   UNL A   1      41.831  19.431  26.281  1.00  0.00     0.124 S 
ATOM     56  O   UNL A   1      40.391  19.663  26.213  1.00  0.00    -0.237 OA
ATOM     57  O   UNL A   1      42.475  19.071  25.020  1.00  0.00    -0.237 OA
ATOM     58  O   UNL A   1      42.289  18.674  27.444  1.00  0.00    -0.744 OA
ENDBRANCH  54  55
ENDBRANCH  26  49
BRANCH  38  59
ATOM     59  C   UNL A   1      49.419  27.040  25.917  1.00  0.00    -0.014 A 
ATOM     60  C   UNL A   1      49.707  27.250  24.557  1.00  0.00     0.010 A 
ATOM     61  C   UNL A   1      50.400  26.473  26.750  1.00  0.00     0.010 A 
ATOM     62  C   UNL A   1      50.949  26.879  24.036  1.00  0.00     0.020 A 
ATOM     63  C   UNL A   1      51.651  26.125  26.238  1.00  0.00     0.020 A 
ATOM     64  C   UNL A   1      51.914  26.321  24.881  1.00  0.00     0.054 A 
BRANCH  64  65
ATOM     65  S   UNL A   1      53.542  25.906  24.196  1.00  0.00     0.124 S 
ATOM     66  O   UNL A   1      53.764  24.566  24.733  1.00  0.00    -0.237 OA
ATOM     67  O   UNL A   1      53.311  25.975  22.755  1.00  0.00    -0.237 OA
ATOM     68  O   UNL A   1      54.417  26.947  24.730  1.00  0.00    -0.744 OA
ENDBRANCH  64  65
ENDBRANCH  38  59
ENDBRANCH  12  13
ENDBRANCH   5   7
ENDBRANCH   4   5
ENDBRANCH   3   4
ENDBRANCH   2   3
ENDBRANCH   1   2
BRANCH   1  69
ATOM     69  C   UNL A   1      33.264  30.378  27.301  1.00  0.00     0.202 C 
BRANCH  69  70
ATOM     70  C   UNL A   1      32.800  30.259  25.850  1.00  0.00     0.261 C 
BRANCH  70  71
ATOM     71  O   UNL A   1      33.571  29.220  25.227  1.00  0.00    -0.460 OA
BRANCH  71  72
ATOM     72  C   UNL A   1      33.264  28.931  23.934  1.00  0.00     0.342 C 
ATOM     73  O   UNL A   1      33.867  29.276  22.937  1.00  0.00    -0.246 OA
BRANCH  72  74
ATOM     74  C   UNL A   1      32.200  27.892  23.913  1.00  0.00     0.107 A 
ATOM     75  C   UNL A   1      32.557  26.598  24.348  1.00  0.00     0.042 A 
ATOM     76  C   UNL A   1      30.865  28.191  23.611  1.00  0.00     0.175 A 
ATOM     77  C   UNL A   1      31.564  25.634  24.532  1.00  0.00     0.092 A 
ATOM     78  C   UNL A   1      29.892  27.193  23.729  1.00  0.00     0.163 A 
ATOM     79  O   UNL A   1      30.537  29.461  23.201  1.00  0.00    -0.485 OA
ATOM     80  C   UNL A   1      30.235  25.928  24.200  1.00  0.00     0.072 A 
ATOM     81  O   UNL A   1      28.563  27.391  23.451  1.00  0.00    -0.486 OA
ATOM     82  C   UNL A   1      29.157  29.742  23.437  1.00  0.00     0.271 C 
ATOM     83  C   UNL A   1      28.323  28.647  22.803  1.00  0.00     0.271 C 
BRANCH  77  84
ATOM     84  S   UNL A   1      31.849  24.032  25.253  1.00  0.00     0.262 S 
ATOM     85  O   UNL A   1      32.652  24.261  26.435  1.00  0.00    -0.201 OA
ATOM     86  O   UNL A   1      30.546  23.407  25.346  1.00  0.00    -0.201 OA
BRANCH  84  87
ATOM     87  N   UNL A   1      32.695  23.106  24.166  1.00  0.00    -0.277 N 
ATOM     88  H   UNL A   1      32.455  23.221  23.218  1.00  0.00     0.180 HD
BRANCH  87  89
ATOM     89  C   UNL A   1      33.728  22.167  24.446  1.00  0.00     0.087 A 
ATOM     90  C   UNL A   1      33.540  20.789  24.518  1.00  0.00     0.069 A 
ATOM     91  C   UNL A   1      35.028  22.678  24.575  1.00  0.00     0.147 A 
ATOM     92  C   UNL A   1      34.639  19.964  24.762  1.00  0.00     0.125 A 
ATOM     93  C   UNL A   1      36.118  21.854  24.838  1.00  0.00     0.044 A 
ATOM     94  F   UNL A   1      35.226  24.000  24.447  1.00  0.00    -0.205 F 
ATOM     95  F   UNL A   1      34.457  18.639  24.828  1.00  0.00    -0.207 F 
ATOM     96  C   UNL A   1      35.919  20.481  24.939  1.00  0.00     0.042 A 
ENDBRANCH  87  89
ENDBRANCH  84  87
ENDBRANCH  77  84
ENDBRANCH  72  74
ENDBRANCH  71  72
ENDBRANCH  70  71
ENDBRANCH  69  70
ENDBRANCH   1  69
TORSDOF 20
ENDMDL
