MODEL 1
REMARK VINA RESULT:     -11.9      0.000      0.000
REMARK SMILES C[C@@]1(Oc2c[nH]c3ccc(Br)c(Cl)c23)O[C@@H](C(=O)OCCOCCOC(=O)c2ccc(-c3c4nc(c(-c5ccc(S(=O)(=O)[O-])cc5)c5ccc([nH]5)c(-c5ccc(S(=O)(=O)[O-])cc5)c5nc(c(-c6ccc(S(=O)(=O)[O-])cc6)c6ccc3[nH]6)C=C5)C=C4)cc2)[C@@](C)(O)[C@@](C)(O)[C@@]1(C)O
REMARK SMILES IDX 23 1 22 2 21 3 20 4 19 5 17 6 18 7 16 8 1 9 2 10 15 11 94 12
REMARK SMILES IDX 91 13 95 14 88 15 92 16 89 17 3 18 4 19 5 20 14 21 6 22 7 23
REMARK SMILES IDX 12 24 8 26 10 27 13 28 9 29 11 30 96 31 93 33 90 35 24 37
REMARK SMILES IDX 25 38 26 39 27 40 28 41 29 42 87 43 30 44 86 45 31 46 32 47
REMARK SMILES IDX 33 48 80 49 34 50 85 51 79 52 81 53 35 54 84 55 78 56 77 57
REMARK SMILES IDX 36 59 66 60 47 61 65 62 48 63 51 64 64 65 82 66 49 67 50 68
REMARK SMILES IDX 63 70 83 71 52 72 37 73 38 74 46 75 39 76 45 77 40 78 41 79
REMARK SMILES IDX 42 80 43 81 44 82 67 83 68 84 76 85 69 86 75 87 70 88 71 89
REMARK SMILES IDX 72 90 73 91 74 92 53 93 54 94 62 95 55 96 61 97 56 98 57 99
REMARK SMILES IDX 58 100 59 101 60 102
REMARK H PARENT 6 25 96 32 93 34 90 36 81 58 51 69
REMARK Flexibility Score: inf
ROOT
ATOM      1  C   UNL A   1      36.328  21.213  25.553  1.00  0.00     0.202 C 
ENDROOT
BRANCH   1   2
ATOM      2  O   UNL A   1      35.385  22.128  25.003  1.00  0.00    -0.374 OA
BRANCH   2   3
ATOM      3  C   UNL A   1      35.583  22.574  23.661  1.00  0.00     0.202 C 
BRANCH   3   4
ATOM      4  C   UNL A   1      35.548  24.082  23.449  1.00  0.00     0.261 C 
BRANCH   4   5
ATOM      5  O   UNL A   1      34.606  24.434  22.416  1.00  0.00    -0.461 OA
BRANCH   5   6
ATOM      6  C   UNL A   1      33.883  25.565  22.570  1.00  0.00     0.338 C 
ATOM      7  O   UNL A   1      33.697  26.389  21.679  1.00  0.00    -0.249 OA
BRANCH   6   8
ATOM      8  C   UNL A   1      33.355  25.770  24.010  1.00  0.00     0.266 C 
ATOM      9  C   UNL A   1      31.192  23.922  22.788  1.00  0.00     0.094 C 
ATOM     10  C   UNL A   1      31.314  24.420  24.244  1.00  0.00     0.240 C 
ATOM     11  O   UNL A   1      32.696  24.653  24.583  1.00  0.00    -0.320 OA
ATOM     12  C   UNL A   1      30.441  25.734  24.534  1.00  0.00     0.158 C 
ATOM     13  C   UNL A   1      31.141  27.057  24.048  1.00  0.00     0.128 C 
ATOM     14  C   UNL A   1      30.067  25.830  26.013  1.00  0.00     0.053 C 
ATOM     15  C   UNL A   1      32.667  27.113  24.366  1.00  0.00     0.130 C 
ATOM     16  C   UNL A   1      30.416  28.344  24.508  1.00  0.00     0.049 C 
ATOM     17  C   UNL A   1      32.953  27.494  25.840  1.00  0.00     0.049 C 
BRANCH  10  18
ATOM     18  O   UNL A   1      30.753  23.256  24.968  1.00  0.00    -0.457 OA
BRANCH  18  19
ATOM     19  C   UNL A   1      31.629  22.506  25.676  1.00  0.00     0.150 A 
ATOM     20  C   UNL A   1      32.032  22.745  26.970  1.00  0.00     0.130 A 
ATOM     21  C   UNL A   1      32.267  21.316  25.225  1.00  0.00     0.061 A 
ATOM     22  N   UNL A   1      32.720  21.633  27.386  1.00  0.00    -0.358 N 
ATOM     23  C   UNL A   1      32.727  20.684  26.385  1.00  0.00     0.051 A 
ATOM     24  C   UNL A   1      32.364  20.613  24.008  1.00  0.00     0.068 A 
ATOM     25  H   UNL A   1      33.145  21.528  28.267  1.00  0.00     0.166 HD
ATOM     26  C   UNL A   1      33.091  19.333  26.407  1.00  0.00     0.028 A 
ATOM     27  C   UNL A   1      32.574  19.234  24.030  1.00  0.00     0.037 A 
ATOM     28  Cl  UNL A   1      32.251  21.559  22.580  1.00  0.00    -0.082 Cl
ATOM     29  C   UNL A   1      32.914  18.601  25.225  1.00  0.00     0.019 A 
ATOM     30  Br  UNL A   1      32.297  18.157  22.492  1.00  0.00    -0.049 Br
ENDBRANCH  18  19
ENDBRANCH  10  18
BRANCH  12  31
ATOM     31  O   UNL A   1      29.168  25.644  23.843  1.00  0.00    -0.380 OA
ATOM     32  H   UNL A   1      29.269  25.092  23.052  1.00  0.00     0.211 HD
ENDBRANCH  12  31
BRANCH  13  33
ATOM     33  O   UNL A   1      30.962  27.088  22.610  1.00  0.00    -0.384 OA
ATOM     34  H   UNL A   1      31.408  27.869  22.246  1.00  0.00     0.211 HD
ENDBRANCH  13  33
BRANCH  15  35
ATOM     35  O   UNL A   1      33.241  28.193  23.603  1.00  0.00    -0.384 OA
ATOM     36  H   UNL A   1      33.141  29.024  24.094  1.00  0.00     0.211 HD
ENDBRANCH  15  35
ENDBRANCH   6   8
ENDBRANCH   5   6
ENDBRANCH   4   5
ENDBRANCH   3   4
ENDBRANCH   2   3
ENDBRANCH   1   2
BRANCH   1  37
ATOM     37  C   UNL A   1      37.645  21.059  24.802  1.00  0.00     0.261 C 
BRANCH  37  38
ATOM     38  O   UNL A   1      38.760  21.334  25.640  1.00  0.00    -0.460 OA
BRANCH  38  39
ATOM     39  C   UNL A   1      39.658  20.317  25.717  1.00  0.00     0.338 C 
ATOM     40  O   UNL A   1      39.464  19.148  25.456  1.00  0.00    -0.246 OA
BRANCH  39  41
ATOM     41  C   UNL A   1      40.886  20.825  26.345  1.00  0.00     0.060 A 
ATOM     42  C   UNL A   1      40.942  20.703  27.730  1.00  0.00     0.016 A 
ATOM     43  C   UNL A   1      41.613  21.801  25.654  1.00  0.00     0.016 A 
ATOM     44  C   UNL A   1      41.435  21.776  28.433  1.00  0.00     0.010 A 
ATOM     45  C   UNL A   1      42.073  22.880  26.346  1.00  0.00     0.010 A 
ATOM     46  C   UNL A   1      41.867  22.896  27.716  1.00  0.00    -0.014 A 
BRANCH  46  47
ATOM     47  C   UNL A   1      42.246  24.078  28.442  1.00  0.00     0.031 A 
ATOM     48  C   UNL A   1      41.350  25.198  28.110  1.00  0.00     0.074 A 
ATOM     49  C   UNL A   1      43.226  24.097  29.362  1.00  0.00     0.049 A 
ATOM     50  N   UNL A   1      41.587  26.138  27.259  1.00  0.00    -0.248 NA
ATOM     51  C   UNL A   1      39.944  25.110  28.546  1.00  0.00     0.031 C 
ATOM     52  C   UNL A   1      43.976  22.990  29.960  1.00  0.00     0.029 A 
ATOM     53  N   UNL A   1      43.707  25.173  30.025  1.00  0.00    -0.354 N 
ATOM     54  C   UNL A   1      40.434  26.903  27.247  1.00  0.00     0.074 A 
ATOM     55  C   UNL A   1      39.396  26.091  27.832  1.00  0.00     0.031 C 
ATOM     56  C   UNL A   1      44.636  23.442  31.056  1.00  0.00     0.029 A 
ATOM     57  C   UNL A   1      44.472  24.884  31.147  1.00  0.00     0.049 A 
ATOM     58  H   UNL A   1      43.528  26.096  29.734  1.00  0.00     0.167 HD
ATOM     59  C   UNL A   1      40.486  28.249  27.070  1.00  0.00     0.031 A 
ATOM     60  C   UNL A   1      44.862  25.787  32.087  1.00  0.00     0.031 A 
ATOM     61  C   UNL A   1      41.769  28.674  26.573  1.00  0.00     0.049 A 
ATOM     62  C   UNL A   1      44.769  27.127  31.439  1.00  0.00     0.074 A 
ATOM     63  C   UNL A   1      42.494  28.413  25.427  1.00  0.00     0.029 A 
ATOM     64  N   UNL A   1      42.673  29.127  27.507  1.00  0.00    -0.354 N 
ATOM     65  N   UNL A   1      45.518  27.487  30.431  1.00  0.00    -0.248 NA
ATOM     66  C   UNL A   1      43.523  27.866  31.583  1.00  0.00     0.031 C 
ATOM     67  C   UNL A   1      43.845  28.287  25.865  1.00  0.00     0.029 A 
ATOM     68  C   UNL A   1      43.889  28.550  27.237  1.00  0.00     0.049 A 
ATOM     69  H   UNL A   1      42.482  29.754  28.242  1.00  0.00     0.167 HD
ATOM     70  C   UNL A   1      44.667  28.186  29.584  1.00  0.00     0.074 A 
ATOM     71  C   UNL A   1      43.469  28.448  30.381  1.00  0.00     0.031 C 
ATOM     72  C   UNL A   1      44.889  28.234  28.237  1.00  0.00     0.031 A 
BRANCH  59  73
ATOM     73  C   UNL A   1      39.534  29.174  27.768  1.00  0.00    -0.014 A 
ATOM     74  C   UNL A   1      39.785  29.548  29.097  1.00  0.00     0.010 A 
ATOM     75  C   UNL A   1      38.264  29.492  27.234  1.00  0.00     0.010 A 
ATOM     76  C   UNL A   1      38.801  30.192  29.857  1.00  0.00     0.020 A 
ATOM     77  C   UNL A   1      37.297  30.175  27.964  1.00  0.00     0.020 A 
ATOM     78  C   UNL A   1      37.565  30.501  29.283  1.00  0.00     0.054 A 
BRANCH  78  79
ATOM     79  S   UNL A   1      36.274  31.254  30.301  1.00  0.00     0.124 S 
ATOM     80  O   UNL A   1      36.030  30.216  31.298  1.00  0.00    -0.237 OA
ATOM     81  O   UNL A   1      36.936  32.460  30.786  1.00  0.00    -0.237 OA
ATOM     82  O   UNL A   1      35.182  31.482  29.357  1.00  0.00    -0.744 OA
ENDBRANCH  78  79
ENDBRANCH  59  73
BRANCH  60  83
ATOM     83  C   UNL A   1      44.881  25.629  33.570  1.00  0.00    -0.014 A 
ATOM     84  C   UNL A   1      45.696  26.460  34.368  1.00  0.00     0.010 A 
ATOM     85  C   UNL A   1      43.881  24.884  34.228  1.00  0.00     0.010 A 
ATOM     86  C   UNL A   1      45.458  26.613  35.746  1.00  0.00     0.020 A 
ATOM     87  C   UNL A   1      43.642  25.025  35.603  1.00  0.00     0.020 A 
ATOM     88  C   UNL A   1      44.408  25.918  36.349  1.00  0.00     0.054 A 
BRANCH  88  89
ATOM     89  S   UNL A   1      43.984  26.265  38.084  1.00  0.00     0.124 S 
ATOM     90  O   UNL A   1      44.653  25.181  38.797  1.00  0.00    -0.237 OA
ATOM     91  O   UNL A   1      44.550  27.596  38.282  1.00  0.00    -0.237 OA
ATOM     92  O   UNL A   1      42.523  26.206  38.100  1.00  0.00    -0.744 OA
ENDBRANCH  88  89
ENDBRANCH  60  83
BRANCH  72  93
ATOM     93  C   UNL A   1      46.217  27.738  27.709  1.00  0.00    -0.014 A 
ATOM     94  C   UNL A   1      47.347  28.560  27.512  1.00  0.00     0.010 A 
ATOM     95  C   UNL A   1      46.372  26.346  27.594  1.00  0.00     0.010 A 
ATOM     96  C   UNL A   1      48.600  27.992  27.212  1.00  0.00     0.020 A 
ATOM     97  C   UNL A   1      47.615  25.778  27.311  1.00  0.00     0.020 A 
ATOM     98  C   UNL A   1      48.725  26.602  27.126  1.00  0.00     0.054 A 
BRANCH  98  99
ATOM     99  S   UNL A   1      50.352  25.860  26.800  1.00  0.00     0.124 S 
ATOM    100  O   UNL A   1      50.221  24.525  27.378  1.00  0.00    -0.237 OA
ATOM    101  O   UNL A   1      50.438  25.909  25.342  1.00  0.00    -0.237 OA
ATOM    102  O   UNL A   1      51.286  26.743  27.499  1.00  0.00    -0.744 OA
ENDBRANCH  98  99
ENDBRANCH  72  93
ENDBRANCH  46  47
ENDBRANCH  39  41
ENDBRANCH  38  39
ENDBRANCH  37  38
ENDBRANCH   1  37
TORSDOF 22
ENDMDL
MODEL 2
REMARK VINA RESULT:     -11.6      3.217      6.933
REMARK SMILES C[C@@]1(Oc2c[nH]c3ccc(Br)c(Cl)c23)O[C@@H](C(=O)OCCOCCOC(=O)c2ccc(-c3c4nc(c(-c5ccc(S(=O)(=O)[O-])cc5)c5ccc([nH]5)c(-c5ccc(S(=O)(=O)[O-])cc5)c5nc(c(-c6ccc(S(=O)(=O)[O-])cc6)c6ccc3[nH]6)C=C5)C=C4)cc2)[C@@](C)(O)[C@@](C)(O)[C@@]1(C)O
REMARK SMILES IDX 23 1 22 2 21 3 20 4 19 5 17 6 18 7 16 8 1 9 2 10 15 11 94 12
REMARK SMILES IDX 91 13 95 14 88 15 92 16 89 17 3 18 4 19 5 20 14 21 6 22 7 23
REMARK SMILES IDX 12 24 8 26 10 27 13 28 9 29 11 30 96 31 93 33 90 35 24 37
REMARK SMILES IDX 25 38 26 39 27 40 28 41 29 42 87 43 30 44 86 45 31 46 32 47
REMARK SMILES IDX 33 48 80 49 34 50 85 51 79 52 81 53 35 54 84 55 78 56 77 57
REMARK SMILES IDX 36 59 66 60 47 61 65 62 48 63 51 64 64 65 82 66 49 67 50 68
REMARK SMILES IDX 63 70 83 71 52 72 37 73 38 74 46 75 39 76 45 77 40 78 41 79
REMARK SMILES IDX 42 80 43 81 44 82 67 83 68 84 76 85 69 86 75 87 70 88 71 89
REMARK SMILES IDX 72 90 73 91 74 92 53 93 54 94 62 95 55 96 61 97 56 98 57 99
REMARK SMILES IDX 58 100 59 101 60 102
REMARK H PARENT 6 25 96 32 93 34 90 36 81 58 51 69
REMARK Flexibility Score: inf
ROOT
ATOM      1  C   UNL A   1      37.215  21.470  25.275  1.00  0.00     0.202 C 
ENDROOT
BRANCH   1   2
ATOM      2  O   UNL A   1      36.985  22.014  23.978  1.00  0.00    -0.374 OA
BRANCH   2   3
ATOM      3  C   UNL A   1      35.690  22.545  23.690  1.00  0.00     0.202 C 
BRANCH   3   4
ATOM      4  C   UNL A   1      35.629  24.045  23.431  1.00  0.00     0.261 C 
BRANCH   4   5
ATOM      5  O   UNL A   1      34.647  24.352  22.423  1.00  0.00    -0.461 OA
BRANCH   5   6
ATOM      6  C   UNL A   1      33.903  25.470  22.575  1.00  0.00     0.338 C 
ATOM      7  O   UNL A   1      33.669  26.269  21.673  1.00  0.00    -0.249 OA
BRANCH   6   8
ATOM      8  C   UNL A   1      33.418  25.697  24.027  1.00  0.00     0.266 C 
ATOM      9  C   UNL A   1      31.194  23.872  22.883  1.00  0.00     0.094 C 
ATOM     10  C   UNL A   1      31.364  24.381  24.331  1.00  0.00     0.240 C 
ATOM     11  O   UNL A   1      32.758  24.595  24.629  1.00  0.00    -0.320 OA
ATOM     12  C   UNL A   1      30.519  25.711  24.632  1.00  0.00     0.158 C 
ATOM     13  C   UNL A   1      31.226  27.019  24.113  1.00  0.00     0.128 C 
ATOM     14  C   UNL A   1      30.188  25.827  26.119  1.00  0.00     0.053 C 
ATOM     15  C   UNL A   1      32.761  27.053  24.389  1.00  0.00     0.130 C 
ATOM     16  C   UNL A   1      30.534  28.321  24.580  1.00  0.00     0.049 C 
ATOM     17  C   UNL A   1      33.094  27.444  25.850  1.00  0.00     0.049 C 
BRANCH  10  18
ATOM     18  O   UNL A   1      30.805  23.232  25.081  1.00  0.00    -0.457 OA
BRANCH  18  19
ATOM     19  C   UNL A   1      31.689  22.475  25.771  1.00  0.00     0.150 A 
ATOM     20  C   UNL A   1      32.106  22.699  27.063  1.00  0.00     0.130 A 
ATOM     21  C   UNL A   1      32.323  21.291  25.298  1.00  0.00     0.061 A 
ATOM     22  N   UNL A   1      32.798  21.582  27.458  1.00  0.00    -0.358 N 
ATOM     23  C   UNL A   1      32.794  20.645  26.446  1.00  0.00     0.051 A 
ATOM     24  C   UNL A   1      32.407  20.602  24.072  1.00  0.00     0.068 A 
ATOM     25  H   UNL A   1      33.233  21.467  28.334  1.00  0.00     0.166 HD
ATOM     26  C   UNL A   1      33.160  19.295  26.448  1.00  0.00     0.028 A 
ATOM     27  C   UNL A   1      32.617  19.223  24.075  1.00  0.00     0.037 A 
ATOM     28  Cl  UNL A   1      32.278  21.565  22.657  1.00  0.00    -0.082 Cl
ATOM     29  C   UNL A   1      32.971  18.576  25.259  1.00  0.00     0.019 A 
ATOM     30  Br  UNL A   1      32.325  18.165  22.527  1.00  0.00    -0.049 Br
ENDBRANCH  18  19
ENDBRANCH  10  18
BRANCH  12  31
ATOM     31  O   UNL A   1      29.227  25.635  23.976  1.00  0.00    -0.380 OA
ATOM     32  H   UNL A   1      29.060  24.722  23.697  1.00  0.00     0.211 HD
ENDBRANCH  12  31
BRANCH  13  33
ATOM     33  O   UNL A   1      31.008  27.039  22.681  1.00  0.00    -0.384 OA
ATOM     34  H   UNL A   1      31.711  26.536  22.240  1.00  0.00     0.211 HD
ENDBRANCH  13  33
BRANCH  15  35
ATOM     35  O   UNL A   1      33.331  28.117  23.600  1.00  0.00    -0.384 OA
ATOM     36  H   UNL A   1      34.151  27.807  23.185  1.00  0.00     0.211 HD
ENDBRANCH  15  35
ENDBRANCH   6   8
ENDBRANCH   5   6
ENDBRANCH   4   5
ENDBRANCH   3   4
ENDBRANCH   2   3
ENDBRANCH   1   2
BRANCH   1  37
ATOM     37  C   UNL A   1      38.653  21.494  25.777  1.00  0.00     0.261 C 
BRANCH  37  38
ATOM     38  O   UNL A   1      38.975  22.740  26.383  1.00  0.00    -0.460 OA
BRANCH  38  39
ATOM     39  C   UNL A   1      40.091  22.706  27.156  1.00  0.00     0.338 C 
ATOM     40  O   UNL A   1      40.410  21.840  27.944  1.00  0.00    -0.246 OA
BRANCH  39  41
ATOM     41  C   UNL A   1      40.790  23.992  27.023  1.00  0.00     0.060 A 
ATOM     42  C   UNL A   1      41.874  24.173  27.878  1.00  0.00     0.016 A 
ATOM     43  C   UNL A   1      40.073  25.069  26.493  1.00  0.00     0.016 A 
ATOM     44  C   UNL A   1      42.001  25.404  28.475  1.00  0.00     0.010 A 
ATOM     45  C   UNL A   1      40.174  26.282  27.106  1.00  0.00     0.010 A 
ATOM     46  C   UNL A   1      41.058  26.390  28.168  1.00  0.00    -0.014 A 
BRANCH  46  47
ATOM     47  C   UNL A   1      41.092  27.630  28.895  1.00  0.00     0.031 A 
ATOM     48  C   UNL A   1      42.184  28.487  28.403  1.00  0.00     0.074 A 
ATOM     49  C   UNL A   1      40.179  27.968  29.822  1.00  0.00     0.049 A 
ATOM     50  N   UNL A   1      43.353  28.613  28.935  1.00  0.00    -0.248 NA
ATOM     51  C   UNL A   1      42.071  29.033  27.039  1.00  0.00     0.031 C 
ATOM     52  C   UNL A   1      38.914  27.319  30.176  1.00  0.00     0.029 A 
ATOM     53  N   UNL A   1      40.181  29.064  30.613  1.00  0.00    -0.354 N 
ATOM     54  C   UNL A   1      44.037  29.463  28.084  1.00  0.00     0.074 A 
ATOM     55  C   UNL A   1      43.315  29.466  26.837  1.00  0.00     0.031 C 
ATOM     56  C   UNL A   1      38.177  28.168  30.935  1.00  0.00     0.029 A 
ATOM     57  C   UNL A   1      38.973  29.348  31.236  1.00  0.00     0.049 A 
ATOM     58  H   UNL A   1      40.982  29.623  30.739  1.00  0.00     0.167 HD
ATOM     59  C   UNL A   1      44.946  30.353  28.563  1.00  0.00     0.031 A 
ATOM     60  C   UNL A   1      38.675  30.507  31.883  1.00  0.00     0.031 A 
ATOM     61  C   UNL A   1      45.326  30.053  29.918  1.00  0.00     0.049 A 
ATOM     62  C   UNL A   1      39.981  31.139  32.227  1.00  0.00     0.074 A 
ATOM     63  C   UNL A   1      45.933  28.976  30.535  1.00  0.00     0.029 A 
ATOM     64  N   UNL A   1      44.668  30.744  30.910  1.00  0.00    -0.354 N 
ATOM     65  N   UNL A   1      40.835  30.607  33.060  1.00  0.00    -0.248 NA
ATOM     66  C   UNL A   1      40.547  32.088  31.277  1.00  0.00     0.031 C 
ATOM     67  C   UNL A   1      45.242  28.819  31.771  1.00  0.00     0.029 A 
ATOM     68  C   UNL A   1      44.302  29.846  31.883  1.00  0.00     0.049 A 
ATOM     69  H   UNL A   1      44.490  31.712  30.921  1.00  0.00     0.167 HD
ATOM     70  C   UNL A   1      42.081  30.821  32.483  1.00  0.00     0.074 A 
ATOM     71  C   UNL A   1      41.845  31.801  31.423  1.00  0.00     0.031 C 
ATOM     72  C   UNL A   1      43.127  29.977  32.722  1.00  0.00     0.031 A 
BRANCH  59  73
ATOM     73  C   UNL A   1      45.122  31.709  27.946  1.00  0.00    -0.014 A 
ATOM     74  C   UNL A   1      46.379  32.080  27.444  1.00  0.00     0.010 A 
ATOM     75  C   UNL A   1      44.147  32.725  28.068  1.00  0.00     0.010 A 
ATOM     76  C   UNL A   1      46.648  33.410  27.099  1.00  0.00     0.020 A 
ATOM     77  C   UNL A   1      44.387  34.040  27.684  1.00  0.00     0.020 A 
ATOM     78  C   UNL A   1      45.648  34.380  27.221  1.00  0.00     0.054 A 
BRANCH  78  79
ATOM     79  S   UNL A   1      46.034  36.107  26.857  1.00  0.00     0.124 S 
ATOM     80  O   UNL A   1      47.011  35.979  25.780  1.00  0.00    -0.237 OA
ATOM     81  O   UNL A   1      44.728  36.634  26.472  1.00  0.00    -0.237 OA
ATOM     82  O   UNL A   1      46.560  36.616  28.121  1.00  0.00    -0.744 OA
ENDBRANCH  78  79
ENDBRANCH  59  73
BRANCH  60  83
ATOM     83  C   UNL A   1      37.408  31.293  31.837  1.00  0.00    -0.014 A 
ATOM     84  C   UNL A   1      36.635  31.473  33.004  1.00  0.00     0.010 A 
ATOM     85  C   UNL A   1      37.114  32.121  30.735  1.00  0.00     0.010 A 
ATOM     86  C   UNL A   1      35.678  32.501  33.096  1.00  0.00     0.020 A 
ATOM     87  C   UNL A   1      36.156  33.143  30.816  1.00  0.00     0.020 A 
ATOM     88  C   UNL A   1      35.469  33.352  32.010  1.00  0.00     0.054 A 
BRANCH  88  89
ATOM     89  S   UNL A   1      34.374  34.793  32.199  1.00  0.00     0.124 S 
ATOM     90  O   UNL A   1      33.253  34.242  32.954  1.00  0.00    -0.237 OA
ATOM     91  O   UNL A   1      35.223  35.734  32.925  1.00  0.00    -0.237 OA
ATOM     92  O   UNL A   1      34.065  35.175  30.822  1.00  0.00    -0.744 OA
ENDBRANCH  88  89
ENDBRANCH  60  83
BRANCH  72  93
ATOM     93  C   UNL A   1      42.990  28.956  33.829  1.00  0.00    -0.014 A 
ATOM     94  C   UNL A   1      43.400  29.172  35.161  1.00  0.00     0.010 A 
ATOM     95  C   UNL A   1      42.237  27.805  33.538  1.00  0.00     0.010 A 
ATOM     96  C   UNL A   1      43.055  28.257  36.173  1.00  0.00     0.020 A 
ATOM     97  C   UNL A   1      41.880  26.902  34.540  1.00  0.00     0.020 A 
ATOM     98  C   UNL A   1      42.287  27.132  35.854  1.00  0.00     0.054 A 
BRANCH  98  99
ATOM     99  S   UNL A   1      41.787  25.979  37.167  1.00  0.00     0.124 S 
ATOM    100  O   UNL A   1      42.782  26.222  38.208  1.00  0.00    -0.237 OA
ATOM    101  O   UNL A   1      40.429  26.420  37.479  1.00  0.00    -0.237 OA
ATOM    102  O   UNL A   1      41.873  24.665  36.530  1.00  0.00    -0.744 OA
ENDBRANCH  98  99
ENDBRANCH  72  93
ENDBRANCH  46  47
ENDBRANCH  39  41
ENDBRANCH  38  39
ENDBRANCH  37  38
ENDBRANCH   1  37
TORSDOF 22
ENDMDL
MODEL 3
REMARK VINA RESULT:     -11.4      2.230      4.090
REMARK SMILES C[C@@]1(Oc2c[nH]c3ccc(Br)c(Cl)c23)O[C@@H](C(=O)OCCOCCOC(=O)c2ccc(-c3c4nc(c(-c5ccc(S(=O)(=O)[O-])cc5)c5ccc([nH]5)c(-c5ccc(S(=O)(=O)[O-])cc5)c5nc(c(-c6ccc(S(=O)(=O)[O-])cc6)c6ccc3[nH]6)C=C5)C=C4)cc2)[C@@](C)(O)[C@@](C)(O)[C@@]1(C)O
REMARK SMILES IDX 23 1 22 2 21 3 20 4 19 5 17 6 18 7 16 8 1 9 2 10 15 11 94 12
REMARK SMILES IDX 91 13 95 14 88 15 92 16 89 17 3 18 4 19 5 20 14 21 6 22 7 23
REMARK SMILES IDX 12 24 8 26 10 27 13 28 9 29 11 30 96 31 93 33 90 35 24 37
REMARK SMILES IDX 25 38 26 39 27 40 28 41 29 42 87 43 30 44 86 45 31 46 32 47
REMARK SMILES IDX 33 48 80 49 34 50 85 51 79 52 81 53 35 54 84 55 78 56 77 57
REMARK SMILES IDX 36 59 66 60 47 61 65 62 48 63 51 64 64 65 82 66 49 67 50 68
REMARK SMILES IDX 63 70 83 71 52 72 37 73 38 74 46 75 39 76 45 77 40 78 41 79
REMARK SMILES IDX 42 80 43 81 44 82 67 83 68 84 76 85 69 86 75 87 70 88 71 89
REMARK SMILES IDX 72 90 73 91 74 92 53 93 54 94 62 95 55 96 61 97 56 98 57 99
REMARK SMILES IDX 58 100 59 101 60 102
REMARK H PARENT 6 25 96 32 93 34 90 36 81 58 51 69
REMARK Flexibility Score: inf
ROOT
ATOM      1  C   UNL A   1      36.286  21.748  25.845  1.00  0.00     0.202 C 
ENDROOT
BRANCH   1   2
ATOM      2  O   UNL A   1      35.091  21.014  26.094  1.00  0.00    -0.374 OA
BRANCH   2   3
ATOM      3  C   UNL A   1      34.221  21.475  27.129  1.00  0.00     0.202 C 
BRANCH   3   4
ATOM      4  C   UNL A   1      34.188  22.981  27.350  1.00  0.00     0.261 C 
BRANCH   4   5
ATOM      5  O   UNL A   1      32.855  23.497  27.173  1.00  0.00    -0.461 OA
BRANCH   5   6
ATOM      6  C   UNL A   1      32.370  23.599  25.916  1.00  0.00     0.338 C 
ATOM      7  O   UNL A   1      31.253  23.220  25.577  1.00  0.00    -0.249 OA
BRANCH   6   8
ATOM      8  C   UNL A   1      33.387  24.185  24.907  1.00  0.00     0.266 C 
ATOM      9  C   UNL A   1      30.912  25.987  24.444  1.00  0.00     0.094 C 
ATOM     10  C   UNL A   1      32.318  26.112  23.818  1.00  0.00     0.240 C 
ATOM     11  O   UNL A   1      33.317  25.588  24.715  1.00  0.00    -0.320 OA
ATOM     12  C   UNL A   1      32.431  25.404  22.383  1.00  0.00     0.158 C 
ATOM     13  C   UNL A   1      32.639  23.847  22.481  1.00  0.00     0.128 C 
ATOM     14  C   UNL A   1      33.532  26.046  21.540  1.00  0.00     0.053 C 
ATOM     15  C   UNL A   1      33.653  23.417  23.587  1.00  0.00     0.130 C 
ATOM     16  C   UNL A   1      32.962  23.181  21.122  1.00  0.00     0.049 C 
ATOM     17  C   UNL A   1      35.126  23.593  23.144  1.00  0.00     0.049 C 
BRANCH  10  18
ATOM     18  O   UNL A   1      32.413  27.584  23.678  1.00  0.00    -0.457 OA
BRANCH  18  19
ATOM     19  C   UNL A   1      32.262  28.309  24.810  1.00  0.00     0.150 A 
ATOM     20  C   UNL A   1      32.992  28.159  25.967  1.00  0.00     0.130 A 
ATOM     21  C   UNL A   1      31.344  29.381  25.000  1.00  0.00     0.061 A 
ATOM     22  N   UNL A   1      32.696  29.232  26.768  1.00  0.00    -0.358 N 
ATOM     23  C   UNL A   1      31.817  30.074  26.119  1.00  0.00     0.051 A 
ATOM     24  C   UNL A   1      30.279  29.949  24.273  1.00  0.00     0.068 A 
ATOM     25  H   UNL A   1      33.058  29.380  27.671  1.00  0.00     0.166 HD
ATOM     26  C   UNL A   1      31.408  31.378  26.419  1.00  0.00     0.028 A 
ATOM     27  C   UNL A   1      29.968  31.296  24.458  1.00  0.00     0.037 A 
ATOM     28  Cl  UNL A   1      29.424  28.884  23.233  1.00  0.00    -0.082 Cl
ATOM     29  C   UNL A   1      30.545  32.006  25.511  1.00  0.00     0.019 A 
ATOM     30  Br  UNL A   1      28.858  32.240  23.241  1.00  0.00    -0.049 Br
ENDBRANCH  18  19
ENDBRANCH  10  18
BRANCH  12  31
ATOM     31  O   UNL A   1      31.215  25.626  21.625  1.00  0.00    -0.380 OA
ATOM     32  H   UNL A   1      30.957  24.804  21.179  1.00  0.00     0.211 HD
ENDBRANCH  12  31
BRANCH  13  33
ATOM     33  O   UNL A   1      31.337  23.299  22.802  1.00  0.00    -0.384 OA
ATOM     34  H   UNL A   1      30.684  23.620  22.160  1.00  0.00     0.211 HD
ENDBRANCH  13  33
BRANCH  15  35
ATOM     35  O   UNL A   1      33.511  21.997  23.791  1.00  0.00    -0.384 OA
ATOM     36  H   UNL A   1      32.743  21.674  23.295  1.00  0.00     0.211 HD
ENDBRANCH  15  35
ENDBRANCH   6   8
ENDBRANCH   5   6
ENDBRANCH   4   5
ENDBRANCH   3   4
ENDBRANCH   2   3
ENDBRANCH   1   2
BRANCH   1  37
ATOM     37  C   UNL A   1      37.426  20.986  25.180  1.00  0.00     0.261 C 
BRANCH  37  38
ATOM     38  O   UNL A   1      38.693  21.407  25.673  1.00  0.00    -0.460 OA
BRANCH  38  39
ATOM     39  C   UNL A   1      39.625  20.420  25.713  1.00  0.00     0.338 C 
ATOM     40  O   UNL A   1      39.466  19.250  25.433  1.00  0.00    -0.246 OA
BRANCH  39  41
ATOM     41  C   UNL A   1      40.848  20.957  26.328  1.00  0.00     0.060 A 
ATOM     42  C   UNL A   1      40.934  20.812  27.709  1.00  0.00     0.016 A 
ATOM     43  C   UNL A   1      41.528  21.968  25.642  1.00  0.00     0.016 A 
ATOM     44  C   UNL A   1      41.405  21.888  28.423  1.00  0.00     0.010 A 
ATOM     45  C   UNL A   1      41.965  23.050  26.345  1.00  0.00     0.010 A 
ATOM     46  C   UNL A   1      41.785  23.035  27.719  1.00  0.00    -0.014 A 
BRANCH  46  47
ATOM     47  C   UNL A   1      42.138  24.215  28.460  1.00  0.00     0.031 A 
ATOM     48  C   UNL A   1      41.173  25.296  28.201  1.00  0.00     0.074 A 
ATOM     49  C   UNL A   1      43.159  24.261  29.333  1.00  0.00     0.049 A 
ATOM     50  N   UNL A   1      41.322  26.268  27.366  1.00  0.00    -0.248 NA
ATOM     51  C   UNL A   1      39.796  25.125  28.699  1.00  0.00     0.031 C 
ATOM     52  C   UNL A   1      43.991  23.179  29.865  1.00  0.00     0.029 A 
ATOM     53  N   UNL A   1      43.617  25.343  30.004  1.00  0.00    -0.354 N 
ATOM     54  C   UNL A   1      40.133  26.974  27.429  1.00  0.00     0.074 A 
ATOM     55  C   UNL A   1      39.166  26.095  28.038  1.00  0.00     0.031 C 
ATOM     56  C   UNL A   1      44.679  23.635  30.942  1.00  0.00     0.029 A 
ATOM     57  C   UNL A   1      44.447  25.065  31.081  1.00  0.00     0.049 A 
ATOM     58  H   UNL A   1      43.378  26.263  29.747  1.00  0.00     0.167 HD
ATOM     59  C   UNL A   1      40.110  28.325  27.288  1.00  0.00     0.031 A 
ATOM     60  C   UNL A   1      44.836  25.962  32.027  1.00  0.00     0.031 A 
ATOM     61  C   UNL A   1      41.344  28.828  26.745  1.00  0.00     0.049 A 
ATOM     62  C   UNL A   1      44.646  27.312  31.422  1.00  0.00     0.074 A 
ATOM     63  C   UNL A   1      42.027  28.633  25.560  1.00  0.00     0.029 A 
ATOM     64  N   UNL A   1      42.268  29.302  27.649  1.00  0.00    -0.354 N 
ATOM     65  N   UNL A   1      45.327  27.735  30.391  1.00  0.00    -0.248 NA
ATOM     66  C   UNL A   1      43.372  27.982  31.644  1.00  0.00     0.031 C 
ATOM     67  C   UNL A   1      43.402  28.566  25.931  1.00  0.00     0.029 A 
ATOM     68  C   UNL A   1      43.497  28.795  27.306  1.00  0.00     0.049 A 
ATOM     69  H   UNL A   1      42.081  29.899  28.408  1.00  0.00     0.167 HD
ATOM     70  C   UNL A   1      44.403  28.411  29.604  1.00  0.00     0.074 A 
ATOM     71  C   UNL A   1      43.232  28.591  30.462  1.00  0.00     0.031 C 
ATOM     72  C   UNL A   1      44.558  28.505  28.250  1.00  0.00     0.031 A 
BRANCH  59  73
ATOM     73  C   UNL A   1      39.146  29.181  28.055  1.00  0.00    -0.014 A 
ATOM     74  C   UNL A   1      37.949  29.586  27.446  1.00  0.00     0.010 A 
ATOM     75  C   UNL A   1      39.497  29.805  29.274  1.00  0.00     0.010 A 
ATOM     76  C   UNL A   1      37.153  30.583  28.025  1.00  0.00     0.020 A 
ATOM     77  C   UNL A   1      38.691  30.761  29.883  1.00  0.00     0.020 A 
ATOM     78  C   UNL A   1      37.531  31.161  29.240  1.00  0.00     0.054 A 
BRANCH  78  79
ATOM     79  S   UNL A   1      36.542  32.507  29.931  1.00  0.00     0.124 S 
ATOM     80  O   UNL A   1      35.241  31.868  30.108  1.00  0.00    -0.237 OA
ATOM     81  O   UNL A   1      37.269  32.818  31.157  1.00  0.00    -0.237 OA
ATOM     82  O   UNL A   1      36.596  33.539  28.898  1.00  0.00    -0.744 OA
ENDBRANCH  78  79
ENDBRANCH  59  73
BRANCH  60  83
ATOM     83  C   UNL A   1      44.933  25.767  33.503  1.00  0.00    -0.014 A 
ATOM     84  C   UNL A   1      45.856  26.514  34.264  1.00  0.00     0.010 A 
ATOM     85  C   UNL A   1      43.920  25.084  34.207  1.00  0.00     0.010 A 
ATOM     86  C   UNL A   1      45.715  26.652  35.657  1.00  0.00     0.020 A 
ATOM     87  C   UNL A   1      43.777  25.209  35.597  1.00  0.00     0.020 A 
ATOM     88  C   UNL A   1      44.654  26.023  36.311  1.00  0.00     0.054 A 
BRANCH  88  89
ATOM     89  S   UNL A   1      44.364  26.359  38.075  1.00  0.00     0.124 S 
ATOM     90  O   UNL A   1      45.154  27.566  38.302  1.00  0.00    -0.237 OA
ATOM     91  O   UNL A   1      42.916  26.532  38.125  1.00  0.00    -0.237 OA
ATOM     92  O   UNL A   1      44.866  25.158  38.742  1.00  0.00    -0.744 OA
ENDBRANCH  88  89
ENDBRANCH  60  83
BRANCH  72  93
ATOM     93  C   UNL A   1      45.883  28.092  27.647  1.00  0.00    -0.014 A 
ATOM     94  C   UNL A   1      46.203  26.772  27.267  1.00  0.00     0.010 A 
ATOM     95  C   UNL A   1      46.759  29.127  27.278  1.00  0.00     0.010 A 
ATOM     96  C   UNL A   1      47.371  26.504  26.529  1.00  0.00     0.020 A 
ATOM     97  C   UNL A   1      47.911  28.869  26.535  1.00  0.00     0.020 A 
ATOM     98  C   UNL A   1      48.211  27.559  26.159  1.00  0.00     0.054 A 
BRANCH  98  99
ATOM     99  S   UNL A   1      49.689  27.227  25.155  1.00  0.00     0.124 S 
ATOM    100  O   UNL A   1      49.124  26.726  23.904  1.00  0.00    -0.237 OA
ATOM    101  O   UNL A   1      50.323  28.541  25.077  1.00  0.00    -0.237 OA
ATOM    102  O   UNL A   1      50.427  26.235  25.936  1.00  0.00    -0.744 OA
ENDBRANCH  98  99
ENDBRANCH  72  93
ENDBRANCH  46  47
ENDBRANCH  39  41
ENDBRANCH  38  39
ENDBRANCH  37  38
ENDBRANCH   1  37
TORSDOF 22
ENDMDL
