MODEL 1
REMARK VINA RESULT:     -10.7      0.000      0.000
REMARK SMILES O=C(C[C@@H](NC(=O)c1cc(-c2ccc(F)cc2)on1)c1cccc(Br)c1)OCCOCCOC(=O)c1ccc(-c2c3nc(c(-c4ccc(S(=O)(=O)[O-])cc4)c4ccc([nH]4)c(-c4ccc(S(=O)(=O)[O-])cc4)c4nc(c(-c5ccc(S(=O)(=O)[O-])cc5)c5ccc2[nH]5)C=C4)C=C3)cc1
REMARK SMILES IDX 29 1 28 2 27 3 2 4 1 5 3 6 4 7 5 8 6 9 7 11 8 12 9 13 19 14
REMARK SMILES IDX 10 15 18 16 11 17 12 18 17 19 13 20 16 21 14 22 15 23 20 24
REMARK SMILES IDX 21 25 26 26 22 27 24 28 23 29 25 30 30 31 31 32 32 33 33 34
REMARK SMILES IDX 34 35 35 36 36 37 37 38 95 39 38 40 94 41 39 42 40 43 41 44
REMARK SMILES IDX 88 45 42 46 93 47 87 48 89 49 43 50 92 51 86 52 85 53 44 55
REMARK SMILES IDX 74 56 55 57 73 58 56 59 59 60 72 61 90 62 57 63 58 64 71 66
REMARK SMILES IDX 91 67 60 68 45 69 46 70 54 71 47 72 53 73 48 74 49 75 50 76
REMARK SMILES IDX 51 77 52 78 75 79 76 80 84 81 77 82 83 83 78 84 79 85 80 86
REMARK SMILES IDX 81 87 82 88 61 89 62 90 70 91 63 92 69 93 64 94 65 95 66 96
REMARK SMILES IDX 67 97 68 98
REMARK H PARENT 5 10 89 54 59 65
REMARK Flexibility Score: inf
ROOT
ATOM      1  C   UNL A   1      34.603  20.108  25.108  1.00  0.00     0.202 C 
ENDROOT
BRANCH   1   2
ATOM      2  C   UNL A   1      33.314  20.334  24.295  1.00  0.00     0.261 C 
BRANCH   2   3
ATOM      3  O   UNL A   1      32.948  21.673  23.931  1.00  0.00    -0.463 OA
BRANCH   3   4
ATOM      4  C   UNL A   1      32.170  21.941  22.857  1.00  0.00     0.308 C 
ATOM      5  O   UNL A   1      31.875  21.067  22.049  1.00  0.00    -0.252 OA
BRANCH   4   6
ATOM      6  C   UNL A   1      31.889  23.385  22.573  1.00  0.00     0.152 C 
BRANCH   6   7
ATOM      7  C   UNL A   1      30.753  24.060  23.344  1.00  0.00     0.124 C 
BRANCH   7   8
ATOM      8  N   UNL A   1      30.545  23.549  24.707  1.00  0.00    -0.343 N 
ATOM      9  C   UNL A   1      31.129  23.708  25.945  1.00  0.00     0.273 C 
ATOM     10  H   UNL A   1      29.785  22.925  24.745  1.00  0.00     0.164 HD
ATOM     11  O   UNL A   1      30.753  22.944  26.836  1.00  0.00    -0.267 OA
BRANCH   9  12
ATOM     12  C   UNL A   1      32.033  24.806  26.229  1.00  0.00     0.171 A 
ATOM     13  C   UNL A   1      31.655  26.073  26.739  1.00  0.00     0.088 A 
ATOM     14  N   UNL A   1      33.363  24.727  26.080  1.00  0.00    -0.074 NA
ATOM     15  C   UNL A   1      32.797  26.833  26.645  1.00  0.00     0.167 A 
ATOM     16  O   UNL A   1      33.839  26.009  26.331  1.00  0.00    -0.355 OA
BRANCH  15  17
ATOM     17  C   UNL A   1      33.027  28.275  26.568  1.00  0.00     0.020 A 
ATOM     18  C   UNL A   1      34.265  28.798  26.983  1.00  0.00     0.015 A 
ATOM     19  C   UNL A   1      31.959  29.163  26.356  1.00  0.00     0.015 A 
ATOM     20  C   UNL A   1      34.390  30.148  27.321  1.00  0.00     0.040 A 
ATOM     21  C   UNL A   1      32.087  30.515  26.691  1.00  0.00     0.040 A 
ATOM     22  C   UNL A   1      33.289  30.984  27.207  1.00  0.00     0.123 A 
ATOM     23  F   UNL A   1      33.374  32.248  27.642  1.00  0.00    -0.207 F 
ENDBRANCH  15  17
ENDBRANCH   9  12
ENDBRANCH   7   8
BRANCH   7  24
ATOM     24  C   UNL A   1      30.841  25.572  23.211  1.00  0.00    -0.024 A 
ATOM     25  C   UNL A   1      29.670  26.333  23.313  1.00  0.00     0.006 A 
ATOM     26  C   UNL A   1      32.058  26.246  22.971  1.00  0.00     0.021 A 
ATOM     27  C   UNL A   1      29.713  27.721  23.174  1.00  0.00     0.002 A 
ATOM     28  C   UNL A   1      32.091  27.630  22.822  1.00  0.00     0.018 A 
ATOM     29  C   UNL A   1      30.921  28.370  22.920  1.00  0.00     0.016 A 
ATOM     30  Br  UNL A   1      33.735  28.504  22.491  1.00  0.00    -0.051 Br
ENDBRANCH   7  24
ENDBRANCH   6   7
ENDBRANCH   4   6
ENDBRANCH   3   4
ENDBRANCH   2   3
ENDBRANCH   1   2
BRANCH   1  31
ATOM     31  O   UNL A   1      35.857  20.581  24.648  1.00  0.00    -0.374 OA
BRANCH  31  32
ATOM     32  C   UNL A   1      36.434  21.746  25.229  1.00  0.00     0.202 C 
BRANCH  32  33
ATOM     33  C   UNL A   1      37.953  21.812  25.231  1.00  0.00     0.261 C 
BRANCH  33  34
ATOM     34  O   UNL A   1      38.421  22.309  26.489  1.00  0.00    -0.460 OA
BRANCH  34  35
ATOM     35  C   UNL A   1      39.674  22.815  26.471  1.00  0.00     0.338 C 
ATOM     36  O   UNL A   1      40.674  22.309  25.981  1.00  0.00    -0.246 OA
BRANCH  35  37
ATOM     37  C   UNL A   1      39.619  24.202  26.949  1.00  0.00     0.060 A 
ATOM     38  C   UNL A   1      40.229  25.193  26.166  1.00  0.00     0.016 A 
ATOM     39  C   UNL A   1      39.014  24.517  28.167  1.00  0.00     0.016 A 
ATOM     40  C   UNL A   1      40.315  26.493  26.644  1.00  0.00     0.010 A 
ATOM     41  C   UNL A   1      39.114  25.816  28.654  1.00  0.00     0.010 A 
ATOM     42  C   UNL A   1      39.824  26.782  27.921  1.00  0.00    -0.014 A 
BRANCH  42  43
ATOM     43  C   UNL A   1      40.308  27.997  28.604  1.00  0.00     0.031 A 
ATOM     44  C   UNL A   1      41.754  28.032  29.019  1.00  0.00     0.074 A 
ATOM     45  C   UNL A   1      39.495  29.044  28.812  1.00  0.00     0.049 A 
ATOM     46  N   UNL A   1      42.414  28.966  29.647  1.00  0.00    -0.248 NA
ATOM     47  C   UNL A   1      42.562  26.843  28.685  1.00  0.00     0.031 C 
ATOM     48  C   UNL A   1      38.098  29.128  28.392  1.00  0.00     0.029 A 
ATOM     49  N   UNL A   1      39.740  30.242  29.426  1.00  0.00    -0.354 N 
ATOM     50  C   UNL A   1      43.704  28.470  29.804  1.00  0.00     0.074 A 
ATOM     51  C   UNL A   1      43.726  27.142  29.238  1.00  0.00     0.031 C 
ATOM     52  C   UNL A   1      37.606  30.323  28.761  1.00  0.00     0.029 A 
ATOM     53  C   UNL A   1      38.644  31.066  29.471  1.00  0.00     0.049 A 
ATOM     54  H   UNL A   1      40.617  30.487  29.801  1.00  0.00     0.167 HD
ATOM     55  C   UNL A   1      44.776  29.073  30.370  1.00  0.00     0.031 A 
ATOM     56  C   UNL A   1      38.503  32.281  30.036  1.00  0.00     0.031 A 
ATOM     57  C   UNL A   1      44.731  30.392  30.939  1.00  0.00     0.049 A 
ATOM     58  C   UNL A   1      39.692  32.907  30.715  1.00  0.00     0.074 A 
ATOM     59  C   UNL A   1      45.754  31.115  31.522  1.00  0.00     0.029 A 
ATOM     60  N   UNL A   1      43.592  31.184  31.002  1.00  0.00    -0.354 N 
ATOM     61  N   UNL A   1      40.911  32.439  30.846  1.00  0.00    -0.248 NA
ATOM     62  C   UNL A   1      39.488  34.234  31.308  1.00  0.00     0.031 C 
ATOM     63  C   UNL A   1      45.219  32.315  32.000  1.00  0.00     0.029 A 
ATOM     64  C   UNL A   1      43.880  32.376  31.640  1.00  0.00     0.049 A 
ATOM     65  H   UNL A   1      42.709  30.933  30.645  1.00  0.00     0.167 HD
ATOM     66  C   UNL A   1      41.634  33.434  31.497  1.00  0.00     0.074 A 
ATOM     67  C   UNL A   1      40.712  34.529  31.727  1.00  0.00     0.031 C 
ATOM     68  C   UNL A   1      42.942  33.450  31.860  1.00  0.00     0.031 A 
BRANCH  55  69
ATOM     69  C   UNL A   1      46.056  28.281  30.450  1.00  0.00    -0.014 A 
ATOM     70  C   UNL A   1      46.940  28.187  29.358  1.00  0.00     0.010 A 
ATOM     71  C   UNL A   1      46.377  27.614  31.646  1.00  0.00     0.010 A 
ATOM     72  C   UNL A   1      48.091  27.397  29.444  1.00  0.00     0.020 A 
ATOM     73  C   UNL A   1      47.545  26.852  31.748  1.00  0.00     0.020 A 
ATOM     74  C   UNL A   1      48.383  26.731  30.638  1.00  0.00     0.054 A 
BRANCH  74  75
ATOM     75  S   UNL A   1      49.885  25.717  30.726  1.00  0.00     0.124 S 
ATOM     76  O   UNL A   1      49.916  25.110  29.396  1.00  0.00    -0.237 OA
ATOM     77  O   UNL A   1      50.925  26.708  30.988  1.00  0.00    -0.237 OA
ATOM     78  O   UNL A   1      49.616  24.792  31.824  1.00  0.00    -0.744 OA
ENDBRANCH  74  75
ENDBRANCH  55  69
BRANCH  56  79
ATOM     79  C   UNL A   1      37.194  32.983  29.962  1.00  0.00    -0.014 A 
ATOM     80  C   UNL A   1      36.300  32.941  31.046  1.00  0.00     0.010 A 
ATOM     81  C   UNL A   1      36.842  33.718  28.814  1.00  0.00     0.010 A 
ATOM     82  C   UNL A   1      35.076  33.613  30.981  1.00  0.00     0.020 A 
ATOM     83  C   UNL A   1      35.632  34.414  28.756  1.00  0.00     0.020 A 
ATOM     84  C   UNL A   1      34.752  34.351  29.839  1.00  0.00     0.054 A 
BRANCH  84  85
ATOM     85  S   UNL A   1      33.187  35.266  29.807  1.00  0.00     0.124 S 
ATOM     86  O   UNL A   1      32.501  34.657  28.671  1.00  0.00    -0.237 OA
ATOM     87  O   UNL A   1      32.623  34.968  31.122  1.00  0.00    -0.237 OA
ATOM     88  O   UNL A   1      33.603  36.653  29.616  1.00  0.00    -0.744 OA
ENDBRANCH  84  85
ENDBRANCH  56  79
BRANCH  68  89
ATOM     89  C   UNL A   1      43.470  34.715  32.487  1.00  0.00    -0.014 A 
ATOM     90  C   UNL A   1      43.967  35.775  31.709  1.00  0.00     0.010 A 
ATOM     91  C   UNL A   1      43.424  34.853  33.886  1.00  0.00     0.010 A 
ATOM     92  C   UNL A   1      44.457  36.930  32.325  1.00  0.00     0.020 A 
ATOM     93  C   UNL A   1      43.878  36.020  34.503  1.00  0.00     0.020 A 
ATOM     94  C   UNL A   1      44.411  37.045  33.719  1.00  0.00     0.054 A 
BRANCH  94  95
ATOM     95  S   UNL A   1      45.036  38.561  34.492  1.00  0.00     0.124 S 
ATOM     96  O   UNL A   1      45.733  38.038  35.664  1.00  0.00    -0.237 OA
ATOM     97  O   UNL A   1      45.889  39.123  33.450  1.00  0.00    -0.237 OA
ATOM     98  O   UNL A   1      43.825  39.327  34.780  1.00  0.00    -0.744 OA
ENDBRANCH  94  95
ENDBRANCH  68  89
ENDBRANCH  42  43
ENDBRANCH  35  37
ENDBRANCH  34  35
ENDBRANCH  33  34
ENDBRANCH  32  33
ENDBRANCH  31  32
ENDBRANCH   1  31
TORSDOF 22
ENDMDL
MODEL 2
REMARK VINA RESULT:     -10.6      3.120      9.537
REMARK SMILES O=C(C[C@@H](NC(=O)c1cc(-c2ccc(F)cc2)on1)c1cccc(Br)c1)OCCOCCOC(=O)c1ccc(-c2c3nc(c(-c4ccc(S(=O)(=O)[O-])cc4)c4ccc([nH]4)c(-c4ccc(S(=O)(=O)[O-])cc4)c4nc(c(-c5ccc(S(=O)(=O)[O-])cc5)c5ccc2[nH]5)C=C4)C=C3)cc1
REMARK SMILES IDX 29 1 28 2 27 3 2 4 1 5 3 6 4 7 5 8 6 9 7 11 8 12 9 13 19 14
REMARK SMILES IDX 10 15 18 16 11 17 12 18 17 19 13 20 16 21 14 22 15 23 20 24
REMARK SMILES IDX 21 25 26 26 22 27 24 28 23 29 25 30 30 31 31 32 32 33 33 34
REMARK SMILES IDX 34 35 35 36 36 37 37 38 95 39 38 40 94 41 39 42 40 43 41 44
REMARK SMILES IDX 88 45 42 46 93 47 87 48 89 49 43 50 92 51 86 52 85 53 44 55
REMARK SMILES IDX 74 56 55 57 73 58 56 59 59 60 72 61 90 62 57 63 58 64 71 66
REMARK SMILES IDX 91 67 60 68 45 69 46 70 54 71 47 72 53 73 48 74 49 75 50 76
REMARK SMILES IDX 51 77 52 78 75 79 76 80 84 81 77 82 83 83 78 84 79 85 80 86
REMARK SMILES IDX 81 87 82 88 61 89 62 90 70 91 63 92 69 93 64 94 65 95 66 96
REMARK SMILES IDX 67 97 68 98
REMARK H PARENT 5 10 89 54 59 65
REMARK Flexibility Score: inf
ROOT
ATOM      1  C   UNL A   1      32.900  29.023  27.269  1.00  0.00     0.202 C 
ENDROOT
BRANCH   1   2
ATOM      2  C   UNL A   1      32.017  28.397  26.172  1.00  0.00     0.261 C 
BRANCH   2   3
ATOM      3  O   UNL A   1      32.389  27.124  25.624  1.00  0.00    -0.463 OA
BRANCH   3   4
ATOM      4  C   UNL A   1      33.594  26.910  25.049  1.00  0.00     0.308 C 
ATOM      5  O   UNL A   1      34.053  27.690  24.220  1.00  0.00    -0.252 OA
BRANCH   4   6
ATOM      6  C   UNL A   1      34.226  25.573  25.286  1.00  0.00     0.152 C 
BRANCH   6   7
ATOM      7  C   UNL A   1      33.924  24.451  24.291  1.00  0.00     0.124 C 
BRANCH   7   8
ATOM      8  N   UNL A   1      33.920  24.863  22.879  1.00  0.00    -0.343 N 
ATOM      9  C   UNL A   1      33.000  25.333  21.967  1.00  0.00     0.273 C 
ATOM     10  H   UNL A   1      34.815  24.781  22.478  1.00  0.00     0.164 HD
ATOM     11  O   UNL A   1      33.370  25.400  20.794  1.00  0.00    -0.267 OA
BRANCH   9  12
ATOM     12  C   UNL A   1      31.712  25.856  22.380  1.00  0.00     0.171 A 
ATOM     13  C   UNL A   1      31.184  27.121  22.022  1.00  0.00     0.088 A 
ATOM     14  N   UNL A   1      30.837  25.165  23.125  1.00  0.00    -0.074 NA
ATOM     15  C   UNL A   1      30.060  27.256  22.802  1.00  0.00     0.167 A 
ATOM     16  O   UNL A   1      29.803  26.055  23.400  1.00  0.00    -0.355 OA
BRANCH  15  17
ATOM     17  C   UNL A   1      29.310  28.419  23.272  1.00  0.00     0.020 A 
ATOM     18  C   UNL A   1      27.908  28.432  23.145  1.00  0.00     0.015 A 
ATOM     19  C   UNL A   1      29.968  29.620  23.586  1.00  0.00     0.015 A 
ATOM     20  C   UNL A   1      27.203  29.638  23.180  1.00  0.00     0.040 A 
ATOM     21  C   UNL A   1      29.258  30.825  23.626  1.00  0.00     0.040 A 
ATOM     22  C   UNL A   1      27.890  30.825  23.384  1.00  0.00     0.123 A 
ATOM     23  F   UNL A   1      27.234  31.989  23.300  1.00  0.00    -0.207 F 
ENDBRANCH  15  17
ENDBRANCH   9  12
ENDBRANCH   7   8
BRANCH   7  24
ATOM     24  C   UNL A   1      34.745  23.213  24.615  1.00  0.00    -0.024 A 
ATOM     25  C   UNL A   1      34.157  21.950  24.473  1.00  0.00     0.006 A 
ATOM     26  C   UNL A   1      36.079  23.282  25.072  1.00  0.00     0.021 A 
ATOM     27  C   UNL A   1      34.875  20.795  24.784  1.00  0.00     0.002 A 
ATOM     28  C   UNL A   1      36.786  22.125  25.391  1.00  0.00     0.018 A 
ATOM     29  C   UNL A   1      36.187  20.881  25.250  1.00  0.00     0.016 A 
ATOM     30  Br  UNL A   1      38.568  22.250  26.010  1.00  0.00    -0.051 Br
ENDBRANCH   7  24
ENDBRANCH   6   7
ENDBRANCH   4   6
ENDBRANCH   3   4
ENDBRANCH   2   3
ENDBRANCH   1   2
BRANCH   1  31
ATOM     31  O   UNL A   1      32.885  30.416  27.523  1.00  0.00    -0.374 OA
BRANCH  31  32
ATOM     32  C   UNL A   1      34.109  31.136  27.619  1.00  0.00     0.202 C 
BRANCH  32  33
ATOM     33  C   UNL A   1      34.155  32.247  28.656  1.00  0.00     0.261 C 
BRANCH  33  34
ATOM     34  O   UNL A   1      35.498  32.441  29.109  1.00  0.00    -0.460 OA
BRANCH  34  35
ATOM     35  C   UNL A   1      35.837  31.729  30.206  1.00  0.00     0.338 C 
ATOM     36  O   UNL A   1      35.230  31.659  31.265  1.00  0.00    -0.246 OA
BRANCH  35  37
ATOM     37  C   UNL A   1      36.963  30.852  29.858  1.00  0.00     0.060 A 
ATOM     38  C   UNL A   1      37.642  30.207  30.902  1.00  0.00     0.016 A 
ATOM     39  C   UNL A   1      37.370  30.703  28.531  1.00  0.00     0.016 A 
ATOM     40  C   UNL A   1      38.790  29.477  30.629  1.00  0.00     0.010 A 
ATOM     41  C   UNL A   1      38.530  29.984  28.259  1.00  0.00     0.010 A 
ATOM     42  C   UNL A   1      39.272  29.431  29.317  1.00  0.00    -0.014 A 
BRANCH  42  43
ATOM     43  C   UNL A   1      40.685  29.069  29.097  1.00  0.00     0.031 A 
ATOM     44  C   UNL A   1      41.723  30.130  29.347  1.00  0.00     0.074 A 
ATOM     45  C   UNL A   1      41.030  27.827  28.725  1.00  0.00     0.049 A 
ATOM     46  N   UNL A   1      43.019  30.071  29.208  1.00  0.00    -0.248 NA
ATOM     47  C   UNL A   1      41.224  31.440  29.808  1.00  0.00     0.031 C 
ATOM     48  C   UNL A   1      40.103  26.716  28.519  1.00  0.00     0.029 A 
ATOM     49  N   UNL A   1      42.263  27.296  28.462  1.00  0.00    -0.354 N 
ATOM     50  C   UNL A   1      43.487  31.337  29.541  1.00  0.00     0.074 A 
ATOM     51  C   UNL A   1      42.337  32.153  29.855  1.00  0.00     0.031 C 
ATOM     52  C   UNL A   1      40.805  25.627  28.161  1.00  0.00     0.029 A 
ATOM     53  C   UNL A   1      42.221  25.978  28.081  1.00  0.00     0.049 A 
ATOM     54  H   UNL A   1      43.100  27.810  28.538  1.00  0.00     0.167 HD
ATOM     55  C   UNL A   1      44.766  31.779  29.584  1.00  0.00     0.031 A 
ATOM     56  C   UNL A   1      43.220  25.159  27.702  1.00  0.00     0.031 A 
ATOM     57  C   UNL A   1      45.898  30.954  29.256  1.00  0.00     0.049 A 
ATOM     58  C   UNL A   1      44.629  25.689  27.696  1.00  0.00     0.074 A 
ATOM     59  C   UNL A   1      47.240  31.283  29.281  1.00  0.00     0.029 A 
ATOM     60  N   UNL A   1      45.814  29.633  28.836  1.00  0.00    -0.354 N 
ATOM     61  N   UNL A   1      45.066  26.882  28.026  1.00  0.00    -0.248 NA
ATOM     62  C   UNL A   1      45.683  24.754  27.282  1.00  0.00     0.031 C 
ATOM     63  C   UNL A   1      47.963  30.183  28.809  1.00  0.00     0.029 A 
ATOM     64  C   UNL A   1      47.078  29.141  28.570  1.00  0.00     0.049 A 
ATOM     65  H   UNL A   1      44.977  29.123  28.741  1.00  0.00     0.167 HD
ATOM     66  C   UNL A   1      46.451  26.829  27.904  1.00  0.00     0.074 A 
ATOM     67  C   UNL A   1      46.775  25.483  27.472  1.00  0.00     0.031 C 
ATOM     68  C   UNL A   1      47.373  27.797  28.138  1.00  0.00     0.031 A 
BRANCH  55  69
ATOM     69  C   UNL A   1      44.990  33.227  29.936  1.00  0.00    -0.014 A 
ATOM     70  C   UNL A   1      45.003  34.237  28.955  1.00  0.00     0.010 A 
ATOM     71  C   UNL A   1      45.195  33.583  31.282  1.00  0.00     0.010 A 
ATOM     72  C   UNL A   1      45.270  35.563  29.308  1.00  0.00     0.020 A 
ATOM     73  C   UNL A   1      45.427  34.913  31.643  1.00  0.00     0.020 A 
ATOM     74  C   UNL A   1      45.485  35.892  30.649  1.00  0.00     0.054 A 
BRANCH  74  75
ATOM     75  S   UNL A   1      45.826  37.620  31.080  1.00  0.00     0.124 S 
ATOM     76  O   UNL A   1      44.524  38.247  30.861  1.00  0.00    -0.237 OA
ATOM     77  O   UNL A   1      46.249  37.524  32.474  1.00  0.00    -0.237 OA
ATOM     78  O   UNL A   1      46.871  38.015  30.139  1.00  0.00    -0.744 OA
ENDBRANCH  74  75
ENDBRANCH  55  69
BRANCH  56  79
ATOM     79  C   UNL A   1      42.918  23.754  27.318  1.00  0.00    -0.014 A 
ATOM     80  C   UNL A   1      42.635  23.425  25.981  1.00  0.00     0.010 A 
ATOM     81  C   UNL A   1      42.936  22.731  28.284  1.00  0.00     0.010 A 
ATOM     82  C   UNL A   1      42.366  22.103  25.618  1.00  0.00     0.020 A 
ATOM     83  C   UNL A   1      42.696  21.403  27.921  1.00  0.00     0.020 A 
ATOM     84  C   UNL A   1      42.404  21.098  26.590  1.00  0.00     0.054 A 
BRANCH  84  85
ATOM     85  S   UNL A   1      42.115  19.382  26.081  1.00  0.00     0.124 S 
ATOM     86  O   UNL A   1      40.682  19.382  25.805  1.00  0.00    -0.237 OA
ATOM     87  O   UNL A   1      42.985  19.249  24.915  1.00  0.00    -0.237 OA
ATOM     88  O   UNL A   1      42.527  18.604  27.247  1.00  0.00    -0.744 OA
ENDBRANCH  84  85
ENDBRANCH  56  79
BRANCH  68  89
ATOM     89  C   UNL A   1      48.825  27.417  27.995  1.00  0.00    -0.014 A 
ATOM     90  C   UNL A   1      49.570  26.915  29.076  1.00  0.00     0.010 A 
ATOM     91  C   UNL A   1      49.438  27.531  26.734  1.00  0.00     0.010 A 
ATOM     92  C   UNL A   1      50.916  26.581  28.909  1.00  0.00     0.020 A 
ATOM     93  C   UNL A   1      50.774  27.164  26.554  1.00  0.00     0.020 A 
ATOM     94  C   UNL A   1      51.511  26.710  27.649  1.00  0.00     0.054 A 
BRANCH  94  95
ATOM     95  S   UNL A   1      53.254  26.253  27.454  1.00  0.00     0.124 S 
ATOM     96  O   UNL A   1      53.818  27.459  26.854  1.00  0.00    -0.237 OA
ATOM     97  O   UNL A   1      53.668  25.979  28.827  1.00  0.00    -0.237 OA
ATOM     98  O   UNL A   1      53.210  25.084  26.578  1.00  0.00    -0.744 OA
ENDBRANCH  94  95
ENDBRANCH  68  89
ENDBRANCH  42  43
ENDBRANCH  35  37
ENDBRANCH  34  35
ENDBRANCH  33  34
ENDBRANCH  32  33
ENDBRANCH  31  32
ENDBRANCH   1  31
TORSDOF 22
ENDMDL
MODEL 3
REMARK VINA RESULT:     -10.5      1.793      2.772
REMARK SMILES O=C(C[C@@H](NC(=O)c1cc(-c2ccc(F)cc2)on1)c1cccc(Br)c1)OCCOCCOC(=O)c1ccc(-c2c3nc(c(-c4ccc(S(=O)(=O)[O-])cc4)c4ccc([nH]4)c(-c4ccc(S(=O)(=O)[O-])cc4)c4nc(c(-c5ccc(S(=O)(=O)[O-])cc5)c5ccc2[nH]5)C=C4)C=C3)cc1
REMARK SMILES IDX 29 1 28 2 27 3 2 4 1 5 3 6 4 7 5 8 6 9 7 11 8 12 9 13 19 14
REMARK SMILES IDX 10 15 18 16 11 17 12 18 17 19 13 20 16 21 14 22 15 23 20 24
REMARK SMILES IDX 21 25 26 26 22 27 24 28 23 29 25 30 30 31 31 32 32 33 33 34
REMARK SMILES IDX 34 35 35 36 36 37 37 38 95 39 38 40 94 41 39 42 40 43 41 44
REMARK SMILES IDX 88 45 42 46 93 47 87 48 89 49 43 50 92 51 86 52 85 53 44 55
REMARK SMILES IDX 74 56 55 57 73 58 56 59 59 60 72 61 90 62 57 63 58 64 71 66
REMARK SMILES IDX 91 67 60 68 45 69 46 70 54 71 47 72 53 73 48 74 49 75 50 76
REMARK SMILES IDX 51 77 52 78 75 79 76 80 84 81 77 82 83 83 78 84 79 85 80 86
REMARK SMILES IDX 81 87 82 88 61 89 62 90 70 91 63 92 69 93 64 94 65 95 66 96
REMARK SMILES IDX 67 97 68 98
REMARK H PARENT 5 10 89 54 59 65
REMARK Flexibility Score: inf
ROOT
ATOM      1  C   UNL A   1      34.960  20.835  25.044  1.00  0.00     0.202 C 
ENDROOT
BRANCH   1   2
ATOM      2  C   UNL A   1      33.449  20.861  24.746  1.00  0.00     0.261 C 
BRANCH   2   3
ATOM      3  O   UNL A   1      32.946  21.806  23.789  1.00  0.00    -0.463 OA
BRANCH   3   4
ATOM      4  C   UNL A   1      32.136  22.830  24.145  1.00  0.00     0.308 C 
ATOM      5  O   UNL A   1      31.202  23.181  23.432  1.00  0.00    -0.252 OA
BRANCH   4   6
ATOM      6  C   UNL A   1      32.573  23.660  25.312  1.00  0.00     0.152 C 
BRANCH   6   7
ATOM      7  C   UNL A   1      33.465  24.871  25.037  1.00  0.00     0.124 C 
BRANCH   7   8
ATOM      8  N   UNL A   1      33.754  25.114  23.615  1.00  0.00    -0.343 N 
ATOM      9  C   UNL A   1      33.358  26.006  22.642  1.00  0.00     0.273 C 
ATOM     10  H   UNL A   1      34.404  24.463  23.264  1.00  0.00     0.164 HD
ATOM     11  O   UNL A   1      33.712  25.758  21.488  1.00  0.00    -0.267 OA
BRANCH   9  12
ATOM     12  C   UNL A   1      32.682  27.246  22.971  1.00  0.00     0.171 A 
ATOM     13  C   UNL A   1      31.282  27.409  23.108  1.00  0.00     0.088 A 
ATOM     14  N   UNL A   1      33.326  28.392  23.234  1.00  0.00    -0.074 NA
ATOM     15  C   UNL A   1      31.105  28.769  23.213  1.00  0.00     0.167 A 
ATOM     16  O   UNL A   1      32.329  29.352  23.374  1.00  0.00    -0.355 OA
BRANCH  15  17
ATOM     17  C   UNL A   1      29.967  29.646  22.944  1.00  0.00     0.020 A 
ATOM     18  C   UNL A   1      29.447  29.720  21.639  1.00  0.00     0.015 A 
ATOM     19  C   UNL A   1      29.566  30.612  23.882  1.00  0.00     0.015 A 
ATOM     20  C   UNL A   1      28.670  30.812  21.243  1.00  0.00     0.040 A 
ATOM     21  C   UNL A   1      28.785  31.702  23.485  1.00  0.00     0.040 A 
ATOM     22  C   UNL A   1      28.379  31.810  22.161  1.00  0.00     0.123 A 
ATOM     23  F   UNL A   1      27.737  32.913  21.754  1.00  0.00    -0.207 F 
ENDBRANCH  15  17
ENDBRANCH   9  12
ENDBRANCH   7   8
BRANCH   7  24
ATOM     24  C   UNL A   1      32.988  26.078  25.828  1.00  0.00    -0.024 A 
ATOM     25  C   UNL A   1      31.647  26.144  26.228  1.00  0.00     0.006 A 
ATOM     26  C   UNL A   1      33.839  27.153  26.166  1.00  0.00     0.021 A 
ATOM     27  C   UNL A   1      31.172  27.247  26.936  1.00  0.00     0.002 A 
ATOM     28  C   UNL A   1      33.354  28.257  26.863  1.00  0.00     0.018 A 
ATOM     29  C   UNL A   1      32.022  28.308  27.247  1.00  0.00     0.016 A 
ATOM     30  Br  UNL A   1      34.516  29.685  27.293  1.00  0.00    -0.051 Br
ENDBRANCH   7  24
ENDBRANCH   6   7
ENDBRANCH   4   6
ENDBRANCH   3   4
ENDBRANCH   2   3
ENDBRANCH   1   2
BRANCH   1  31
ATOM     31  O   UNL A   1      35.800  21.921  24.694  1.00  0.00    -0.374 OA
BRANCH  31  32
ATOM     32  C   UNL A   1      36.774  22.395  25.618  1.00  0.00     0.202 C 
BRANCH  32  33
ATOM     33  C   UNL A   1      38.210  21.972  25.355  1.00  0.00     0.261 C 
BRANCH  33  34
ATOM     34  O   UNL A   1      38.978  22.064  26.558  1.00  0.00    -0.460 OA
BRANCH  34  35
ATOM     35  C   UNL A   1      40.178  22.668  26.423  1.00  0.00     0.338 C 
ATOM     36  O   UNL A   1      41.160  22.249  25.826  1.00  0.00    -0.246 OA
BRANCH  35  37
ATOM     37  C   UNL A   1      40.064  24.042  26.930  1.00  0.00     0.060 A 
ATOM     38  C   UNL A   1      40.811  25.043  26.293  1.00  0.00     0.016 A 
ATOM     39  C   UNL A   1      39.268  24.331  28.040  1.00  0.00     0.016 A 
ATOM     40  C   UNL A   1      40.834  26.326  26.820  1.00  0.00     0.010 A 
ATOM     41  C   UNL A   1      39.303  25.613  28.579  1.00  0.00     0.010 A 
ATOM     42  C   UNL A   1      40.139  26.588  28.006  1.00  0.00    -0.014 A 
BRANCH  42  43
ATOM     43  C   UNL A   1      40.519  27.772  28.800  1.00  0.00     0.031 A 
ATOM     44  C   UNL A   1      41.889  27.781  29.424  1.00  0.00     0.074 A 
ATOM     45  C   UNL A   1      39.686  28.815  28.927  1.00  0.00     0.049 A 
ATOM     46  N   UNL A   1      42.451  28.686  30.178  1.00  0.00    -0.248 NA
ATOM     47  C   UNL A   1      42.736  26.600  29.166  1.00  0.00     0.031 C 
ATOM     48  C   UNL A   1      38.366  28.925  28.310  1.00  0.00     0.029 A 
ATOM     49  N   UNL A   1      39.839  29.987  29.616  1.00  0.00    -0.354 N 
ATOM     50  C   UNL A   1      43.703  28.175  30.503  1.00  0.00     0.074 A 
ATOM     51  C   UNL A   1      43.806  26.869  29.894  1.00  0.00     0.031 C 
ATOM     52  C   UNL A   1      37.826  30.109  28.649  1.00  0.00     0.029 A 
ATOM     53  C   UNL A   1      38.749  30.817  29.533  1.00  0.00     0.049 A 
ATOM     54  H   UNL A   1      40.652  30.212  30.125  1.00  0.00     0.167 HD
ATOM     55  C   UNL A   1      44.681  28.748  31.243  1.00  0.00     0.031 A 
ATOM     56  C   UNL A   1      38.529  32.010  30.117  1.00  0.00     0.031 A 
ATOM     57  C   UNL A   1      44.554  30.046  31.850  1.00  0.00     0.049 A 
ATOM     58  C   UNL A   1      39.606  32.601  30.987  1.00  0.00     0.074 A 
ATOM     59  C   UNL A   1      45.482  30.739  32.604  1.00  0.00     0.029 A 
ATOM     60  N   UNL A   1      43.419  30.842  31.776  1.00  0.00    -0.354 N 
ATOM     61  N   UNL A   1      40.792  32.120  31.278  1.00  0.00    -0.248 NA
ATOM     62  C   UNL A   1      39.318  33.906  31.595  1.00  0.00     0.031 C 
ATOM     63  C   UNL A   1      44.883  31.923  33.044  1.00  0.00     0.029 A 
ATOM     64  C   UNL A   1      43.612  32.007  32.495  1.00  0.00     0.049 A 
ATOM     65  H   UNL A   1      42.598  30.611  31.284  1.00  0.00     0.167 HD
ATOM     66  C   UNL A   1      41.413  33.085  32.065  1.00  0.00     0.074 A 
ATOM     67  C   UNL A   1      40.468  34.176  32.200  1.00  0.00     0.031 C 
ATOM     68  C   UNL A   1      42.653  33.078  32.616  1.00  0.00     0.031 A 
BRANCH  55  69
ATOM     69  C   UNL A   1      45.934  27.945  31.478  1.00  0.00    -0.014 A 
ATOM     70  C   UNL A   1      46.889  27.745  30.464  1.00  0.00     0.010 A 
ATOM     71  C   UNL A   1      46.158  27.377  32.746  1.00  0.00     0.010 A 
ATOM     72  C   UNL A   1      48.014  26.946  30.697  1.00  0.00     0.020 A 
ATOM     73  C   UNL A   1      47.298  26.607  32.993  1.00  0.00     0.020 A 
ATOM     74  C   UNL A   1      48.208  26.379  31.959  1.00  0.00     0.054 A 
BRANCH  74  75
ATOM     75  S   UNL A   1      49.677  25.352  32.237  1.00  0.00     0.124 S 
ATOM     76  O   UNL A   1      50.019  24.942  30.877  1.00  0.00    -0.237 OA
ATOM     77  O   UNL A   1      50.607  26.287  32.863  1.00  0.00    -0.237 OA
ATOM     78  O   UNL A   1      49.194  24.281  33.105  1.00  0.00    -0.744 OA
ENDBRANCH  74  75
ENDBRANCH  55  69
BRANCH  56  79
ATOM     79  C   UNL A   1      37.245  32.723  29.879  1.00  0.00    -0.014 A 
ATOM     80  C   UNL A   1      37.178  33.781  28.957  1.00  0.00     0.010 A 
ATOM     81  C   UNL A   1      36.075  32.331  30.555  1.00  0.00     0.010 A 
ATOM     82  C   UNL A   1      35.969  34.442  28.722  1.00  0.00     0.020 A 
ATOM     83  C   UNL A   1      34.858  32.969  30.303  1.00  0.00     0.020 A 
ATOM     84  C   UNL A   1      34.814  34.027  29.391  1.00  0.00     0.054 A 
BRANCH  84  85
ATOM     85  S   UNL A   1      33.245  34.857  29.021  1.00  0.00     0.124 S 
ATOM     86  O   UNL A   1      32.612  34.914  30.334  1.00  0.00    -0.237 OA
ATOM     87  O   UNL A   1      33.690  36.139  28.476  1.00  0.00    -0.237 OA
ATOM     88  O   UNL A   1      32.605  33.968  28.055  1.00  0.00    -0.744 OA
ENDBRANCH  84  85
ENDBRANCH  56  79
BRANCH  68  89
ATOM     89  C   UNL A   1      43.084  34.315  33.363  1.00  0.00    -0.014 A 
ATOM     90  C   UNL A   1      43.648  35.420  32.702  1.00  0.00     0.010 A 
ATOM     91  C   UNL A   1      42.879  34.378  34.753  1.00  0.00     0.010 A 
ATOM     92  C   UNL A   1      44.045  36.546  33.427  1.00  0.00     0.020 A 
ATOM     93  C   UNL A   1      43.240  35.517  35.476  1.00  0.00     0.020 A 
ATOM     94  C   UNL A   1      43.840  36.587  34.810  1.00  0.00     0.054 A 
BRANCH  94  95
ATOM     95  S   UNL A   1      44.346  38.067  35.726  1.00  0.00     0.124 S 
ATOM     96  O   UNL A   1      43.635  37.900  36.990  1.00  0.00    -0.237 OA
ATOM     97  O   UNL A   1      45.797  37.919  35.795  1.00  0.00    -0.237 OA
ATOM     98  O   UNL A   1      43.878  39.170  34.889  1.00  0.00    -0.744 OA
ENDBRANCH  94  95
ENDBRANCH  68  89
ENDBRANCH  42  43
ENDBRANCH  35  37
ENDBRANCH  34  35
ENDBRANCH  33  34
ENDBRANCH  32  33
ENDBRANCH  31  32
ENDBRANCH   1  31
TORSDOF 22
ENDMDL
