MODEL 1
REMARK VINA RESULT:     -11.8      0.000      0.000
REMARK SMILES O=C(OCCOCCOC(=O)[C@H](c1c[nH]c2ccc(Cl)cc12)[NH+]1CCN(c2cccc(Cl)c2)CC1)c1ccc(-c2c3nc(c(-c4ccc(S(=O)(=O)[O-])cc4)c4ccc([nH]4)c(-c4ccc(S(=O)(=O)[O-])cc4)c4nc(c(-c5ccc(S(=O)(=O)[O-])cc5)c5ccc2[nH]5)C=C4)C=C3)cc1
REMARK SMILES IDX 5 1 4 2 3 3 2 4 1 5 36 6 37 7 95 8 38 9 94 10 39 11 40 12
REMARK SMILES IDX 41 13 88 14 42 15 93 16 87 17 89 18 43 19 92 20 86 21 85 22
REMARK SMILES IDX 44 24 74 25 55 26 73 27 56 28 59 29 72 30 90 31 57 32 58 33
REMARK SMILES IDX 71 35 91 36 60 37 45 38 46 39 54 40 47 41 53 42 48 43 49 44
REMARK SMILES IDX 50 45 51 46 52 47 75 48 76 49 84 50 77 51 83 52 78 53 79 54
REMARK SMILES IDX 80 55 81 56 82 57 61 58 62 59 70 60 63 61 69 62 64 63 65 64
REMARK SMILES IDX 66 65 67 66 68 67 6 68 7 69 8 70 9 71 10 72 11 73 12 74
REMARK SMILES IDX 23 75 24 76 35 77 25 79 34 80 26 81 27 82 28 83 33 84 29 85
REMARK SMILES IDX 31 86 30 87 32 88 13 89 14 90 22 91 15 92 16 93 21 94 17 96
REMARK SMILES IDX 19 97 18 98 20 99
REMARK H PARENT 89 23 59 34 23 78 15 95
REMARK Flexibility Score: inf
ROOT
ATOM      1  C   UNL A   1      39.455  22.043  26.628  1.00  0.00     0.202 C 
ENDROOT
BRANCH   1   2
ATOM      2  C   UNL A   1      40.526  23.122  26.508  1.00  0.00     0.261 C 
BRANCH   2   3
ATOM      3  O   UNL A   1      39.913  24.398  26.286  1.00  0.00    -0.460 OA
BRANCH   3   4
ATOM      4  C   UNL A   1      40.523  25.605  26.339  1.00  0.00     0.338 C 
ATOM      5  O   UNL A   1      41.188  25.975  25.373  1.00  0.00    -0.246 OA
BRANCH   4   6
ATOM      6  C   UNL A   1      40.460  26.489  27.542  1.00  0.00     0.060 A 
ATOM      7  C   UNL A   1      39.725  26.204  28.694  1.00  0.00     0.016 A 
ATOM      8  C   UNL A   1      41.276  27.630  27.547  1.00  0.00     0.016 A 
ATOM      9  C   UNL A   1      39.740  27.037  29.797  1.00  0.00     0.010 A 
ATOM     10  C   UNL A   1      41.332  28.460  28.670  1.00  0.00     0.010 A 
ATOM     11  C   UNL A   1      40.552  28.162  29.792  1.00  0.00    -0.014 A 
BRANCH  11  12
ATOM     12  C   UNL A   1      40.486  29.037  30.968  1.00  0.00     0.031 A 
ATOM     13  C   UNL A   1      39.423  30.087  31.007  1.00  0.00     0.074 A 
ATOM     14  C   UNL A   1      41.269  28.763  32.027  1.00  0.00     0.049 A 
ATOM     15  N   UNL A   1      39.194  30.986  31.921  1.00  0.00    -0.248 NA
ATOM     16  C   UNL A   1      38.478  30.114  29.875  1.00  0.00     0.031 C 
ATOM     17  C   UNL A   1      42.218  27.646  32.109  1.00  0.00     0.029 A 
ATOM     18  N   UNL A   1      41.365  29.370  33.248  1.00  0.00    -0.354 N 
ATOM     19  C   UNL A   1      38.102  31.710  31.462  1.00  0.00     0.074 A 
ATOM     20  C   UNL A   1      37.701  31.138  30.197  1.00  0.00     0.031 C 
ATOM     21  C   UNL A   1      42.782  27.639  33.327  1.00  0.00     0.029 A 
ATOM     22  C   UNL A   1      42.291  28.787  34.079  1.00  0.00     0.049 A 
ATOM     23  H   UNL A   1      40.822  30.149  33.506  1.00  0.00     0.167 HD
ATOM     24  C   UNL A   1      37.510  32.776  32.046  1.00  0.00     0.031 A 
ATOM     25  C   UNL A   1      42.718  29.173  35.295  1.00  0.00     0.031 A 
ATOM     26  C   UNL A   1      37.958  33.327  33.294  1.00  0.00     0.049 A 
ATOM     27  C   UNL A   1      42.114  30.425  35.873  1.00  0.00     0.074 A 
ATOM     28  C   UNL A   1      37.519  34.460  33.949  1.00  0.00     0.029 A 
ATOM     29  N   UNL A   1      38.960  32.767  34.079  1.00  0.00    -0.354 N 
ATOM     30  N   UNL A   1      41.144  31.168  35.389  1.00  0.00    -0.248 NA
ATOM     31  C   UNL A   1      42.670  30.905  37.143  1.00  0.00     0.031 C 
ATOM     32  C   UNL A   1      38.285  34.609  35.111  1.00  0.00     0.029 A 
ATOM     33  C   UNL A   1      39.166  33.539  35.204  1.00  0.00     0.049 A 
ATOM     34  H   UNL A   1      39.450  31.941  33.863  1.00  0.00     0.167 HD
ATOM     35  C   UNL A   1      40.970  32.203  36.296  1.00  0.00     0.074 A 
ATOM     36  C   UNL A   1      41.917  31.973  37.372  1.00  0.00     0.031 C 
ATOM     37  C   UNL A   1      40.120  33.258  36.247  1.00  0.00     0.031 A 
BRANCH  24  38
ATOM     38  C   UNL A   1      36.402  33.446  31.287  1.00  0.00    -0.014 A 
ATOM     39  C   UNL A   1      36.551  33.817  29.940  1.00  0.00     0.010 A 
ATOM     40  C   UNL A   1      35.195  33.735  31.951  1.00  0.00     0.010 A 
ATOM     41  C   UNL A   1      35.522  34.496  29.278  1.00  0.00     0.020 A 
ATOM     42  C   UNL A   1      34.159  34.397  31.287  1.00  0.00     0.020 A 
ATOM     43  C   UNL A   1      34.335  34.787  29.959  1.00  0.00     0.054 A 
BRANCH  43  44
ATOM     44  S   UNL A   1      33.015  35.668  29.080  1.00  0.00     0.124 S 
ATOM     45  O   UNL A   1      32.446  34.607  28.251  1.00  0.00    -0.237 OA
ATOM     46  O   UNL A   1      32.163  36.140  30.168  1.00  0.00    -0.237 OA
ATOM     47  O   UNL A   1      33.724  36.716  28.350  1.00  0.00    -0.744 OA
ENDBRANCH  43  44
ENDBRANCH  24  38
BRANCH  25  48
ATOM     48  C   UNL A   1      43.812  28.438  35.987  1.00  0.00    -0.014 A 
ATOM     49  C   UNL A   1      45.160  28.789  35.799  1.00  0.00     0.010 A 
ATOM     50  C   UNL A   1      43.505  27.359  36.840  1.00  0.00     0.010 A 
ATOM     51  C   UNL A   1      46.177  28.061  36.429  1.00  0.00     0.020 A 
ATOM     52  C   UNL A   1      44.515  26.649  37.493  1.00  0.00     0.020 A 
ATOM     53  C   UNL A   1      45.848  26.992  37.268  1.00  0.00     0.054 A 
BRANCH  53  54
ATOM     54  S   UNL A   1      47.177  26.068  38.090  1.00  0.00     0.124 S 
ATOM     55  O   UNL A   1      48.101  25.824  36.988  1.00  0.00    -0.237 OA
ATOM     56  O   UNL A   1      47.639  27.010  39.107  1.00  0.00    -0.237 OA
ATOM     57  O   UNL A   1      46.497  24.886  38.612  1.00  0.00    -0.744 OA
ENDBRANCH  53  54
ENDBRANCH  25  48
BRANCH  37  58
ATOM     58  C   UNL A   1      40.165  34.214  37.402  1.00  0.00    -0.014 A 
ATOM     59  C   UNL A   1      39.419  33.971  38.568  1.00  0.00     0.010 A 
ATOM     60  C   UNL A   1      41.018  35.329  37.340  1.00  0.00     0.010 A 
ATOM     61  C   UNL A   1      39.511  34.844  39.651  1.00  0.00     0.020 A 
ATOM     62  C   UNL A   1      41.130  36.190  38.431  1.00  0.00     0.020 A 
ATOM     63  C   UNL A   1      40.367  35.948  39.575  1.00  0.00     0.054 A 
BRANCH  63  64
ATOM     64  S   UNL A   1      40.517  37.037  41.017  1.00  0.00     0.124 S 
ATOM     65  O   UNL A   1      41.733  37.782  40.707  1.00  0.00    -0.237 OA
ATOM     66  O   UNL A   1      39.277  37.807  40.970  1.00  0.00    -0.237 OA
ATOM     67  O   UNL A   1      40.622  36.107  42.140  1.00  0.00    -0.744 OA
ENDBRANCH  63  64
ENDBRANCH  37  58
ENDBRANCH  11  12
ENDBRANCH   4   6
ENDBRANCH   3   4
ENDBRANCH   2   3
ENDBRANCH   1   2
BRANCH   1  68
ATOM     68  O   UNL A   1      38.803  21.606  25.440  1.00  0.00    -0.374 OA
BRANCH  68  69
ATOM     69  C   UNL A   1      37.495  22.124  25.183  1.00  0.00     0.202 C 
BRANCH  69  70
ATOM     70  C   UNL A   1      36.535  20.934  25.081  1.00  0.00     0.261 C 
BRANCH  70  71
ATOM     71  O   UNL A   1      35.328  21.418  24.476  1.00  0.00    -0.459 OA
BRANCH  71  72
ATOM     72  C   UNL A   1      34.318  21.710  25.348  1.00  0.00     0.370 C 
ATOM     73  O   UNL A   1      34.449  21.566  26.560  1.00  0.00    -0.245 OA
BRANCH  72  74
ATOM     74  C   UNL A   1      33.111  22.372  24.584  1.00  0.00     0.328 C 
BRANCH  74  75
ATOM     75  N   UNL A   1      33.406  23.588  23.775  1.00  0.00    -0.316 N 
ATOM     76  C   UNL A   1      32.207  24.466  23.630  1.00  0.00     0.284 C 
ATOM     77  C   UNL A   1      34.530  24.428  24.234  1.00  0.00     0.284 C 
ATOM     78  H   UNL A   1      33.689  23.186  22.880  1.00  0.00     0.349 HD
ATOM     79  C   UNL A   1      31.890  25.456  24.802  1.00  0.00     0.178 C 
ATOM     80  C   UNL A   1      34.254  25.334  25.455  1.00  0.00     0.178 C 
ATOM     81  N   UNL A   1      33.096  26.205  25.196  1.00  0.00    -0.360 N 
BRANCH  81  82
ATOM     82  C   UNL A   1      33.062  27.365  25.963  1.00  0.00     0.038 A 
ATOM     83  C   UNL A   1      31.816  27.943  26.282  1.00  0.00     0.026 A 
ATOM     84  C   UNL A   1      34.205  28.029  26.424  1.00  0.00     0.046 A 
ATOM     85  C   UNL A   1      31.703  29.150  26.974  1.00  0.00     0.004 A 
ATOM     86  C   UNL A   1      34.095  29.239  27.124  1.00  0.00     0.043 A 
ATOM     87  C   UNL A   1      32.851  29.807  27.392  1.00  0.00     0.020 A 
ATOM     88  Cl  UNL A   1      35.517  30.055  27.653  1.00  0.00    -0.084 Cl
ENDBRANCH  81  82
ENDBRANCH  74  75
BRANCH  74  89
ATOM     89  C   UNL A   1      32.482  21.304  23.694  1.00  0.00     0.046 A 
ATOM     90  C   UNL A   1      31.951  21.518  22.430  1.00  0.00     0.094 A 
ATOM     91  C   UNL A   1      32.515  19.875  23.868  1.00  0.00     0.011 A 
ATOM     92  N   UNL A   1      31.903  20.320  21.773  1.00  0.00    -0.361 N 
ATOM     93  C   UNL A   1      32.290  19.304  22.613  1.00  0.00     0.046 A 
ATOM     94  C   UNL A   1      32.828  19.008  24.936  1.00  0.00     0.031 A 
ATOM     95  H   UNL A   1      31.632  20.203  20.834  1.00  0.00     0.166 HD
ATOM     96  C   UNL A   1      32.490  17.943  22.342  1.00  0.00     0.028 A 
ATOM     97  C   UNL A   1      33.030  17.646  24.680  1.00  0.00     0.041 A 
ATOM     98  C   UNL A   1      32.892  17.123  23.399  1.00  0.00     0.022 A 
ATOM     99  Cl  UNL A   1      33.531  16.617  25.968  1.00  0.00    -0.084 Cl
ENDBRANCH  74  89
ENDBRANCH  72  74
ENDBRANCH  71  72
ENDBRANCH  70  71
ENDBRANCH  69  70
ENDBRANCH  68  69
ENDBRANCH   1  68
TORSDOF 20
ENDMDL
MODEL 2
REMARK VINA RESULT:     -11.7      3.044      9.612
REMARK SMILES O=C(OCCOCCOC(=O)[C@H](c1c[nH]c2ccc(Cl)cc12)[NH+]1CCN(c2cccc(Cl)c2)CC1)c1ccc(-c2c3nc(c(-c4ccc(S(=O)(=O)[O-])cc4)c4ccc([nH]4)c(-c4ccc(S(=O)(=O)[O-])cc4)c4nc(c(-c5ccc(S(=O)(=O)[O-])cc5)c5ccc2[nH]5)C=C4)C=C3)cc1
REMARK SMILES IDX 5 1 4 2 3 3 2 4 1 5 36 6 37 7 95 8 38 9 94 10 39 11 40 12
REMARK SMILES IDX 41 13 88 14 42 15 93 16 87 17 89 18 43 19 92 20 86 21 85 22
REMARK SMILES IDX 44 24 74 25 55 26 73 27 56 28 59 29 72 30 90 31 57 32 58 33
REMARK SMILES IDX 71 35 91 36 60 37 45 38 46 39 54 40 47 41 53 42 48 43 49 44
REMARK SMILES IDX 50 45 51 46 52 47 75 48 76 49 84 50 77 51 83 52 78 53 79 54
REMARK SMILES IDX 80 55 81 56 82 57 61 58 62 59 70 60 63 61 69 62 64 63 65 64
REMARK SMILES IDX 66 65 67 66 68 67 6 68 7 69 8 70 9 71 10 72 11 73 12 74
REMARK SMILES IDX 23 75 24 76 35 77 25 79 34 80 26 81 27 82 28 83 33 84 29 85
REMARK SMILES IDX 31 86 30 87 32 88 13 89 14 90 22 91 15 92 16 93 21 94 17 96
REMARK SMILES IDX 19 97 18 98 20 99
REMARK H PARENT 89 23 59 34 23 78 15 95
REMARK Flexibility Score: inf
ROOT
ATOM      1  C   UNL A   1      35.825  22.036  25.803  1.00  0.00     0.202 C 
ENDROOT
BRANCH   1   2
ATOM      2  C   UNL A   1      36.901  22.169  24.729  1.00  0.00     0.261 C 
BRANCH   2   3
ATOM      3  O   UNL A   1      37.812  23.218  25.075  1.00  0.00    -0.460 OA
BRANCH   3   4
ATOM      4  C   UNL A   1      38.790  23.160  26.009  1.00  0.00     0.338 C 
ATOM      5  O   UNL A   1      39.315  22.075  26.250  1.00  0.00    -0.246 OA
BRANCH   4   6
ATOM      6  C   UNL A   1      39.227  24.354  26.794  1.00  0.00     0.060 A 
ATOM      7  C   UNL A   1      38.948  24.555  28.147  1.00  0.00     0.016 A 
ATOM      8  C   UNL A   1      40.058  25.281  26.148  1.00  0.00     0.016 A 
ATOM      9  C   UNL A   1      39.418  25.658  28.835  1.00  0.00     0.010 A 
ATOM     10  C   UNL A   1      40.573  26.380  26.841  1.00  0.00     0.010 A 
ATOM     11  C   UNL A   1      40.241  26.568  28.187  1.00  0.00    -0.014 A 
BRANCH  11  12
ATOM     12  C   UNL A   1      40.664  27.746  28.952  1.00  0.00     0.031 A 
ATOM     13  C   UNL A   1      42.070  27.793  29.457  1.00  0.00     0.074 A 
ATOM     14  C   UNL A   1      39.834  28.802  29.032  1.00  0.00     0.049 A 
ATOM     15  N   UNL A   1      42.653  28.710  30.174  1.00  0.00    -0.248 NA
ATOM     16  C   UNL A   1      42.944  26.664  29.084  1.00  0.00     0.031 C 
ATOM     17  C   UNL A   1      38.502  28.877  28.419  1.00  0.00     0.029 A 
ATOM     18  N   UNL A   1      39.997  30.024  29.622  1.00  0.00    -0.354 N 
ATOM     19  C   UNL A   1      43.951  28.257  30.371  1.00  0.00     0.074 A 
ATOM     20  C   UNL A   1      44.078  26.992  29.684  1.00  0.00     0.031 C 
ATOM     21  C   UNL A   1      37.982  30.093  28.649  1.00  0.00     0.029 A 
ATOM     22  C   UNL A   1      38.908  30.850  29.483  1.00  0.00     0.049 A 
ATOM     23  H   UNL A   1      40.817  30.287  30.099  1.00  0.00     0.167 HD
ATOM     24  C   UNL A   1      44.934  28.847  31.087  1.00  0.00     0.031 A 
ATOM     25  C   UNL A   1      38.678  32.066  30.012  1.00  0.00     0.031 A 
ATOM     26  C   UNL A   1      44.753  30.095  31.775  1.00  0.00     0.049 A 
ATOM     27  C   UNL A   1      39.750  32.650  30.892  1.00  0.00     0.074 A 
ATOM     28  C   UNL A   1      45.627  30.754  32.617  1.00  0.00     0.029 A 
ATOM     29  N   UNL A   1      43.606  30.874  31.688  1.00  0.00    -0.354 N 
ATOM     30  N   UNL A   1      40.945  32.171  31.157  1.00  0.00    -0.248 NA
ATOM     31  C   UNL A   1      39.442  33.919  31.560  1.00  0.00     0.031 C 
ATOM     32  C   UNL A   1      44.988  31.914  33.073  1.00  0.00     0.029 A 
ATOM     33  C   UNL A   1      43.739  32.001  32.474  1.00  0.00     0.049 A 
ATOM     34  H   UNL A   1      42.814  30.654  31.146  1.00  0.00     0.167 HD
ATOM     35  C   UNL A   1      41.534  33.082  32.022  1.00  0.00     0.074 A 
ATOM     36  C   UNL A   1      40.574  34.154  32.211  1.00  0.00     0.031 C 
ATOM     37  C   UNL A   1      42.751  33.039  32.620  1.00  0.00     0.031 A 
BRANCH  24  38
ATOM     38  C   UNL A   1      46.224  28.094  31.230  1.00  0.00    -0.014 A 
ATOM     39  C   UNL A   1      47.313  28.329  30.373  1.00  0.00     0.010 A 
ATOM     40  C   UNL A   1      46.335  27.109  32.229  1.00  0.00     0.010 A 
ATOM     41  C   UNL A   1      48.481  27.568  30.492  1.00  0.00     0.020 A 
ATOM     42  C   UNL A   1      47.506  26.359  32.362  1.00  0.00     0.020 A 
ATOM     43  C   UNL A   1      48.566  26.582  31.482  1.00  0.00     0.054 A 
BRANCH  43  44
ATOM     44  S   UNL A   1      50.090  25.608  31.617  1.00  0.00     0.124 S 
ATOM     45  O   UNL A   1      51.062  26.623  32.019  1.00  0.00    -0.237 OA
ATOM     46  O   UNL A   1      49.753  24.623  32.642  1.00  0.00    -0.237 OA
ATOM     47  O   UNL A   1      50.276  25.066  30.274  1.00  0.00    -0.744 OA
ENDBRANCH  43  44
ENDBRANCH  24  38
BRANCH  25  48
ATOM     48  C   UNL A   1      37.372  32.751  29.805  1.00  0.00    -0.014 A 
ATOM     49  C   UNL A   1      37.145  33.567  28.684  1.00  0.00     0.010 A 
ATOM     50  C   UNL A   1      36.339  32.597  30.752  1.00  0.00     0.010 A 
ATOM     51  C   UNL A   1      35.923  34.234  28.528  1.00  0.00     0.020 A 
ATOM     52  C   UNL A   1      35.110  33.238  30.585  1.00  0.00     0.020 A 
ATOM     53  C   UNL A   1      34.915  34.069  29.482  1.00  0.00     0.054 A 
BRANCH  53  54
ATOM     54  S   UNL A   1      33.331  34.927  29.257  1.00  0.00     0.124 S 
ATOM     55  O   UNL A   1      32.670  34.084  28.266  1.00  0.00    -0.237 OA
ATOM     56  O   UNL A   1      32.757  34.895  30.600  1.00  0.00    -0.237 OA
ATOM     57  O   UNL A   1      33.726  36.253  28.789  1.00  0.00    -0.744 OA
ENDBRANCH  53  54
ENDBRANCH  25  48
BRANCH  37  58
ATOM     58  C   UNL A   1      43.107  34.197  33.505  1.00  0.00    -0.014 A 
ATOM     59  C   UNL A   1      42.949  34.113  34.899  1.00  0.00     0.010 A 
ATOM     60  C   UNL A   1      43.671  35.351  32.936  1.00  0.00     0.010 A 
ATOM     61  C   UNL A   1      43.332  35.180  35.711  1.00  0.00     0.020 A 
ATOM     62  C   UNL A   1      44.077  36.410  33.748  1.00  0.00     0.020 A 
ATOM     63  C   UNL A   1      43.894  36.321  35.129  1.00  0.00     0.054 A 
BRANCH  63  64
ATOM     64  S   UNL A   1      44.441  37.672  36.208  1.00  0.00     0.124 S 
ATOM     65  O   UNL A   1      44.427  38.811  35.296  1.00  0.00    -0.237 OA
ATOM     66  O   UNL A   1      43.417  37.686  37.251  1.00  0.00    -0.237 OA
ATOM     67  O   UNL A   1      45.765  37.242  36.652  1.00  0.00    -0.744 OA
ENDBRANCH  63  64
ENDBRANCH  37  58
ENDBRANCH  11  12
ENDBRANCH   4   6
ENDBRANCH   3   4
ENDBRANCH   2   3
ENDBRANCH   1   2
BRANCH   1  68
ATOM     68  O   UNL A   1      34.833  23.054  25.892  1.00  0.00    -0.374 OA
BRANCH  68  69
ATOM     69  C   UNL A   1      35.015  24.218  25.082  1.00  0.00     0.202 C 
BRANCH  69  70
ATOM     70  C   UNL A   1      34.296  25.382  25.773  1.00  0.00     0.261 C 
BRANCH  70  71
ATOM     71  O   UNL A   1      32.979  24.922  26.108  1.00  0.00    -0.459 OA
BRANCH  71  72
ATOM     72  C   UNL A   1      31.961  25.748  25.724  1.00  0.00     0.370 C 
ATOM     73  O   UNL A   1      31.075  26.087  26.503  1.00  0.00    -0.245 OA
BRANCH  72  74
ATOM     74  C   UNL A   1      32.210  26.278  24.263  1.00  0.00     0.328 C 
BRANCH  74  75
ATOM     75  N   UNL A   1      31.506  25.571  23.155  1.00  0.00    -0.316 N 
ATOM     76  C   UNL A   1      32.463  24.954  22.190  1.00  0.00     0.284 C 
ATOM     77  C   UNL A   1      30.531  24.535  23.551  1.00  0.00     0.284 C 
ATOM     78  H   UNL A   1      30.971  26.326  22.725  1.00  0.00     0.349 HD
ATOM     79  C   UNL A   1      33.061  23.553  22.559  1.00  0.00     0.178 C 
ATOM     80  C   UNL A   1      31.117  23.182  24.014  1.00  0.00     0.178 C 
ATOM     81  N   UNL A   1      31.996  22.623  22.974  1.00  0.00    -0.360 N 
BRANCH  81  82
ATOM     82  C   UNL A   1      32.167  21.244  23.042  1.00  0.00     0.038 A 
ATOM     83  C   UNL A   1      32.049  20.477  21.865  1.00  0.00     0.026 A 
ATOM     84  C   UNL A   1      32.422  20.547  24.229  1.00  0.00     0.046 A 
ATOM     85  C   UNL A   1      32.123  19.083  21.866  1.00  0.00     0.004 A 
ATOM     86  C   UNL A   1      32.502  19.147  24.233  1.00  0.00     0.043 A 
ATOM     87  C   UNL A   1      32.343  18.412  23.060  1.00  0.00     0.020 A 
ATOM     88  Cl  UNL A   1      32.786  18.310  25.712  1.00  0.00    -0.084 Cl
ENDBRANCH  81  82
ENDBRANCH  74  75
BRANCH  74  89
ATOM     89  C   UNL A   1      31.845  27.760  24.237  1.00  0.00     0.046 A 
ATOM     90  C   UNL A   1      30.782  28.317  23.540  1.00  0.00     0.094 A 
ATOM     91  C   UNL A   1      32.359  28.813  25.074  1.00  0.00     0.011 A 
ATOM     92  N   UNL A   1      30.495  29.535  24.092  1.00  0.00    -0.361 N 
ATOM     93  C   UNL A   1      31.414  29.841  25.067  1.00  0.00     0.046 A 
ATOM     94  C   UNL A   1      33.472  28.951  25.931  1.00  0.00     0.031 A 
ATOM     95  H   UNL A   1      29.739  30.108  23.830  1.00  0.00     0.166 HD
ATOM     96  C   UNL A   1      31.452  30.925  25.955  1.00  0.00     0.028 A 
ATOM     97  C   UNL A   1      33.523  30.029  26.824  1.00  0.00     0.041 A 
ATOM     98  C   UNL A   1      32.516  30.988  26.857  1.00  0.00     0.022 A 
ATOM     99  Cl  UNL A   1      34.825  30.124  27.949  1.00  0.00    -0.084 Cl
ENDBRANCH  74  89
ENDBRANCH  72  74
ENDBRANCH  71  72
ENDBRANCH  70  71
ENDBRANCH  69  70
ENDBRANCH  68  69
ENDBRANCH   1  68
TORSDOF 20
ENDMDL
MODEL 3
REMARK VINA RESULT:     -11.7      6.148      9.185
REMARK SMILES O=C(OCCOCCOC(=O)[C@H](c1c[nH]c2ccc(Cl)cc12)[NH+]1CCN(c2cccc(Cl)c2)CC1)c1ccc(-c2c3nc(c(-c4ccc(S(=O)(=O)[O-])cc4)c4ccc([nH]4)c(-c4ccc(S(=O)(=O)[O-])cc4)c4nc(c(-c5ccc(S(=O)(=O)[O-])cc5)c5ccc2[nH]5)C=C4)C=C3)cc1
REMARK SMILES IDX 5 1 4 2 3 3 2 4 1 5 36 6 37 7 95 8 38 9 94 10 39 11 40 12
REMARK SMILES IDX 41 13 88 14 42 15 93 16 87 17 89 18 43 19 92 20 86 21 85 22
REMARK SMILES IDX 44 24 74 25 55 26 73 27 56 28 59 29 72 30 90 31 57 32 58 33
REMARK SMILES IDX 71 35 91 36 60 37 45 38 46 39 54 40 47 41 53 42 48 43 49 44
REMARK SMILES IDX 50 45 51 46 52 47 75 48 76 49 84 50 77 51 83 52 78 53 79 54
REMARK SMILES IDX 80 55 81 56 82 57 61 58 62 59 70 60 63 61 69 62 64 63 65 64
REMARK SMILES IDX 66 65 67 66 68 67 6 68 7 69 8 70 9 71 10 72 11 73 12 74
REMARK SMILES IDX 23 75 24 76 35 77 25 79 34 80 26 81 27 82 28 83 33 84 29 85
REMARK SMILES IDX 31 86 30 87 32 88 13 89 14 90 22 91 15 92 16 93 21 94 17 96
REMARK SMILES IDX 19 97 18 98 20 99
REMARK H PARENT 89 23 59 34 23 78 15 95
REMARK Flexibility Score: inf
ROOT
ATOM      1  C   UNL A   1      38.228  20.485  25.176  1.00  0.00     0.202 C 
ENDROOT
BRANCH   1   2
ATOM      2  C   UNL A   1      39.239  19.374  25.442  1.00  0.00     0.261 C 
BRANCH   2   3
ATOM      3  O   UNL A   1      40.195  19.806  26.418  1.00  0.00    -0.460 OA
BRANCH   3   4
ATOM      4  C   UNL A   1      41.510  20.045  26.207  1.00  0.00     0.338 C 
ATOM      5  O   UNL A   1      42.228  19.119  25.835  1.00  0.00    -0.246 OA
BRANCH   4   6
ATOM      6  C   UNL A   1      42.136  21.380  26.451  1.00  0.00     0.060 A 
ATOM      7  C   UNL A   1      42.195  22.410  25.510  1.00  0.00     0.016 A 
ATOM      8  C   UNL A   1      42.606  21.644  27.747  1.00  0.00     0.016 A 
ATOM      9  C   UNL A   1      42.747  23.641  25.806  1.00  0.00     0.010 A 
ATOM     10  C   UNL A   1      43.130  22.898  28.071  1.00  0.00     0.010 A 
ATOM     11  C   UNL A   1      43.206  23.893  27.091  1.00  0.00    -0.014 A 
BRANCH  11  12
ATOM     12  C   UNL A   1      43.831  25.199  27.332  1.00  0.00     0.031 A 
ATOM     13  C   UNL A   1      43.002  26.273  27.958  1.00  0.00     0.074 A 
ATOM     14  C   UNL A   1      45.155  25.332  27.133  1.00  0.00     0.049 A 
ATOM     15  N   UNL A   1      43.329  27.503  28.236  1.00  0.00    -0.248 NA
ATOM     16  C   UNL A   1      41.627  25.906  28.345  1.00  0.00     0.031 C 
ATOM     17  C   UNL A   1      46.051  24.265  26.672  1.00  0.00     0.029 A 
ATOM     18  N   UNL A   1      45.984  26.400  27.331  1.00  0.00    -0.354 N 
ATOM     19  C   UNL A   1      42.193  28.070  28.797  1.00  0.00     0.074 A 
ATOM     20  C   UNL A   1      41.172  27.049  28.838  1.00  0.00     0.031 C 
ATOM     21  C   UNL A   1      47.310  24.731  26.645  1.00  0.00     0.029 A 
ATOM     22  C   UNL A   1      47.296  26.141  27.014  1.00  0.00     0.049 A 
ATOM     23  H   UNL A   1      45.672  27.270  27.669  1.00  0.00     0.167 HD
ATOM     24  C   UNL A   1      42.024  29.344  29.215  1.00  0.00     0.031 A 
ATOM     25  C   UNL A   1      48.354  26.973  26.987  1.00  0.00     0.031 A 
ATOM     26  C   UNL A   1      43.062  30.334  29.132  1.00  0.00     0.049 A 
ATOM     27  C   UNL A   1      48.111  28.411  27.357  1.00  0.00     0.074 A 
ATOM     28  C   UNL A   1      42.998  31.682  29.422  1.00  0.00     0.029 A 
ATOM     29  N   UNL A   1      44.363  30.067  28.724  1.00  0.00    -0.354 N 
ATOM     30  N   UNL A   1      47.005  28.970  27.796  1.00  0.00    -0.248 NA
ATOM     31  C   UNL A   1      49.241  29.335  27.209  1.00  0.00     0.031 C 
ATOM     32  C   UNL A   1      44.254  32.239  29.150  1.00  0.00     0.029 A 
ATOM     33  C   UNL A   1      45.111  31.227  28.739  1.00  0.00     0.049 A 
ATOM     34  H   UNL A   1      44.701  29.180  28.462  1.00  0.00     0.167 HD
ATOM     35  C   UNL A   1      47.307  30.312  27.980  1.00  0.00     0.074 A 
ATOM     36  C   UNL A   1      48.707  30.473  27.632  1.00  0.00     0.031 C 
ATOM     37  C   UNL A   1      46.505  31.327  28.387  1.00  0.00     0.031 A 
BRANCH  24  38
ATOM     38  C   UNL A   1      40.656  29.734  29.691  1.00  0.00    -0.014 A 
ATOM     39  C   UNL A   1      39.612  30.010  28.792  1.00  0.00     0.010 A 
ATOM     40  C   UNL A   1      40.421  29.852  31.074  1.00  0.00     0.010 A 
ATOM     41  C   UNL A   1      38.365  30.429  29.266  1.00  0.00     0.020 A 
ATOM     42  C   UNL A   1      39.171  30.254  31.552  1.00  0.00     0.020 A 
ATOM     43  C   UNL A   1      38.155  30.556  30.643  1.00  0.00     0.054 A 
BRANCH  43  44
ATOM     44  S   UNL A   1      36.529  31.102  31.235  1.00  0.00     0.124 S 
ATOM     45  O   UNL A   1      36.083  29.941  32.001  1.00  0.00    -0.237 OA
ATOM     46  O   UNL A   1      36.855  32.287  32.024  1.00  0.00    -0.237 OA
ATOM     47  O   UNL A   1      35.782  31.362  30.007  1.00  0.00    -0.744 OA
ENDBRANCH  43  44
ENDBRANCH  24  38
BRANCH  25  48
ATOM     48  C   UNL A   1      49.684  26.498  26.515  1.00  0.00    -0.014 A 
ATOM     49  C   UNL A   1      50.585  25.866  27.389  1.00  0.00     0.010 A 
ATOM     50  C   UNL A   1      50.064  26.690  25.172  1.00  0.00     0.010 A 
ATOM     51  C   UNL A   1      51.848  25.461  26.936  1.00  0.00     0.020 A 
ATOM     52  C   UNL A   1      51.310  26.261  24.709  1.00  0.00     0.020 A 
ATOM     53  C   UNL A   1      52.203  25.666  25.599  1.00  0.00     0.054 A 
BRANCH  53  54
ATOM     54  S   UNL A   1      53.836  25.120  25.022  1.00  0.00     0.124 S 
ATOM     55  O   UNL A   1      53.990  25.882  23.787  1.00  0.00    -0.237 OA
ATOM     56  O   UNL A   1      54.712  25.515  26.123  1.00  0.00    -0.237 OA
ATOM     57  O   UNL A   1      53.672  23.678  24.854  1.00  0.00    -0.744 OA
ENDBRANCH  53  54
ENDBRANCH  25  48
BRANCH  37  58
ATOM     58  C   UNL A   1      47.137  32.683  28.498  1.00  0.00    -0.014 A 
ATOM     59  C   UNL A   1      47.758  33.091  29.691  1.00  0.00     0.010 A 
ATOM     60  C   UNL A   1      47.168  33.522  27.372  1.00  0.00     0.010 A 
ATOM     61  C   UNL A   1      48.385  34.335  29.760  1.00  0.00     0.020 A 
ATOM     62  C   UNL A   1      47.815  34.757  27.433  1.00  0.00     0.020 A 
ATOM     63  C   UNL A   1      48.409  35.159  28.631  1.00  0.00     0.054 A 
BRANCH  63  64
ATOM     64  S   UNL A   1      49.282  36.746  28.726  1.00  0.00     0.124 S 
ATOM     65  O   UNL A   1      48.205  37.698  28.479  1.00  0.00    -0.237 OA
ATOM     66  O   UNL A   1      49.817  36.738  30.085  1.00  0.00    -0.237 OA
ATOM     67  O   UNL A   1      50.286  36.649  27.668  1.00  0.00    -0.744 OA
ENDBRANCH  63  64
ENDBRANCH  37  58
ENDBRANCH  11  12
ENDBRANCH   4   6
ENDBRANCH   3   4
ENDBRANCH   2   3
ENDBRANCH   1   2
BRANCH   1  68
ATOM     68  O   UNL A   1      38.342  21.693  25.920  1.00  0.00    -0.374 OA
BRANCH  68  69
ATOM     69  C   UNL A   1      37.771  22.872  25.348  1.00  0.00     0.202 C 
BRANCH  69  70
ATOM     70  C   UNL A   1      36.929  22.442  24.142  1.00  0.00     0.261 C 
BRANCH  70  71
ATOM     71  O   UNL A   1      36.279  23.619  23.641  1.00  0.00    -0.459 OA
BRANCH  71  72
ATOM     72  C   UNL A   1      35.204  24.042  24.370  1.00  0.00     0.370 C 
ATOM     73  O   UNL A   1      35.323  24.847  25.288  1.00  0.00    -0.245 OA
BRANCH  72  74
ATOM     74  C   UNL A   1      33.870  23.481  23.751  1.00  0.00     0.328 C 
BRANCH  74  75
ATOM     75  N   UNL A   1      32.925  22.798  24.680  1.00  0.00    -0.316 N 
ATOM     76  C   UNL A   1      32.008  21.867  23.958  1.00  0.00     0.284 C 
ATOM     77  C   UNL A   1      33.529  22.058  25.806  1.00  0.00     0.284 C 
ATOM     78  H   UNL A   1      32.418  23.586  25.087  1.00  0.00     0.349 HD
ATOM     79  C   UNL A   1      32.548  20.433  23.627  1.00  0.00     0.178 C 
ATOM     80  C   UNL A   1      34.154  20.686  25.468  1.00  0.00     0.178 C 
ATOM     81  N   UNL A   1      33.160  19.817  24.817  1.00  0.00    -0.360 N 
BRANCH  81  82
ATOM     82  C   UNL A   1      33.425  18.455  24.925  1.00  0.00     0.038 A 
ATOM     83  C   UNL A   1      34.574  17.926  24.302  1.00  0.00     0.026 A 
ATOM     84  C   UNL A   1      32.596  17.550  25.598  1.00  0.00     0.046 A 
ATOM     85  C   UNL A   1      34.862  16.560  24.294  1.00  0.00     0.004 A 
ATOM     86  C   UNL A   1      32.884  16.178  25.596  1.00  0.00     0.043 A 
ATOM     87  C   UNL A   1      34.007  15.678  24.939  1.00  0.00     0.020 A 
ATOM     88  Cl  UNL A   1      31.831  15.080  26.404  1.00  0.00    -0.084 Cl
ENDBRANCH  81  82
ENDBRANCH  74  75
BRANCH  74  89
ATOM     89  C   UNL A   1      33.157  24.638  23.055  1.00  0.00     0.046 A 
ATOM     90  C   UNL A   1      32.902  24.726  21.695  1.00  0.00     0.094 A 
ATOM     91  C   UNL A   1      32.428  25.722  23.662  1.00  0.00     0.011 A 
ATOM     92  N   UNL A   1      31.890  25.626  21.503  1.00  0.00    -0.361 N 
ATOM     93  C   UNL A   1      31.547  26.214  22.696  1.00  0.00     0.046 A 
ATOM     94  C   UNL A   1      32.341  26.258  24.964  1.00  0.00     0.031 A 
ATOM     95  H   UNL A   1      31.468  25.823  20.635  1.00  0.00     0.166 HD
ATOM     96  C   UNL A   1      30.507  27.107  22.991  1.00  0.00     0.028 A 
ATOM     97  C   UNL A   1      31.307  27.151  25.272  1.00  0.00     0.041 A 
ATOM     98  C   UNL A   1      30.386  27.550  24.310  1.00  0.00     0.022 A 
ATOM     99  Cl  UNL A   1      31.136  27.707  26.894  1.00  0.00    -0.084 Cl
ENDBRANCH  74  89
ENDBRANCH  72  74
ENDBRANCH  71  72
ENDBRANCH  70  71
ENDBRANCH  69  70
ENDBRANCH  68  69
ENDBRANCH   1  68
TORSDOF 20
ENDMDL
