MODEL 1
REMARK VINA RESULT:     -10.0      0.000      0.000
REMARK SMILES C[C@H](NC(=O)N1CC[C@H](C(=O)OCCOCCOC(=O)c2ccc(-c3c4nc(c(-c5ccc(S(=O)(=O)[O-])cc5)c5ccc([nH]5)c(-c5ccc(S(=O)(=O)[O-])cc5)c5nc(c(-c6ccc(S(=O)(=O)[O-])cc6)c6ccc3[nH]6)C=C5)C=C4)cc2)[C@H]1C)c1ccsc1
REMARK SMILES IDX 15 1 14 2 13 3 12 4 10 5 11 6 9 7 6 8 7 9 81 10 8 11 82 12
REMARK SMILES IDX 4 13 3 14 5 16 2 17 1 18 83 19 84 20 87 21 85 22 86 23 16 24
REMARK SMILES IDX 17 25 18 26 19 27 20 28 21 29 22 30 80 31 23 32 79 33 24 34
REMARK SMILES IDX 25 35 26 36 73 37 27 38 78 39 72 40 74 41 28 42 77 43 71 44
REMARK SMILES IDX 70 45 29 47 59 48 40 49 58 50 41 51 44 52 57 53 75 54 42 55
REMARK SMILES IDX 43 56 56 58 76 59 45 60 30 61 31 62 39 63 32 64 38 65 33 66
REMARK SMILES IDX 34 67 35 68 36 69 37 70 60 71 61 72 69 73 62 74 68 75 63 76
REMARK SMILES IDX 64 77 65 78 66 79 67 80 46 81 47 82 55 83 48 84 54 85 49 86
REMARK SMILES IDX 50 87 51 88 52 89 53 90
REMARK H PARENT 3 15 74 46 44 57
REMARK Flexibility Score: inf
ROOT
ATOM      1  O   UNL A   1      38.357  22.007  26.271  1.00  0.00    -0.374 OA
ENDROOT
BRANCH   1   2
ATOM      2  C   UNL A   1      37.586  22.298  25.110  1.00  0.00     0.202 C 
BRANCH   2   3
ATOM      3  C   UNL A   1      36.518  21.285  24.687  1.00  0.00     0.261 C 
BRANCH   3   4
ATOM      4  O   UNL A   1      35.229  21.873  24.443  1.00  0.00    -0.463 OA
BRANCH   4   5
ATOM      5  C   UNL A   1      34.307  21.671  25.429  1.00  0.00     0.311 C 
ATOM      6  O   UNL A   1      34.556  21.209  26.533  1.00  0.00    -0.252 OA
BRANCH   5   7
ATOM      7  C   UNL A   1      32.913  22.023  24.938  1.00  0.00     0.123 C 
ATOM      8  N   UNL A   1      32.616  24.378  25.249  1.00  0.00    -0.321 N 
ATOM      9  C   UNL A   1      32.211  23.698  26.484  1.00  0.00     0.122 C 
ATOM     10  C   UNL A   1      32.815  23.369  24.189  1.00  0.00     0.098 C 
ATOM     11  C   UNL A   1      31.969  22.241  26.122  1.00  0.00     0.039 C 
ATOM     12  C   UNL A   1      31.624  23.268  23.223  1.00  0.00     0.032 C 
BRANCH   8  13
ATOM     13  C   UNL A   1      33.487  25.426  25.419  1.00  0.00     0.318 C 
ATOM     14  N   UNL A   1      33.072  26.667  25.713  1.00  0.00    -0.331 N 
ATOM     15  H   UNL A   1      33.809  27.313  25.623  1.00  0.00     0.165 HD
ATOM     16  O   UNL A   1      34.711  25.284  25.382  1.00  0.00    -0.249 OA
BRANCH  14  17
ATOM     17  C   UNL A   1      31.851  27.332  26.128  1.00  0.00     0.112 C 
ATOM     18  C   UNL A   1      31.979  28.196  27.370  1.00  0.00     0.036 C 
BRANCH  17  19
ATOM     19  C   UNL A   1      31.058  27.878  24.965  1.00  0.00    -0.015 A 
ATOM     20  C   UNL A   1      30.180  27.060  24.160  1.00  0.00     0.017 A 
ATOM     21  C   UNL A   1      31.037  29.175  24.488  1.00  0.00     0.070 A 
ATOM     22  C   UNL A   1      29.556  27.757  23.149  1.00  0.00     0.065 A 
ATOM     23  S   UNL A   1      30.003  29.402  23.145  1.00  0.00    -0.152 S 
ENDBRANCH  17  19
ENDBRANCH  14  17
ENDBRANCH   8  13
ENDBRANCH   5   7
ENDBRANCH   4   5
ENDBRANCH   3   4
ENDBRANCH   2   3
ENDBRANCH   1   2
BRANCH   1  24
ATOM     24  C   UNL A   1      39.748  22.316  26.223  1.00  0.00     0.202 C 
BRANCH  24  25
ATOM     25  C   UNL A   1      40.257  23.422  27.154  1.00  0.00     0.261 C 
BRANCH  25  26
ATOM     26  O   UNL A   1      39.458  24.617  27.080  1.00  0.00    -0.460 OA
BRANCH  26  27
ATOM     27  C   UNL A   1      40.162  25.758  26.860  1.00  0.00     0.338 C 
ATOM     28  O   UNL A   1      40.762  26.070  25.849  1.00  0.00    -0.246 OA
BRANCH  27  29
ATOM     29  C   UNL A   1      39.953  26.694  27.982  1.00  0.00     0.060 A 
ATOM     30  C   UNL A   1      40.566  27.951  27.906  1.00  0.00     0.016 A 
ATOM     31  C   UNL A   1      39.233  26.321  29.118  1.00  0.00     0.016 A 
ATOM     32  C   UNL A   1      40.485  28.833  28.981  1.00  0.00     0.010 A 
ATOM     33  C   UNL A   1      39.166  27.202  30.202  1.00  0.00     0.010 A 
ATOM     34  C   UNL A   1      39.814  28.450  30.148  1.00  0.00    -0.014 A 
BRANCH  34  35
ATOM     35  C   UNL A   1      39.897  29.297  31.362  1.00  0.00     0.031 A 
ATOM     36  C   UNL A   1      41.032  29.084  32.324  1.00  0.00     0.074 A 
ATOM     37  C   UNL A   1      38.981  30.254  31.595  1.00  0.00     0.049 A 
ATOM     38  N   UNL A   1      41.276  29.680  33.462  1.00  0.00    -0.248 NA
ATOM     39  C   UNL A   1      42.025  28.065  31.949  1.00  0.00     0.031 C 
ATOM     40  C   UNL A   1      37.874  30.598  30.705  1.00  0.00     0.029 A 
ATOM     41  N   UNL A   1      38.841  31.110  32.657  1.00  0.00    -0.354 N 
ATOM     42  C   UNL A   1      42.448  29.108  33.943  1.00  0.00     0.074 A 
ATOM     43  C   UNL A   1      42.847  28.096  32.988  1.00  0.00     0.031 C 
ATOM     44  C   UNL A   1      37.167  31.598  31.258  1.00  0.00     0.029 A 
ATOM     45  C   UNL A   1      37.746  31.934  32.558  1.00  0.00     0.049 A 
ATOM     46  H   UNL A   1      39.465  31.132  33.417  1.00  0.00     0.167 HD
ATOM     47  C   UNL A   1      43.131  29.399  35.076  1.00  0.00     0.031 A 
ATOM     48  C   UNL A   1      37.256  32.841  33.425  1.00  0.00     0.031 A 
ATOM     49  C   UNL A   1      42.711  30.381  36.039  1.00  0.00     0.049 A 
ATOM     50  C   UNL A   1      37.961  33.060  34.738  1.00  0.00     0.074 A 
ATOM     51  C   UNL A   1      43.332  30.755  37.218  1.00  0.00     0.029 A 
ATOM     52  N   UNL A   1      41.549  31.134  35.943  1.00  0.00    -0.354 N 
ATOM     53  N   UNL A   1      39.074  32.521  35.175  1.00  0.00    -0.248 NA
ATOM     54  C   UNL A   1      37.335  34.001  35.677  1.00  0.00     0.031 C 
ATOM     55  C   UNL A   1      42.515  31.690  37.864  1.00  0.00     0.029 A 
ATOM     56  C   UNL A   1      41.413  31.942  37.060  1.00  0.00     0.049 A 
ATOM     57  H   UNL A   1      40.915  31.100  35.192  1.00  0.00     0.167 HD
ATOM     58  C   UNL A   1      39.295  33.073  36.433  1.00  0.00     0.074 A 
ATOM     59  C   UNL A   1      38.204  33.994  36.682  1.00  0.00     0.031 C 
ATOM     60  C   UNL A   1      40.312  32.842  37.301  1.00  0.00     0.031 A 
BRANCH  47  61
ATOM     61  C   UNL A   1      44.377  28.598  35.348  1.00  0.00    -0.014 A 
ATOM     62  C   UNL A   1      44.326  27.389  36.067  1.00  0.00     0.010 A 
ATOM     63  C   UNL A   1      45.621  29.069  34.891  1.00  0.00     0.010 A 
ATOM     64  C   UNL A   1      45.502  26.703  36.383  1.00  0.00     0.020 A 
ATOM     65  C   UNL A   1      46.797  28.371  35.181  1.00  0.00     0.020 A 
ATOM     66  C   UNL A   1      46.732  27.207  35.949  1.00  0.00     0.054 A 
BRANCH  66  67
ATOM     67  S   UNL A   1      48.247  26.318  36.403  1.00  0.00     0.124 S 
ATOM     68  O   UNL A   1      49.130  26.643  35.286  1.00  0.00    -0.237 OA
ATOM     69  O   UNL A   1      48.605  26.923  37.684  1.00  0.00    -0.237 OA
ATOM     70  O   UNL A   1      47.821  24.922  36.474  1.00  0.00    -0.744 OA
ENDBRANCH  66  67
ENDBRANCH  47  61
BRANCH  48  71
ATOM     71  C   UNL A   1      36.027  33.604  33.080  1.00  0.00    -0.014 A 
ATOM     72  C   UNL A   1      34.758  33.035  33.283  1.00  0.00     0.010 A 
ATOM     73  C   UNL A   1      36.117  34.915  32.578  1.00  0.00     0.010 A 
ATOM     74  C   UNL A   1      33.602  33.764  32.994  1.00  0.00     0.020 A 
ATOM     75  C   UNL A   1      34.963  35.656  32.311  1.00  0.00     0.020 A 
ATOM     76  C   UNL A   1      33.711  35.073  32.518  1.00  0.00     0.054 A 
BRANCH  76  77
ATOM     77  S   UNL A   1      32.195  36.028  32.231  1.00  0.00     0.124 S 
ATOM     78  O   UNL A   1      32.380  37.167  33.125  1.00  0.00    -0.237 OA
ATOM     79  O   UNL A   1      32.275  36.324  30.803  1.00  0.00    -0.237 OA
ATOM     80  O   UNL A   1      31.130  35.101  32.608  1.00  0.00    -0.744 OA
ENDBRANCH  76  77
ENDBRANCH  48  71
BRANCH  60  81
ATOM     81  C   UNL A   1      40.302  33.601  38.601  1.00  0.00    -0.014 A 
ATOM     82  C   UNL A   1      39.698  33.061  39.750  1.00  0.00     0.010 A 
ATOM     83  C   UNL A   1      40.969  34.837  38.692  1.00  0.00     0.010 A 
ATOM     84  C   UNL A   1      39.746  33.752  40.964  1.00  0.00     0.020 A 
ATOM     85  C   UNL A   1      41.041  35.518  39.909  1.00  0.00     0.020 A 
ATOM     86  C   UNL A   1      40.421  34.975  41.037  1.00  0.00     0.054 A 
BRANCH  86  87
ATOM     87  S   UNL A   1      40.527  35.819  42.639  1.00  0.00     0.124 S 
ATOM     88  O   UNL A   1      41.837  36.460  42.560  1.00  0.00    -0.237 OA
ATOM     89  O   UNL A   1      39.380  36.724  42.600  1.00  0.00    -0.237 OA
ATOM     90  O   UNL A   1      40.421  34.733  43.612  1.00  0.00    -0.744 OA
ENDBRANCH  86  87
ENDBRANCH  60  81
ENDBRANCH  34  35
ENDBRANCH  27  29
ENDBRANCH  26  27
ENDBRANCH  25  26
ENDBRANCH  24  25
ENDBRANCH   1  24
TORSDOF 20
ENDMDL
MODEL 2
REMARK VINA RESULT:      -9.9      6.946     12.393
REMARK SMILES C[C@H](NC(=O)N1CC[C@H](C(=O)OCCOCCOC(=O)c2ccc(-c3c4nc(c(-c5ccc(S(=O)(=O)[O-])cc5)c5ccc([nH]5)c(-c5ccc(S(=O)(=O)[O-])cc5)c5nc(c(-c6ccc(S(=O)(=O)[O-])cc6)c6ccc3[nH]6)C=C5)C=C4)cc2)[C@H]1C)c1ccsc1
REMARK SMILES IDX 15 1 14 2 13 3 12 4 10 5 11 6 9 7 6 8 7 9 81 10 8 11 82 12
REMARK SMILES IDX 4 13 3 14 5 16 2 17 1 18 83 19 84 20 87 21 85 22 86 23 16 24
REMARK SMILES IDX 17 25 18 26 19 27 20 28 21 29 22 30 80 31 23 32 79 33 24 34
REMARK SMILES IDX 25 35 26 36 73 37 27 38 78 39 72 40 74 41 28 42 77 43 71 44
REMARK SMILES IDX 70 45 29 47 59 48 40 49 58 50 41 51 44 52 57 53 75 54 42 55
REMARK SMILES IDX 43 56 56 58 76 59 45 60 30 61 31 62 39 63 32 64 38 65 33 66
REMARK SMILES IDX 34 67 35 68 36 69 37 70 60 71 61 72 69 73 62 74 68 75 63 76
REMARK SMILES IDX 64 77 65 78 66 79 67 80 46 81 47 82 55 83 48 84 54 85 49 86
REMARK SMILES IDX 50 87 51 88 52 89 53 90
REMARK H PARENT 3 15 74 46 44 57
REMARK Flexibility Score: inf
ROOT
ATOM      1  O   UNL A   1      32.284  30.250  26.792  1.00  0.00    -0.374 OA
ENDROOT
BRANCH   1   2
ATOM      2  C   UNL A   1      32.638  29.052  26.108  1.00  0.00     0.202 C 
BRANCH   2   3
ATOM      3  C   UNL A   1      31.947  27.754  26.534  1.00  0.00     0.261 C 
BRANCH   3   4
ATOM      4  O   UNL A   1      32.797  26.596  26.464  1.00  0.00    -0.463 OA
BRANCH   4   5
ATOM      5  C   UNL A   1      32.155  25.426  26.176  1.00  0.00     0.311 C 
ATOM      6  O   UNL A   1      31.415  24.830  26.944  1.00  0.00    -0.252 OA
BRANCH   5   7
ATOM      7  C   UNL A   1      32.551  24.924  24.798  1.00  0.00     0.123 C 
ATOM      8  N   UNL A   1      34.106  23.129  25.109  1.00  0.00    -0.321 N 
ATOM      9  C   UNL A   1      34.859  24.387  25.071  1.00  0.00     0.122 C 
ATOM     10  C   UNL A   1      32.714  23.392  24.694  1.00  0.00     0.098 C 
ATOM     11  C   UNL A   1      33.949  25.423  24.430  1.00  0.00     0.039 C 
ATOM     12  C   UNL A   1      32.437  23.002  23.234  1.00  0.00     0.032 C 
BRANCH   8  13
ATOM     13  C   UNL A   1      34.399  22.306  26.168  1.00  0.00     0.318 C 
ATOM     14  N   UNL A   1      34.890  21.068  26.004  1.00  0.00    -0.331 N 
ATOM     15  H   UNL A   1      34.870  20.569  26.852  1.00  0.00     0.165 HD
ATOM     16  O   UNL A   1      34.298  22.672  27.341  1.00  0.00    -0.249 OA
BRANCH  14  17
ATOM     17  C   UNL A   1      35.443  20.255  24.939  1.00  0.00     0.112 C 
ATOM     18  C   UNL A   1      36.951  20.082  24.978  1.00  0.00     0.036 C 
BRANCH  17  19
ATOM     19  C   UNL A   1      34.600  19.040  24.632  1.00  0.00    -0.015 A 
ATOM     20  C   UNL A   1      35.146  17.706  24.544  1.00  0.00     0.017 A 
ATOM     21  C   UNL A   1      33.240  18.993  24.387  1.00  0.00     0.070 A 
ATOM     22  C   UNL A   1      34.203  16.745  24.251  1.00  0.00     0.065 A 
ATOM     23  S   UNL A   1      32.647  17.419  24.080  1.00  0.00    -0.152 S 
ENDBRANCH  17  19
ENDBRANCH  14  17
ENDBRANCH   8  13
ENDBRANCH   5   7
ENDBRANCH   4   5
ENDBRANCH   3   4
ENDBRANCH   2   3
ENDBRANCH   1   2
BRANCH   1  24
ATOM     24  C   UNL A   1      33.352  31.085  27.236  1.00  0.00     0.202 C 
BRANCH  24  25
ATOM     25  C   UNL A   1      34.548  30.400  27.908  1.00  0.00     0.261 C 
BRANCH  25  26
ATOM     26  O   UNL A   1      35.696  31.263  28.002  1.00  0.00    -0.460 OA
BRANCH  26  27
ATOM     27  C   UNL A   1      36.382  31.169  29.171  1.00  0.00     0.338 C 
ATOM     28  O   UNL A   1      35.998  31.493  30.279  1.00  0.00    -0.246 OA
BRANCH  27  29
ATOM     29  C   UNL A   1      37.639  30.427  28.951  1.00  0.00     0.060 A 
ATOM     30  C   UNL A   1      38.497  30.257  30.045  1.00  0.00     0.016 A 
ATOM     31  C   UNL A   1      38.003  29.971  27.683  1.00  0.00     0.016 A 
ATOM     32  C   UNL A   1      39.741  29.654  29.869  1.00  0.00     0.010 A 
ATOM     33  C   UNL A   1      39.258  29.380  27.506  1.00  0.00     0.010 A 
ATOM     34  C   UNL A   1      40.142  29.243  28.592  1.00  0.00    -0.014 A 
BRANCH  34  35
ATOM     35  C   UNL A   1      41.534  28.790  28.365  1.00  0.00     0.031 A 
ATOM     36  C   UNL A   1      42.652  29.790  28.460  1.00  0.00     0.074 A 
ATOM     37  C   UNL A   1      41.801  27.500  28.093  1.00  0.00     0.049 A 
ATOM     38  N   UNL A   1      43.933  29.622  28.260  1.00  0.00    -0.248 NA
ATOM     39  C   UNL A   1      42.273  31.162  28.834  1.00  0.00     0.031 C 
ATOM     40  C   UNL A   1      40.810  26.427  28.039  1.00  0.00     0.029 A 
ATOM     41  N   UNL A   1      42.989  26.879  27.809  1.00  0.00    -0.354 N 
ATOM     42  C   UNL A   1      44.515  30.865  28.478  1.00  0.00     0.074 A 
ATOM     43  C   UNL A   1      43.442  31.784  28.796  1.00  0.00     0.031 C 
ATOM     44  C   UNL A   1      41.435  25.274  27.742  1.00  0.00     0.029 A 
ATOM     45  C   UNL A   1      42.859  25.537  27.544  1.00  0.00     0.049 A 
ATOM     46  H   UNL A   1      43.854  27.348  27.797  1.00  0.00     0.167 HD
ATOM     47  C   UNL A   1      45.824  31.211  28.423  1.00  0.00     0.031 A 
ATOM     48  C   UNL A   1      43.780  24.629  27.166  1.00  0.00     0.031 A 
ATOM     49  C   UNL A   1      46.882  30.302  28.072  1.00  0.00     0.049 A 
ATOM     50  C   UNL A   1      45.210  25.063  26.986  1.00  0.00     0.074 A 
ATOM     51  C   UNL A   1      48.241  30.550  27.989  1.00  0.00     0.029 A 
ATOM     52  N   UNL A   1      46.698  28.971  27.727  1.00  0.00    -0.354 N 
ATOM     53  N   UNL A   1      45.749  26.238  27.208  1.00  0.00    -0.248 NA
ATOM     54  C   UNL A   1      46.154  24.049  26.494  1.00  0.00     0.031 C 
ATOM     55  C   UNL A   1      48.870  29.386  27.535  1.00  0.00     0.029 A 
ATOM     56  C   UNL A   1      47.911  28.395  27.391  1.00  0.00     0.049 A 
ATOM     57  H   UNL A   1      45.831  28.505  27.722  1.00  0.00     0.167 HD
ATOM     58  C   UNL A   1      47.100  26.101  26.903  1.00  0.00     0.074 A 
ATOM     59  C   UNL A   1      47.296  24.725  26.489  1.00  0.00     0.031 C 
ATOM     60  C   UNL A   1      48.088  27.028  26.965  1.00  0.00     0.031 A 
BRANCH  47  61
ATOM     61  C   UNL A   1      46.162  32.653  28.699  1.00  0.00    -0.014 A 
ATOM     62  C   UNL A   1      46.204  33.605  27.664  1.00  0.00     0.010 A 
ATOM     63  C   UNL A   1      46.459  33.059  30.013  1.00  0.00     0.010 A 
ATOM     64  C   UNL A   1      46.603  34.918  27.926  1.00  0.00     0.020 A 
ATOM     65  C   UNL A   1      46.831  34.378  30.284  1.00  0.00     0.020 A 
ATOM     66  C   UNL A   1      46.928  35.293  29.234  1.00  0.00     0.054 A 
BRANCH  66  67
ATOM     67  S   UNL A   1      47.477  36.994  29.542  1.00  0.00     0.124 S 
ATOM     68  O   UNL A   1      48.000  37.381  28.235  1.00  0.00    -0.237 OA
ATOM     69  O   UNL A   1      46.243  37.663  29.948  1.00  0.00    -0.237 OA
ATOM     70  O   UNL A   1      48.478  36.849  30.596  1.00  0.00    -0.744 OA
ENDBRANCH  66  67
ENDBRANCH  47  61
BRANCH  48  71
ATOM     71  C   UNL A   1      43.371  23.220  26.924  1.00  0.00    -0.014 A 
ATOM     72  C   UNL A   1      43.391  22.688  25.623  1.00  0.00     0.010 A 
ATOM     73  C   UNL A   1      42.991  22.392  27.996  1.00  0.00     0.010 A 
ATOM     74  C   UNL A   1      43.043  21.354  25.399  1.00  0.00     0.020 A 
ATOM     75  C   UNL A   1      42.666  21.050  27.779  1.00  0.00     0.020 A 
ATOM     76  C   UNL A   1      42.690  20.540  26.478  1.00  0.00     0.054 A 
BRANCH  76  77
ATOM     77  S   UNL A   1      42.325  18.789  26.172  1.00  0.00     0.124 S 
ATOM     78  O   UNL A   1      42.612  18.188  27.470  1.00  0.00    -0.237 OA
ATOM     79  O   UNL A   1      40.917  18.825  25.787  1.00  0.00    -0.237 OA
ATOM     80  O   UNL A   1      43.248  18.431  25.097  1.00  0.00    -0.744 OA
ENDBRANCH  76  77
ENDBRANCH  48  71
BRANCH  60  81
ATOM     81  C   UNL A   1      49.477  26.590  26.583  1.00  0.00    -0.014 A 
ATOM     82  C   UNL A   1      50.344  26.024  27.533  1.00  0.00     0.010 A 
ATOM     83  C   UNL A   1      49.892  26.679  25.241  1.00  0.00     0.010 A 
ATOM     84  C   UNL A   1      51.610  25.569  27.152  1.00  0.00     0.020 A 
ATOM     85  C   UNL A   1      51.146  26.203  24.852  1.00  0.00     0.020 A 
ATOM     86  C   UNL A   1      52.001  25.658  25.812  1.00  0.00     0.054 A 
BRANCH  86  87
ATOM     87  S   UNL A   1      53.622  25.000  25.331  1.00  0.00     0.124 S 
ATOM     88  O   UNL A   1      53.896  25.735  24.100  1.00  0.00    -0.237 OA
ATOM     89  O   UNL A   1      54.462  25.352  26.474  1.00  0.00    -0.237 OA
ATOM     90  O   UNL A   1      53.380  23.568  25.163  1.00  0.00    -0.744 OA
ENDBRANCH  86  87
ENDBRANCH  60  81
ENDBRANCH  34  35
ENDBRANCH  27  29
ENDBRANCH  26  27
ENDBRANCH  25  26
ENDBRANCH  24  25
ENDBRANCH   1  24
TORSDOF 20
ENDMDL
MODEL 3
REMARK VINA RESULT:      -9.8      1.615      2.216
REMARK SMILES C[C@H](NC(=O)N1CC[C@H](C(=O)OCCOCCOC(=O)c2ccc(-c3c4nc(c(-c5ccc(S(=O)(=O)[O-])cc5)c5ccc([nH]5)c(-c5ccc(S(=O)(=O)[O-])cc5)c5nc(c(-c6ccc(S(=O)(=O)[O-])cc6)c6ccc3[nH]6)C=C5)C=C4)cc2)[C@H]1C)c1ccsc1
REMARK SMILES IDX 15 1 14 2 13 3 12 4 10 5 11 6 9 7 6 8 7 9 81 10 8 11 82 12
REMARK SMILES IDX 4 13 3 14 5 16 2 17 1 18 83 19 84 20 87 21 85 22 86 23 16 24
REMARK SMILES IDX 17 25 18 26 19 27 20 28 21 29 22 30 80 31 23 32 79 33 24 34
REMARK SMILES IDX 25 35 26 36 73 37 27 38 78 39 72 40 74 41 28 42 77 43 71 44
REMARK SMILES IDX 70 45 29 47 59 48 40 49 58 50 41 51 44 52 57 53 75 54 42 55
REMARK SMILES IDX 43 56 56 58 76 59 45 60 30 61 31 62 39 63 32 64 38 65 33 66
REMARK SMILES IDX 34 67 35 68 36 69 37 70 60 71 61 72 69 73 62 74 68 75 63 76
REMARK SMILES IDX 64 77 65 78 66 79 67 80 46 81 47 82 55 83 48 84 54 85 49 86
REMARK SMILES IDX 50 87 51 88 52 89 53 90
REMARK H PARENT 3 15 74 46 44 57
REMARK Flexibility Score: inf
ROOT
ATOM      1  O   UNL A   1      37.847  23.120  25.872  1.00  0.00    -0.374 OA
ENDROOT
BRANCH   1   2
ATOM      2  C   UNL A   1      36.954  22.931  24.779  1.00  0.00     0.202 C 
BRANCH   2   3
ATOM      3  C   UNL A   1      36.463  21.508  24.493  1.00  0.00     0.261 C 
BRANCH   3   4
ATOM      4  O   UNL A   1      35.556  21.000  25.486  1.00  0.00    -0.463 OA
BRANCH   4   5
ATOM      5  C   UNL A   1      34.520  21.831  25.799  1.00  0.00     0.311 C 
ATOM      6  O   UNL A   1      34.308  22.294  26.910  1.00  0.00    -0.252 OA
BRANCH   5   7
ATOM      7  C   UNL A   1      33.617  22.039  24.595  1.00  0.00     0.123 C 
ATOM      8  N   UNL A   1      31.646  23.163  25.360  1.00  0.00    -0.321 N 
ATOM      9  C   UNL A   1      31.435  21.719  25.503  1.00  0.00     0.122 C 
ATOM     10  C   UNL A   1      32.874  23.392  24.573  1.00  0.00     0.098 C 
ATOM     11  C   UNL A   1      32.463  21.036  24.614  1.00  0.00     0.039 C 
ATOM     12  C   UNL A   1      32.591  23.733  23.102  1.00  0.00     0.032 C 
BRANCH   8  13
ATOM     13  C   UNL A   1      31.357  23.907  26.477  1.00  0.00     0.318 C 
ATOM     14  N   UNL A   1      31.134  25.229  26.424  1.00  0.00    -0.331 N 
ATOM     15  H   UNL A   1      31.120  25.618  27.328  1.00  0.00     0.165 HD
ATOM     16  O   UNL A   1      31.213  23.402  27.592  1.00  0.00    -0.249 OA
BRANCH  14  17
ATOM     17  C   UNL A   1      30.906  26.250  25.419  1.00  0.00     0.112 C 
ATOM     18  C   UNL A   1      29.548  26.196  24.743  1.00  0.00     0.036 C 
BRANCH  17  19
ATOM     19  C   UNL A   1      31.441  27.603  25.827  1.00  0.00    -0.015 A 
ATOM     20  C   UNL A   1      31.508  28.038  27.203  1.00  0.00     0.017 A 
ATOM     21  C   UNL A   1      31.923  28.606  25.007  1.00  0.00     0.070 A 
ATOM     22  C   UNL A   1      32.025  29.306  27.352  1.00  0.00     0.065 A 
ATOM     23  S   UNL A   1      32.444  29.999  25.852  1.00  0.00    -0.152 S 
ENDBRANCH  17  19
ENDBRANCH  14  17
ENDBRANCH   8  13
ENDBRANCH   5   7
ENDBRANCH   4   5
ENDBRANCH   3   4
ENDBRANCH   2   3
ENDBRANCH   1   2
BRANCH   1  24
ATOM     24  C   UNL A   1      38.813  22.098  26.106  1.00  0.00     0.202 C 
BRANCH  24  25
ATOM     25  C   UNL A   1      40.219  22.541  26.531  1.00  0.00     0.261 C 
BRANCH  25  26
ATOM     26  O   UNL A   1      40.394  23.967  26.455  1.00  0.00    -0.460 OA
BRANCH  26  27
ATOM     27  C   UNL A   1      41.524  24.433  27.048  1.00  0.00     0.338 C 
ATOM     28  O   UNL A   1      42.669  24.090  26.822  1.00  0.00    -0.246 OA
BRANCH  27  29
ATOM     29  C   UNL A   1      41.194  25.583  27.912  1.00  0.00     0.060 A 
ATOM     30  C   UNL A   1      42.164  26.581  28.069  1.00  0.00     0.016 A 
ATOM     31  C   UNL A   1      39.988  25.646  28.611  1.00  0.00     0.016 A 
ATOM     32  C   UNL A   1      41.943  27.636  28.952  1.00  0.00     0.010 A 
ATOM     33  C   UNL A   1      39.775  26.698  29.508  1.00  0.00     0.010 A 
ATOM     34  C   UNL A   1      40.762  27.681  29.702  1.00  0.00    -0.014 A 
BRANCH  34  35
ATOM     35  C   UNL A   1      40.612  28.683  30.784  1.00  0.00     0.031 A 
ATOM     36  C   UNL A   1      41.501  28.592  31.992  1.00  0.00     0.074 A 
ATOM     37  C   UNL A   1      39.703  29.670  30.684  1.00  0.00     0.049 A 
ATOM     38  N   UNL A   1      41.514  29.334  33.068  1.00  0.00    -0.248 NA
ATOM     39  C   UNL A   1      42.513  27.524  31.981  1.00  0.00     0.031 C 
ATOM     40  C   UNL A   1      38.830  29.900  29.534  1.00  0.00     0.029 A 
ATOM     41  N   UNL A   1      39.368  30.662  31.569  1.00  0.00    -0.354 N 
ATOM     42  C   UNL A   1      42.530  28.821  33.867  1.00  0.00     0.074 A 
ATOM     43  C   UNL A   1      43.089  27.687  33.162  1.00  0.00     0.031 C 
ATOM     44  C   UNL A   1      38.058  30.972  29.784  1.00  0.00     0.029 A 
ATOM     45  C   UNL A   1      38.352  31.474  31.125  1.00  0.00     0.049 A 
ATOM     46  H   UNL A   1      39.812  30.781  32.438  1.00  0.00     0.167 HD
ATOM     47  C   UNL A   1      42.962  29.257  35.075  1.00  0.00     0.031 A 
ATOM     48  C   UNL A   1      37.720  32.494  31.738  1.00  0.00     0.031 A 
ATOM     49  C   UNL A   1      42.379  30.363  35.786  1.00  0.00     0.049 A 
ATOM     50  C   UNL A   1      38.130  32.881  33.134  1.00  0.00     0.074 A 
ATOM     51  C   UNL A   1      42.742  30.887  37.015  1.00  0.00     0.029 A 
ATOM     52  N   UNL A   1      41.295  31.106  35.340  1.00  0.00    -0.354 N 
ATOM     53  N   UNL A   1      39.101  32.397  33.872  1.00  0.00    -0.248 NA
ATOM     54  C   UNL A   1      37.351  33.946  33.783  1.00  0.00     0.031 C 
ATOM     55  C   UNL A   1      41.840  31.907  37.338  1.00  0.00     0.029 A 
ATOM     56  C   UNL A   1      40.950  32.057  36.285  1.00  0.00     0.049 A 
ATOM     57  H   UNL A   1      40.839  30.976  34.478  1.00  0.00     0.167 HD
ATOM     58  C   UNL A   1      39.064  33.112  35.065  1.00  0.00     0.074 A 
ATOM     59  C   UNL A   1      37.980  34.067  34.946  1.00  0.00     0.031 C 
ATOM     60  C   UNL A   1      39.858  32.990  36.159  1.00  0.00     0.031 A 
BRANCH  47  61
ATOM     61  C   UNL A   1      44.088  28.489  35.716  1.00  0.00    -0.014 A 
ATOM     62  C   UNL A   1      45.432  28.820  35.467  1.00  0.00     0.010 A 
ATOM     63  C   UNL A   1      43.797  27.407  36.567  1.00  0.00     0.010 A 
ATOM     64  C   UNL A   1      46.463  28.042  36.002  1.00  0.00     0.020 A 
ATOM     65  C   UNL A   1      44.825  26.644  37.126  1.00  0.00     0.020 A 
ATOM     66  C   UNL A   1      46.151  26.950  36.817  1.00  0.00     0.054 A 
BRANCH  66  67
ATOM     67  S   UNL A   1      47.506  25.935  37.470  1.00  0.00     0.124 S 
ATOM     68  O   UNL A   1      47.902  26.691  38.655  1.00  0.00    -0.237 OA
ATOM     69  O   UNL A   1      46.853  24.654  37.732  1.00  0.00    -0.237 OA
ATOM     70  O   UNL A   1      48.483  25.921  36.384  1.00  0.00    -0.744 OA
ENDBRANCH  66  67
ENDBRANCH  47  61
BRANCH  48  71
ATOM     71  C   UNL A   1      36.625  33.213  31.035  1.00  0.00    -0.014 A 
ATOM     72  C   UNL A   1      36.916  34.087  29.973  1.00  0.00     0.010 A 
ATOM     73  C   UNL A   1      35.283  33.004  31.401  1.00  0.00     0.010 A 
ATOM     74  C   UNL A   1      35.885  34.735  29.288  1.00  0.00     0.020 A 
ATOM     75  C   UNL A   1      34.248  33.631  30.702  1.00  0.00     0.020 A 
ATOM     76  C   UNL A   1      34.557  34.497  29.650  1.00  0.00     0.054 A 
BRANCH  76  77
ATOM     77  S   UNL A   1      33.233  35.283  28.689  1.00  0.00     0.124 S 
ATOM     78  O   UNL A   1      32.462  35.956  29.729  1.00  0.00    -0.237 OA
ATOM     79  O   UNL A   1      33.978  36.158  27.787  1.00  0.00    -0.237 OA
ATOM     80  O   UNL A   1      32.565  34.156  28.041  1.00  0.00    -0.744 OA
ENDBRANCH  76  77
ENDBRANCH  48  71
BRANCH  60  81
ATOM     81  C   UNL A   1      39.594  33.918  37.315  1.00  0.00    -0.014 A 
ATOM     82  C   UNL A   1      38.810  33.507  38.407  1.00  0.00     0.010 A 
ATOM     83  C   UNL A   1      40.198  35.188  37.342  1.00  0.00     0.010 A 
ATOM     84  C   UNL A   1      38.620  34.358  39.500  1.00  0.00     0.020 A 
ATOM     85  C   UNL A   1      40.032  36.031  38.444  1.00  0.00     0.020 A 
ATOM     86  C   UNL A   1      39.237  35.614  39.513  1.00  0.00     0.054 A 
BRANCH  86  87
ATOM     87  S   UNL A   1      39.030  36.672  40.972  1.00  0.00     0.124 S 
ATOM     88  O   UNL A   1      38.476  37.891  40.388  1.00  0.00    -0.237 OA
ATOM     89  O   UNL A   1      38.109  35.897  41.801  1.00  0.00    -0.237 OA
ATOM     90  O   UNL A   1      40.384  36.796  41.507  1.00  0.00    -0.744 OA
ENDBRANCH  86  87
ENDBRANCH  60  81
ENDBRANCH  34  35
ENDBRANCH  27  29
ENDBRANCH  26  27
ENDBRANCH  25  26
ENDBRANCH  24  25
ENDBRANCH   1  24
TORSDOF 20
ENDMDL
