MODEL 1
REMARK VINA RESULT:     -11.2      0.000      0.000
REMARK SMILES O=C(/C=C/c1ccc(C(=O)NC2CC2)cc1)NC1(C(=O)OCCOCCOC(=O)c2ccc(-c3c4nc(c(-c5ccc(S(=O)(=O)[O-])cc5)c5ccc([nH]5)c(-c5ccc(S(=O)(=O)[O-])cc5)c5nc(c(-c6ccc(S(=O)(=O)[O-])cc6)c6ccc3[nH]6)C=C5)C=C4)cc2)CCCC1
REMARK SMILES IDX 23 1 22 2 21 3 19 4 20 5 18 6 90 7 93 8 91 9 92 10 17 11
REMARK SMILES IDX 1 12 2 13 3 15 4 16 5 17 6 18 16 19 7 20 15 21 8 22 9 23
REMARK SMILES IDX 10 24 11 25 12 27 13 28 14 29 24 30 25 31 26 32 27 33 28 34
REMARK SMILES IDX 29 35 30 36 31 37 89 38 32 39 88 40 33 41 34 42 35 43 82 44
REMARK SMILES IDX 36 45 87 46 81 47 83 48 37 49 86 50 80 51 79 52 38 54 68 55
REMARK SMILES IDX 49 56 67 57 50 58 53 59 66 60 84 61 51 62 52 63 65 65 85 66
REMARK SMILES IDX 54 67 39 68 40 69 48 70 41 71 47 72 42 73 43 74 44 75 45 76
REMARK SMILES IDX 46 77 69 78 70 79 78 80 71 81 77 82 72 83 73 84 74 85 75 86
REMARK SMILES IDX 76 87 55 88 56 89 64 90 57 91 63 92 58 93 59 94 60 95 61 96
REMARK SMILES IDX 62 97
REMARK H PARENT 17 14 11 26 83 53 53 64
REMARK Flexibility Score: inf
ROOT
ATOM      1  C   UNL A   1      37.555  21.558  24.575  1.00  0.00     0.202 C 
ENDROOT
BRANCH   1   2
ATOM      2  C   UNL A   1      36.028  21.692  24.646  1.00  0.00     0.261 C 
BRANCH   2   3
ATOM      3  O   UNL A   1      35.456  20.696  25.510  1.00  0.00    -0.461 OA
BRANCH   3   4
ATOM      4  C   UNL A   1      34.891  19.636  24.864  1.00  0.00     0.331 C 
ATOM      5  O   UNL A   1      35.508  18.647  24.478  1.00  0.00    -0.249 OA
BRANCH   4   6
ATOM      6  C   UNL A   1      33.335  19.778  24.762  1.00  0.00     0.138 C 
ATOM      7  C   UNL A   1      32.739  19.081  26.000  1.00  0.00     0.040 C 
ATOM      8  C   UNL A   1      32.657  18.989  23.627  1.00  0.00     0.040 C 
ATOM      9  C   UNL A   1      32.769  17.604  25.640  1.00  0.00     0.003 C 
ATOM     10  C   UNL A   1      32.474  17.559  24.146  1.00  0.00     0.003 C 
BRANCH   6  11
ATOM     11  N   UNL A   1      32.928  21.201  24.773  1.00  0.00    -0.337 N 
ATOM     12  O   UNL A   1      32.305  21.302  22.568  1.00  0.00    -0.270 OA
ATOM     13  C   UNL A   1      32.387  21.809  23.680  1.00  0.00     0.244 C 
ATOM     14  H   UNL A   1      33.052  21.725  25.597  1.00  0.00     0.164 HD
BRANCH  13  15
ATOM     15  C   UNL A   1      31.909  23.198  23.817  1.00  0.00     0.072 C 
ATOM     16  C   UNL A   1      31.862  24.170  22.893  1.00  0.00     0.014 C 
BRANCH  16  17
ATOM     17  C   UNL A   1      31.598  25.566  23.290  1.00  0.00    -0.025 A 
ATOM     18  C   UNL A   1      32.505  26.589  23.009  1.00  0.00     0.009 A 
ATOM     19  C   UNL A   1      30.449  25.897  24.018  1.00  0.00     0.009 A 
ATOM     20  C   UNL A   1      32.266  27.897  23.470  1.00  0.00     0.014 A 
ATOM     21  C   UNL A   1      30.186  27.210  24.413  1.00  0.00     0.014 A 
ATOM     22  C   UNL A   1      31.112  28.217  24.211  1.00  0.00     0.039 A 
BRANCH  22  23
ATOM     23  C   UNL A   1      30.906  29.628  24.627  1.00  0.00     0.251 C 
ATOM     24  O   UNL A   1      31.555  30.029  25.601  1.00  0.00    -0.269 OA
ATOM     25  N   UNL A   1      30.071  30.558  24.048  1.00  0.00    -0.349 N 
ATOM     26  H   UNL A   1      30.275  31.454  24.400  1.00  0.00     0.164 HD
BRANCH  25  27
ATOM     27  C   UNL A   1      29.006  30.643  23.102  1.00  0.00     0.082 C 
ATOM     28  C   UNL A   1      27.919  29.606  23.038  1.00  0.00     0.027 C 
ATOM     29  C   UNL A   1      27.582  31.060  23.255  1.00  0.00     0.027 C 
ENDBRANCH  25  27
ENDBRANCH  22  23
ENDBRANCH  16  17
ENDBRANCH  13  15
ENDBRANCH   6  11
ENDBRANCH   4   6
ENDBRANCH   3   4
ENDBRANCH   2   3
ENDBRANCH   1   2
BRANCH   1  30
ATOM     30  O   UNL A   1      38.222  21.002  25.709  1.00  0.00    -0.374 OA
BRANCH  30  31
ATOM     31  C   UNL A   1      39.452  21.606  26.104  1.00  0.00     0.202 C 
BRANCH  31  32
ATOM     32  C   UNL A   1      39.382  23.065  26.566  1.00  0.00     0.261 C 
BRANCH  32  33
ATOM     33  O   UNL A   1      40.378  23.371  27.556  1.00  0.00    -0.460 OA
BRANCH  33  34
ATOM     34  C   UNL A   1      41.225  24.367  27.211  1.00  0.00     0.338 C 
ATOM     35  O   UNL A   1      42.088  24.339  26.342  1.00  0.00    -0.246 OA
BRANCH  34  36
ATOM     36  C   UNL A   1      40.858  25.605  27.919  1.00  0.00     0.060 A 
ATOM     37  C   UNL A   1      41.749  26.684  27.847  1.00  0.00     0.016 A 
ATOM     38  C   UNL A   1      39.710  25.677  28.708  1.00  0.00     0.016 A 
ATOM     39  C   UNL A   1      41.527  27.823  28.616  1.00  0.00     0.010 A 
ATOM     40  C   UNL A   1      39.497  26.814  29.490  1.00  0.00     0.010 A 
ATOM     41  C   UNL A   1      40.427  27.869  29.479  1.00  0.00    -0.014 A 
BRANCH  41  42
ATOM     42  C   UNL A   1      40.353  28.917  30.523  1.00  0.00     0.031 A 
ATOM     43  C   UNL A   1      41.266  28.801  31.712  1.00  0.00     0.074 A 
ATOM     44  C   UNL A   1      39.487  29.938  30.424  1.00  0.00     0.049 A 
ATOM     45  N   UNL A   1      41.300  29.517  32.803  1.00  0.00    -0.248 NA
ATOM     46  C   UNL A   1      42.268  27.723  31.662  1.00  0.00     0.031 C 
ATOM     47  C   UNL A   1      38.597  30.185  29.291  1.00  0.00     0.029 A 
ATOM     48  N   UNL A   1      39.202  30.948  31.307  1.00  0.00    -0.354 N 
ATOM     49  C   UNL A   1      42.308  28.963  33.583  1.00  0.00     0.074 A 
ATOM     50  C   UNL A   1      42.847  27.841  32.847  1.00  0.00     0.031 C 
ATOM     51  C   UNL A   1      37.841  31.262  29.562  1.00  0.00     0.029 A 
ATOM     52  C   UNL A   1      38.167  31.753  30.901  1.00  0.00     0.049 A 
ATOM     53  H   UNL A   1      39.693  31.082  32.150  1.00  0.00     0.167 HD
ATOM     54  C   UNL A   1      42.742  29.351  34.807  1.00  0.00     0.031 A 
ATOM     55  C   UNL A   1      37.528  32.746  31.552  1.00  0.00     0.031 A 
ATOM     56  C   UNL A   1      42.183  30.455  35.538  1.00  0.00     0.049 A 
ATOM     57  C   UNL A   1      37.976  33.124  32.939  1.00  0.00     0.074 A 
ATOM     58  C   UNL A   1      42.548  30.937  36.781  1.00  0.00     0.029 A 
ATOM     59  N   UNL A   1      41.130  31.242  35.094  1.00  0.00    -0.354 N 
ATOM     60  N   UNL A   1      38.935  32.599  33.665  1.00  0.00    -0.248 NA
ATOM     61  C   UNL A   1      37.264  34.231  33.591  1.00  0.00     0.031 C 
ATOM     62  C   UNL A   1      41.679  31.983  37.113  1.00  0.00     0.029 A 
ATOM     63  C   UNL A   1      40.816  32.194  36.047  1.00  0.00     0.049 A 
ATOM     64  H   UNL A   1      40.673  31.138  34.227  1.00  0.00     0.167 HD
ATOM     65  C   UNL A   1      38.962  33.332  34.847  1.00  0.00     0.074 A 
ATOM     66  C   UNL A   1      37.922  34.336  34.739  1.00  0.00     0.031 C 
ATOM     67  C   UNL A   1      39.782  33.191  35.918  1.00  0.00     0.031 A 
BRANCH  54  68
ATOM     68  C   UNL A   1      43.829  28.526  35.442  1.00  0.00    -0.014 A 
ATOM     69  C   UNL A   1      43.536  27.526  36.389  1.00  0.00     0.010 A 
ATOM     70  C   UNL A   1      45.171  28.769  35.099  1.00  0.00     0.010 A 
ATOM     71  C   UNL A   1      44.570  26.834  37.029  1.00  0.00     0.020 A 
ATOM     72  C   UNL A   1      46.205  28.058  35.713  1.00  0.00     0.020 A 
ATOM     73  C   UNL A   1      45.898  27.114  36.695  1.00  0.00     0.054 A 
BRANCH  73  74
ATOM     74  S   UNL A   1      47.221  26.226  37.560  1.00  0.00     0.124 S 
ATOM     75  O   UNL A   1      47.129  24.896  36.965  1.00  0.00    -0.237 OA
ATOM     76  O   UNL A   1      48.412  26.993  37.200  1.00  0.00    -0.237 OA
ATOM     77  O   UNL A   1      46.833  26.308  38.966  1.00  0.00    -0.744 OA
ENDBRANCH  73  74
ENDBRANCH  54  68
BRANCH  55  78
ATOM     78  C   UNL A   1      36.382  33.425  30.891  1.00  0.00    -0.014 A 
ATOM     79  C   UNL A   1      35.150  33.564  31.553  1.00  0.00     0.010 A 
ATOM     80  C   UNL A   1      36.543  33.998  29.616  1.00  0.00     0.010 A 
ATOM     81  C   UNL A   1      34.103  34.274  30.955  1.00  0.00     0.020 A 
ATOM     82  C   UNL A   1      35.508  34.728  29.026  1.00  0.00     0.020 A 
ATOM     83  C   UNL A   1      34.293  34.860  29.700  1.00  0.00     0.054 A 
BRANCH  83  84
ATOM     84  S   UNL A   1      32.955  35.861  28.990  1.00  0.00     0.124 S 
ATOM     85  O   UNL A   1      32.336  34.926  28.058  1.00  0.00    -0.237 OA
ATOM     86  O   UNL A   1      32.160  36.202  30.167  1.00  0.00    -0.237 OA
ATOM     87  O   UNL A   1      33.658  36.986  28.378  1.00  0.00    -0.744 OA
ENDBRANCH  83  84
ENDBRANCH  55  78
BRANCH  67  88
ATOM     88  C   UNL A   1      39.637  34.173  37.050  1.00  0.00    -0.014 A 
ATOM     89  C   UNL A   1      38.854  33.880  38.179  1.00  0.00     0.010 A 
ATOM     90  C   UNL A   1      40.391  35.361  37.026  1.00  0.00     0.010 A 
ATOM     91  C   UNL A   1      38.827  34.762  39.265  1.00  0.00     0.020 A 
ATOM     92  C   UNL A   1      40.385  36.232  38.118  1.00  0.00     0.020 A 
ATOM     93  C   UNL A   1      39.598  35.928  39.230  1.00  0.00     0.054 A 
BRANCH  93  94
ATOM     94  S   UNL A   1      39.614  37.011  40.687  1.00  0.00     0.124 S 
ATOM     95  O   UNL A   1      41.001  36.901  41.130  1.00  0.00    -0.237 OA
ATOM     96  O   UNL A   1      39.234  38.306  40.128  1.00  0.00    -0.237 OA
ATOM     97  O   UNL A   1      38.625  36.408  41.577  1.00  0.00    -0.744 OA
ENDBRANCH  93  94
ENDBRANCH  67  88
ENDBRANCH  41  42
ENDBRANCH  34  36
ENDBRANCH  33  34
ENDBRANCH  32  33
ENDBRANCH  31  32
ENDBRANCH  30  31
ENDBRANCH   1  30
TORSDOF 22
ENDMDL
MODEL 2
REMARK VINA RESULT:     -10.8      5.488     13.264
REMARK SMILES O=C(/C=C/c1ccc(C(=O)NC2CC2)cc1)NC1(C(=O)OCCOCCOC(=O)c2ccc(-c3c4nc(c(-c5ccc(S(=O)(=O)[O-])cc5)c5ccc([nH]5)c(-c5ccc(S(=O)(=O)[O-])cc5)c5nc(c(-c6ccc(S(=O)(=O)[O-])cc6)c6ccc3[nH]6)C=C5)C=C4)cc2)CCCC1
REMARK SMILES IDX 23 1 22 2 21 3 19 4 20 5 18 6 90 7 93 8 91 9 92 10 17 11
REMARK SMILES IDX 1 12 2 13 3 15 4 16 5 17 6 18 16 19 7 20 15 21 8 22 9 23
REMARK SMILES IDX 10 24 11 25 12 27 13 28 14 29 24 30 25 31 26 32 27 33 28 34
REMARK SMILES IDX 29 35 30 36 31 37 89 38 32 39 88 40 33 41 34 42 35 43 82 44
REMARK SMILES IDX 36 45 87 46 81 47 83 48 37 49 86 50 80 51 79 52 38 54 68 55
REMARK SMILES IDX 49 56 67 57 50 58 53 59 66 60 84 61 51 62 52 63 65 65 85 66
REMARK SMILES IDX 54 67 39 68 40 69 48 70 41 71 47 72 42 73 43 74 44 75 45 76
REMARK SMILES IDX 46 77 69 78 70 79 78 80 71 81 77 82 72 83 73 84 74 85 75 86
REMARK SMILES IDX 76 87 55 88 56 89 64 90 57 91 63 92 58 93 59 94 60 95 61 96
REMARK SMILES IDX 62 97
REMARK H PARENT 17 14 11 26 83 53 53 64
REMARK Flexibility Score: inf
ROOT
ATOM      1  C   UNL A   1      33.786  34.540  30.742  1.00  0.00     0.202 C 
ENDROOT
BRANCH   1   2
ATOM      2  C   UNL A   1      34.489  34.448  32.103  1.00  0.00     0.261 C 
BRANCH   2   3
ATOM      3  O   UNL A   1      35.917  34.483  31.956  1.00  0.00    -0.461 OA
BRANCH   3   4
ATOM      4  C   UNL A   1      36.541  33.285  32.153  1.00  0.00     0.331 C 
ATOM      5  O   UNL A   1      36.078  32.198  31.820  1.00  0.00    -0.249 OA
BRANCH   4   6
ATOM      6  C   UNL A   1      37.971  33.466  32.763  1.00  0.00     0.138 C 
ATOM      7  C   UNL A   1      38.194  32.298  33.741  1.00  0.00     0.040 C 
ATOM      8  C   UNL A   1      38.159  34.673  33.700  1.00  0.00     0.040 C 
ATOM      9  C   UNL A   1      37.451  32.724  34.997  1.00  0.00     0.003 C 
ATOM     10  C   UNL A   1      37.649  34.233  35.076  1.00  0.00     0.003 C 
BRANCH   6  11
ATOM     11  N   UNL A   1      39.010  33.412  31.709  1.00  0.00    -0.337 N 
ATOM     12  O   UNL A   1      38.344  35.304  30.599  1.00  0.00    -0.270 OA
ATOM     13  C   UNL A   1      39.134  34.383  30.761  1.00  0.00     0.244 C 
ATOM     14  H   UNL A   1      39.632  32.649  31.693  1.00  0.00     0.164 HD
BRANCH  13  15
ATOM     15  C   UNL A   1      40.266  34.302  29.820  1.00  0.00     0.072 C 
ATOM     16  C   UNL A   1      41.579  34.421  30.067  1.00  0.00     0.014 C 
BRANCH  16  17
ATOM     17  C   UNL A   1      42.539  34.573  28.956  1.00  0.00    -0.025 A 
ATOM     18  C   UNL A   1      42.391  35.573  27.995  1.00  0.00     0.009 A 
ATOM     19  C   UNL A   1      43.601  33.673  28.801  1.00  0.00     0.009 A 
ATOM     20  C   UNL A   1      43.273  35.644  26.901  1.00  0.00     0.014 A 
ATOM     21  C   UNL A   1      44.513  33.792  27.751  1.00  0.00     0.014 A 
ATOM     22  C   UNL A   1      44.332  34.727  26.748  1.00  0.00     0.039 A 
BRANCH  22  23
ATOM     23  C   UNL A   1      45.250  34.891  25.593  1.00  0.00     0.251 C 
ATOM     24  O   UNL A   1      45.194  34.034  24.702  1.00  0.00    -0.269 OA
ATOM     25  N   UNL A   1      46.166  35.899  25.387  1.00  0.00    -0.349 N 
ATOM     26  H   UNL A   1      46.496  35.866  24.460  1.00  0.00     0.164 HD
BRANCH  25  27
ATOM     27  C   UNL A   1      46.792  36.977  26.083  1.00  0.00     0.082 C 
ATOM     28  C   UNL A   1      47.127  36.885  27.546  1.00  0.00     0.027 C 
ATOM     29  C   UNL A   1      48.201  37.177  26.528  1.00  0.00     0.027 C 
ENDBRANCH  25  27
ENDBRANCH  22  23
ENDBRANCH  16  17
ENDBRANCH  13  15
ENDBRANCH   6  11
ENDBRANCH   4   6
ENDBRANCH   3   4
ENDBRANCH   2   3
ENDBRANCH   1   2
BRANCH   1  30
ATOM     30  O   UNL A   1      34.470  35.225  29.691  1.00  0.00    -0.374 OA
BRANCH  30  31
ATOM     31  C   UNL A   1      34.674  34.513  28.473  1.00  0.00     0.202 C 
BRANCH  31  32
ATOM     32  C   UNL A   1      35.648  33.332  28.523  1.00  0.00     0.261 C 
BRANCH  32  33
ATOM     33  O   UNL A   1      35.449  32.415  27.434  1.00  0.00    -0.460 OA
BRANCH  33  34
ATOM     34  C   UNL A   1      35.006  31.191  27.804  1.00  0.00     0.338 C 
ATOM     35  O   UNL A   1      33.850  30.788  27.797  1.00  0.00    -0.246 OA
BRANCH  34  36
ATOM     36  C   UNL A   1      36.150  30.303  28.067  1.00  0.00     0.060 A 
ATOM     37  C   UNL A   1      36.213  29.676  29.319  1.00  0.00     0.016 A 
ATOM     38  C   UNL A   1      37.185  30.157  27.142  1.00  0.00     0.016 A 
ATOM     39  C   UNL A   1      37.342  28.947  29.678  1.00  0.00     0.010 A 
ATOM     40  C   UNL A   1      38.324  29.438  27.509  1.00  0.00     0.010 A 
ATOM     41  C   UNL A   1      38.423  28.869  28.793  1.00  0.00    -0.014 A 
BRANCH  41  42
ATOM     42  C   UNL A   1      39.736  28.381  29.273  1.00  0.00     0.031 A 
ATOM     43  C   UNL A   1      40.584  29.312  30.094  1.00  0.00     0.074 A 
ATOM     44  C   UNL A   1      40.169  27.144  28.977  1.00  0.00     0.049 A 
ATOM     45  N   UNL A   1      41.809  29.159  30.519  1.00  0.00    -0.248 NA
ATOM     46  C   UNL A   1      39.965  30.592  30.476  1.00  0.00     0.031 C 
ATOM     47  C   UNL A   1      39.409  26.136  28.240  1.00  0.00     0.029 A 
ATOM     48  N   UNL A   1      41.370  26.538  29.244  1.00  0.00    -0.354 N 
ATOM     49  C   UNL A   1      42.119  30.333  31.197  1.00  0.00     0.074 A 
ATOM     50  C   UNL A   1      40.960  31.193  31.110  1.00  0.00     0.031 C 
ATOM     51  C   UNL A   1      40.176  25.043  28.088  1.00  0.00     0.029 A 
ATOM     52  C   UNL A   1      41.491  25.293  28.680  1.00  0.00     0.049 A 
ATOM     53  H   UNL A   1      42.076  26.956  29.788  1.00  0.00     0.167 HD
ATOM     54  C   UNL A   1      43.270  30.666  31.829  1.00  0.00     0.031 A 
ATOM     55  C   UNL A   1      42.552  24.465  28.614  1.00  0.00     0.031 A 
ATOM     56  C   UNL A   1      44.424  29.810  31.890  1.00  0.00     0.049 A 
ATOM     57  C   UNL A   1      43.847  24.875  29.265  1.00  0.00     0.074 A 
ATOM     58  C   UNL A   1      45.638  30.045  32.507  1.00  0.00     0.029 A 
ATOM     59  N   UNL A   1      44.507  28.557  31.300  1.00  0.00    -0.354 N 
ATOM     60  N   UNL A   1      44.128  25.984  29.909  1.00  0.00    -0.248 NA
ATOM     61  C   UNL A   1      44.964  23.924  29.187  1.00  0.00     0.031 C 
ATOM     62  C   UNL A   1      46.476  28.956  32.245  1.00  0.00     0.029 A 
ATOM     63  C   UNL A   1      45.760  28.014  31.519  1.00  0.00     0.049 A 
ATOM     64  H   UNL A   1      43.781  28.119  30.799  1.00  0.00     0.167 HD
ATOM     65  C   UNL A   1      45.444  25.850  30.341  1.00  0.00     0.074 A 
ATOM     66  C   UNL A   1      45.903  24.554  29.882  1.00  0.00     0.031 C 
ATOM     67  C   UNL A   1      46.197  26.718  31.061  1.00  0.00     0.031 A 
BRANCH  54  68
ATOM     68  C   UNL A   1      43.342  32.038  32.443  1.00  0.00    -0.014 A 
ATOM     69  C   UNL A   1      42.404  32.467  33.401  1.00  0.00     0.010 A 
ATOM     70  C   UNL A   1      44.359  32.923  32.040  1.00  0.00     0.010 A 
ATOM     71  C   UNL A   1      42.442  33.776  33.891  1.00  0.00     0.020 A 
ATOM     72  C   UNL A   1      44.418  34.222  32.551  1.00  0.00     0.020 A 
ATOM     73  C   UNL A   1      43.442  34.649  33.453  1.00  0.00     0.054 A 
BRANCH  73  74
ATOM     74  S   UNL A   1      43.452  36.350  34.079  1.00  0.00     0.124 S 
ATOM     75  O   UNL A   1      42.278  36.358  34.947  1.00  0.00    -0.237 OA
ATOM     76  O   UNL A   1      44.740  36.434  34.765  1.00  0.00    -0.237 OA
ATOM     77  O   UNL A   1      43.338  37.165  32.872  1.00  0.00    -0.744 OA
ENDBRANCH  73  74
ENDBRANCH  54  68
BRANCH  55  78
ATOM     78  C   UNL A   1      42.424  23.179  27.879  1.00  0.00    -0.014 A 
ATOM     79  C   UNL A   1      43.009  23.012  26.612  1.00  0.00     0.010 A 
ATOM     80  C   UNL A   1      41.769  22.087  28.480  1.00  0.00     0.010 A 
ATOM     81  C   UNL A   1      42.950  21.774  25.964  1.00  0.00     0.020 A 
ATOM     82  C   UNL A   1      41.730  20.842  27.846  1.00  0.00     0.020 A 
ATOM     83  C   UNL A   1      42.320  20.694  26.590  1.00  0.00     0.054 A 
BRANCH  83  84
ATOM     84  S   UNL A   1      42.346  19.073  25.775  1.00  0.00     0.124 S 
ATOM     85  O   UNL A   1      40.924  18.806  25.581  1.00  0.00    -0.237 OA
ATOM     86  O   UNL A   1      43.110  19.344  24.560  1.00  0.00    -0.237 OA
ATOM     87  O   UNL A   1      43.019  18.213  26.745  1.00  0.00    -0.744 OA
ENDBRANCH  83  84
ENDBRANCH  55  78
BRANCH  67  88
ATOM     88  C   UNL A   1      47.585  26.288  31.454  1.00  0.00    -0.014 A 
ATOM     89  C   UNL A   1      47.839  25.669  32.689  1.00  0.00     0.010 A 
ATOM     90  C   UNL A   1      48.629  26.408  30.517  1.00  0.00     0.010 A 
ATOM     91  C   UNL A   1      49.116  25.180  32.982  1.00  0.00     0.020 A 
ATOM     92  C   UNL A   1      49.900  25.899  30.797  1.00  0.00     0.020 A 
ATOM     93  C   UNL A   1      50.136  25.292  32.031  1.00  0.00     0.054 A 
BRANCH  93  94
ATOM     94  S   UNL A   1      51.760  24.570  32.400  1.00  0.00     0.124 S 
ATOM     95  O   UNL A   1      51.918  24.886  33.816  1.00  0.00    -0.237 OA
ATOM     96  O   UNL A   1      51.560  23.156  32.090  1.00  0.00    -0.237 OA
ATOM     97  O   UNL A   1      52.667  25.277  31.498  1.00  0.00    -0.744 OA
ENDBRANCH  93  94
ENDBRANCH  67  88
ENDBRANCH  41  42
ENDBRANCH  34  36
ENDBRANCH  33  34
ENDBRANCH  32  33
ENDBRANCH  31  32
ENDBRANCH  30  31
ENDBRANCH   1  30
TORSDOF 22
ENDMDL
MODEL 3
REMARK VINA RESULT:     -10.3      5.489     12.505
REMARK SMILES O=C(/C=C/c1ccc(C(=O)NC2CC2)cc1)NC1(C(=O)OCCOCCOC(=O)c2ccc(-c3c4nc(c(-c5ccc(S(=O)(=O)[O-])cc5)c5ccc([nH]5)c(-c5ccc(S(=O)(=O)[O-])cc5)c5nc(c(-c6ccc(S(=O)(=O)[O-])cc6)c6ccc3[nH]6)C=C5)C=C4)cc2)CCCC1
REMARK SMILES IDX 23 1 22 2 21 3 19 4 20 5 18 6 90 7 93 8 91 9 92 10 17 11
REMARK SMILES IDX 1 12 2 13 3 15 4 16 5 17 6 18 16 19 7 20 15 21 8 22 9 23
REMARK SMILES IDX 10 24 11 25 12 27 13 28 14 29 24 30 25 31 26 32 27 33 28 34
REMARK SMILES IDX 29 35 30 36 31 37 89 38 32 39 88 40 33 41 34 42 35 43 82 44
REMARK SMILES IDX 36 45 87 46 81 47 83 48 37 49 86 50 80 51 79 52 38 54 68 55
REMARK SMILES IDX 49 56 67 57 50 58 53 59 66 60 84 61 51 62 52 63 65 65 85 66
REMARK SMILES IDX 54 67 39 68 40 69 48 70 41 71 47 72 42 73 43 74 44 75 45 76
REMARK SMILES IDX 46 77 69 78 70 79 78 80 71 81 77 82 72 83 73 84 74 85 75 86
REMARK SMILES IDX 76 87 55 88 56 89 64 90 57 91 63 92 58 93 59 94 60 95 61 96
REMARK SMILES IDX 62 97
REMARK H PARENT 17 14 11 26 83 53 53 64
REMARK Flexibility Score: inf
ROOT
ATOM      1  C   UNL A   1      44.691  23.703  27.024  1.00  0.00     0.202 C 
ENDROOT
BRANCH   1   2
ATOM      2  C   UNL A   1      45.701  23.060  26.063  1.00  0.00     0.261 C 
BRANCH   2   3
ATOM      3  O   UNL A   1      47.031  23.550  26.300  1.00  0.00    -0.461 OA
BRANCH   3   4
ATOM      4  C   UNL A   1      47.287  24.783  25.774  1.00  0.00     0.331 C 
ATOM      5  O   UNL A   1      46.771  25.223  24.750  1.00  0.00    -0.249 OA
BRANCH   4   6
ATOM      6  C   UNL A   1      48.243  25.620  26.688  1.00  0.00     0.138 C 
ATOM      7  C   UNL A   1      48.065  27.097  26.292  1.00  0.00     0.040 C 
ATOM      8  C   UNL A   1      49.751  25.430  26.442  1.00  0.00     0.040 C 
ATOM      9  C   UNL A   1      48.907  27.245  25.035  1.00  0.00     0.003 C 
ATOM     10  C   UNL A   1      50.112  26.342  25.264  1.00  0.00     0.003 C 
BRANCH   6  11
ATOM     11  N   UNL A   1      47.887  25.461  28.116  1.00  0.00    -0.337 N 
ATOM     12  O   UNL A   1      49.603  26.734  28.947  1.00  0.00    -0.270 OA
ATOM     13  C   UNL A   1      48.572  26.095  29.110  1.00  0.00     0.244 C 
ATOM     14  H   UNL A   1      47.131  24.879  28.357  1.00  0.00     0.164 HD
BRANCH  13  15
ATOM     15  C   UNL A   1      48.078  25.966  30.493  1.00  0.00     0.072 C 
ATOM     16  C   UNL A   1      48.774  25.788  31.626  1.00  0.00     0.014 C 
BRANCH  16  17
ATOM     17  C   UNL A   1      48.085  25.418  32.877  1.00  0.00    -0.025 A 
ATOM     18  C   UNL A   1      48.593  24.434  33.727  1.00  0.00     0.009 A 
ATOM     19  C   UNL A   1      46.862  26.007  33.220  1.00  0.00     0.009 A 
ATOM     20  C   UNL A   1      47.873  24.044  34.871  1.00  0.00     0.014 A 
ATOM     21  C   UNL A   1      46.188  25.663  34.393  1.00  0.00     0.014 A 
ATOM     22  C   UNL A   1      46.638  24.635  35.202  1.00  0.00     0.039 A 
BRANCH  22  23
ATOM     23  C   UNL A   1      45.957  24.203  36.449  1.00  0.00     0.251 C 
ATOM     24  O   UNL A   1      46.655  24.102  37.466  1.00  0.00    -0.269 OA
ATOM     25  N   UNL A   1      44.623  23.901  36.614  1.00  0.00    -0.349 N 
ATOM     26  H   UNL A   1      44.413  23.834  37.573  1.00  0.00     0.164 HD
BRANCH  25  27
ATOM     27  C   UNL A   1      43.447  23.655  35.844  1.00  0.00     0.082 C 
ATOM     28  C   UNL A   1      42.678  24.772  35.194  1.00  0.00     0.027 C 
ATOM     29  C   UNL A   1      43.220  23.630  34.370  1.00  0.00     0.027 C 
ENDBRANCH  25  27
ENDBRANCH  22  23
ENDBRANCH  16  17
ENDBRANCH  13  15
ENDBRANCH   6  11
ENDBRANCH   4   6
ENDBRANCH   3   4
ENDBRANCH   2   3
ENDBRANCH   1   2
BRANCH   1  30
ATOM     30  O   UNL A   1      43.367  23.168  27.043  1.00  0.00    -0.374 OA
BRANCH  30  31
ATOM     31  C   UNL A   1      42.396  23.800  26.213  1.00  0.00     0.202 C 
BRANCH  31  32
ATOM     32  C   UNL A   1      42.859  25.033  25.432  1.00  0.00     0.261 C 
BRANCH  32  33
ATOM     33  O   UNL A   1      41.801  25.989  25.245  1.00  0.00    -0.460 OA
BRANCH  33  34
ATOM     34  C   UNL A   1      42.170  27.278  25.425  1.00  0.00     0.338 C 
ATOM     35  O   UNL A   1      42.368  28.121  24.559  1.00  0.00    -0.246 OA
BRANCH  34  36
ATOM     36  C   UNL A   1      42.138  27.612  26.859  1.00  0.00     0.060 A 
ATOM     37  C   UNL A   1      41.124  27.039  27.639  1.00  0.00     0.016 A 
ATOM     38  C   UNL A   1      43.027  28.535  27.410  1.00  0.00     0.016 A 
ATOM     39  C   UNL A   1      40.955  27.433  28.962  1.00  0.00     0.010 A 
ATOM     40  C   UNL A   1      42.846  28.942  28.733  1.00  0.00     0.010 A 
ATOM     41  C   UNL A   1      41.784  28.425  29.498  1.00  0.00    -0.014 A 
BRANCH  41  42
ATOM     42  C   UNL A   1      41.421  29.078  30.776  1.00  0.00     0.031 A 
ATOM     43  C   UNL A   1      40.238  30.005  30.790  1.00  0.00     0.074 A 
ATOM     44  C   UNL A   1      42.134  28.864  31.894  1.00  0.00     0.049 A 
ATOM     45  N   UNL A   1      39.803  30.780  31.746  1.00  0.00    -0.248 NA
ATOM     46  C   UNL A   1      39.444  30.068  29.551  1.00  0.00     0.031 C 
ATOM     47  C   UNL A   1      43.263  27.943  32.013  1.00  0.00     0.029 A 
ATOM     48  N   UNL A   1      42.021  29.428  33.139  1.00  0.00    -0.354 N 
ATOM     49  C   UNL A   1      38.702  31.445  31.219  1.00  0.00     0.074 A 
ATOM     50  C   UNL A   1      38.547  30.994  29.854  1.00  0.00     0.031 C 
ATOM     51  C   UNL A   1      43.760  28.028  33.259  1.00  0.00     0.029 A 
ATOM     52  C   UNL A   1      43.010  29.036  34.007  1.00  0.00     0.049 A 
ATOM     53  H   UNL A   1      41.302  30.053  33.385  1.00  0.00     0.167 HD
ATOM     54  C   UNL A   1      37.896  32.355  31.818  1.00  0.00     0.031 A 
ATOM     55  C   UNL A   1      43.301  29.471  35.249  1.00  0.00     0.031 A 
ATOM     56  C   UNL A   1      38.074  32.811  33.169  1.00  0.00     0.049 A 
ATOM     57  C   UNL A   1      42.437  30.531  35.880  1.00  0.00     0.074 A 
ATOM     58  C   UNL A   1      37.315  33.725  33.876  1.00  0.00     0.029 A 
ATOM     59  N   UNL A   1      39.092  32.394  34.014  1.00  0.00    -0.354 N 
ATOM     60  N   UNL A   1      41.394  31.148  35.375  1.00  0.00    -0.248 NA
ATOM     61  C   UNL A   1      42.782  30.949  37.245  1.00  0.00     0.031 C 
ATOM     62  C   UNL A   1      37.906  33.901  35.132  1.00  0.00     0.029 A 
ATOM     63  C   UNL A   1      38.996  33.047  35.230  1.00  0.00     0.049 A 
ATOM     64  H   UNL A   1      39.782  31.730  33.783  1.00  0.00     0.167 HD
ATOM     65  C   UNL A   1      40.939  32.004  36.373  1.00  0.00     0.074 A 
ATOM     66  C   UNL A   1      41.821  31.826  37.509  1.00  0.00     0.031 C 
ATOM     67  C   UNL A   1      39.880  32.851  36.353  1.00  0.00     0.031 A 
BRANCH  54  68
ATOM     68  C   UNL A   1      36.797  32.952  30.981  1.00  0.00    -0.014 A 
ATOM     69  C   UNL A   1      37.074  33.864  29.944  1.00  0.00     0.010 A 
ATOM     70  C   UNL A   1      35.460  32.609  31.249  1.00  0.00     0.010 A 
ATOM     71  C   UNL A   1      36.030  34.471  29.239  1.00  0.00     0.020 A 
ATOM     72  C   UNL A   1      34.415  33.191  30.526  1.00  0.00     0.020 A 
ATOM     73  C   UNL A   1      34.706  34.139  29.544  1.00  0.00     0.054 A 
BRANCH  73  74
ATOM     74  S   UNL A   1      33.369  34.962  28.637  1.00  0.00     0.124 S 
ATOM     75  O   UNL A   1      34.104  35.938  27.839  1.00  0.00    -0.237 OA
ATOM     76  O   UNL A   1      32.765  33.864  27.887  1.00  0.00    -0.237 OA
ATOM     77  O   UNL A   1      32.531  35.526  29.693  1.00  0.00    -0.744 OA
ENDBRANCH  73  74
ENDBRANCH  54  68
BRANCH  55  78
ATOM     78  C   UNL A   1      44.483  28.909  35.956  1.00  0.00    -0.014 A 
ATOM     79  C   UNL A   1      45.774  29.406  35.706  1.00  0.00     0.010 A 
ATOM     80  C   UNL A   1      44.309  27.914  36.936  1.00  0.00     0.010 A 
ATOM     81  C   UNL A   1      46.868  28.925  36.433  1.00  0.00     0.020 A 
ATOM     82  C   UNL A   1      45.397  27.450  37.681  1.00  0.00     0.020 A 
ATOM     83  C   UNL A   1      46.671  27.957  37.422  1.00  0.00     0.054 A 
BRANCH  83  84
ATOM     84  S   UNL A   1      48.090  27.425  38.421  1.00  0.00     0.124 S 
ATOM     85  O   UNL A   1      48.702  28.698  38.785  1.00  0.00    -0.237 OA
ATOM     86  O   UNL A   1      47.450  26.694  39.512  1.00  0.00    -0.237 OA
ATOM     87  O   UNL A   1      48.865  26.596  37.500  1.00  0.00    -0.744 OA
ENDBRANCH  83  84
ENDBRANCH  55  78
BRANCH  67  88
ATOM     88  C   UNL A   1      39.569  33.621  37.608  1.00  0.00    -0.014 A 
ATOM     89  C   UNL A   1      38.703  33.106  38.588  1.00  0.00     0.010 A 
ATOM     90  C   UNL A   1      40.246  34.830  37.855  1.00  0.00     0.010 A 
ATOM     91  C   UNL A   1      38.519  33.792  39.794  1.00  0.00     0.020 A 
ATOM     92  C   UNL A   1      40.083  35.504  39.067  1.00  0.00     0.020 A 
ATOM     93  C   UNL A   1      39.215  34.982  40.028  1.00  0.00     0.054 A 
BRANCH  93  94
ATOM     94  S   UNL A   1      39.028  35.804  41.635  1.00  0.00     0.124 S 
ATOM     95  O   UNL A   1      37.694  35.373  42.043  1.00  0.00    -0.237 OA
ATOM     96  O   UNL A   1      40.133  35.247  42.411  1.00  0.00    -0.237 OA
ATOM     97  O   UNL A   1      39.153  37.225  41.314  1.00  0.00    -0.744 OA
ENDBRANCH  93  94
ENDBRANCH  67  88
ENDBRANCH  41  42
ENDBRANCH  34  36
ENDBRANCH  33  34
ENDBRANCH  32  33
ENDBRANCH  31  32
ENDBRANCH  30  31
ENDBRANCH   1  30
TORSDOF 22
ENDMDL
