MODEL 1
REMARK VINA RESULT:     -10.6      0.000      0.000
REMARK SMILES COc1cccc(CSc2nc3ccccc3c(=O)n2CCC(=O)OCCOCCOC(=O)c2ccc(-c3c4nc(c(-c5ccc(S(=O)(=O)[O-])cc5)c5ccc([nH]5)c(-c5ccc(S(=O)(=O)[O-])cc5)c5nc(c(-c6ccc(S(=O)(=O)[O-])cc6)c6ccc3[nH]6)C=C5)C=C4)cc2)c1
REMARK SMILES IDX 26 1 25 2 23 3 24 4 22 5 21 6 20 7 10 8 11 9 12 10 18 11
REMARK SMILES IDX 13 12 17 13 19 14 14 15 16 16 15 17 9 18 8 19 7 20 3 21 4 22
REMARK SMILES IDX 94 23 5 24 6 25 2 26 1 27 27 28 28 29 29 30 30 31 31 32
REMARK SMILES IDX 32 33 33 34 34 35 35 36 93 37 36 38 92 39 37 40 38 41 39 42
REMARK SMILES IDX 86 43 40 44 91 45 85 46 87 47 41 48 90 49 84 50 83 51 42 53
REMARK SMILES IDX 72 54 53 55 71 56 54 57 57 58 70 59 88 60 55 61 56 62 69 64
REMARK SMILES IDX 89 65 58 66 43 67 44 68 52 69 45 70 51 71 46 72 47 73 48 74
REMARK SMILES IDX 49 75 50 76 73 77 74 78 82 79 75 80 81 81 76 82 77 83 78 84
REMARK SMILES IDX 79 85 80 86 59 87 60 88 68 89 61 90 67 91 62 92 63 93 64 94
REMARK SMILES IDX 65 95 66 96
REMARK H PARENT 87 52 57 63
REMARK Flexibility Score: inf
ROOT
ATOM      1  C   UNL A   1      34.636  30.007  27.015  1.00  0.00     0.261 C 
ENDROOT
BRANCH   1   2
ATOM      2  O   UNL A   1      33.213  30.325  26.926  1.00  0.00    -0.463 OA
BRANCH   2   3
ATOM      3  C   UNL A   1      32.383  29.429  26.324  1.00  0.00     0.307 C 
ATOM      4  O   UNL A   1      31.461  29.731  25.574  1.00  0.00    -0.252 OA
BRANCH   3   5
ATOM      5  C   UNL A   1      32.700  27.978  26.692  1.00  0.00     0.144 C 
BRANCH   5   6
ATOM      6  C   UNL A   1      31.587  26.908  26.757  1.00  0.00     0.140 C 
BRANCH   6   7
ATOM      7  N   UNL A   1      31.712  25.766  25.865  1.00  0.00    -0.286 N 
ATOM      8  C   UNL A   1      31.726  25.866  24.514  1.00  0.00     0.171 A 
ATOM      9  N   UNL A   1      32.687  25.356  23.809  1.00  0.00    -0.224 NA
ATOM     10  C   UNL A   1      33.569  24.499  24.495  1.00  0.00     0.079 A 
ATOM     11  C   UNL A   1      32.035  24.520  26.374  1.00  0.00     0.262 A 
ATOM     12  C   UNL A   1      34.830  24.183  24.004  1.00  0.00     0.029 A 
ATOM     13  C   UNL A   1      33.112  23.828  25.631  1.00  0.00     0.066 A 
ATOM     14  O   UNL A   1      31.548  24.044  27.392  1.00  0.00    -0.269 OA
ATOM     15  C   UNL A   1      35.560  23.129  24.567  1.00  0.00     0.002 A 
ATOM     16  C   UNL A   1      33.773  22.712  26.139  1.00  0.00     0.016 A 
ATOM     17  C   UNL A   1      35.001  22.353  25.587  1.00  0.00     0.001 A 
BRANCH   8  18
ATOM     18  S   UNL A   1      30.346  26.466  23.673  1.00  0.00    -0.083 SA
BRANCH  18  19
ATOM     19  C   UNL A   1      30.664  27.830  22.552  1.00  0.00     0.113 C 
BRANCH  19  20
ATOM     20  C   UNL A   1      29.516  28.788  22.497  1.00  0.00    -0.034 A 
ATOM     21  C   UNL A   1      28.703  31.021  22.063  1.00  0.00     0.119 A 
ATOM     22  C   UNL A   1      27.542  30.718  22.773  1.00  0.00     0.046 A 
ATOM     23  C   UNL A   1      29.684  30.047  21.915  1.00  0.00     0.051 A 
ATOM     24  C   UNL A   1      27.313  29.426  23.244  1.00  0.00     0.004 A 
ATOM     25  C   UNL A   1      28.290  28.455  23.086  1.00  0.00     0.005 A 
BRANCH  21  26
ATOM     26  O   UNL A   1      28.809  32.304  21.602  1.00  0.00    -0.497 OA
ATOM     27  C   UNL A   1      27.887  32.663  20.577  1.00  0.00     0.278 C 
ENDBRANCH  21  26
ENDBRANCH  19  20
ENDBRANCH  18  19
ENDBRANCH   8  18
ENDBRANCH   6   7
ENDBRANCH   5   6
ENDBRANCH   3   5
ENDBRANCH   2   3
ENDBRANCH   1   2
BRANCH   1  28
ATOM     28  C   UNL A   1      35.439  30.988  27.903  1.00  0.00     0.202 C 
BRANCH  28  29
ATOM     29  O   UNL A   1      34.925  32.334  27.952  1.00  0.00    -0.374 OA
BRANCH  29  30
ATOM     30  C   UNL A   1      35.633  33.237  28.801  1.00  0.00     0.202 C 
BRANCH  30  31
ATOM     31  C   UNL A   1      35.538  32.970  30.321  1.00  0.00     0.261 C 
BRANCH  31  32
ATOM     32  O   UNL A   1      36.347  31.864  30.735  1.00  0.00    -0.460 OA
BRANCH  32  33
ATOM     33  C   UNL A   1      37.546  32.204  31.253  1.00  0.00     0.338 C 
ATOM     34  O   UNL A   1      37.753  32.928  32.204  1.00  0.00    -0.246 OA
BRANCH  33  35
ATOM     35  C   UNL A   1      38.595  31.373  30.632  1.00  0.00     0.060 A 
ATOM     36  C   UNL A   1      39.668  31.044  31.463  1.00  0.00     0.016 A 
ATOM     37  C   UNL A   1      38.571  30.961  29.296  1.00  0.00     0.016 A 
ATOM     38  C   UNL A   1      40.765  30.371  30.946  1.00  0.00     0.010 A 
ATOM     39  C   UNL A   1      39.680  30.282  28.774  1.00  0.00     0.010 A 
ATOM     40  C   UNL A   1      40.797  30.028  29.589  1.00  0.00    -0.014 A 
BRANCH  40  41
ATOM     41  C   UNL A   1      42.079  29.543  29.027  1.00  0.00     0.031 A 
ATOM     42  C   UNL A   1      43.233  30.502  28.928  1.00  0.00     0.074 A 
ATOM     43  C   UNL A   1      42.236  28.241  28.724  1.00  0.00     0.049 A 
ATOM     44  N   UNL A   1      44.459  30.279  28.534  1.00  0.00    -0.248 NA
ATOM     45  C   UNL A   1      42.981  31.889  29.352  1.00  0.00     0.031 C 
ATOM     46  C   UNL A   1      41.209  27.211  28.882  1.00  0.00     0.029 A 
ATOM     47  N   UNL A   1      43.319  27.559  28.233  1.00  0.00    -0.354 N 
ATOM     48  C   UNL A   1      45.125  31.492  28.669  1.00  0.00     0.074 A 
ATOM     49  C   UNL A   1      44.161  32.458  29.145  1.00  0.00     0.031 C 
ATOM     50  C   UNL A   1      41.699  26.034  28.462  1.00  0.00     0.029 A 
ATOM     51  C   UNL A   1      43.072  26.228  28.004  1.00  0.00     0.049 A 
ATOM     52  H   UNL A   1      44.190  27.984  28.062  1.00  0.00     0.167 HD
ATOM     53  C   UNL A   1      46.428  31.770  28.427  1.00  0.00     0.031 A 
ATOM     54  C   UNL A   1      43.860  25.275  27.470  1.00  0.00     0.031 A 
ATOM     55  C   UNL A   1      47.369  30.798  27.939  1.00  0.00     0.049 A 
ATOM     56  C   UNL A   1      45.272  25.638  27.096  1.00  0.00     0.074 A 
ATOM     57  C   UNL A   1      48.715  30.965  27.663  1.00  0.00     0.029 A 
ATOM     58  N   UNL A   1      47.059  29.479  27.640  1.00  0.00    -0.354 N 
ATOM     59  N   UNL A   1      45.896  26.781  27.258  1.00  0.00    -0.248 NA
ATOM     60  C   UNL A   1      46.088  24.586  26.476  1.00  0.00     0.031 C 
ATOM     61  C   UNL A   1      49.199  29.768  27.127  1.00  0.00     0.029 A 
ATOM     62  C   UNL A   1      48.174  28.834  27.134  1.00  0.00     0.049 A 
ATOM     63  H   UNL A   1      46.176  29.063  27.768  1.00  0.00     0.167 HD
ATOM     64  C   UNL A   1      47.183  26.582  26.776  1.00  0.00     0.074 A 
ATOM     65  C   UNL A   1      47.255  25.202  26.339  1.00  0.00     0.031 C 
ATOM     66  C   UNL A   1      48.213  27.461  26.695  1.00  0.00     0.031 A 
BRANCH  53  67
ATOM     67  C   UNL A   1      46.900  33.185  28.645  1.00  0.00    -0.014 A 
ATOM     68  C   UNL A   1      47.314  33.636  29.910  1.00  0.00     0.010 A 
ATOM     69  C   UNL A   1      46.976  34.065  27.549  1.00  0.00     0.010 A 
ATOM     70  C   UNL A   1      47.768  34.947  30.082  1.00  0.00     0.020 A 
ATOM     71  C   UNL A   1      47.456  35.368  27.710  1.00  0.00     0.020 A 
ATOM     72  C   UNL A   1      47.838  35.805  28.980  1.00  0.00     0.054 A 
BRANCH  72  73
ATOM     73  S   UNL A   1      48.467  37.489  29.226  1.00  0.00     0.124 S 
ATOM     74  O   UNL A   1      49.616  37.260  30.099  1.00  0.00    -0.237 OA
ATOM     75  O   UNL A   1      48.787  37.911  27.864  1.00  0.00    -0.237 OA
ATOM     76  O   UNL A   1      47.346  38.193  29.846  1.00  0.00    -0.744 OA
ENDBRANCH  72  73
ENDBRANCH  53  67
BRANCH  54  77
ATOM     77  C   UNL A   1      43.319  23.910  27.227  1.00  0.00    -0.014 A 
ATOM     78  C   UNL A   1      43.097  23.015  28.287  1.00  0.00     0.010 A 
ATOM     79  C   UNL A   1      43.014  23.501  25.914  1.00  0.00     0.010 A 
ATOM     80  C   UNL A   1      42.598  21.732  28.038  1.00  0.00     0.020 A 
ATOM     81  C   UNL A   1      42.487  22.232  25.664  1.00  0.00     0.020 A 
ATOM     82  C   UNL A   1      42.293  21.350  26.727  1.00  0.00     0.054 A 
BRANCH  82  83
ATOM     83  S   UNL A   1      41.606  19.697  26.433  1.00  0.00     0.124 S 
ATOM     84  O   UNL A   1      42.256  19.315  25.185  1.00  0.00    -0.237 OA
ATOM     85  O   UNL A   1      42.034  18.964  27.622  1.00  0.00    -0.237 OA
ATOM     86  O   UNL A   1      40.167  19.936  26.344  1.00  0.00    -0.744 OA
ENDBRANCH  82  83
ENDBRANCH  54  77
BRANCH  66  87
ATOM     87  C   UNL A   1      49.504  26.957  26.109  1.00  0.00    -0.014 A 
ATOM     88  C   UNL A   1      49.834  27.215  24.767  1.00  0.00     0.010 A 
ATOM     89  C   UNL A   1      50.431  26.287  26.929  1.00  0.00     0.010 A 
ATOM     90  C   UNL A   1      51.060  26.795  24.248  1.00  0.00     0.020 A 
ATOM     91  C   UNL A   1      51.672  25.895  26.422  1.00  0.00     0.020 A 
ATOM     92  C   UNL A   1      51.974  26.144  25.082  1.00  0.00     0.054 A 
BRANCH  92  93
ATOM     93  S   UNL A   1      53.587  25.675  24.400  1.00  0.00     0.124 S 
ATOM     94  O   UNL A   1      54.494  26.560  25.126  1.00  0.00    -0.237 OA
ATOM     95  O   UNL A   1      53.679  24.258  24.748  1.00  0.00    -0.237 OA
ATOM     96  O   UNL A   1      53.455  25.952  22.972  1.00  0.00    -0.744 OA
ENDBRANCH  92  93
ENDBRANCH  66  87
ENDBRANCH  40  41
ENDBRANCH  33  35
ENDBRANCH  32  33
ENDBRANCH  31  32
ENDBRANCH  30  31
ENDBRANCH  29  30
ENDBRANCH  28  29
ENDBRANCH   1  28
TORSDOF 23
ENDMDL
MODEL 2
REMARK VINA RESULT:     -10.2      5.892     10.038
REMARK SMILES COc1cccc(CSc2nc3ccccc3c(=O)n2CCC(=O)OCCOCCOC(=O)c2ccc(-c3c4nc(c(-c5ccc(S(=O)(=O)[O-])cc5)c5ccc([nH]5)c(-c5ccc(S(=O)(=O)[O-])cc5)c5nc(c(-c6ccc(S(=O)(=O)[O-])cc6)c6ccc3[nH]6)C=C5)C=C4)cc2)c1
REMARK SMILES IDX 26 1 25 2 23 3 24 4 22 5 21 6 20 7 10 8 11 9 12 10 18 11
REMARK SMILES IDX 13 12 17 13 19 14 14 15 16 16 15 17 9 18 8 19 7 20 3 21 4 22
REMARK SMILES IDX 94 23 5 24 6 25 2 26 1 27 27 28 28 29 29 30 30 31 31 32
REMARK SMILES IDX 32 33 33 34 34 35 35 36 93 37 36 38 92 39 37 40 38 41 39 42
REMARK SMILES IDX 86 43 40 44 91 45 85 46 87 47 41 48 90 49 84 50 83 51 42 53
REMARK SMILES IDX 72 54 53 55 71 56 54 57 57 58 70 59 88 60 55 61 56 62 69 64
REMARK SMILES IDX 89 65 58 66 43 67 44 68 52 69 45 70 51 71 46 72 47 73 48 74
REMARK SMILES IDX 49 75 50 76 73 77 74 78 82 79 75 80 81 81 76 82 77 83 78 84
REMARK SMILES IDX 79 85 80 86 59 87 60 88 68 89 61 90 67 91 62 92 63 93 64 94
REMARK SMILES IDX 65 95 66 96
REMARK H PARENT 87 52 57 63
REMARK Flexibility Score: inf
ROOT
ATOM      1  C   UNL A   1      34.397  29.969  27.308  1.00  0.00     0.261 C 
ENDROOT
BRANCH   1   2
ATOM      2  O   UNL A   1      33.166  30.599  26.839  1.00  0.00    -0.463 OA
BRANCH   2   3
ATOM      3  C   UNL A   1      32.228  29.820  26.232  1.00  0.00     0.307 C 
ATOM      4  O   UNL A   1      31.334  30.245  25.509  1.00  0.00    -0.252 OA
BRANCH   3   5
ATOM      5  C   UNL A   1      32.383  28.332  26.557  1.00  0.00     0.144 C 
BRANCH   5   6
ATOM      6  C   UNL A   1      31.279  27.315  26.191  1.00  0.00     0.140 C 
BRANCH   6   7
ATOM      7  N   UNL A   1      31.704  26.079  25.552  1.00  0.00    -0.286 N 
ATOM      8  C   UNL A   1      32.263  26.024  24.320  1.00  0.00     0.171 A 
ATOM      9  N   UNL A   1      33.403  25.440  24.121  1.00  0.00    -0.224 NA
ATOM     10  C   UNL A   1      33.898  24.670  25.191  1.00  0.00     0.079 A 
ATOM     11  C   UNL A   1      31.741  24.900  26.277  1.00  0.00     0.262 A 
ATOM     12  C   UNL A   1      35.236  24.305  25.288  1.00  0.00     0.029 A 
ATOM     13  C   UNL A   1      32.996  24.132  26.110  1.00  0.00     0.066 A 
ATOM     14  O   UNL A   1      30.867  24.541  27.056  1.00  0.00    -0.269 OA
ATOM     15  C   UNL A   1      35.632  23.325  26.205  1.00  0.00     0.002 A 
ATOM     16  C   UNL A   1      33.348  23.083  26.957  1.00  0.00     0.016 A 
ATOM     17  C   UNL A   1      34.679  22.668  26.989  1.00  0.00     0.001 A 
BRANCH   8  18
ATOM     18  S   UNL A   1      31.364  26.518  22.934  1.00  0.00    -0.083 SA
BRANCH  18  19
ATOM     19  C   UNL A   1      31.335  28.286  22.629  1.00  0.00     0.113 C 
BRANCH  19  20
ATOM     20  C   UNL A   1      29.939  28.820  22.562  1.00  0.00    -0.034 A 
ATOM     21  C   UNL A   1      28.451  30.679  22.155  1.00  0.00     0.119 A 
ATOM     22  C   UNL A   1      27.438  29.993  22.824  1.00  0.00     0.046 A 
ATOM     23  C   UNL A   1      29.699  30.082  22.014  1.00  0.00     0.051 A 
ATOM     24  C   UNL A   1      27.633  28.683  23.259  1.00  0.00     0.004 A 
ATOM     25  C   UNL A   1      28.877  28.088  23.108  1.00  0.00     0.005 A 
BRANCH  21  26
ATOM     26  O   UNL A   1      28.142  31.940  21.726  1.00  0.00    -0.497 OA
ATOM     27  C   UNL A   1      27.990  32.086  20.318  1.00  0.00     0.278 C 
ENDBRANCH  21  26
ENDBRANCH  19  20
ENDBRANCH  18  19
ENDBRANCH   8  18
ENDBRANCH   6   7
ENDBRANCH   5   6
ENDBRANCH   3   5
ENDBRANCH   2   3
ENDBRANCH   1   2
BRANCH   1  28
ATOM     28  C   UNL A   1      35.307  30.915  28.130  1.00  0.00     0.202 C 
BRANCH  28  29
ATOM     29  O   UNL A   1      35.678  32.140  27.466  1.00  0.00    -0.374 OA
BRANCH  29  30
ATOM     30  C   UNL A   1      35.759  33.296  28.299  1.00  0.00     0.202 C 
BRANCH  30  31
ATOM     31  C   UNL A   1      34.482  34.161  28.400  1.00  0.00     0.261 C 
BRANCH  31  32
ATOM     32  O   UNL A   1      33.615  33.738  29.457  1.00  0.00    -0.460 OA
BRANCH  32  33
ATOM     33  C   UNL A   1      33.654  34.511  30.563  1.00  0.00     0.338 C 
ATOM     34  O   UNL A   1      32.865  35.377  30.879  1.00  0.00    -0.246 OA
BRANCH  33  35
ATOM     35  C   UNL A   1      34.689  33.994  31.478  1.00  0.00     0.060 A 
ATOM     36  C   UNL A   1      35.794  34.828  31.663  1.00  0.00     0.016 A 
ATOM     37  C   UNL A   1      34.623  32.745  32.101  1.00  0.00     0.016 A 
ATOM     38  C   UNL A   1      36.880  34.387  32.405  1.00  0.00     0.010 A 
ATOM     39  C   UNL A   1      35.720  32.300  32.851  1.00  0.00     0.010 A 
ATOM     40  C   UNL A   1      36.868  33.103  32.964  1.00  0.00    -0.014 A 
BRANCH  40  41
ATOM     41  C   UNL A   1      38.134  32.581  33.527  1.00  0.00     0.031 A 
ATOM     42  C   UNL A   1      39.021  31.738  32.653  1.00  0.00     0.074 A 
ATOM     43  C   UNL A   1      38.533  32.955  34.757  1.00  0.00     0.049 A 
ATOM     44  N   UNL A   1      40.198  31.234  32.913  1.00  0.00    -0.248 NA
ATOM     45  C   UNL A   1      38.528  31.443  31.296  1.00  0.00     0.031 C 
ATOM     46  C   UNL A   1      37.794  33.852  35.645  1.00  0.00     0.029 A 
ATOM     47  N   UNL A   1      39.662  32.638  35.468  1.00  0.00    -0.354 N 
ATOM     48  C   UNL A   1      40.589  30.571  31.755  1.00  0.00     0.074 A 
ATOM     49  C   UNL A   1      39.510  30.703  30.803  1.00  0.00     0.031 C 
ATOM     50  C   UNL A   1      38.471  33.987  36.796  1.00  0.00     0.029 A 
ATOM     51  C   UNL A   1      39.688  33.185  36.728  1.00  0.00     0.049 A 
ATOM     52  H   UNL A   1      40.384  32.075  35.109  1.00  0.00     0.167 HD
ATOM     53  C   UNL A   1      41.751  29.921  31.508  1.00  0.00     0.031 A 
ATOM     54  C   UNL A   1      40.586  33.040  37.721  1.00  0.00     0.031 A 
ATOM     55  C   UNL A   1      42.807  29.788  32.474  1.00  0.00     0.049 A 
ATOM     56  C   UNL A   1      41.816  32.211  37.462  1.00  0.00     0.074 A 
ATOM     57  C   UNL A   1      44.030  29.156  32.333  1.00  0.00     0.029 A 
ATOM     58  N   UNL A   1      42.761  30.285  33.769  1.00  0.00    -0.354 N 
ATOM     59  N   UNL A   1      42.186  31.616  36.352  1.00  0.00    -0.248 NA
ATOM     60  C   UNL A   1      42.750  32.040  38.581  1.00  0.00     0.031 C 
ATOM     61  C   UNL A   1      44.689  29.206  33.565  1.00  0.00     0.029 A 
ATOM     62  C   UNL A   1      43.909  29.930  34.454  1.00  0.00     0.049 A 
ATOM     63  H   UNL A   1      42.019  30.811  34.146  1.00  0.00     0.167 HD
ATOM     64  C   UNL A   1      43.404  31.013  36.634  1.00  0.00     0.074 A 
ATOM     65  C   UNL A   1      43.720  31.336  38.011  1.00  0.00     0.031 C 
ATOM     66  C   UNL A   1      44.191  30.255  35.830  1.00  0.00     0.031 A 
BRANCH  53  67
ATOM     67  C   UNL A   1      41.922  29.270  30.159  1.00  0.00    -0.014 A 
ATOM     68  C   UNL A   1      42.416  29.985  29.054  1.00  0.00     0.010 A 
ATOM     69  C   UNL A   1      41.626  27.902  30.008  1.00  0.00     0.010 A 
ATOM     70  C   UNL A   1      42.586  29.352  27.818  1.00  0.00     0.020 A 
ATOM     71  C   UNL A   1      41.820  27.258  28.782  1.00  0.00     0.020 A 
ATOM     72  C   UNL A   1      42.289  27.992  27.691  1.00  0.00     0.054 A 
BRANCH  72  73
ATOM     73  S   UNL A   1      42.554  27.189  26.086  1.00  0.00     0.124 S 
ATOM     74  O   UNL A   1      41.189  27.063  25.580  1.00  0.00    -0.237 OA
ATOM     75  O   UNL A   1      43.397  28.153  25.383  1.00  0.00    -0.237 OA
ATOM     76  O   UNL A   1      43.208  25.928  26.430  1.00  0.00    -0.744 OA
ENDBRANCH  72  73
ENDBRANCH  53  67
BRANCH  54  77
ATOM     77  C   UNL A   1      40.334  33.661  39.050  1.00  0.00    -0.014 A 
ATOM     78  C   UNL A   1      39.606  32.984  40.044  1.00  0.00     0.010 A 
ATOM     79  C   UNL A   1      40.834  34.947  39.329  1.00  0.00     0.010 A 
ATOM     80  C   UNL A   1      39.370  33.589  41.283  1.00  0.00     0.020 A 
ATOM     81  C   UNL A   1      40.627  35.542  40.575  1.00  0.00     0.020 A 
ATOM     82  C   UNL A   1      39.885  34.863  41.542  1.00  0.00     0.054 A 
BRANCH  82  83
ATOM     83  S   UNL A   1      39.602  35.608  43.171  1.00  0.00     0.124 S 
ATOM     84  O   UNL A   1      39.380  37.009  42.831  1.00  0.00    -0.237 OA
ATOM     85  O   UNL A   1      38.431  34.878  43.651  1.00  0.00    -0.237 OA
ATOM     86  O   UNL A   1      40.840  35.328  43.895  1.00  0.00    -0.744 OA
ENDBRANCH  82  83
ENDBRANCH  54  77
BRANCH  66  87
ATOM     87  C   UNL A   1      45.467  29.720  36.422  1.00  0.00    -0.014 A 
ATOM     88  C   UNL A   1      45.502  28.454  37.031  1.00  0.00     0.010 A 
ATOM     89  C   UNL A   1      46.660  30.457  36.296  1.00  0.00     0.010 A 
ATOM     90  C   UNL A   1      46.703  27.941  37.523  1.00  0.00     0.020 A 
ATOM     91  C   UNL A   1      47.869  29.933  36.759  1.00  0.00     0.020 A 
ATOM     92  C   UNL A   1      47.880  28.681  37.377  1.00  0.00     0.054 A 
BRANCH  92  93
ATOM     93  S   UNL A   1      49.437  27.958  37.961  1.00  0.00     0.124 S 
ATOM     94  O   UNL A   1      50.125  27.663  36.708  1.00  0.00    -0.237 OA
ATOM     95  O   UNL A   1      50.013  29.042  38.754  1.00  0.00    -0.237 OA
ATOM     96  O   UNL A   1      49.012  26.790  38.729  1.00  0.00    -0.744 OA
ENDBRANCH  92  93
ENDBRANCH  66  87
ENDBRANCH  40  41
ENDBRANCH  33  35
ENDBRANCH  32  33
ENDBRANCH  31  32
ENDBRANCH  30  31
ENDBRANCH  29  30
ENDBRANCH  28  29
ENDBRANCH   1  28
TORSDOF 23
ENDMDL
MODEL 3
REMARK VINA RESULT:      -9.7      8.231     12.379
REMARK SMILES COc1cccc(CSc2nc3ccccc3c(=O)n2CCC(=O)OCCOCCOC(=O)c2ccc(-c3c4nc(c(-c5ccc(S(=O)(=O)[O-])cc5)c5ccc([nH]5)c(-c5ccc(S(=O)(=O)[O-])cc5)c5nc(c(-c6ccc(S(=O)(=O)[O-])cc6)c6ccc3[nH]6)C=C5)C=C4)cc2)c1
REMARK SMILES IDX 26 1 25 2 23 3 24 4 22 5 21 6 20 7 10 8 11 9 12 10 18 11
REMARK SMILES IDX 13 12 17 13 19 14 14 15 16 16 15 17 9 18 8 19 7 20 3 21 4 22
REMARK SMILES IDX 94 23 5 24 6 25 2 26 1 27 27 28 28 29 29 30 30 31 31 32
REMARK SMILES IDX 32 33 33 34 34 35 35 36 93 37 36 38 92 39 37 40 38 41 39 42
REMARK SMILES IDX 86 43 40 44 91 45 85 46 87 47 41 48 90 49 84 50 83 51 42 53
REMARK SMILES IDX 72 54 53 55 71 56 54 57 57 58 70 59 88 60 55 61 56 62 69 64
REMARK SMILES IDX 89 65 58 66 43 67 44 68 52 69 45 70 51 71 46 72 47 73 48 74
REMARK SMILES IDX 49 75 50 76 73 77 74 78 82 79 75 80 81 81 76 82 77 83 78 84
REMARK SMILES IDX 79 85 80 86 59 87 60 88 68 89 61 90 67 91 62 92 63 93 64 94
REMARK SMILES IDX 65 95 66 96
REMARK H PARENT 87 52 57 63
REMARK Flexibility Score: inf
ROOT
ATOM      1  C   UNL A   1      35.404  29.508  27.453  1.00  0.00     0.261 C 
ENDROOT
BRANCH   1   2
ATOM      2  O   UNL A   1      34.203  30.269  27.118  1.00  0.00    -0.463 OA
BRANCH   2   3
ATOM      3  C   UNL A   1      33.155  29.611  26.548  1.00  0.00     0.307 C 
ATOM      4  O   UNL A   1      32.153  30.157  26.100  1.00  0.00    -0.252 OA
BRANCH   3   5
ATOM      5  C   UNL A   1      33.337  28.092  26.534  1.00  0.00     0.144 C 
BRANCH   5   6
ATOM      6  C   UNL A   1      32.166  27.143  26.873  1.00  0.00     0.140 C 
BRANCH   6   7
ATOM      7  N   UNL A   1      31.821  26.136  25.881  1.00  0.00    -0.286 N 
ATOM      8  C   UNL A   1      31.574  26.418  24.580  1.00  0.00     0.171 A 
ATOM      9  N   UNL A   1      32.212  25.815  23.625  1.00  0.00    -0.224 NA
ATOM     10  C   UNL A   1      32.985  24.702  24.006  1.00  0.00     0.079 A 
ATOM     11  C   UNL A   1      31.933  24.792  26.190  1.00  0.00     0.262 A 
ATOM     12  C   UNL A   1      34.000  24.192  23.204  1.00  0.00     0.029 A 
ATOM     13  C   UNL A   1      32.630  23.994  25.155  1.00  0.00     0.066 A 
ATOM     14  O   UNL A   1      31.571  24.294  27.249  1.00  0.00    -0.269 OA
ATOM     15  C   UNL A   1      34.555  22.938  23.485  1.00  0.00     0.002 A 
ATOM     16  C   UNL A   1      33.093  22.702  25.394  1.00  0.00     0.016 A 
ATOM     17  C   UNL A   1      34.053  22.167  24.537  1.00  0.00     0.001 A 
BRANCH   8  18
ATOM     18  S   UNL A   1      30.234  27.412  24.144  1.00  0.00    -0.083 SA
BRANCH  18  19
ATOM     19  C   UNL A   1      30.469  28.416  22.676  1.00  0.00     0.113 C 
BRANCH  19  20
ATOM     20  C   UNL A   1      29.576  29.616  22.670  1.00  0.00    -0.034 A 
ATOM     21  C   UNL A   1      28.212  31.175  21.427  1.00  0.00     0.119 A 
ATOM     22  C   UNL A   1      28.265  32.056  22.506  1.00  0.00     0.046 A 
ATOM     23  C   UNL A   1      28.858  29.947  21.518  1.00  0.00     0.051 A 
ATOM     24  C   UNL A   1      28.869  31.678  23.704  1.00  0.00     0.004 A 
ATOM     25  C   UNL A   1      29.504  30.448  23.794  1.00  0.00     0.005 A 
BRANCH  21  26
ATOM     26  O   UNL A   1      27.554  31.623  20.315  1.00  0.00    -0.497 OA
ATOM     27  C   UNL A   1      27.568  33.034  20.124  1.00  0.00     0.278 C 
ENDBRANCH  21  26
ENDBRANCH  19  20
ENDBRANCH  18  19
ENDBRANCH   8  18
ENDBRANCH   6   7
ENDBRANCH   5   6
ENDBRANCH   3   5
ENDBRANCH   2   3
ENDBRANCH   1   2
BRANCH   1  28
ATOM     28  C   UNL A   1      36.267  30.163  28.558  1.00  0.00     0.202 C 
BRANCH  28  29
ATOM     29  O   UNL A   1      36.535  31.568  28.377  1.00  0.00    -0.374 OA
BRANCH  29  30
ATOM     30  C   UNL A   1      36.192  32.411  29.477  1.00  0.00     0.202 C 
BRANCH  30  31
ATOM     31  C   UNL A   1      34.692  32.480  29.848  1.00  0.00     0.261 C 
BRANCH  31  32
ATOM     32  O   UNL A   1      34.462  32.257  31.243  1.00  0.00    -0.460 OA
BRANCH  32  33
ATOM     33  C   UNL A   1      34.352  33.380  31.984  1.00  0.00     0.338 C 
ATOM     34  O   UNL A   1      33.527  34.260  31.862  1.00  0.00    -0.246 OA
BRANCH  33  35
ATOM     35  C   UNL A   1      35.260  33.284  33.143  1.00  0.00     0.060 A 
ATOM     36  C   UNL A   1      35.109  34.286  34.105  1.00  0.00     0.016 A 
ATOM     37  C   UNL A   1      36.243  32.301  33.282  1.00  0.00     0.016 A 
ATOM     38  C   UNL A   1      35.992  34.361  35.172  1.00  0.00     0.010 A 
ATOM     39  C   UNL A   1      37.134  32.377  34.360  1.00  0.00     0.010 A 
ATOM     40  C   UNL A   1      37.036  33.435  35.281  1.00  0.00    -0.014 A 
BRANCH  40  41
ATOM     41  C   UNL A   1      38.096  33.700  36.282  1.00  0.00     0.031 A 
ATOM     42  C   UNL A   1      39.346  34.409  35.841  1.00  0.00     0.074 A 
ATOM     43  C   UNL A   1      37.886  33.415  37.580  1.00  0.00     0.049 A 
ATOM     44  N   UNL A   1      40.368  34.801  36.555  1.00  0.00    -0.248 NA
ATOM     45  C   UNL A   1      39.450  34.743  34.410  1.00  0.00     0.031 C 
ATOM     46  C   UNL A   1      36.665  32.821  38.124  1.00  0.00     0.029 A 
ATOM     47  N   UNL A   1      38.686  33.597  38.678  1.00  0.00    -0.354 N 
ATOM     48  C   UNL A   1      41.230  35.433  35.665  1.00  0.00     0.074 A 
ATOM     49  C   UNL A   1      40.632  35.339  34.353  1.00  0.00     0.031 C 
ATOM     50  C   UNL A   1      36.809  32.655  39.449  1.00  0.00     0.029 A 
ATOM     51  C   UNL A   1      38.132  33.128  39.845  1.00  0.00     0.049 A 
ATOM     52  H   UNL A   1      39.572  34.025  38.635  1.00  0.00     0.167 HD
ATOM     53  C   UNL A   1      42.410  36.044  35.925  1.00  0.00     0.031 A 
ATOM     54  C   UNL A   1      38.644  33.072  41.090  1.00  0.00     0.031 A 
ATOM     55  C   UNL A   1      42.995  36.114  37.237  1.00  0.00     0.049 A 
ATOM     56  C   UNL A   1      40.011  33.653  41.332  1.00  0.00     0.074 A 
ATOM     57  C   UNL A   1      44.182  36.714  37.620  1.00  0.00     0.029 A 
ATOM     58  N   UNL A   1      42.443  35.553  38.380  1.00  0.00    -0.354 N 
ATOM     59  N   UNL A   1      40.800  34.274  40.487  1.00  0.00    -0.248 NA
ATOM     60  C   UNL A   1      40.553  33.534  42.691  1.00  0.00     0.031 C 
ATOM     61  C   UNL A   1      44.383  36.449  38.978  1.00  0.00     0.029 A 
ATOM     62  C   UNL A   1      43.288  35.746  39.458  1.00  0.00     0.049 A 
ATOM     63  H   UNL A   1      41.577  35.085  38.418  1.00  0.00     0.167 HD
ATOM     64  C   UNL A   1      41.926  34.634  41.216  1.00  0.00     0.074 A 
ATOM     65  C   UNL A   1      41.703  34.185  42.575  1.00  0.00     0.031 C 
ATOM     66  C   UNL A   1      43.046  35.276  40.799  1.00  0.00     0.031 A 
BRANCH  53  67
ATOM     67  C   UNL A   1      43.162  36.648  34.767  1.00  0.00    -0.014 A 
ATOM     68  C   UNL A   1      43.001  37.997  34.408  1.00  0.00     0.010 A 
ATOM     69  C   UNL A   1      44.085  35.859  34.055  1.00  0.00     0.010 A 
ATOM     70  C   UNL A   1      43.727  38.539  33.342  1.00  0.00     0.020 A 
ATOM     71  C   UNL A   1      44.833  36.403  33.007  1.00  0.00     0.020 A 
ATOM     72  C   UNL A   1      44.640  37.738  32.649  1.00  0.00     0.054 A 
BRANCH  72  73
ATOM     73  S   UNL A   1      45.595  38.478  31.296  1.00  0.00     0.124 S 
ATOM     74  O   UNL A   1      44.980  39.797  31.175  1.00  0.00    -0.237 OA
ATOM     75  O   UNL A   1      46.958  38.466  31.824  1.00  0.00    -0.237 OA
ATOM     76  O   UNL A   1      45.359  37.576  30.169  1.00  0.00    -0.744 OA
ENDBRANCH  72  73
ENDBRANCH  53  67
BRANCH  54  77
ATOM     77  C   UNL A   1      37.875  32.413  42.181  1.00  0.00    -0.014 A 
ATOM     78  C   UNL A   1      38.032  31.044  42.457  1.00  0.00     0.010 A 
ATOM     79  C   UNL A   1      36.978  33.167  42.961  1.00  0.00     0.010 A 
ATOM     80  C   UNL A   1      37.293  30.439  43.480  1.00  0.00     0.020 A 
ATOM     81  C   UNL A   1      36.260  32.574  44.002  1.00  0.00     0.020 A 
ATOM     82  C   UNL A   1      36.414  31.210  44.248  1.00  0.00     0.054 A 
BRANCH  82  83
ATOM     83  S   UNL A   1      35.499  30.412  45.596  1.00  0.00     0.124 S 
ATOM     84  O   UNL A   1      34.213  30.134  44.968  1.00  0.00    -0.237 OA
ATOM     85  O   UNL A   1      36.328  29.246  45.891  1.00  0.00    -0.237 OA
ATOM     86  O   UNL A   1      35.479  31.431  46.645  1.00  0.00    -0.744 OA
ENDBRANCH  82  83
ENDBRANCH  54  77
BRANCH  66  87
ATOM     87  C   UNL A   1      44.119  35.524  41.825  1.00  0.00    -0.014 A 
ATOM     88  C   UNL A   1      44.096  36.681  42.624  1.00  0.00     0.010 A 
ATOM     89  C   UNL A   1      45.114  34.554  42.047  1.00  0.00     0.010 A 
ATOM     90  C   UNL A   1      45.062  36.874  43.613  1.00  0.00     0.020 A 
ATOM     91  C   UNL A   1      46.062  34.728  43.057  1.00  0.00     0.020 A 
ATOM     92  C   UNL A   1      46.034  35.892  43.828  1.00  0.00     0.054 A 
BRANCH  92  93
ATOM     93  S   UNL A   1      47.231  36.137  45.168  1.00  0.00     0.124 S 
ATOM     94  O   UNL A   1      48.372  35.354  44.703  1.00  0.00    -0.237 OA
ATOM     95  O   UNL A   1      47.420  37.586  45.164  1.00  0.00    -0.237 OA
ATOM     96  O   UNL A   1      46.549  35.607  46.346  1.00  0.00    -0.744 OA
ENDBRANCH  92  93
ENDBRANCH  66  87
ENDBRANCH  40  41
ENDBRANCH  33  35
ENDBRANCH  32  33
ENDBRANCH  31  32
ENDBRANCH  30  31
ENDBRANCH  29  30
ENDBRANCH  28  29
ENDBRANCH   1  28
TORSDOF 23
ENDMDL
