MODEL 1
REMARK VINA RESULT:     -10.5      0.000      0.000
REMARK SMILES Cc1ccc(C(=O)Nc2cccc(F)c2C(=O)OCCOCCOC(=O)c2ccc(-c3c4nc(c(-c5ccc(S(=O)(=O)[O-])cc5)c5ccc([nH]5)c(-c5ccc(S(=O)(=O)[O-])cc5)c5nc(c(-c6ccc(S(=O)(=O)[O-])cc6)c6ccc3[nH]6)C=C5)C=C4)cc2)c(F)c1
REMARK SMILES IDX 22 1 21 2 20 3 19 4 18 5 16 6 17 7 15 8 9 9 10 10 11 11
REMARK SMILES IDX 13 12 12 13 14 14 8 15 6 16 7 17 5 19 1 20 2 21 3 22 89 23
REMARK SMILES IDX 4 24 87 25 88 26 23 27 24 28 25 29 26 30 27 31 28 32 86 33
REMARK SMILES IDX 29 34 85 35 30 36 31 37 32 38 79 39 33 40 84 41 78 42 80 43
REMARK SMILES IDX 34 44 83 45 77 46 76 47 35 49 65 50 46 51 64 52 47 53 50 54
REMARK SMILES IDX 63 55 81 56 48 57 49 58 62 60 82 61 51 62 36 63 37 64 45 65
REMARK SMILES IDX 38 66 44 67 39 68 40 69 41 70 42 71 43 72 66 73 67 74 75 75
REMARK SMILES IDX 68 76 74 77 69 78 70 79 71 80 72 81 73 82 52 83 53 84 61 85
REMARK SMILES IDX 54 86 60 87 55 88 56 89 57 90 58 91 59 92
REMARK H PARENT 8 18 80 48 50 59
REMARK Flexibility Score: inf
ROOT
ATOM      1  C   UNL A   1      32.403  29.892  25.400  1.00  0.00     0.202 C 
ENDROOT
BRANCH   1   2
ATOM      2  O   UNL A   1      31.226  29.139  25.110  1.00  0.00    -0.374 OA
BRANCH   2   3
ATOM      3  C   UNL A   1      30.662  29.263  23.802  1.00  0.00     0.202 C 
BRANCH   3   4
ATOM      4  C   UNL A   1      31.620  29.039  22.630  1.00  0.00     0.261 C 
BRANCH   4   5
ATOM      5  O   UNL A   1      31.811  27.633  22.416  1.00  0.00    -0.460 OA
BRANCH   5   6
ATOM      6  C   UNL A   1      33.058  27.274  22.041  1.00  0.00     0.343 C 
ATOM      7  O   UNL A   1      34.028  28.008  21.912  1.00  0.00    -0.246 OA
BRANCH   6   8
ATOM      8  C   UNL A   1      33.170  25.809  22.056  1.00  0.00     0.119 A 
ATOM      9  C   UNL A   1      33.747  25.164  23.168  1.00  0.00     0.059 A 
ATOM     10  C   UNL A   1      33.926  23.775  23.142  1.00  0.00     0.027 A 
ATOM     11  C   UNL A   1      33.567  23.042  22.006  1.00  0.00     0.005 A 
ATOM     12  C   UNL A   1      32.822  25.070  20.929  1.00  0.00     0.139 A 
ATOM     13  C   UNL A   1      33.022  23.692  20.898  1.00  0.00     0.040 A 
ATOM     14  F   UNL A   1      32.333  25.672  19.837  1.00  0.00    -0.206 F 
BRANCH   9  15
ATOM     15  N   UNL A   1      34.131  25.914  24.296  1.00  0.00    -0.321 N 
ATOM     16  C   UNL A   1      33.474  26.124  25.493  1.00  0.00     0.258 C 
ATOM     17  O   UNL A   1      33.911  26.994  26.246  1.00  0.00    -0.269 OA
ATOM     18  H   UNL A   1      35.005  26.361  24.219  1.00  0.00     0.170 HD
BRANCH  16  19
ATOM     19  C   UNL A   1      32.360  25.241  25.942  1.00  0.00     0.075 A 
ATOM     20  C   UNL A   1      29.203  22.639  27.343  1.00  0.00     0.044 C 
ATOM     21  C   UNL A   1      30.298  23.531  26.845  1.00  0.00    -0.048 A 
ATOM     22  C   UNL A   1      29.991  24.707  26.162  1.00  0.00     0.004 A 
ATOM     23  C   UNL A   1      31.641  23.170  26.995  1.00  0.00     0.043 A 
ATOM     24  C   UNL A   1      31.012  25.530  25.683  1.00  0.00     0.017 A 
ATOM     25  C   UNL A   1      32.657  24.026  26.561  1.00  0.00     0.136 A 
ATOM     26  F   UNL A   1      33.923  23.633  26.765  1.00  0.00    -0.206 F 
ENDBRANCH  16  19
ENDBRANCH   9  15
ENDBRANCH   6   8
ENDBRANCH   5   6
ENDBRANCH   4   5
ENDBRANCH   3   4
ENDBRANCH   2   3
ENDBRANCH   1   2
BRANCH   1  27
ATOM     27  C   UNL A   1      32.583  30.402  26.836  1.00  0.00     0.261 C 
BRANCH  27  28
ATOM     28  O   UNL A   1      33.767  29.885  27.464  1.00  0.00    -0.460 OA
BRANCH  28  29
ATOM     29  C   UNL A   1      34.499  30.800  28.145  1.00  0.00     0.338 C 
ATOM     30  O   UNL A   1      34.100  31.843  28.644  1.00  0.00    -0.246 OA
BRANCH  29  31
ATOM     31  C   UNL A   1      35.853  30.271  28.381  1.00  0.00     0.060 A 
ATOM     32  C   UNL A   1      36.207  29.945  29.698  1.00  0.00     0.016 A 
ATOM     33  C   UNL A   1      36.774  30.131  27.342  1.00  0.00     0.016 A 
ATOM     34  C   UNL A   1      37.492  29.485  29.981  1.00  0.00     0.010 A 
ATOM     35  C   UNL A   1      38.066  29.686  27.631  1.00  0.00     0.010 A 
ATOM     36  C   UNL A   1      38.435  29.375  28.953  1.00  0.00    -0.014 A 
BRANCH  36  37
ATOM     37  C   UNL A   1      39.835  29.001  29.262  1.00  0.00     0.031 A 
ATOM     38  C   UNL A   1      40.767  30.030  29.832  1.00  0.00     0.074 A 
ATOM     39  C   UNL A   1      40.272  27.755  29.008  1.00  0.00     0.049 A 
ATOM     40  N   UNL A   1      42.044  29.933  30.093  1.00  0.00    -0.248 NA
ATOM     41  C   UNL A   1      40.183  31.344  30.143  1.00  0.00     0.031 C 
ATOM     42  C   UNL A   1      39.452  26.665  28.482  1.00  0.00     0.029 A 
ATOM     43  N   UNL A   1      41.524  27.207  29.135  1.00  0.00    -0.354 N 
ATOM     44  C   UNL A   1      42.424  31.176  30.584  1.00  0.00     0.074 A 
ATOM     45  C   UNL A   1      41.245  32.014  30.569  1.00  0.00     0.031 C 
ATOM     46  C   UNL A   1      40.230  25.584  28.302  1.00  0.00     0.029 A 
ATOM     47  C   UNL A   1      41.606  25.918  28.664  1.00  0.00     0.049 A 
ATOM     48  H   UNL A   1      42.288  27.689  29.526  1.00  0.00     0.167 HD
ATOM     49  C   UNL A   1      43.648  31.581  31.001  1.00  0.00     0.031 A 
ATOM     50  C   UNL A   1      42.674  25.113  28.501  1.00  0.00     0.031 A 
ATOM     51  C   UNL A   1      44.820  30.746  30.991  1.00  0.00     0.049 A 
ATOM     52  C   UNL A   1      44.038  25.607  28.901  1.00  0.00     0.074 A 
ATOM     53  C   UNL A   1      46.094  31.047  31.440  1.00  0.00     0.029 A 
ATOM     54  N   UNL A   1      44.869  29.455  30.484  1.00  0.00    -0.354 N 
ATOM     55  N   UNL A   1      44.374  26.765  29.420  1.00  0.00    -0.248 NA
ATOM     56  C   UNL A   1      45.166  24.689  28.693  1.00  0.00     0.031 C 
ATOM     57  C   UNL A   1      46.928  29.964  31.140  1.00  0.00     0.029 A 
ATOM     58  C   UNL A   1      46.162  28.965  30.561  1.00  0.00     0.049 A 
ATOM     59  H   UNL A   1      44.098  28.962  30.122  1.00  0.00     0.167 HD
ATOM     60  C   UNL A   1      45.751  26.713  29.606  1.00  0.00     0.074 A 
ATOM     61  C   UNL A   1      46.182  25.402  29.163  1.00  0.00     0.031 C 
ATOM     62  C   UNL A   1      46.582  27.666  30.095  1.00  0.00     0.031 A 
BRANCH  49  63
ATOM     63  C   UNL A   1      43.789  33.012  31.448  1.00  0.00    -0.014 A 
ATOM     64  C   UNL A   1      43.602  33.385  32.791  1.00  0.00     0.010 A 
ATOM     65  C   UNL A   1      44.132  33.998  30.507  1.00  0.00     0.010 A 
ATOM     66  C   UNL A   1      43.708  34.725  33.174  1.00  0.00     0.020 A 
ATOM     67  C   UNL A   1      44.264  35.336  30.890  1.00  0.00     0.020 A 
ATOM     68  C   UNL A   1      44.031  35.694  32.219  1.00  0.00     0.054 A 
BRANCH  68  69
ATOM     69  S   UNL A   1      44.157  37.426  32.740  1.00  0.00     0.124 S 
ATOM     70  O   UNL A   1      43.880  38.136  31.493  1.00  0.00    -0.237 OA
ATOM     71  O   UNL A   1      43.119  37.530  33.763  1.00  0.00    -0.237 OA
ATOM     72  O   UNL A   1      45.527  37.542  33.232  1.00  0.00    -0.744 OA
ENDBRANCH  68  69
ENDBRANCH  49  63
BRANCH  50  73
ATOM     73  C   UNL A   1      42.489  23.774  27.880  1.00  0.00    -0.014 A 
ATOM     74  C   UNL A   1      42.620  23.597  26.493  1.00  0.00     0.010 A 
ATOM     75  C   UNL A   1      42.230  22.654  28.693  1.00  0.00     0.010 A 
ATOM     76  C   UNL A   1      42.503  22.321  25.931  1.00  0.00     0.020 A 
ATOM     77  C   UNL A   1      42.138  21.376  28.138  1.00  0.00     0.020 A 
ATOM     78  C   UNL A   1      42.273  21.218  26.758  1.00  0.00     0.054 A 
BRANCH  78  79
ATOM     79  S   UNL A   1      42.220  19.562  26.018  1.00  0.00     0.124 S 
ATOM     80  O   UNL A   1      42.655  18.719  27.127  1.00  0.00    -0.237 OA
ATOM     81  O   UNL A   1      40.816  19.432  25.636  1.00  0.00    -0.237 OA
ATOM     82  O   UNL A   1      43.155  19.657  24.898  1.00  0.00    -0.744 OA
ENDBRANCH  78  79
ENDBRANCH  50  73
BRANCH  62  83
ATOM     83  C   UNL A   1      48.049  27.335  30.173  1.00  0.00    -0.014 A 
ATOM     84  C   UNL A   1      48.898  27.555  29.075  1.00  0.00     0.010 A 
ATOM     85  C   UNL A   1      48.599  26.871  31.383  1.00  0.00     0.010 A 
ATOM     86  C   UNL A   1      50.268  27.298  29.177  1.00  0.00     0.020 A 
ATOM     87  C   UNL A   1      49.973  26.639  31.497  1.00  0.00     0.020 A 
ATOM     88  C   UNL A   1      50.797  26.846  30.390  1.00  0.00     0.054 A 
BRANCH  88  89
ATOM     89  S   UNL A   1      52.589  26.580  30.515  1.00  0.00     0.124 S 
ATOM     90  O   UNL A   1      53.048  27.854  31.059  1.00  0.00    -0.237 OA
ATOM     91  O   UNL A   1      52.679  25.439  31.422  1.00  0.00    -0.237 OA
ATOM     92  O   UNL A   1      52.995  26.307  29.138  1.00  0.00    -0.744 OA
ENDBRANCH  88  89
ENDBRANCH  62  83
ENDBRANCH  36  37
ENDBRANCH  29  31
ENDBRANCH  28  29
ENDBRANCH  27  28
ENDBRANCH   1  27
TORSDOF 19
ENDMDL
MODEL 2
REMARK VINA RESULT:     -10.5      2.806      3.613
REMARK SMILES Cc1ccc(C(=O)Nc2cccc(F)c2C(=O)OCCOCCOC(=O)c2ccc(-c3c4nc(c(-c5ccc(S(=O)(=O)[O-])cc5)c5ccc([nH]5)c(-c5ccc(S(=O)(=O)[O-])cc5)c5nc(c(-c6ccc(S(=O)(=O)[O-])cc6)c6ccc3[nH]6)C=C5)C=C4)cc2)c(F)c1
REMARK SMILES IDX 22 1 21 2 20 3 19 4 18 5 16 6 17 7 15 8 9 9 10 10 11 11
REMARK SMILES IDX 13 12 12 13 14 14 8 15 6 16 7 17 5 19 1 20 2 21 3 22 89 23
REMARK SMILES IDX 4 24 87 25 88 26 23 27 24 28 25 29 26 30 27 31 28 32 86 33
REMARK SMILES IDX 29 34 85 35 30 36 31 37 32 38 79 39 33 40 84 41 78 42 80 43
REMARK SMILES IDX 34 44 83 45 77 46 76 47 35 49 65 50 46 51 64 52 47 53 50 54
REMARK SMILES IDX 63 55 81 56 48 57 49 58 62 60 82 61 51 62 36 63 37 64 45 65
REMARK SMILES IDX 38 66 44 67 39 68 40 69 41 70 42 71 43 72 66 73 67 74 75 75
REMARK SMILES IDX 68 76 74 77 69 78 70 79 71 80 72 81 73 82 52 83 53 84 61 85
REMARK SMILES IDX 54 86 60 87 55 88 56 89 57 90 58 91 59 92
REMARK H PARENT 8 18 80 48 50 59
REMARK Flexibility Score: inf
ROOT
ATOM      1  C   UNL A   1      33.554  30.438  27.459  1.00  0.00     0.202 C 
ENDROOT
BRANCH   1   2
ATOM      2  O   UNL A   1      32.367  31.115  27.047  1.00  0.00    -0.374 OA
BRANCH   2   3
ATOM      3  C   UNL A   1      31.631  30.560  25.954  1.00  0.00     0.202 C 
BRANCH   3   4
ATOM      4  C   UNL A   1      32.418  29.667  24.994  1.00  0.00     0.261 C 
BRANCH   4   5
ATOM      5  O   UNL A   1      32.051  28.293  25.189  1.00  0.00    -0.460 OA
BRANCH   5   6
ATOM      6  C   UNL A   1      33.063  27.407  25.073  1.00  0.00     0.343 C 
ATOM      7  O   UNL A   1      33.972  27.218  25.869  1.00  0.00    -0.246 OA
BRANCH   6   8
ATOM      8  C   UNL A   1      32.784  26.490  23.959  1.00  0.00     0.119 A 
ATOM      9  C   UNL A   1      32.172  25.247  24.213  1.00  0.00     0.059 A 
ATOM     10  C   UNL A   1      31.983  24.344  23.159  1.00  0.00     0.027 A 
ATOM     11  C   UNL A   1      32.431  24.662  21.874  1.00  0.00     0.005 A 
ATOM     12  C   UNL A   1      33.231  26.793  22.676  1.00  0.00     0.139 A 
ATOM     13  C   UNL A   1      33.061  25.884  21.635  1.00  0.00     0.040 A 
ATOM     14  F   UNL A   1      33.873  27.942  22.426  1.00  0.00    -0.206 F 
BRANCH   9  15
ATOM     15  N   UNL A   1      31.749  24.924  25.517  1.00  0.00    -0.321 N 
ATOM     16  C   UNL A   1      32.074  23.848  26.319  1.00  0.00     0.258 C 
ATOM     17  O   UNL A   1      31.411  23.669  27.340  1.00  0.00    -0.269 OA
ATOM     18  H   UNL A   1      31.122  25.567  25.921  1.00  0.00     0.170 HD
BRANCH  16  19
ATOM     19  C   UNL A   1      33.274  23.005  26.052  1.00  0.00     0.075 A 
ATOM     20  C   UNL A   1      36.691  20.502  25.177  1.00  0.00     0.044 C 
ATOM     21  C   UNL A   1      35.505  21.361  25.493  1.00  0.00    -0.048 A 
ATOM     22  C   UNL A   1      35.681  22.614  26.080  1.00  0.00     0.004 A 
ATOM     23  C   UNL A   1      34.204  20.898  25.271  1.00  0.00     0.043 A 
ATOM     24  C   UNL A   1      34.575  23.407  26.390  1.00  0.00     0.017 A 
ATOM     25  C   UNL A   1      33.105  21.719  25.534  1.00  0.00     0.136 A 
ATOM     26  F   UNL A   1      31.888  21.225  25.267  1.00  0.00    -0.206 F 
ENDBRANCH  16  19
ENDBRANCH   9  15
ENDBRANCH   6   8
ENDBRANCH   5   6
ENDBRANCH   4   5
ENDBRANCH   3   4
ENDBRANCH   2   3
ENDBRANCH   1   2
BRANCH   1  27
ATOM     27  C   UNL A   1      34.665  31.280  28.100  1.00  0.00     0.261 C 
BRANCH  27  28
ATOM     28  O   UNL A   1      35.543  30.502  28.930  1.00  0.00    -0.460 OA
BRANCH  28  29
ATOM     29  C   UNL A   1      36.521  31.209  29.548  1.00  0.00     0.338 C 
ATOM     30  O   UNL A   1      36.379  32.135  30.334  1.00  0.00    -0.246 OA
BRANCH  29  31
ATOM     31  C   UNL A   1      37.825  30.576  29.288  1.00  0.00     0.060 A 
ATOM     32  C   UNL A   1      38.776  30.591  30.319  1.00  0.00     0.016 A 
ATOM     33  C   UNL A   1      38.129  30.011  28.049  1.00  0.00     0.016 A 
ATOM     34  C   UNL A   1      40.041  30.047  30.108  1.00  0.00     0.010 A 
ATOM     35  C   UNL A   1      39.404  29.482  27.835  1.00  0.00     0.010 A 
ATOM     36  C   UNL A   1      40.370  29.510  28.858  1.00  0.00    -0.014 A 
BRANCH  36  37
ATOM     37  C   UNL A   1      41.749  29.039  28.588  1.00  0.00     0.031 A 
ATOM     38  C   UNL A   1      42.874  30.031  28.545  1.00  0.00     0.074 A 
ATOM     39  C   UNL A   1      41.982  27.735  28.358  1.00  0.00     0.049 A 
ATOM     40  N   UNL A   1      44.132  29.839  28.244  1.00  0.00    -0.248 NA
ATOM     41  C   UNL A   1      42.536  31.423  28.878  1.00  0.00     0.031 C 
ATOM     42  C   UNL A   1      40.973  26.677  28.402  1.00  0.00     0.029 A 
ATOM     43  N   UNL A   1      43.141  27.085  28.015  1.00  0.00    -0.354 N 
ATOM     44  C   UNL A   1      44.735  31.087  28.334  1.00  0.00     0.074 A 
ATOM     45  C   UNL A   1      43.702  32.030  28.703  1.00  0.00     0.031 C 
ATOM     46  C   UNL A   1      41.552  25.511  28.068  1.00  0.00     0.029 A 
ATOM     47  C   UNL A   1      42.959  25.748  27.751  1.00  0.00     0.049 A 
ATOM     48  H   UNL A   1      44.016  27.531  27.965  1.00  0.00     0.167 HD
ATOM     49  C   UNL A   1      46.033  31.415  28.121  1.00  0.00     0.031 A 
ATOM     50  C   UNL A   1      43.816  24.828  27.266  1.00  0.00     0.031 A 
ATOM     51  C   UNL A   1      47.049  30.473  27.733  1.00  0.00     0.049 A 
ATOM     52  C   UNL A   1      45.235  25.228  26.965  1.00  0.00     0.074 A 
ATOM     53  C   UNL A   1      48.401  30.697  27.542  1.00  0.00     0.029 A 
ATOM     54  N   UNL A   1      46.821  29.134  27.451  1.00  0.00    -0.354 N 
ATOM     55  N   UNL A   1      45.808  26.400  27.112  1.00  0.00    -0.248 NA
ATOM     56  C   UNL A   1      46.121  24.186  26.431  1.00  0.00     0.031 C 
ATOM     57  C   UNL A   1      48.977  29.510  27.076  1.00  0.00     0.029 A 
ATOM     58  C   UNL A   1      47.997  28.531  27.036  1.00  0.00     0.049 A 
ATOM     59  H   UNL A   1      45.951  28.680  27.532  1.00  0.00     0.167 HD
ATOM     60  C   UNL A   1      47.124  26.234  26.694  1.00  0.00     0.074 A 
ATOM     61  C   UNL A   1      47.267  24.844  26.309  1.00  0.00     0.031 C 
ATOM     62  C   UNL A   1      48.121  27.151  26.633  1.00  0.00     0.031 A 
BRANCH  49  63
ATOM     63  C   UNL A   1      46.409  32.867  28.248  1.00  0.00    -0.014 A 
ATOM     64  C   UNL A   1      46.952  33.385  29.437  1.00  0.00     0.010 A 
ATOM     65  C   UNL A   1      46.232  33.725  27.147  1.00  0.00     0.010 A 
ATOM     66  C   UNL A   1      47.264  34.744  29.539  1.00  0.00     0.020 A 
ATOM     67  C   UNL A   1      46.567  35.079  27.236  1.00  0.00     0.020 A 
ATOM     68  C   UNL A   1      47.062  35.584  28.439  1.00  0.00     0.054 A 
BRANCH  68  69
ATOM     69  S   UNL A   1      47.470  37.345  28.598  1.00  0.00     0.124 S 
ATOM     70  O   UNL A   1      46.663  37.736  29.752  1.00  0.00    -0.237 OA
ATOM     71  O   UNL A   1      48.913  37.320  28.822  1.00  0.00    -0.237 OA
ATOM     72  O   UNL A   1      47.049  37.915  27.322  1.00  0.00    -0.744 OA
ENDBRANCH  68  69
ENDBRANCH  49  63
BRANCH  50  73
ATOM     73  C   UNL A   1      43.327  23.451  26.990  1.00  0.00    -0.014 A 
ATOM     74  C   UNL A   1      43.118  23.009  25.673  1.00  0.00     0.010 A 
ATOM     75  C   UNL A   1      43.117  22.555  28.056  1.00  0.00     0.010 A 
ATOM     76  C   UNL A   1      42.716  21.692  25.427  1.00  0.00     0.020 A 
ATOM     77  C   UNL A   1      42.740  21.232  27.811  1.00  0.00     0.020 A 
ATOM     78  C   UNL A   1      42.539  20.810  26.497  1.00  0.00     0.054 A 
BRANCH  78  79
ATOM     79  S   UNL A   1      42.111  19.081  26.147  1.00  0.00     0.124 S 
ATOM     80  O   UNL A   1      42.374  18.437  27.430  1.00  0.00    -0.237 OA
ATOM     81  O   UNL A   1      40.704  19.177  25.763  1.00  0.00    -0.237 OA
ATOM     82  O   UNL A   1      43.019  18.716  25.063  1.00  0.00    -0.744 OA
ENDBRANCH  78  79
ENDBRANCH  50  73
BRANCH  62  83
ATOM     83  C   UNL A   1      49.460  26.689  26.122  1.00  0.00    -0.014 A 
ATOM     84  C   UNL A   1      49.872  26.981  24.810  1.00  0.00     0.010 A 
ATOM     85  C   UNL A   1      50.347  26.020  26.986  1.00  0.00     0.010 A 
ATOM     86  C   UNL A   1      51.139  26.597  24.365  1.00  0.00     0.020 A 
ATOM     87  C   UNL A   1      51.625  25.659  26.553  1.00  0.00     0.020 A 
ATOM     88  C   UNL A   1      52.010  25.941  25.241  1.00  0.00     0.054 A 
BRANCH  88  89
ATOM     89  S   UNL A   1      53.674  25.509  24.657  1.00  0.00     0.124 S 
ATOM     90  O   UNL A   1      54.523  26.256  25.580  1.00  0.00    -0.237 OA
ATOM     91  O   UNL A   1      53.699  24.057  24.813  1.00  0.00    -0.237 OA
ATOM     92  O   UNL A   1      53.689  25.981  23.275  1.00  0.00    -0.744 OA
ENDBRANCH  88  89
ENDBRANCH  62  83
ENDBRANCH  36  37
ENDBRANCH  29  31
ENDBRANCH  28  29
ENDBRANCH  27  28
ENDBRANCH   1  27
TORSDOF 19
ENDMDL
MODEL 3
REMARK VINA RESULT:     -10.4      2.658      3.851
REMARK SMILES Cc1ccc(C(=O)Nc2cccc(F)c2C(=O)OCCOCCOC(=O)c2ccc(-c3c4nc(c(-c5ccc(S(=O)(=O)[O-])cc5)c5ccc([nH]5)c(-c5ccc(S(=O)(=O)[O-])cc5)c5nc(c(-c6ccc(S(=O)(=O)[O-])cc6)c6ccc3[nH]6)C=C5)C=C4)cc2)c(F)c1
REMARK SMILES IDX 22 1 21 2 20 3 19 4 18 5 16 6 17 7 15 8 9 9 10 10 11 11
REMARK SMILES IDX 13 12 12 13 14 14 8 15 6 16 7 17 5 19 1 20 2 21 3 22 89 23
REMARK SMILES IDX 4 24 87 25 88 26 23 27 24 28 25 29 26 30 27 31 28 32 86 33
REMARK SMILES IDX 29 34 85 35 30 36 31 37 32 38 79 39 33 40 84 41 78 42 80 43
REMARK SMILES IDX 34 44 83 45 77 46 76 47 35 49 65 50 46 51 64 52 47 53 50 54
REMARK SMILES IDX 63 55 81 56 48 57 49 58 62 60 82 61 51 62 36 63 37 64 45 65
REMARK SMILES IDX 38 66 44 67 39 68 40 69 41 70 42 71 43 72 66 73 67 74 75 75
REMARK SMILES IDX 68 76 74 77 69 78 70 79 71 80 72 81 73 82 52 83 53 84 61 85
REMARK SMILES IDX 54 86 60 87 55 88 56 89 57 90 58 91 59 92
REMARK H PARENT 8 18 80 48 50 59
REMARK Flexibility Score: inf
ROOT
ATOM      1  C   UNL A   1      33.780  29.656  26.474  1.00  0.00     0.202 C 
ENDROOT
BRANCH   1   2
ATOM      2  O   UNL A   1      32.597  30.094  25.807  1.00  0.00    -0.374 OA
BRANCH   2   3
ATOM      3  C   UNL A   1      31.522  29.160  25.678  1.00  0.00     0.202 C 
BRANCH   3   4
ATOM      4  C   UNL A   1      31.666  28.114  24.571  1.00  0.00     0.261 C 
BRANCH   4   5
ATOM      5  O   UNL A   1      31.693  26.797  25.141  1.00  0.00    -0.460 OA
BRANCH   5   6
ATOM      6  C   UNL A   1      30.637  26.015  24.830  1.00  0.00     0.343 C 
ATOM      7  O   UNL A   1      29.639  26.341  24.204  1.00  0.00    -0.246 OA
BRANCH   6   8
ATOM      8  C   UNL A   1      30.964  24.613  25.126  1.00  0.00     0.119 A 
ATOM      9  C   UNL A   1      31.797  23.890  24.250  1.00  0.00     0.059 A 
ATOM     10  C   UNL A   1      32.038  22.532  24.493  1.00  0.00     0.027 A 
ATOM     11  C   UNL A   1      31.427  21.893  25.577  1.00  0.00     0.005 A 
ATOM     12  C   UNL A   1      30.356  23.965  26.198  1.00  0.00     0.139 A 
ATOM     13  C   UNL A   1      30.581  22.610  26.424  1.00  0.00     0.040 A 
ATOM     14  F   UNL A   1      29.510  24.618  27.005  1.00  0.00    -0.206 F 
BRANCH   9  15
ATOM     15  N   UNL A   1      32.385  24.535  23.145  1.00  0.00    -0.321 N 
ATOM     16  C   UNL A   1      33.710  24.823  22.883  1.00  0.00     0.258 C 
ATOM     17  O   UNL A   1      33.961  25.586  21.951  1.00  0.00    -0.269 OA
ATOM     18  H   UNL A   1      31.752  24.828  22.450  1.00  0.00     0.170 HD
BRANCH  16  19
ATOM     19  C   UNL A   1      34.820  24.131  23.598  1.00  0.00     0.075 A 
ATOM     20  C   UNL A   1      37.976  22.142  25.787  1.00  0.00     0.044 C 
ATOM     21  C   UNL A   1      36.892  22.843  25.027  1.00  0.00    -0.048 A 
ATOM     22  C   UNL A   1      36.635  22.505  23.698  1.00  0.00     0.004 A 
ATOM     23  C   UNL A   1      36.168  23.889  25.608  1.00  0.00     0.043 A 
ATOM     24  C   UNL A   1      35.637  23.171  22.983  1.00  0.00     0.017 A 
ATOM     25  C   UNL A   1      35.135  24.512  24.904  1.00  0.00     0.136 A 
ATOM     26  F   UNL A   1      34.461  25.486  25.532  1.00  0.00    -0.206 F 
ENDBRANCH  16  19
ENDBRANCH   9  15
ENDBRANCH   6   8
ENDBRANCH   5   6
ENDBRANCH   4   5
ENDBRANCH   3   4
ENDBRANCH   2   3
ENDBRANCH   1   2
BRANCH   1  27
ATOM     27  C   UNL A   1      34.312  30.527  27.620  1.00  0.00     0.261 C 
BRANCH  27  28
ATOM     28  O   UNL A   1      35.746  30.510  27.710  1.00  0.00    -0.460 OA
BRANCH  28  29
ATOM     29  C   UNL A   1      36.238  30.178  28.929  1.00  0.00     0.338 C 
ATOM     30  O   UNL A   1      35.602  29.981  29.954  1.00  0.00    -0.246 OA
BRANCH  29  31
ATOM     31  C   UNL A   1      37.678  29.890  28.817  1.00  0.00     0.060 A 
ATOM     32  C   UNL A   1      38.199  29.644  27.539  1.00  0.00     0.016 A 
ATOM     33  C   UNL A   1      38.499  29.824  29.944  1.00  0.00     0.016 A 
ATOM     34  C   UNL A   1      39.545  29.320  27.384  1.00  0.00     0.010 A 
ATOM     35  C   UNL A   1      39.845  29.483  29.787  1.00  0.00     0.010 A 
ATOM     36  C   UNL A   1      40.371  29.216  28.510  1.00  0.00    -0.014 A 
BRANCH  36  37
ATOM     37  C   UNL A   1      41.772  28.757  28.366  1.00  0.00     0.031 A 
ATOM     38  C   UNL A   1      42.887  29.759  28.420  1.00  0.00     0.074 A 
ATOM     39  C   UNL A   1      42.038  27.455  28.162  1.00  0.00     0.049 A 
ATOM     40  N   UNL A   1      44.169  29.579  28.233  1.00  0.00    -0.248 NA
ATOM     41  C   UNL A   1      42.508  31.149  28.717  1.00  0.00     0.031 C 
ATOM     42  C   UNL A   1      41.039  26.387  28.120  1.00  0.00     0.029 A 
ATOM     43  N   UNL A   1      43.228  26.814  27.927  1.00  0.00    -0.354 N 
ATOM     44  C   UNL A   1      44.750  30.833  28.372  1.00  0.00     0.074 A 
ATOM     45  C   UNL A   1      43.679  31.767  28.644  1.00  0.00     0.031 C 
ATOM     46  C   UNL A   1      41.656  25.226  27.843  1.00  0.00     0.029 A 
ATOM     47  C   UNL A   1      43.084  25.475  27.652  1.00  0.00     0.049 A 
ATOM     48  H   UNL A   1      44.101  27.269  27.953  1.00  0.00     0.167 HD
ATOM     49  C   UNL A   1      46.058  31.173  28.275  1.00  0.00     0.031 A 
ATOM     50  C   UNL A   1      43.989  24.563  27.249  1.00  0.00     0.031 A 
ATOM     51  C   UNL A   1      47.114  30.240  27.982  1.00  0.00     0.049 A 
ATOM     52  C   UNL A   1      45.425  24.975  27.074  1.00  0.00     0.074 A 
ATOM     53  C   UNL A   1      48.475  30.476  27.912  1.00  0.00     0.029 A 
ATOM     54  N   UNL A   1      46.925  28.897  27.686  1.00  0.00    -0.354 N 
ATOM     55  N   UNL A   1      45.972  26.153  27.268  1.00  0.00    -0.248 NA
ATOM     56  C   UNL A   1      46.365  23.940  26.625  1.00  0.00     0.031 C 
ATOM     57  C   UNL A   1      49.102  29.293  27.504  1.00  0.00     0.029 A 
ATOM     58  C   UNL A   1      48.139  28.305  27.380  1.00  0.00     0.049 A 
ATOM     59  H   UNL A   1      46.056  28.435  27.691  1.00  0.00     0.167 HD
ATOM     60  C   UNL A   1      47.321  25.999  26.970  1.00  0.00     0.074 A 
ATOM     61  C   UNL A   1      47.512  24.609  26.603  1.00  0.00     0.031 C 
ATOM     62  C   UNL A   1      48.311  26.925  26.994  1.00  0.00     0.031 A 
BRANCH  49  63
ATOM     63  C   UNL A   1      46.408  32.629  28.430  1.00  0.00    -0.014 A 
ATOM     64  C   UNL A   1      46.711  33.183  29.687  1.00  0.00     0.010 A 
ATOM     65  C   UNL A   1      46.453  33.453  27.291  1.00  0.00     0.010 A 
ATOM     66  C   UNL A   1      47.002  34.545  29.807  1.00  0.00     0.020 A 
ATOM     67  C   UNL A   1      46.769  34.810  27.403  1.00  0.00     0.020 A 
ATOM     68  C   UNL A   1      47.022  35.352  28.664  1.00  0.00     0.054 A 
BRANCH  68  69
ATOM     69  S   UNL A   1      47.397  37.117  28.848  1.00  0.00     0.124 S 
ATOM     70  O   UNL A   1      48.834  37.092  29.113  1.00  0.00    -0.237 OA
ATOM     71  O   UNL A   1      47.010  37.664  27.550  1.00  0.00    -0.237 OA
ATOM     72  O   UNL A   1      46.563  37.534  29.972  1.00  0.00    -0.744 OA
ENDBRANCH  68  69
ENDBRANCH  49  63
BRANCH  50  73
ATOM     73  C   UNL A   1      43.539  23.180  26.935  1.00  0.00    -0.014 A 
ATOM     74  C   UNL A   1      43.815  22.596  25.688  1.00  0.00     0.010 A 
ATOM     75  C   UNL A   1      42.873  22.420  27.916  1.00  0.00     0.010 A 
ATOM     76  C   UNL A   1      43.439  21.274  25.429  1.00  0.00     0.020 A 
ATOM     77  C   UNL A   1      42.518  21.092  27.669  1.00  0.00     0.020 A 
ATOM     78  C   UNL A   1      42.802  20.528  26.425  1.00  0.00     0.054 A 
BRANCH  78  79
ATOM     79  S   UNL A   1      42.410  18.786  26.100  1.00  0.00     0.124 S 
ATOM     80  O   UNL A   1      42.691  18.164  27.391  1.00  0.00    -0.237 OA
ATOM     81  O   UNL A   1      41.000  18.846  25.720  1.00  0.00    -0.237 OA
ATOM     82  O   UNL A   1      43.323  18.425  25.018  1.00  0.00    -0.744 OA
ENDBRANCH  78  79
ENDBRANCH  50  73
BRANCH  62  83
ATOM     83  C   UNL A   1      49.695  26.475  26.607  1.00  0.00    -0.014 A 
ATOM     84  C   UNL A   1      50.196  26.713  25.316  1.00  0.00     0.010 A 
ATOM     85  C   UNL A   1      50.530  25.873  27.567  1.00  0.00     0.010 A 
ATOM     86  C   UNL A   1      51.502  26.342  24.984  1.00  0.00     0.020 A 
ATOM     87  C   UNL A   1      51.845  25.525  27.247  1.00  0.00     0.020 A 
ATOM     88  C   UNL A   1      52.320  25.754  25.954  1.00  0.00     0.054 A 
BRANCH  88  89
ATOM     89  S   UNL A   1      54.032  25.338  25.516  1.00  0.00     0.124 S 
ATOM     90  O   UNL A   1      54.554  24.828  26.780  1.00  0.00    -0.237 OA
ATOM     91  O   UNL A   1      53.859  24.343  24.460  1.00  0.00    -0.237 OA
ATOM     92  O   UNL A   1      54.596  26.611  25.077  1.00  0.00    -0.744 OA
ENDBRANCH  88  89
ENDBRANCH  62  83
ENDBRANCH  36  37
ENDBRANCH  29  31
ENDBRANCH  28  29
ENDBRANCH  27  28
ENDBRANCH   1  27
TORSDOF 19
ENDMDL
