MODEL 1
REMARK VINA RESULT:     -10.4      0.000      0.000
REMARK SMILES Cc1cc(C)c2c(c1)C=C(C(=O)OCCOCCOC(=O)c1ccc(-c3c4nc(c(-c5ccc(S(=O)(=O)[O-])cc5)c5ccc([nH]5)c(-c5ccc(S(=O)(=O)[O-])cc5)c5nc(c(-c6ccc(S(=O)(=O)[O-])cc6)c6ccc3[nH]6)C=C5)C=C4)cc1)[C@@H](C(F)(F)F)O2
REMARK SMILES IDX 17 1 16 2 15 3 14 4 13 5 11 6 12 7 10 8 1 9 2 10 3 11 8 12
REMARK SMILES IDX 4 13 7 14 5 15 6 16 9 17 87 18 82 19 83 20 84 21 85 22 86 23
REMARK SMILES IDX 18 24 19 25 20 26 21 27 22 28 23 29 81 30 24 31 80 32 25 33
REMARK SMILES IDX 26 34 27 35 74 36 28 37 79 38 73 39 75 40 29 41 78 42 72 43
REMARK SMILES IDX 71 44 30 46 60 47 41 48 59 49 42 50 45 51 58 52 76 53 43 54
REMARK SMILES IDX 44 55 57 57 77 58 46 59 31 60 32 61 40 62 33 63 39 64 34 65
REMARK SMILES IDX 35 66 36 67 37 68 38 69 61 70 62 71 70 72 63 73 69 74 64 75
REMARK SMILES IDX 65 76 66 77 67 78 68 79 47 80 48 81 56 82 49 83 55 84 50 85
REMARK SMILES IDX 51 86 52 87 53 88 54 89
REMARK H PARENT 75 45 45 56
REMARK Flexibility Score: inf
ROOT
ATOM      1  C   UNL A   1      31.867  28.488  26.242  1.00  0.00     0.202 C 
ENDROOT
BRANCH   1   2
ATOM      2  O   UNL A   1      31.220  28.051  25.048  1.00  0.00    -0.374 OA
BRANCH   2   3
ATOM      3  C   UNL A   1      30.437  26.860  25.108  1.00  0.00     0.202 C 
BRANCH   3   4
ATOM      4  C   UNL A   1      30.028  26.224  23.776  1.00  0.00     0.261 C 
BRANCH   4   5
ATOM      5  O   UNL A   1      30.614  24.925  23.603  1.00  0.00    -0.460 OA
BRANCH   5   6
ATOM      6  C   UNL A   1      31.673  24.895  22.763  1.00  0.00     0.338 C 
ATOM      7  O   UNL A   1      31.925  25.690  21.870  1.00  0.00    -0.246 OA
BRANCH   6   8
ATOM      8  C   UNL A   1      32.601  23.821  23.163  1.00  0.00     0.087 C 
ATOM      9  C   UNL A   1      32.464  17.827  24.487  1.00  0.00     0.044 C 
ATOM     10  C   UNL A   1      33.090  19.180  24.335  1.00  0.00    -0.050 A 
ATOM     11  C   UNL A   1      34.365  19.454  24.844  1.00  0.00     0.010 A 
ATOM     12  C   UNL A   1      32.364  20.215  23.735  1.00  0.00     0.015 A 
ATOM     13  C   UNL A   1      34.929  20.736  24.733  1.00  0.00    -0.008 A 
ATOM     14  C   UNL A   1      32.905  21.500  23.641  1.00  0.00     0.018 A 
ATOM     15  C   UNL A   1      36.288  21.010  25.313  1.00  0.00     0.048 C 
ATOM     16  C   UNL A   1      34.194  21.757  24.111  1.00  0.00     0.130 A 
ATOM     17  C   UNL A   1      32.091  22.584  23.129  1.00  0.00     0.027 C 
ATOM     18  O   UNL A   1      34.797  22.980  23.996  1.00  0.00    -0.475 OA
ATOM     19  C   UNL A   1      34.004  24.135  23.602  1.00  0.00     0.316 C 
BRANCH  19  20
ATOM     20  C   UNL A   1      34.053  25.162  24.743  1.00  0.00     0.430 C 
ATOM     21  F   UNL A   1      35.194  25.037  25.463  1.00  0.00    -0.167 F 
ATOM     22  F   UNL A   1      34.022  26.431  24.276  1.00  0.00    -0.167 F 
ATOM     23  F   UNL A   1      33.014  25.015  25.596  1.00  0.00    -0.167 F 
ENDBRANCH  19  20
ENDBRANCH   6   8
ENDBRANCH   5   6
ENDBRANCH   4   5
ENDBRANCH   3   4
ENDBRANCH   2   3
ENDBRANCH   1   2
BRANCH   1  24
ATOM     24  C   UNL A   1      33.367  28.803  26.175  1.00  0.00     0.261 C 
BRANCH  24  25
ATOM     25  O   UNL A   1      33.999  28.791  27.467  1.00  0.00    -0.460 OA
BRANCH  25  26
ATOM     26  C   UNL A   1      34.496  29.985  27.869  1.00  0.00     0.338 C 
ATOM     27  O   UNL A   1      33.870  31.022  28.053  1.00  0.00    -0.246 OA
BRANCH  26  28
ATOM     28  C   UNL A   1      35.909  29.834  28.251  1.00  0.00     0.060 A 
ATOM     29  C   UNL A   1      36.883  30.070  27.272  1.00  0.00     0.016 A 
ATOM     30  C   UNL A   1      36.273  29.407  29.530  1.00  0.00     0.016 A 
ATOM     31  C   UNL A   1      38.228  29.854  27.564  1.00  0.00     0.010 A 
ATOM     32  C   UNL A   1      37.624  29.182  29.816  1.00  0.00     0.010 A 
ATOM     33  C   UNL A   1      38.605  29.382  28.828  1.00  0.00    -0.014 A 
BRANCH  33  34
ATOM     34  C   UNL A   1      40.018  29.005  29.076  1.00  0.00     0.031 A 
ATOM     35  C   UNL A   1      40.937  29.988  29.747  1.00  0.00     0.074 A 
ATOM     36  C   UNL A   1      40.461  27.778  28.744  1.00  0.00     0.049 A 
ATOM     37  N   UNL A   1      42.196  29.847  30.076  1.00  0.00    -0.248 NA
ATOM     38  C   UNL A   1      40.366  31.298  30.098  1.00  0.00     0.031 C 
ATOM     39  C   UNL A   1      39.651  26.727  28.128  1.00  0.00     0.029 A 
ATOM     40  N   UNL A   1      41.699  27.206  28.890  1.00  0.00    -0.354 N 
ATOM     41  C   UNL A   1      42.565  31.044  30.678  1.00  0.00     0.074 A 
ATOM     42  C   UNL A   1      41.411  31.916  30.633  1.00  0.00     0.031 C 
ATOM     43  C   UNL A   1      40.411  25.632  27.962  1.00  0.00     0.029 A 
ATOM     44  C   UNL A   1      41.767  25.912  28.428  1.00  0.00     0.049 A 
ATOM     45  H   UNL A   1      42.467  27.676  29.288  1.00  0.00     0.167 HD
ATOM     46  C   UNL A   1      43.754  31.381  31.232  1.00  0.00     0.031 A 
ATOM     47  C   UNL A   1      42.805  25.054  28.381  1.00  0.00     0.031 A 
ATOM     48  C   UNL A   1      44.904  30.517  31.260  1.00  0.00     0.049 A 
ATOM     49  C   UNL A   1      44.142  25.484  28.925  1.00  0.00     0.074 A 
ATOM     50  C   UNL A   1      46.153  30.770  31.800  1.00  0.00     0.029 A 
ATOM     51  N   UNL A   1      44.949  29.237  30.727  1.00  0.00    -0.354 N 
ATOM     52  N   UNL A   1      44.470  26.614  29.505  1.00  0.00    -0.248 NA
ATOM     53  C   UNL A   1      45.249  24.522  28.814  1.00  0.00     0.031 C 
ATOM     54  C   UNL A   1      46.970  29.664  31.543  1.00  0.00     0.029 A 
ATOM     55  C   UNL A   1      46.211  28.698  30.903  1.00  0.00     0.049 A 
ATOM     56  H   UNL A   1      44.194  28.782  30.289  1.00  0.00     0.167 HD
ATOM     57  C   UNL A   1      45.811  26.487  29.855  1.00  0.00     0.074 A 
ATOM     58  C   UNL A   1      46.231  25.168  29.428  1.00  0.00     0.031 C 
ATOM     59  C   UNL A   1      46.616  27.381  30.478  1.00  0.00     0.031 A 
BRANCH  46  60
ATOM     60  C   UNL A   1      43.880  32.750  31.844  1.00  0.00    -0.014 A 
ATOM     61  C   UNL A   1      43.608  32.960  33.208  1.00  0.00     0.010 A 
ATOM     62  C   UNL A   1      44.346  33.826  31.066  1.00  0.00     0.010 A 
ATOM     63  C   UNL A   1      43.774  34.225  33.776  1.00  0.00     0.020 A 
ATOM     64  C   UNL A   1      44.540  35.088  31.637  1.00  0.00     0.020 A 
ATOM     65  C   UNL A   1      44.242  35.281  32.988  1.00  0.00     0.054 A 
BRANCH  65  66
ATOM     66  S   UNL A   1      44.487  36.901  33.766  1.00  0.00     0.124 S 
ATOM     67  O   UNL A   1      43.414  37.690  33.164  1.00  0.00    -0.237 OA
ATOM     68  O   UNL A   1      44.324  36.601  35.185  1.00  0.00    -0.237 OA
ATOM     69  O   UNL A   1      45.838  37.281  33.361  1.00  0.00    -0.744 OA
ENDBRANCH  65  66
ENDBRANCH  46  60
BRANCH  47  70
ATOM     70  C   UNL A   1      42.616  23.692  27.808  1.00  0.00    -0.014 A 
ATOM     71  C   UNL A   1      42.404  22.586  28.648  1.00  0.00     0.010 A 
ATOM     72  C   UNL A   1      42.629  23.499  26.414  1.00  0.00     0.010 A 
ATOM     73  C   UNL A   1      42.217  21.310  28.106  1.00  0.00     0.020 A 
ATOM     74  C   UNL A   1      42.416  22.230  25.867  1.00  0.00     0.020 A 
ATOM     75  C   UNL A   1      42.220  21.142  26.718  1.00  0.00     0.054 A 
BRANCH  75  76
ATOM     76  S   UNL A   1      41.920  19.485  26.042  1.00  0.00     0.124 S 
ATOM     77  O   UNL A   1      42.795  19.471  24.873  1.00  0.00    -0.237 OA
ATOM     78  O   UNL A   1      42.323  18.619  27.146  1.00  0.00    -0.237 OA
ATOM     79  O   UNL A   1      40.488  19.489  25.751  1.00  0.00    -0.744 OA
ENDBRANCH  75  76
ENDBRANCH  47  70
BRANCH  59  80
ATOM     80  C   UNL A   1      48.033  26.968  30.777  1.00  0.00    -0.014 A 
ATOM     81  C   UNL A   1      49.071  27.217  29.861  1.00  0.00     0.010 A 
ATOM     82  C   UNL A   1      48.345  26.424  32.037  1.00  0.00     0.010 A 
ATOM     83  C   UNL A   1      50.395  26.921  30.199  1.00  0.00     0.020 A 
ATOM     84  C   UNL A   1      49.671  26.153  32.388  1.00  0.00     0.020 A 
ATOM     85  C   UNL A   1      50.687  26.399  31.464  1.00  0.00     0.054 A 
BRANCH  85  86
ATOM     86  S   UNL A   1      52.422  26.104  31.903  1.00  0.00     0.124 S 
ATOM     87  O   UNL A   1      53.123  26.560  30.705  1.00  0.00    -0.237 OA
ATOM     88  O   UNL A   1      52.597  26.938  33.089  1.00  0.00    -0.237 OA
ATOM     89  O   UNL A   1      52.480  24.664  32.146  1.00  0.00    -0.744 OA
ENDBRANCH  85  86
ENDBRANCH  59  80
ENDBRANCH  33  34
ENDBRANCH  26  28
ENDBRANCH  25  26
ENDBRANCH  24  25
ENDBRANCH   1  24
TORSDOF 18
ENDMDL
MODEL 2
REMARK VINA RESULT:     -10.3      2.198      2.838
REMARK SMILES Cc1cc(C)c2c(c1)C=C(C(=O)OCCOCCOC(=O)c1ccc(-c3c4nc(c(-c5ccc(S(=O)(=O)[O-])cc5)c5ccc([nH]5)c(-c5ccc(S(=O)(=O)[O-])cc5)c5nc(c(-c6ccc(S(=O)(=O)[O-])cc6)c6ccc3[nH]6)C=C5)C=C4)cc1)[C@@H](C(F)(F)F)O2
REMARK SMILES IDX 17 1 16 2 15 3 14 4 13 5 11 6 12 7 10 8 1 9 2 10 3 11 8 12
REMARK SMILES IDX 4 13 7 14 5 15 6 16 9 17 87 18 82 19 83 20 84 21 85 22 86 23
REMARK SMILES IDX 18 24 19 25 20 26 21 27 22 28 23 29 81 30 24 31 80 32 25 33
REMARK SMILES IDX 26 34 27 35 74 36 28 37 79 38 73 39 75 40 29 41 78 42 72 43
REMARK SMILES IDX 71 44 30 46 60 47 41 48 59 49 42 50 45 51 58 52 76 53 43 54
REMARK SMILES IDX 44 55 57 57 77 58 46 59 31 60 32 61 40 62 33 63 39 64 34 65
REMARK SMILES IDX 35 66 36 67 37 68 38 69 61 70 62 71 70 72 63 73 69 74 64 75
REMARK SMILES IDX 65 76 66 77 67 78 68 79 47 80 48 81 56 82 49 83 55 84 50 85
REMARK SMILES IDX 51 86 52 87 53 88 54 89
REMARK H PARENT 75 45 45 56
REMARK Flexibility Score: inf
ROOT
ATOM      1  C   UNL A   1      31.863  29.035  25.435  1.00  0.00     0.202 C 
ENDROOT
BRANCH   1   2
ATOM      2  O   UNL A   1      31.520  28.856  24.062  1.00  0.00    -0.374 OA
BRANCH   2   3
ATOM      3  C   UNL A   1      30.769  27.698  23.705  1.00  0.00     0.202 C 
BRANCH   3   4
ATOM      4  C   UNL A   1      30.999  27.116  22.307  1.00  0.00     0.261 C 
BRANCH   4   5
ATOM      5  O   UNL A   1      31.369  25.730  22.360  1.00  0.00    -0.460 OA
BRANCH   5   6
ATOM      6  C   UNL A   1      32.600  25.459  21.870  1.00  0.00     0.338 C 
ATOM      7  O   UNL A   1      33.200  26.081  21.006  1.00  0.00    -0.246 OA
BRANCH   6   8
ATOM      8  C   UNL A   1      33.213  24.358  22.636  1.00  0.00     0.087 C 
ATOM      9  C   UNL A   1      32.154  18.449  23.924  1.00  0.00     0.044 C 
ATOM     10  C   UNL A   1      32.877  19.760  24.008  1.00  0.00    -0.050 A 
ATOM     11  C   UNL A   1      33.853  19.990  24.985  1.00  0.00     0.010 A 
ATOM     12  C   UNL A   1      32.525  20.800  23.143  1.00  0.00     0.015 A 
ATOM     13  C   UNL A   1      34.498  21.235  25.084  1.00  0.00    -0.008 A 
ATOM     14  C   UNL A   1      33.143  22.050  23.247  1.00  0.00     0.018 A 
ATOM     15  C   UNL A   1      35.523  21.465  26.159  1.00  0.00     0.048 C 
ATOM     16  C   UNL A   1      34.146  22.261  24.195  1.00  0.00     0.130 A 
ATOM     17  C   UNL A   1      32.679  23.149  22.425  1.00  0.00     0.027 C 
ATOM     18  O   UNL A   1      34.824  23.445  24.307  1.00  0.00    -0.475 OA
ATOM     19  C   UNL A   1      34.337  24.620  23.598  1.00  0.00     0.316 C 
BRANCH  19  20
ATOM     20  C   UNL A   1      33.990  25.696  24.638  1.00  0.00     0.430 C 
ATOM     21  F   UNL A   1      34.057  26.936  24.097  1.00  0.00    -0.167 F 
ATOM     22  F   UNL A   1      32.733  25.545  25.116  1.00  0.00    -0.167 F 
ATOM     23  F   UNL A   1      34.835  25.666  25.694  1.00  0.00    -0.167 F 
ENDBRANCH  19  20
ENDBRANCH   6   8
ENDBRANCH   5   6
ENDBRANCH   4   5
ENDBRANCH   3   4
ENDBRANCH   2   3
ENDBRANCH   1   2
BRANCH   1  24
ATOM     24  C   UNL A   1      33.165  29.778  25.760  1.00  0.00     0.261 C 
BRANCH  24  25
ATOM     25  O   UNL A   1      33.542  29.666  27.145  1.00  0.00    -0.460 OA
BRANCH  25  26
ATOM     26  C   UNL A   1      34.307  30.682  27.611  1.00  0.00     0.338 C 
ATOM     27  O   UNL A   1      33.967  31.846  27.780  1.00  0.00    -0.246 OA
BRANCH  26  28
ATOM     28  C   UNL A   1      35.599  30.156  28.082  1.00  0.00     0.060 A 
ATOM     29  C   UNL A   1      35.674  29.679  29.397  1.00  0.00     0.016 A 
ATOM     30  C   UNL A   1      36.735  30.187  27.270  1.00  0.00     0.016 A 
ATOM     31  C   UNL A   1      36.895  29.253  29.914  1.00  0.00     0.010 A 
ATOM     32  C   UNL A   1      37.962  29.769  27.796  1.00  0.00     0.010 A 
ATOM     33  C   UNL A   1      38.053  29.322  29.126  1.00  0.00    -0.014 A 
BRANCH  33  34
ATOM     34  C   UNL A   1      39.370  29.018  29.736  1.00  0.00     0.031 A 
ATOM     35  C   UNL A   1      39.841  29.822  30.916  1.00  0.00     0.074 A 
ATOM     36  C   UNL A   1      40.117  28.002  29.265  1.00  0.00     0.049 A 
ATOM     37  N   UNL A   1      40.945  29.702  31.608  1.00  0.00    -0.248 NA
ATOM     38  C   UNL A   1      38.953  30.899  31.382  1.00  0.00     0.031 C 
ATOM     39  C   UNL A   1      39.745  27.126  28.153  1.00  0.00     0.029 A 
ATOM     40  N   UNL A   1      41.339  27.528  29.671  1.00  0.00    -0.354 N 
ATOM     41  C   UNL A   1      40.881  30.679  32.593  1.00  0.00     0.074 A 
ATOM     42  C   UNL A   1      39.651  31.412  32.386  1.00  0.00     0.031 C 
ATOM     43  C   UNL A   1      40.713  26.212  27.975  1.00  0.00     0.029 A 
ATOM     44  C   UNL A   1      41.787  26.456  28.936  1.00  0.00     0.049 A 
ATOM     45  H   UNL A   1      41.847  27.920  30.417  1.00  0.00     0.167 HD
ATOM     46  C   UNL A   1      41.761  30.934  33.590  1.00  0.00     0.031 A 
ATOM     47  C   UNL A   1      42.934  25.753  29.024  1.00  0.00     0.031 A 
ATOM     48  C   UNL A   1      42.992  30.213  33.783  1.00  0.00     0.049 A 
ATOM     49  C   UNL A   1      43.939  26.113  30.087  1.00  0.00     0.074 A 
ATOM     50  C   UNL A   1      43.949  30.398  34.766  1.00  0.00     0.029 A 
ATOM     51  N   UNL A   1      43.437  29.174  32.980  1.00  0.00    -0.354 N 
ATOM     52  N   UNL A   1      43.856  27.031  31.021  1.00  0.00    -0.248 NA
ATOM     53  C   UNL A   1      45.189  25.340  30.114  1.00  0.00     0.031 C 
ATOM     54  C   UNL A   1      45.000  29.507  34.523  1.00  0.00     0.029 A 
ATOM     55  C   UNL A   1      44.666  28.724  33.430  1.00  0.00     0.049 A 
ATOM     56  H   UNL A   1      42.950  28.810  32.206  1.00  0.00     0.167 HD
ATOM     57  C   UNL A   1      45.027  26.924  31.764  1.00  0.00     0.074 A 
ATOM     58  C   UNL A   1      45.799  25.849  31.176  1.00  0.00     0.031 C 
ATOM     59  C   UNL A   1      45.422  27.649  32.839  1.00  0.00     0.031 A 
BRANCH  46  60
ATOM     60  C   UNL A   1      41.435  32.049  34.547  1.00  0.00    -0.014 A 
ATOM     61  C   UNL A   1      41.891  33.359  34.312  1.00  0.00     0.010 A 
ATOM     62  C   UNL A   1      40.603  31.802  35.655  1.00  0.00     0.010 A 
ATOM     63  C   UNL A   1      41.542  34.396  35.181  1.00  0.00     0.020 A 
ATOM     64  C   UNL A   1      40.230  32.842  36.512  1.00  0.00     0.020 A 
ATOM     65  C   UNL A   1      40.712  34.131  36.275  1.00  0.00     0.054 A 
BRANCH  65  66
ATOM     66  S   UNL A   1      40.244  35.507  37.360  1.00  0.00     0.124 S 
ATOM     67  O   UNL A   1      39.303  34.864  38.274  1.00  0.00    -0.237 OA
ATOM     68  O   UNL A   1      41.522  35.898  37.948  1.00  0.00    -0.237 OA
ATOM     69  O   UNL A   1      39.654  36.485  36.449  1.00  0.00    -0.744 OA
ENDBRANCH  65  66
ENDBRANCH  46  60
BRANCH  47  70
ATOM     70  C   UNL A   1      43.188  24.628  28.083  1.00  0.00    -0.014 A 
ATOM     71  C   UNL A   1      43.790  24.862  26.834  1.00  0.00     0.010 A 
ATOM     72  C   UNL A   1      42.845  23.310  28.439  1.00  0.00     0.010 A 
ATOM     73  C   UNL A   1      44.035  23.802  25.956  1.00  0.00     0.020 A 
ATOM     74  C   UNL A   1      43.113  22.244  27.575  1.00  0.00     0.020 A 
ATOM     75  C   UNL A   1      43.700  22.499  26.335  1.00  0.00     0.054 A 
BRANCH  75  76
ATOM     76  S   UNL A   1      44.081  21.136  25.199  1.00  0.00     0.124 S 
ATOM     77  O   UNL A   1      44.140  21.822  23.911  1.00  0.00    -0.237 OA
ATOM     78  O   UNL A   1      45.355  20.645  25.715  1.00  0.00    -0.237 OA
ATOM     79  O   UNL A   1      42.953  20.223  25.370  1.00  0.00    -0.744 OA
ENDBRANCH  75  76
ENDBRANCH  47  70
BRANCH  59  80
ATOM     80  C   UNL A   1      46.736  27.295  33.486  1.00  0.00    -0.014 A 
ATOM     81  C   UNL A   1      46.811  26.310  34.486  1.00  0.00     0.010 A 
ATOM     82  C   UNL A   1      47.923  27.880  33.007  1.00  0.00     0.010 A 
ATOM     83  C   UNL A   1      48.052  25.921  35.001  1.00  0.00     0.020 A 
ATOM     84  C   UNL A   1      49.166  27.474  33.501  1.00  0.00     0.020 A 
ATOM     85  C   UNL A   1      49.222  26.500  34.498  1.00  0.00     0.054 A 
BRANCH  85  86
ATOM     86  S   UNL A   1      50.820  25.916  35.127  1.00  0.00     0.124 S 
ATOM     87  O   UNL A   1      50.419  25.096  36.268  1.00  0.00    -0.237 OA
ATOM     88  O   UNL A   1      51.363  25.184  33.987  1.00  0.00    -0.237 OA
ATOM     89  O   UNL A   1      51.532  27.147  35.467  1.00  0.00    -0.744 OA
ENDBRANCH  85  86
ENDBRANCH  59  80
ENDBRANCH  33  34
ENDBRANCH  26  28
ENDBRANCH  25  26
ENDBRANCH  24  25
ENDBRANCH   1  24
TORSDOF 18
ENDMDL
MODEL 3
REMARK VINA RESULT:     -10.3      1.496      2.092
REMARK SMILES Cc1cc(C)c2c(c1)C=C(C(=O)OCCOCCOC(=O)c1ccc(-c3c4nc(c(-c5ccc(S(=O)(=O)[O-])cc5)c5ccc([nH]5)c(-c5ccc(S(=O)(=O)[O-])cc5)c5nc(c(-c6ccc(S(=O)(=O)[O-])cc6)c6ccc3[nH]6)C=C5)C=C4)cc1)[C@@H](C(F)(F)F)O2
REMARK SMILES IDX 17 1 16 2 15 3 14 4 13 5 11 6 12 7 10 8 1 9 2 10 3 11 8 12
REMARK SMILES IDX 4 13 7 14 5 15 6 16 9 17 87 18 82 19 83 20 84 21 85 22 86 23
REMARK SMILES IDX 18 24 19 25 20 26 21 27 22 28 23 29 81 30 24 31 80 32 25 33
REMARK SMILES IDX 26 34 27 35 74 36 28 37 79 38 73 39 75 40 29 41 78 42 72 43
REMARK SMILES IDX 71 44 30 46 60 47 41 48 59 49 42 50 45 51 58 52 76 53 43 54
REMARK SMILES IDX 44 55 57 57 77 58 46 59 31 60 32 61 40 62 33 63 39 64 34 65
REMARK SMILES IDX 35 66 36 67 37 68 38 69 61 70 62 71 70 72 63 73 69 74 64 75
REMARK SMILES IDX 65 76 66 77 67 78 68 79 47 80 48 81 56 82 49 83 55 84 50 85
REMARK SMILES IDX 51 86 52 87 53 88 54 89
REMARK H PARENT 75 45 45 56
REMARK Flexibility Score: inf
ROOT
ATOM      1  C   UNL A   1      32.169  30.249  25.652  1.00  0.00     0.202 C 
ENDROOT
BRANCH   1   2
ATOM      2  O   UNL A   1      32.129  29.019  24.930  1.00  0.00    -0.374 OA
BRANCH   2   3
ATOM      3  C   UNL A   1      33.200  28.735  24.032  1.00  0.00     0.202 C 
BRANCH   3   4
ATOM      4  C   UNL A   1      32.828  28.214  22.640  1.00  0.00     0.261 C 
BRANCH   4   5
ATOM      5  O   UNL A   1      33.703  27.159  22.214  1.00  0.00    -0.460 OA
BRANCH   5   6
ATOM      6  C   UNL A   1      33.111  25.947  22.115  1.00  0.00     0.338 C 
ATOM      7  O   UNL A   1      32.500  25.504  21.153  1.00  0.00    -0.246 OA
BRANCH   6   8
ATOM      8  C   UNL A   1      33.427  25.136  23.306  1.00  0.00     0.087 C 
ATOM      9  C   UNL A   1      37.205  20.584  24.951  1.00  0.00     0.044 C 
ATOM     10  C   UNL A   1      36.100  21.580  25.137  1.00  0.00    -0.050 A 
ATOM     11  C   UNL A   1      35.237  21.512  26.237  1.00  0.00     0.010 A 
ATOM     12  C   UNL A   1      35.876  22.556  24.161  1.00  0.00     0.015 A 
ATOM     13  C   UNL A   1      34.178  22.423  26.384  1.00  0.00    -0.008 A 
ATOM     14  C   UNL A   1      34.812  23.453  24.284  1.00  0.00     0.018 A 
ATOM     15  C   UNL A   1      33.249  22.312  27.560  1.00  0.00     0.048 C 
ATOM     16  C   UNL A   1      33.981  23.408  25.405  1.00  0.00     0.130 A 
ATOM     17  C   UNL A   1      34.524  24.375  23.203  1.00  0.00     0.027 C 
ATOM     18  O   UNL A   1      32.958  24.295  25.607  1.00  0.00    -0.475 OA
ATOM     19  C   UNL A   1      32.540  25.167  24.518  1.00  0.00     0.316 C 
BRANCH  19  20
ATOM     20  C   UNL A   1      31.073  24.853  24.189  1.00  0.00     0.430 C 
ATOM     21  F   UNL A   1      30.447  25.936  23.669  1.00  0.00    -0.167 F 
ATOM     22  F   UNL A   1      30.966  23.862  23.273  1.00  0.00    -0.167 F 
ATOM     23  F   UNL A   1      30.382  24.470  25.287  1.00  0.00    -0.167 F 
ENDBRANCH  19  20
ENDBRANCH   6   8
ENDBRANCH   5   6
ENDBRANCH   4   5
ENDBRANCH   3   4
ENDBRANCH   2   3
ENDBRANCH   1   2
BRANCH   1  24
ATOM     24  C   UNL A   1      32.472  30.190  27.155  1.00  0.00     0.261 C 
BRANCH  24  25
ATOM     25  O   UNL A   1      33.805  29.728  27.439  1.00  0.00    -0.460 OA
BRANCH  25  26
ATOM     26  C   UNL A   1      34.616  30.647  28.015  1.00  0.00     0.338 C 
ATOM     27  O   UNL A   1      34.293  31.741  28.461  1.00  0.00    -0.246 OA
BRANCH  26  28
ATOM     28  C   UNL A   1      35.956  30.072  28.217  1.00  0.00     0.060 A 
ATOM     29  C   UNL A   1      36.259  29.536  29.475  1.00  0.00     0.016 A 
ATOM     30  C   UNL A   1      36.921  30.113  27.210  1.00  0.00     0.016 A 
ATOM     31  C   UNL A   1      37.541  29.061  29.738  1.00  0.00     0.010 A 
ATOM     32  C   UNL A   1      38.212  29.644  27.480  1.00  0.00     0.010 A 
ATOM     33  C   UNL A   1      38.534  29.138  28.752  1.00  0.00    -0.014 A 
BRANCH  33  34
ATOM     34  C   UNL A   1      39.932  28.778  29.092  1.00  0.00     0.031 A 
ATOM     35  C   UNL A   1      40.786  29.763  29.842  1.00  0.00     0.074 A 
ATOM     36  C   UNL A   1      40.416  27.563  28.775  1.00  0.00     0.049 A 
ATOM     37  N   UNL A   1      42.020  29.635  30.255  1.00  0.00    -0.248 NA
ATOM     38  C   UNL A   1      40.172  31.059  30.170  1.00  0.00     0.031 C 
ATOM     39  C   UNL A   1      39.667  26.510  28.087  1.00  0.00     0.029 A 
ATOM     40  N   UNL A   1      41.649  27.006  28.999  1.00  0.00    -0.354 N 
ATOM     41  C   UNL A   1      42.328  30.827  30.900  1.00  0.00     0.074 A 
ATOM     42  C   UNL A   1      41.167  31.683  30.787  1.00  0.00     0.031 C 
ATOM     43  C   UNL A   1      40.454  25.428  27.959  1.00  0.00     0.029 A 
ATOM     44  C   UNL A   1      41.770  25.721  28.523  1.00  0.00     0.049 A 
ATOM     45  H   UNL A   1      42.380  27.481  29.456  1.00  0.00     0.167 HD
ATOM     46  C   UNL A   1      43.470  31.172  31.541  1.00  0.00     0.031 A 
ATOM     47  C   UNL A   1      42.822  24.878  28.537  1.00  0.00     0.031 A 
ATOM     48  C   UNL A   1      44.628  30.324  31.637  1.00  0.00     0.049 A 
ATOM     49  C   UNL A   1      44.110  25.319  29.180  1.00  0.00     0.074 A 
ATOM     50  C   UNL A   1      45.833  30.587  32.267  1.00  0.00     0.029 A 
ATOM     51  N   UNL A   1      44.730  29.055  31.090  1.00  0.00    -0.354 N 
ATOM     52  N   UNL A   1      44.379  26.444  29.798  1.00  0.00    -0.248 NA
ATOM     53  C   UNL A   1      45.237  24.375  29.132  1.00  0.00     0.031 C 
ATOM     54  C   UNL A   1      46.683  29.497  32.052  1.00  0.00     0.029 A 
ATOM     55  C   UNL A   1      45.985  28.530  31.346  1.00  0.00     0.049 A 
ATOM     56  H   UNL A   1      44.015  28.595  30.593  1.00  0.00     0.167 HD
ATOM     57  C   UNL A   1      45.694  26.331  30.240  1.00  0.00     0.074 A 
ATOM     58  C   UNL A   1      46.164  25.025  29.824  1.00  0.00     0.031 C 
ATOM     59  C   UNL A   1      46.439  27.227  30.931  1.00  0.00     0.031 A 
BRANCH  46  60
ATOM     60  C   UNL A   1      43.532  32.533  32.181  1.00  0.00    -0.014 A 
ATOM     61  C   UNL A   1      43.924  33.663  31.440  1.00  0.00     0.010 A 
ATOM     62  C   UNL A   1      43.123  32.700  33.517  1.00  0.00     0.010 A 
ATOM     63  C   UNL A   1      43.932  34.929  32.031  1.00  0.00     0.020 A 
ATOM     64  C   UNL A   1      43.104  33.969  34.104  1.00  0.00     0.020 A 
ATOM     65  C   UNL A   1      43.519  35.074  33.359  1.00  0.00     0.054 A 
BRANCH  65  66
ATOM     66  S   UNL A   1      43.502  36.736  34.084  1.00  0.00     0.124 S 
ATOM     67  O   UNL A   1      43.688  37.581  32.906  1.00  0.00    -0.237 OA
ATOM     68  O   UNL A   1      42.180  36.802  34.700  1.00  0.00    -0.237 OA
ATOM     69  O   UNL A   1      44.624  36.721  35.019  1.00  0.00    -0.744 OA
ENDBRANCH  65  66
ENDBRANCH  46  60
BRANCH  47  70
ATOM     70  C   UNL A   1      42.694  23.524  27.931  1.00  0.00    -0.014 A 
ATOM     71  C   UNL A   1      41.776  22.593  28.448  1.00  0.00     0.010 A 
ATOM     72  C   UNL A   1      43.479  23.164  26.820  1.00  0.00     0.010 A 
ATOM     73  C   UNL A   1      41.652  21.325  27.872  1.00  0.00     0.020 A 
ATOM     74  C   UNL A   1      43.339  21.907  26.224  1.00  0.00     0.020 A 
ATOM     75  C   UNL A   1      42.432  20.993  26.759  1.00  0.00     0.054 A 
BRANCH  75  76
ATOM     76  S   UNL A   1      42.210  19.361  25.998  1.00  0.00     0.124 S 
ATOM     77  O   UNL A   1      42.813  18.477  26.992  1.00  0.00    -0.237 OA
ATOM     78  O   UNL A   1      40.758  19.271  25.868  1.00  0.00    -0.237 OA
ATOM     79  O   UNL A   1      42.937  19.471  24.736  1.00  0.00    -0.744 OA
ENDBRANCH  75  76
ENDBRANCH  47  70
BRANCH  59  80
ATOM     80  C   UNL A   1      47.839  26.829  31.323  1.00  0.00    -0.014 A 
ATOM     81  C   UNL A   1      48.090  26.138  32.520  1.00  0.00     0.010 A 
ATOM     82  C   UNL A   1      48.899  27.056  30.425  1.00  0.00     0.010 A 
ATOM     83  C   UNL A   1      49.380  25.686  32.816  1.00  0.00     0.020 A 
ATOM     84  C   UNL A   1      50.184  26.582  30.706  1.00  0.00     0.020 A 
ATOM     85  C   UNL A   1      50.416  25.904  31.903  1.00  0.00     0.054 A 
BRANCH  85  86
ATOM     86  S   UNL A   1      52.060  25.234  32.277  1.00  0.00     0.124 S 
ATOM     87  O   UNL A   1      52.329  25.802  33.595  1.00  0.00    -0.237 OA
ATOM     88  O   UNL A   1      51.830  23.792  32.249  1.00  0.00    -0.237 OA
ATOM     89  O   UNL A   1      52.900  25.746  31.196  1.00  0.00    -0.744 OA
ENDBRANCH  85  86
ENDBRANCH  59  80
ENDBRANCH  33  34
ENDBRANCH  26  28
ENDBRANCH  25  26
ENDBRANCH  24  25
ENDBRANCH   1  24
TORSDOF 18
ENDMDL
