MODEL 1
REMARK VINA RESULT:      -9.9      0.000      0.000
REMARK SMILES O=C(CCCc1nc(-c2ccc(Cl)c(Cl)c2)c(-c2ccccc2)o1)OCCOCCOC(=O)c1ccc(-c2c3nc(c(-c4ccc(S(=O)(=O)[O-])cc4)c4ccc([nH]4)c(-c4ccc(S(=O)(=O)[O-])cc4)c4nc(c(-c5ccc(S(=O)(=O)[O-])cc5)c5ccc2[nH]5)C=C4)C=C3)cc1
REMARK SMILES IDX 27 1 26 2 25 3 2 4 1 5 3 6 4 7 5 8 6 9 7 10 24 11 8 12 17 13
REMARK SMILES IDX 9 14 10 15 16 16 11 17 14 18 12 19 15 20 13 21 18 22 19 23
REMARK SMILES IDX 23 24 20 25 22 26 21 27 28 28 29 29 30 30 31 31 32 32 33 33
REMARK SMILES IDX 34 34 35 35 93 36 36 37 92 38 37 39 38 40 39 41 86 42 40 43
REMARK SMILES IDX 91 44 85 45 87 46 41 47 90 48 84 49 83 50 42 52 72 53 53 54
REMARK SMILES IDX 71 55 54 56 57 57 70 58 88 59 55 60 56 61 69 63 89 64 58 65
REMARK SMILES IDX 43 66 44 67 52 68 45 69 51 70 46 71 47 72 48 73 49 74 50 75
REMARK SMILES IDX 73 76 74 77 82 78 75 79 81 80 76 81 77 82 78 83 79 84 80 85
REMARK SMILES IDX 59 86 60 87 68 88 61 89 67 90 62 91 63 92 64 93 65 94 66 95
REMARK H PARENT 87 51 57 62
REMARK Flexibility Score: inf
ROOT
ATOM      1  C   UNL A   1      36.628  22.861  24.116  1.00  0.00     0.202 C 
ENDROOT
BRANCH   1   2
ATOM      2  C   UNL A   1      35.245  22.294  23.774  1.00  0.00     0.261 C 
BRANCH   2   3
ATOM      3  O   UNL A   1      34.310  21.939  24.799  1.00  0.00    -0.463 OA
BRANCH   3   4
ATOM      4  C   UNL A   1      33.023  22.296  24.641  1.00  0.00     0.305 C 
ATOM      5  O   UNL A   1      32.561  22.682  23.575  1.00  0.00    -0.252 OA
BRANCH   4   6
ATOM      6  C   UNL A   1      32.216  22.163  25.920  1.00  0.00     0.123 C 
BRANCH   6   7
ATOM      7  C   UNL A   1      30.768  22.654  25.887  1.00  0.00     0.021 C 
BRANCH   7   8
ATOM      8  C   UNL A   1      30.371  23.887  26.708  1.00  0.00     0.098 C 
BRANCH   8   9
ATOM      9  C   UNL A   1      30.918  25.219  26.310  1.00  0.00     0.195 A 
ATOM     10  N   UNL A   1      31.228  26.205  27.136  1.00  0.00    -0.213 NA
ATOM     11  O   UNL A   1      31.355  25.406  25.014  1.00  0.00    -0.440 OA
ATOM     12  C   UNL A   1      31.898  27.095  26.344  1.00  0.00     0.117 A 
ATOM     13  C   UNL A   1      31.989  26.624  25.052  1.00  0.00     0.162 A 
BRANCH  12  14
ATOM     14  C   UNL A   1      32.457  28.352  26.778  1.00  0.00     0.006 A 
ATOM     15  C   UNL A   1      33.760  28.421  27.277  1.00  0.00     0.012 A 
ATOM     16  C   UNL A   1      31.715  29.528  26.601  1.00  0.00     0.032 A 
ATOM     17  C   UNL A   1      34.320  29.664  27.583  1.00  0.00     0.023 A 
ATOM     18  C   UNL A   1      32.274  30.768  26.906  1.00  0.00     0.060 A 
ATOM     19  C   UNL A   1      33.580  30.838  27.399  1.00  0.00     0.059 A 
ATOM     20  Cl  UNL A   1      31.299  32.168  26.637  1.00  0.00    -0.083 Cl
ATOM     21  Cl  UNL A   1      34.333  32.339  27.800  1.00  0.00    -0.083 Cl
ENDBRANCH  12  14
BRANCH  13  22
ATOM     22  C   UNL A   1      32.648  27.158  23.868  1.00  0.00     0.020 A 
ATOM     23  C   UNL A   1      33.333  28.377  23.905  1.00  0.00     0.012 A 
ATOM     24  C   UNL A   1      32.756  26.356  22.717  1.00  0.00     0.012 A 
ATOM     25  C   UNL A   1      34.089  28.796  22.799  1.00  0.00     0.001 A 
ATOM     26  C   UNL A   1      33.491  26.785  21.607  1.00  0.00     0.001 A 
ATOM     27  C   UNL A   1      34.156  28.007  21.648  1.00  0.00     0.000 A 
ENDBRANCH  13  22
ENDBRANCH   8   9
ENDBRANCH   7   8
ENDBRANCH   6   7
ENDBRANCH   4   6
ENDBRANCH   3   4
ENDBRANCH   2   3
ENDBRANCH   1   2
BRANCH   1  28
ATOM     28  O   UNL A   1      37.337  22.302  25.212  1.00  0.00    -0.374 OA
BRANCH  28  29
ATOM     29  C   UNL A   1      37.407  23.164  26.357  1.00  0.00     0.202 C 
BRANCH  29  30
ATOM     30  C   UNL A   1      38.264  24.424  26.182  1.00  0.00     0.261 C 
BRANCH  30  31
ATOM     31  O   UNL A   1      38.873  24.829  27.422  1.00  0.00    -0.460 OA
BRANCH  31  32
ATOM     32  C   UNL A   1      39.890  25.705  27.244  1.00  0.00     0.338 C 
ATOM     33  O   UNL A   1      40.681  25.705  26.330  1.00  0.00    -0.246 OA
BRANCH  32  34
ATOM     34  C   UNL A   1      39.866  26.792  28.228  1.00  0.00     0.060 A 
ATOM     35  C   UNL A   1      40.574  27.972  27.938  1.00  0.00     0.016 A 
ATOM     36  C   UNL A   1      39.225  26.616  29.447  1.00  0.00     0.016 A 
ATOM     37  C   UNL A   1      40.642  28.995  28.873  1.00  0.00     0.010 A 
ATOM     38  C   UNL A   1      39.315  27.627  30.393  1.00  0.00     0.010 A 
ATOM     39  C   UNL A   1      40.032  28.808  30.113  1.00  0.00    -0.014 A 
BRANCH  39  40
ATOM     40  C   UNL A   1      40.222  29.775  31.205  1.00  0.00     0.031 A 
ATOM     41  C   UNL A   1      41.338  29.531  32.169  1.00  0.00     0.074 A 
ATOM     42  C   UNL A   1      39.327  30.759  31.379  1.00  0.00     0.049 A 
ATOM     43  N   UNL A   1      41.526  30.037  33.355  1.00  0.00    -0.248 NA
ATOM     44  C   UNL A   1      42.360  28.557  31.750  1.00  0.00     0.031 C 
ATOM     45  C   UNL A   1      38.242  31.088  30.454  1.00  0.00     0.029 A 
ATOM     46  N   UNL A   1      39.156  31.622  32.428  1.00  0.00    -0.354 N 
ATOM     47  C   UNL A   1      42.662  29.408  33.849  1.00  0.00     0.074 A 
ATOM     48  C   UNL A   1      43.115  28.481  32.835  1.00  0.00     0.031 C 
ATOM     49  C   UNL A   1      37.482  32.050  31.003  1.00  0.00     0.029 A 
ATOM     50  C   UNL A   1      37.996  32.352  32.335  1.00  0.00     0.049 A 
ATOM     51  H   UNL A   1      39.797  31.711  33.170  1.00  0.00     0.167 HD
ATOM     52  C   UNL A   1      43.252  29.583  35.053  1.00  0.00     0.031 A 
ATOM     53  C   UNL A   1      37.386  33.124  33.254  1.00  0.00     0.031 A 
ATOM     54  C   UNL A   1      42.750  30.498  36.044  1.00  0.00     0.049 A 
ATOM     55  C   UNL A   1      38.027  33.269  34.608  1.00  0.00     0.074 A 
ATOM     56  C   UNL A   1      43.273  30.794  37.288  1.00  0.00     0.029 A 
ATOM     57  N   UNL A   1      41.594  31.256  35.901  1.00  0.00    -0.354 N 
ATOM     58  N   UNL A   1      39.117  32.695  35.066  1.00  0.00    -0.248 NA
ATOM     59  C   UNL A   1      37.367  34.163  35.565  1.00  0.00     0.031 C 
ATOM     60  C   UNL A   1      42.396  31.677  37.925  1.00  0.00     0.029 A 
ATOM     61  C   UNL A   1      41.369  31.995  37.047  1.00  0.00     0.049 A 
ATOM     62  H   UNL A   1      41.020  31.265  35.102  1.00  0.00     0.167 HD
ATOM     63  C   UNL A   1      39.291  33.184  36.355  1.00  0.00     0.074 A 
ATOM     64  C   UNL A   1      38.196  34.104  36.599  1.00  0.00     0.031 C 
ATOM     65  C   UNL A   1      40.268  32.907  37.253  1.00  0.00     0.031 A 
BRANCH  52  66
ATOM     66  C   UNL A   1      44.448  28.727  35.377  1.00  0.00    -0.014 A 
ATOM     67  C   UNL A   1      44.309  27.456  35.964  1.00  0.00     0.010 A 
ATOM     68  C   UNL A   1      45.739  29.204  35.086  1.00  0.00     0.010 A 
ATOM     69  C   UNL A   1      45.438  26.705  36.302  1.00  0.00     0.020 A 
ATOM     70  C   UNL A   1      46.870  28.441  35.389  1.00  0.00     0.020 A 
ATOM     71  C   UNL A   1      46.712  27.205  36.017  1.00  0.00     0.054 A 
BRANCH  71  72
ATOM     72  S   UNL A   1      48.158  26.207  36.464  1.00  0.00     0.124 S 
ATOM     73  O   UNL A   1      47.675  25.488  37.641  1.00  0.00    -0.237 OA
ATOM     74  O   UNL A   1      48.363  25.389  35.271  1.00  0.00    -0.237 OA
ATOM     75  O   UNL A   1      49.199  27.198  36.723  1.00  0.00    -0.744 OA
ENDBRANCH  71  72
ENDBRANCH  52  66
BRANCH  53  76
ATOM     76  C   UNL A   1      36.092  33.778  32.922  1.00  0.00    -0.014 A 
ATOM     77  C   UNL A   1      34.880  33.090  33.098  1.00  0.00     0.010 A 
ATOM     78  C   UNL A   1      36.061  35.117  32.484  1.00  0.00     0.010 A 
ATOM     79  C   UNL A   1      33.662  33.727  32.842  1.00  0.00     0.020 A 
ATOM     80  C   UNL A   1      34.845  35.765  32.256  1.00  0.00     0.020 A 
ATOM     81  C   UNL A   1      33.652  35.064  32.431  1.00  0.00     0.054 A 
BRANCH  81  82
ATOM     82  S   UNL A   1      32.054  35.886  32.185  1.00  0.00     0.124 S 
ATOM     83  O   UNL A   1      31.987  35.989  30.731  1.00  0.00    -0.237 OA
ATOM     84  O   UNL A   1      31.120  34.944  32.797  1.00  0.00    -0.237 OA
ATOM     85  O   UNL A   1      32.206  37.152  32.897  1.00  0.00    -0.744 OA
ENDBRANCH  81  82
ENDBRANCH  53  76
BRANCH  65  86
ATOM     86  C   UNL A   1      40.234  33.642  38.566  1.00  0.00    -0.014 A 
ATOM     87  C   UNL A   1      40.800  34.920  38.707  1.00  0.00     0.010 A 
ATOM     88  C   UNL A   1      39.527  33.078  39.645  1.00  0.00     0.010 A 
ATOM     89  C   UNL A   1      40.671  35.616  39.911  1.00  0.00     0.020 A 
ATOM     90  C   UNL A   1      39.369  33.784  40.838  1.00  0.00     0.020 A 
ATOM     91  C   UNL A   1      39.948  35.047  40.965  1.00  0.00     0.054 A 
BRANCH  91  92
ATOM     92  S   UNL A   1      39.725  36.009  42.486  1.00  0.00     0.124 S 
ATOM     93  O   UNL A   1      38.413  35.559  42.942  1.00  0.00    -0.237 OA
ATOM     94  O   UNL A   1      40.857  35.579  43.303  1.00  0.00    -0.237 OA
ATOM     95  O   UNL A   1      39.783  37.397  42.030  1.00  0.00    -0.744 OA
ENDBRANCH  91  92
ENDBRANCH  65  86
ENDBRANCH  39  40
ENDBRANCH  32  34
ENDBRANCH  31  32
ENDBRANCH  30  31
ENDBRANCH  29  30
ENDBRANCH  28  29
ENDBRANCH   1  28
TORSDOF 22
ENDMDL
MODEL 2
REMARK VINA RESULT:      -9.6      6.310      8.494
REMARK SMILES O=C(CCCc1nc(-c2ccc(Cl)c(Cl)c2)c(-c2ccccc2)o1)OCCOCCOC(=O)c1ccc(-c2c3nc(c(-c4ccc(S(=O)(=O)[O-])cc4)c4ccc([nH]4)c(-c4ccc(S(=O)(=O)[O-])cc4)c4nc(c(-c5ccc(S(=O)(=O)[O-])cc5)c5ccc2[nH]5)C=C4)C=C3)cc1
REMARK SMILES IDX 27 1 26 2 25 3 2 4 1 5 3 6 4 7 5 8 6 9 7 10 24 11 8 12 17 13
REMARK SMILES IDX 9 14 10 15 16 16 11 17 14 18 12 19 15 20 13 21 18 22 19 23
REMARK SMILES IDX 23 24 20 25 22 26 21 27 28 28 29 29 30 30 31 31 32 32 33 33
REMARK SMILES IDX 34 34 35 35 93 36 36 37 92 38 37 39 38 40 39 41 86 42 40 43
REMARK SMILES IDX 91 44 85 45 87 46 41 47 90 48 84 49 83 50 42 52 72 53 53 54
REMARK SMILES IDX 71 55 54 56 57 57 70 58 88 59 55 60 56 61 69 63 89 64 58 65
REMARK SMILES IDX 43 66 44 67 52 68 45 69 51 70 46 71 47 72 48 73 49 74 50 75
REMARK SMILES IDX 73 76 74 77 82 78 75 79 81 80 76 81 77 82 78 83 79 84 80 85
REMARK SMILES IDX 59 86 60 87 68 88 61 89 67 90 62 91 63 92 64 93 65 94 66 95
REMARK H PARENT 87 51 57 62
REMARK Flexibility Score: inf
ROOT
ATOM      1  C   UNL A   1      37.737  21.094  25.710  1.00  0.00     0.202 C 
ENDROOT
BRANCH   1   2
ATOM      2  C   UNL A   1      36.431  20.936  24.923  1.00  0.00     0.261 C 
BRANCH   2   3
ATOM      3  O   UNL A   1      35.531  22.035  24.745  1.00  0.00    -0.463 OA
BRANCH   3   4
ATOM      4  C   UNL A   1      35.588  22.729  23.595  1.00  0.00     0.305 C 
ATOM      5  O   UNL A   1      36.611  23.260  23.183  1.00  0.00    -0.252 OA
BRANCH   4   6
ATOM      6  C   UNL A   1      34.255  22.776  22.871  1.00  0.00     0.123 C 
BRANCH   6   7
ATOM      7  C   UNL A   1      33.127  21.902  23.421  1.00  0.00     0.021 C 
BRANCH   7   8
ATOM      8  C   UNL A   1      31.845  22.562  23.938  1.00  0.00     0.098 C 
BRANCH   8   9
ATOM      9  C   UNL A   1      31.766  24.054  23.962  1.00  0.00     0.195 A 
ATOM     10  N   UNL A   1      30.938  24.795  23.243  1.00  0.00    -0.213 NA
ATOM     11  O   UNL A   1      32.435  24.746  24.949  1.00  0.00    -0.440 OA
ATOM     12  C   UNL A   1      31.073  26.045  23.778  1.00  0.00     0.117 A 
ATOM     13  C   UNL A   1      31.975  26.035  24.819  1.00  0.00     0.162 A 
BRANCH  12  14
ATOM     14  C   UNL A   1      30.368  27.227  23.343  1.00  0.00     0.006 A 
ATOM     15  C   UNL A   1      31.012  28.204  22.580  1.00  0.00     0.012 A 
ATOM     16  C   UNL A   1      28.996  27.339  23.604  1.00  0.00     0.032 A 
ATOM     17  C   UNL A   1      30.281  29.281  22.073  1.00  0.00     0.023 A 
ATOM     18  C   UNL A   1      28.266  28.414  23.099  1.00  0.00     0.060 A 
ATOM     19  C   UNL A   1      28.909  29.389  22.331  1.00  0.00     0.059 A 
ATOM     20  Cl  UNL A   1      26.576  28.464  23.451  1.00  0.00    -0.083 Cl
ATOM     21  Cl  UNL A   1      28.068  30.746  21.676  1.00  0.00    -0.083 Cl
ENDBRANCH  12  14
BRANCH  13  22
ATOM     22  C   UNL A   1      32.410  27.077  25.738  1.00  0.00     0.020 A 
ATOM     23  C   UNL A   1      33.655  27.699  25.596  1.00  0.00     0.012 A 
ATOM     24  C   UNL A   1      31.498  27.598  26.675  1.00  0.00     0.012 A 
ATOM     25  C   UNL A   1      33.989  28.803  26.394  1.00  0.00     0.001 A 
ATOM     26  C   UNL A   1      31.840  28.685  27.486  1.00  0.00     0.001 A 
ATOM     27  C   UNL A   1      33.087  29.286  27.346  1.00  0.00     0.000 A 
ENDBRANCH  13  22
ENDBRANCH   8   9
ENDBRANCH   7   8
ENDBRANCH   6   7
ENDBRANCH   4   6
ENDBRANCH   3   4
ENDBRANCH   2   3
ENDBRANCH   1   2
BRANCH   1  28
ATOM     28  O   UNL A   1      38.902  20.437  25.230  1.00  0.00    -0.374 OA
BRANCH  28  29
ATOM     29  C   UNL A   1      39.645  19.756  26.250  1.00  0.00     0.202 C 
BRANCH  29  30
ATOM     30  C   UNL A   1      40.808  20.550  26.860  1.00  0.00     0.261 C 
BRANCH  30  31
ATOM     31  O   UNL A   1      42.054  19.839  26.747  1.00  0.00    -0.460 OA
BRANCH  31  32
ATOM     32  C   UNL A   1      42.913  20.422  25.877  1.00  0.00     0.338 C 
ATOM     33  O   UNL A   1      43.409  19.900  24.905  1.00  0.00    -0.246 OA
BRANCH  32  34
ATOM     34  C   UNL A   1      43.090  21.852  26.144  1.00  0.00     0.060 A 
ATOM     35  C   UNL A   1      42.808  22.766  25.113  1.00  0.00     0.016 A 
ATOM     36  C   UNL A   1      43.603  22.277  27.363  1.00  0.00     0.016 A 
ATOM     37  C   UNL A   1      43.035  24.122  25.297  1.00  0.00     0.010 A 
ATOM     38  C   UNL A   1      43.856  23.629  27.539  1.00  0.00     0.010 A 
ATOM     39  C   UNL A   1      43.586  24.549  26.505  1.00  0.00    -0.014 A 
BRANCH  39  40
ATOM     40  C   UNL A   1      44.016  25.943  26.692  1.00  0.00     0.031 A 
ATOM     41  C   UNL A   1      45.442  26.280  26.395  1.00  0.00     0.074 A 
ATOM     42  C   UNL A   1      43.169  26.828  27.237  1.00  0.00     0.049 A 
ATOM     43  N   UNL A   1      46.133  27.324  26.757  1.00  0.00    -0.248 NA
ATOM     44  C   UNL A   1      46.198  25.287  25.613  1.00  0.00     0.031 C 
ATOM     45  C   UNL A   1      41.752  26.586  27.508  1.00  0.00     0.029 A 
ATOM     46  N   UNL A   1      43.397  28.091  27.714  1.00  0.00    -0.354 N 
ATOM     47  C   UNL A   1      47.421  27.094  26.291  1.00  0.00     0.074 A 
ATOM     48  C   UNL A   1      47.414  25.810  25.624  1.00  0.00     0.031 C 
ATOM     49  C   UNL A   1      41.247  27.649  28.154  1.00  0.00     0.029 A 
ATOM     50  C   UNL A   1      42.320  28.609  28.392  1.00  0.00     0.049 A 
ATOM     51  H   UNL A   1      44.244  28.577  27.586  1.00  0.00     0.167 HD
ATOM     52  C   UNL A   1      48.510  27.884  26.431  1.00  0.00     0.031 A 
ATOM     53  C   UNL A   1      42.236  29.703  29.172  1.00  0.00     0.031 A 
ATOM     54  C   UNL A   1      48.477  29.144  27.127  1.00  0.00     0.049 A 
ATOM     55  C   UNL A   1      43.469  30.544  29.362  1.00  0.00     0.074 A 
ATOM     56  C   UNL A   1      49.500  30.054  27.310  1.00  0.00     0.029 A 
ATOM     57  N   UNL A   1      47.357  29.660  27.766  1.00  0.00    -0.354 N 
ATOM     58  N   UNL A   1      44.681  30.341  28.897  1.00  0.00    -0.248 NA
ATOM     59  C   UNL A   1      43.326  31.760  30.170  1.00  0.00     0.031 C 
ATOM     60  C   UNL A   1      49.017  31.087  28.119  1.00  0.00     0.029 A 
ATOM     61  C   UNL A   1      47.671  30.861  28.372  1.00  0.00     0.049 A 
ATOM     62  H   UNL A   1      46.470  29.233  27.785  1.00  0.00     0.167 HD
ATOM     63  C   UNL A   1      45.440  31.422  29.331  1.00  0.00     0.074 A 
ATOM     64  C   UNL A   1      44.546  32.276  30.090  1.00  0.00     0.031 C 
ATOM     65  C   UNL A   1      46.752  31.690  29.118  1.00  0.00     0.031 A 
BRANCH  52  66
ATOM     66  C   UNL A   1      49.818  27.376  25.884  1.00  0.00    -0.014 A 
ATOM     67  C   UNL A   1      50.332  27.831  24.656  1.00  0.00     0.010 A 
ATOM     68  C   UNL A   1      50.549  26.424  26.617  1.00  0.00     0.010 A 
ATOM     69  C   UNL A   1      51.522  27.304  24.148  1.00  0.00     0.020 A 
ATOM     70  C   UNL A   1      51.759  25.919  26.129  1.00  0.00     0.020 A 
ATOM     71  C   UNL A   1      52.225  26.347  24.886  1.00  0.00     0.054 A 
BRANCH  71  72
ATOM     72  S   UNL A   1      53.768  25.683  24.202  1.00  0.00     0.124 S 
ATOM     73  O   UNL A   1      53.690  26.116  22.809  1.00  0.00    -0.237 OA
ATOM     74  O   UNL A   1      54.787  26.349  25.009  1.00  0.00    -0.237 OA
ATOM     75  O   UNL A   1      53.651  24.243  24.414  1.00  0.00    -0.744 OA
ENDBRANCH  71  72
ENDBRANCH  52  66
BRANCH  53  76
ATOM     76  C   UNL A   1      40.950  30.026  29.846  1.00  0.00    -0.014 A 
ATOM     77  C   UNL A   1      39.963  30.771  29.179  1.00  0.00     0.010 A 
ATOM     78  C   UNL A   1      40.680  29.536  31.139  1.00  0.00     0.010 A 
ATOM     79  C   UNL A   1      38.732  31.022  29.793  1.00  0.00     0.020 A 
ATOM     80  C   UNL A   1      39.440  29.760  31.743  1.00  0.00     0.020 A 
ATOM     81  C   UNL A   1      38.475  30.507  31.067  1.00  0.00     0.054 A 
BRANCH  81  82
ATOM     82  S   UNL A   1      36.840  30.781  31.803  1.00  0.00     0.124 S 
ATOM     83  O   UNL A   1      37.183  31.230  33.148  1.00  0.00    -0.237 OA
ATOM     84  O   UNL A   1      36.267  31.797  30.922  1.00  0.00    -0.237 OA
ATOM     85  O   UNL A   1      36.203  29.469  31.723  1.00  0.00    -0.744 OA
ENDBRANCH  81  82
ENDBRANCH  53  76
BRANCH  65  86
ATOM     86  C   UNL A   1      47.294  32.982  29.665  1.00  0.00    -0.014 A 
ATOM     87  C   UNL A   1      47.019  34.214  29.048  1.00  0.00     0.010 A 
ATOM     88  C   UNL A   1      48.007  32.963  30.879  1.00  0.00     0.010 A 
ATOM     89  C   UNL A   1      47.458  35.405  29.631  1.00  0.00     0.020 A 
ATOM     90  C   UNL A   1      48.420  34.152  31.480  1.00  0.00     0.020 A 
ATOM     91  C   UNL A   1      48.148  35.366  30.848  1.00  0.00     0.054 A 
BRANCH  91  92
ATOM     92  S   UNL A   1      48.632  36.932  31.624  1.00  0.00     0.124 S 
ATOM     93  O   UNL A   1      47.483  37.785  31.331  1.00  0.00    -0.237 OA
ATOM     94  O   UNL A   1      48.796  36.555  33.026  1.00  0.00    -0.237 OA
ATOM     95  O   UNL A   1      49.868  37.294  30.932  1.00  0.00    -0.744 OA
ENDBRANCH  91  92
ENDBRANCH  65  86
ENDBRANCH  39  40
ENDBRANCH  32  34
ENDBRANCH  31  32
ENDBRANCH  30  31
ENDBRANCH  29  30
ENDBRANCH  28  29
ENDBRANCH   1  28
TORSDOF 22
ENDMDL
MODEL 3
REMARK VINA RESULT:      -9.6      1.680      2.874
REMARK SMILES O=C(CCCc1nc(-c2ccc(Cl)c(Cl)c2)c(-c2ccccc2)o1)OCCOCCOC(=O)c1ccc(-c2c3nc(c(-c4ccc(S(=O)(=O)[O-])cc4)c4ccc([nH]4)c(-c4ccc(S(=O)(=O)[O-])cc4)c4nc(c(-c5ccc(S(=O)(=O)[O-])cc5)c5ccc2[nH]5)C=C4)C=C3)cc1
REMARK SMILES IDX 27 1 26 2 25 3 2 4 1 5 3 6 4 7 5 8 6 9 7 10 24 11 8 12 17 13
REMARK SMILES IDX 9 14 10 15 16 16 11 17 14 18 12 19 15 20 13 21 18 22 19 23
REMARK SMILES IDX 23 24 20 25 22 26 21 27 28 28 29 29 30 30 31 31 32 32 33 33
REMARK SMILES IDX 34 34 35 35 93 36 36 37 92 38 37 39 38 40 39 41 86 42 40 43
REMARK SMILES IDX 91 44 85 45 87 46 41 47 90 48 84 49 83 50 42 52 72 53 53 54
REMARK SMILES IDX 71 55 54 56 57 57 70 58 88 59 55 60 56 61 69 63 89 64 58 65
REMARK SMILES IDX 43 66 44 67 52 68 45 69 51 70 46 71 47 72 48 73 49 74 50 75
REMARK SMILES IDX 73 76 74 77 82 78 75 79 81 80 76 81 77 82 78 83 79 84 80 85
REMARK SMILES IDX 59 86 60 87 68 88 61 89 67 90 62 91 63 92 64 93 65 94 66 95
REMARK H PARENT 87 51 57 62
REMARK Flexibility Score: inf
ROOT
ATOM      1  C   UNL A   1      38.519  22.239  25.828  1.00  0.00     0.202 C 
ENDROOT
BRANCH   1   2
ATOM      2  C   UNL A   1      37.860  21.075  25.079  1.00  0.00     0.261 C 
BRANCH   2   3
ATOM      3  O   UNL A   1      36.493  21.139  24.658  1.00  0.00    -0.463 OA
BRANCH   3   4
ATOM      4  C   UNL A   1      36.114  22.162  23.871  1.00  0.00     0.305 C 
ATOM      5  O   UNL A   1      36.832  22.641  23.002  1.00  0.00    -0.252 OA
BRANCH   4   6
ATOM      6  C   UNL A   1      34.710  22.649  24.178  1.00  0.00     0.123 C 
BRANCH   6   7
ATOM      7  C   UNL A   1      33.590  21.607  24.172  1.00  0.00     0.021 C 
BRANCH   7   8
ATOM      8  C   UNL A   1      32.129  22.070  24.172  1.00  0.00     0.098 C 
BRANCH   8   9
ATOM      9  C   UNL A   1      31.842  23.536  24.149  1.00  0.00     0.195 A 
ATOM     10  N   UNL A   1      30.849  24.119  23.498  1.00  0.00    -0.213 NA
ATOM     11  O   UNL A   1      32.503  24.363  25.034  1.00  0.00    -0.440 OA
ATOM     12  C   UNL A   1      30.858  25.402  23.969  1.00  0.00     0.117 A 
ATOM     13  C   UNL A   1      31.854  25.568  24.907  1.00  0.00     0.162 A 
BRANCH  12  14
ATOM     14  C   UNL A   1      29.952  26.451  23.570  1.00  0.00     0.006 A 
ATOM     15  C   UNL A   1      28.615  26.434  23.976  1.00  0.00     0.012 A 
ATOM     16  C   UNL A   1      30.449  27.548  22.854  1.00  0.00     0.032 A 
ATOM     17  C   UNL A   1      27.785  27.517  23.675  1.00  0.00     0.023 A 
ATOM     18  C   UNL A   1      29.622  28.629  22.553  1.00  0.00     0.060 A 
ATOM     19  C   UNL A   1      28.285  28.614  22.964  1.00  0.00     0.059 A 
ATOM     20  Cl  UNL A   1      30.320  29.949  21.686  1.00  0.00    -0.083 Cl
ATOM     21  Cl  UNL A   1      27.205  29.917  22.624  1.00  0.00    -0.083 Cl
ENDBRANCH  12  14
BRANCH  13  22
ATOM     22  C   UNL A   1      32.227  26.706  25.736  1.00  0.00     0.020 A 
ATOM     23  C   UNL A   1      31.388  27.170  26.754  1.00  0.00     0.012 A 
ATOM     24  C   UNL A   1      33.526  27.238  25.635  1.00  0.00     0.012 A 
ATOM     25  C   UNL A   1      31.833  28.166  27.638  1.00  0.00     0.001 A 
ATOM     26  C   UNL A   1      33.961  28.245  26.501  1.00  0.00     0.001 A 
ATOM     27  C   UNL A   1      33.113  28.711  27.502  1.00  0.00     0.000 A 
ENDBRANCH  13  22
ENDBRANCH   8   9
ENDBRANCH   7   8
ENDBRANCH   6   7
ENDBRANCH   4   6
ENDBRANCH   3   4
ENDBRANCH   2   3
ENDBRANCH   1   2
BRANCH   1  28
ATOM     28  O   UNL A   1      39.910  22.163  26.110  1.00  0.00    -0.374 OA
BRANCH  28  29
ATOM     29  C   UNL A   1      40.284  22.783  27.348  1.00  0.00     0.202 C 
BRANCH  29  30
ATOM     30  C   UNL A   1      41.274  23.950  27.228  1.00  0.00     0.261 C 
BRANCH  30  31
ATOM     31  O   UNL A   1      40.685  25.080  26.559  1.00  0.00    -0.460 OA
BRANCH  31  32
ATOM     32  C   UNL A   1      39.596  25.562  27.204  1.00  0.00     0.338 C 
ATOM     33  O   UNL A   1      38.447  25.242  27.001  1.00  0.00    -0.246 OA
BRANCH  32  34
ATOM     34  C   UNL A   1      39.954  26.443  28.319  1.00  0.00     0.060 A 
ATOM     35  C   UNL A   1      39.202  26.362  29.504  1.00  0.00     0.016 A 
ATOM     36  C   UNL A   1      40.962  27.387  28.167  1.00  0.00     0.016 A 
ATOM     37  C   UNL A   1      39.457  27.230  30.556  1.00  0.00     0.010 A 
ATOM     38  C   UNL A   1      41.200  28.272  29.208  1.00  0.00     0.010 A 
ATOM     39  C   UNL A   1      40.441  28.204  30.394  1.00  0.00    -0.014 A 
BRANCH  39  40
ATOM     40  C   UNL A   1      40.633  29.263  31.398  1.00  0.00     0.031 A 
ATOM     41  C   UNL A   1      41.689  29.059  32.435  1.00  0.00     0.074 A 
ATOM     42  C   UNL A   1      39.785  30.301  31.433  1.00  0.00     0.049 A 
ATOM     43  N   UNL A   1      41.852  29.669  33.576  1.00  0.00    -0.248 NA
ATOM     44  C   UNL A   1      42.676  27.999  32.162  1.00  0.00     0.031 C 
ATOM     45  C   UNL A   1      38.762  30.592  30.427  1.00  0.00     0.029 A 
ATOM     46  N   UNL A   1      39.614  31.270  32.384  1.00  0.00    -0.354 N 
ATOM     47  C   UNL A   1      42.928  29.036  34.183  1.00  0.00     0.074 A 
ATOM     48  C   UNL A   1      43.376  27.993  33.286  1.00  0.00     0.031 C 
ATOM     49  C   UNL A   1      38.032  31.639  30.843  1.00  0.00     0.029 A 
ATOM     50  C   UNL A   1      38.500  32.044  32.165  1.00  0.00     0.049 A 
ATOM     51  H   UNL A   1      40.225  31.400  33.146  1.00  0.00     0.167 HD
ATOM     52  C   UNL A   1      43.472  29.298  35.393  1.00  0.00     0.031 A 
ATOM     53  C   UNL A   1      37.892  32.932  32.975  1.00  0.00     0.031 A 
ATOM     54  C   UNL A   1      42.976  30.330  36.266  1.00  0.00     0.049 A 
ATOM     55  C   UNL A   1      38.479  33.176  34.339  1.00  0.00     0.074 A 
ATOM     56  C   UNL A   1      43.458  30.719  37.501  1.00  0.00     0.029 A 
ATOM     57  N   UNL A   1      41.871  31.125  35.994  1.00  0.00    -0.354 N 
ATOM     58  N   UNL A   1      39.515  32.597  34.903  1.00  0.00    -0.248 NA
ATOM     59  C   UNL A   1      37.825  34.190  35.172  1.00  0.00     0.031 C 
ATOM     60  C   UNL A   1      42.602  31.702  38.006  1.00  0.00     0.029 A 
ATOM     61  C   UNL A   1      41.634  31.983  37.051  1.00  0.00     0.049 A 
ATOM     62  H   UNL A   1      41.334  31.085  35.170  1.00  0.00     0.167 HD
ATOM     63  C   UNL A   1      39.657  33.200  36.147  1.00  0.00     0.074 A 
ATOM     64  C   UNL A   1      38.603  34.192  36.247  1.00  0.00     0.031 C 
ATOM     65  C   UNL A   1      40.576  32.964  37.115  1.00  0.00     0.031 A 
BRANCH  52  66
ATOM     66  C   UNL A   1      44.604  28.420  35.856  1.00  0.00    -0.014 A 
ATOM     67  C   UNL A   1      44.378  27.276  36.642  1.00  0.00     0.010 A 
ATOM     68  C   UNL A   1      45.924  28.746  35.495  1.00  0.00     0.010 A 
ATOM     69  C   UNL A   1      45.451  26.508  37.102  1.00  0.00     0.020 A 
ATOM     70  C   UNL A   1      46.999  27.961  35.923  1.00  0.00     0.020 A 
ATOM     71  C   UNL A   1      46.756  26.859  36.743  1.00  0.00     0.054 A 
BRANCH  71  72
ATOM     72  S   UNL A   1      48.128  25.842  37.352  1.00  0.00     0.124 S 
ATOM     73  O   UNL A   1      48.876  25.580  36.125  1.00  0.00    -0.237 OA
ATOM     74  O   UNL A   1      48.783  26.731  38.309  1.00  0.00    -0.237 OA
ATOM     75  O   UNL A   1      47.466  24.679  37.938  1.00  0.00    -0.744 OA
ENDBRANCH  71  72
ENDBRANCH  52  66
BRANCH  53  76
ATOM     76  C   UNL A   1      36.652  33.612  32.517  1.00  0.00    -0.014 A 
ATOM     77  C   UNL A   1      35.609  32.876  31.931  1.00  0.00     0.010 A 
ATOM     78  C   UNL A   1      36.480  34.996  32.722  1.00  0.00     0.010 A 
ATOM     79  C   UNL A   1      34.419  33.509  31.557  1.00  0.00     0.020 A 
ATOM     80  C   UNL A   1      35.282  35.626  32.377  1.00  0.00     0.020 A 
ATOM     81  C   UNL A   1      34.260  34.878  31.791  1.00  0.00     0.054 A 
BRANCH  81  82
ATOM     82  S   UNL A   1      32.676  35.655  31.369  1.00  0.00     0.124 S 
ATOM     83  O   UNL A   1      31.811  35.187  32.447  1.00  0.00    -0.237 OA
ATOM     84  O   UNL A   1      33.009  37.077  31.394  1.00  0.00    -0.237 OA
ATOM     85  O   UNL A   1      32.374  35.117  30.044  1.00  0.00    -0.744 OA
ENDBRANCH  81  82
ENDBRANCH  53  76
BRANCH  65  86
ATOM     86  C   UNL A   1      40.522  33.825  38.348  1.00  0.00    -0.014 A 
ATOM     87  C   UNL A   1      39.795  33.433  39.485  1.00  0.00     0.010 A 
ATOM     88  C   UNL A   1      41.300  34.997  38.397  1.00  0.00     0.010 A 
ATOM     89  C   UNL A   1      39.839  34.207  40.647  1.00  0.00     0.020 A 
ATOM     90  C   UNL A   1      41.371  35.755  39.566  1.00  0.00     0.020 A 
ATOM     91  C   UNL A   1      40.635  35.358  40.683  1.00  0.00     0.054 A 
BRANCH  91  92
ATOM     92  S   UNL A   1      40.739  36.296  42.231  1.00  0.00     0.124 S 
ATOM     93  O   UNL A   1      41.267  37.579  41.775  1.00  0.00    -0.237 OA
ATOM     94  O   UNL A   1      39.351  36.313  42.687  1.00  0.00    -0.237 OA
ATOM     95  O   UNL A   1      41.651  35.505  43.055  1.00  0.00    -0.744 OA
ENDBRANCH  91  92
ENDBRANCH  65  86
ENDBRANCH  39  40
ENDBRANCH  32  34
ENDBRANCH  31  32
ENDBRANCH  30  31
ENDBRANCH  29  30
ENDBRANCH  28  29
ENDBRANCH   1  28
TORSDOF 22
ENDMDL
