MODEL 1
REMARK VINA RESULT:      -8.9      0.000      0.000
REMARK SMILES C=CC[C@@](CC)(C(=O)OCCOCCOC(=O)c1ccc(-c2c3nc(c(-c4ccc(S(=O)(=O)[O-])cc4)c4ccc([nH]4)c(-c4ccc(S(=O)(=O)[O-])cc4)c4nc(c(-c5ccc(S(=O)(=O)[O-])cc5)c5ccc2[nH]5)C=C4)C=C3)cc1)c1ccccc1
REMARK SMILES IDX 13 1 12 2 11 3 10 4 9 5 7 6 8 7 4 8 3 9 2 10 1 11 5 12 6 13
REMARK SMILES IDX 78 14 79 15 83 16 80 17 82 18 81 19 14 20 15 21 16 22 17 23
REMARK SMILES IDX 18 24 19 25 77 26 20 27 76 28 21 29 22 30 23 31 70 32 24 33
REMARK SMILES IDX 75 34 69 35 71 36 25 37 74 38 68 39 67 40 26 42 56 43 37 44
REMARK SMILES IDX 55 45 38 46 41 47 54 48 72 49 39 50 40 51 53 53 73 54 42 55
REMARK SMILES IDX 27 56 28 57 36 58 29 59 35 60 30 61 31 62 32 63 33 64 34 65
REMARK SMILES IDX 57 66 58 67 66 68 59 69 65 70 60 71 61 72 62 73 63 74 64 75
REMARK SMILES IDX 43 76 44 77 52 78 45 79 51 80 46 81 47 82 48 83 49 84 50 85
REMARK H PARENT 71 41 41 52
REMARK Flexibility Score: inf
ROOT
ATOM      1  C   UNL A   1      34.963  22.715  25.891  1.00  0.00     0.202 C 
ENDROOT
BRANCH   1   2
ATOM      2  O   UNL A   1      34.267  23.781  26.534  1.00  0.00    -0.374 OA
BRANCH   2   3
ATOM      3  C   UNL A   1      32.861  23.644  26.718  1.00  0.00     0.202 C 
BRANCH   3   4
ATOM      4  C   UNL A   1      31.970  24.807  26.272  1.00  0.00     0.261 C 
BRANCH   4   5
ATOM      5  O   UNL A   1      32.697  26.030  26.070  1.00  0.00    -0.463 OA
BRANCH   5   6
ATOM      6  C   UNL A   1      32.031  27.164  26.429  1.00  0.00     0.316 C 
ATOM      7  O   UNL A   1      31.223  27.212  27.352  1.00  0.00    -0.251 OA
BRANCH   6   8
ATOM      8  C   UNL A   1      32.348  28.386  25.518  1.00  0.00     0.096 C 
BRANCH   8   9
ATOM      9  C   UNL A   1      32.624  29.698  26.340  1.00  0.00     0.050 C 
BRANCH   9  10
ATOM     10  C   UNL A   1      34.074  29.935  26.715  1.00  0.00    -0.033 C 
ATOM     11  C   UNL A   1      34.664  29.490  27.833  1.00  0.00     0.004 C 
ENDBRANCH   9  10
ENDBRANCH   8   9
BRANCH   8  12
ATOM     12  C   UNL A   1      33.647  27.973  24.738  1.00  0.00     0.020 C 
ATOM     13  C   UNL A   1      33.786  28.562  23.334  1.00  0.00     0.005 C 
ENDBRANCH   8  12
BRANCH   8  14
ATOM     14  C   UNL A   1      31.128  28.541  24.548  1.00  0.00    -0.030 A 
ATOM     15  C   UNL A   1      30.434  27.409  24.076  1.00  0.00     0.005 A 
ATOM     16  C   UNL A   1      30.597  29.796  24.193  1.00  0.00     0.005 A 
ATOM     17  C   UNL A   1      29.297  27.523  23.271  1.00  0.00     0.000 A 
ATOM     18  C   UNL A   1      29.467  29.913  23.375  1.00  0.00     0.000 A 
ATOM     19  C   UNL A   1      28.817  28.776  22.912  1.00  0.00     0.000 A 
ENDBRANCH   8  14
ENDBRANCH   6   8
ENDBRANCH   5   6
ENDBRANCH   4   5
ENDBRANCH   3   4
ENDBRANCH   2   3
ENDBRANCH   1   2
BRANCH   1  20
ATOM     20  C   UNL A   1      36.138  23.084  24.975  1.00  0.00     0.261 C 
BRANCH  20  21
ATOM     21  O   UNL A   1      37.061  24.007  25.585  1.00  0.00    -0.460 OA
BRANCH  21  22
ATOM     22  C   UNL A   1      38.190  23.434  26.069  1.00  0.00     0.338 C 
ATOM     23  O   UNL A   1      38.591  22.296  25.845  1.00  0.00    -0.246 OA
BRANCH  22  24
ATOM     24  C   UNL A   1      39.016  24.419  26.789  1.00  0.00     0.060 A 
ATOM     25  C   UNL A   1      38.764  24.596  28.156  1.00  0.00     0.016 A 
ATOM     26  C   UNL A   1      39.929  25.241  26.124  1.00  0.00     0.016 A 
ATOM     27  C   UNL A   1      39.381  25.634  28.851  1.00  0.00     0.010 A 
ATOM     28  C   UNL A   1      40.538  26.291  26.824  1.00  0.00     0.010 A 
ATOM     29  C   UNL A   1      40.236  26.517  28.179  1.00  0.00    -0.014 A 
BRANCH  29  30
ATOM     30  C   UNL A   1      40.675  27.759  28.864  1.00  0.00     0.031 A 
ATOM     31  C   UNL A   1      42.085  27.846  29.388  1.00  0.00     0.074 A 
ATOM     32  C   UNL A   1      39.854  28.819  28.965  1.00  0.00     0.049 A 
ATOM     33  N   UNL A   1      42.684  28.840  29.992  1.00  0.00    -0.248 NA
ATOM     34  C   UNL A   1      42.934  26.657  29.199  1.00  0.00     0.031 C 
ATOM     35  C   UNL A   1      38.484  28.879  28.457  1.00  0.00     0.029 A 
ATOM     36  N   UNL A   1      40.060  30.054  29.527  1.00  0.00    -0.354 N 
ATOM     37  C   UNL A   1      43.978  28.401  30.253  1.00  0.00     0.074 A 
ATOM     38  C   UNL A   1      44.066  27.039  29.771  1.00  0.00     0.031 C 
ATOM     39  C   UNL A   1      37.970  30.091  28.733  1.00  0.00     0.029 A 
ATOM     40  C   UNL A   1      38.964  30.881  29.458  1.00  0.00     0.049 A 
ATOM     41  H   UNL A   1      40.912  30.323  29.941  1.00  0.00     0.167 HD
ATOM     42  C   UNL A   1      45.003  29.070  30.832  1.00  0.00     0.031 A 
ATOM     43  C   UNL A   1      38.779  32.128  29.934  1.00  0.00     0.031 A 
ATOM     44  C   UNL A   1      44.912  30.417  31.329  1.00  0.00     0.049 A 
ATOM     45  C   UNL A   1      39.910  32.825  30.645  1.00  0.00     0.074 A 
ATOM     46  C   UNL A   1      45.896  31.179  31.936  1.00  0.00     0.029 A 
ATOM     47  N   UNL A   1      43.771  31.202  31.282  1.00  0.00    -0.354 N 
ATOM     48  N   UNL A   1      41.130  32.399  30.871  1.00  0.00    -0.248 NA
ATOM     49  C   UNL A   1      39.639  34.176  31.157  1.00  0.00     0.031 C 
ATOM     50  C   UNL A   1      45.335  32.409  32.298  1.00  0.00     0.029 A 
ATOM     51  C   UNL A   1      44.018  32.432  31.867  1.00  0.00     0.049 A 
ATOM     52  H   UNL A   1      42.911  30.926  30.888  1.00  0.00     0.167 HD
ATOM     53  C   UNL A   1      41.780  33.439  31.528  1.00  0.00     0.074 A 
ATOM     54  C   UNL A   1      40.821  34.519  31.651  1.00  0.00     0.031 C 
ATOM     55  C   UNL A   1      43.055  33.497  31.985  1.00  0.00     0.031 A 
BRANCH  42  56
ATOM     56  C   UNL A   1      46.309  28.337  30.984  1.00  0.00    -0.014 A 
ATOM     57  C   UNL A   1      46.595  27.595  32.144  1.00  0.00     0.010 A 
ATOM     58  C   UNL A   1      47.252  28.369  29.941  1.00  0.00     0.010 A 
ATOM     59  C   UNL A   1      47.816  26.929  32.274  1.00  0.00     0.020 A 
ATOM     60  C   UNL A   1      48.465  27.684  30.057  1.00  0.00     0.020 A 
ATOM     61  C   UNL A   1      48.746  26.983  31.233  1.00  0.00     0.054 A 
BRANCH  61  62
ATOM     62  S   UNL A   1      50.319  26.098  31.420  1.00  0.00     0.124 S 
ATOM     63  O   UNL A   1      49.901  24.889  32.126  1.00  0.00    -0.237 OA
ATOM     64  O   UNL A   1      50.745  25.903  30.037  1.00  0.00    -0.237 OA
ATOM     65  O   UNL A   1      51.144  27.019  32.199  1.00  0.00    -0.744 OA
ENDBRANCH  61  62
ENDBRANCH  42  56
BRANCH  43  66
ATOM     66  C   UNL A   1      37.460  32.798  29.773  1.00  0.00    -0.014 A 
ATOM     67  C   UNL A   1      36.536  32.836  30.830  1.00  0.00     0.010 A 
ATOM     68  C   UNL A   1      37.119  33.395  28.544  1.00  0.00     0.010 A 
ATOM     69  C   UNL A   1      35.288  33.443  30.659  1.00  0.00     0.020 A 
ATOM     70  C   UNL A   1      35.884  34.025  28.377  1.00  0.00     0.020 A 
ATOM     71  C   UNL A   1      34.970  34.033  29.432  1.00  0.00     0.054 A 
BRANCH  71  72
ATOM     72  S   UNL A   1      33.364  34.857  29.242  1.00  0.00     0.124 S 
ATOM     73  O   UNL A   1      32.690  33.988  28.283  1.00  0.00    -0.237 OA
ATOM     74  O   UNL A   1      32.832  34.833  30.602  1.00  0.00    -0.237 OA
ATOM     75  O   UNL A   1      33.720  36.184  28.744  1.00  0.00    -0.744 OA
ENDBRANCH  71  72
ENDBRANCH  43  66
BRANCH  55  76
ATOM     76  C   UNL A   1      43.501  34.780  32.633  1.00  0.00    -0.014 A 
ATOM     77  C   UNL A   1      43.379  34.977  34.019  1.00  0.00     0.010 A 
ATOM     78  C   UNL A   1      44.095  35.785  31.847  1.00  0.00     0.010 A 
ATOM     79  C   UNL A   1      43.814  36.171  34.605  1.00  0.00     0.020 A 
ATOM     80  C   UNL A   1      44.553  36.969  32.432  1.00  0.00     0.020 A 
ATOM     81  C   UNL A   1      44.395  37.160  33.806  1.00  0.00     0.054 A 
BRANCH  81  82
ATOM     82  S   UNL A   1      44.985  38.685  34.592  1.00  0.00     0.124 S 
ATOM     83  O   UNL A   1      45.466  38.196  35.881  1.00  0.00    -0.237 OA
ATOM     84  O   UNL A   1      46.019  39.145  33.668  1.00  0.00    -0.237 OA
ATOM     85  O   UNL A   1      43.793  39.528  34.651  1.00  0.00    -0.744 OA
ENDBRANCH  81  82
ENDBRANCH  55  76
ENDBRANCH  29  30
ENDBRANCH  22  24
ENDBRANCH  21  22
ENDBRANCH  20  21
ENDBRANCH   1  20
TORSDOF 21
ENDMDL
MODEL 2
REMARK VINA RESULT:      -8.7      2.705      9.402
REMARK SMILES C=CC[C@@](CC)(C(=O)OCCOCCOC(=O)c1ccc(-c2c3nc(c(-c4ccc(S(=O)(=O)[O-])cc4)c4ccc([nH]4)c(-c4ccc(S(=O)(=O)[O-])cc4)c4nc(c(-c5ccc(S(=O)(=O)[O-])cc5)c5ccc2[nH]5)C=C4)C=C3)cc1)c1ccccc1
REMARK SMILES IDX 13 1 12 2 11 3 10 4 9 5 7 6 8 7 4 8 3 9 2 10 1 11 5 12 6 13
REMARK SMILES IDX 78 14 79 15 83 16 80 17 82 18 81 19 14 20 15 21 16 22 17 23
REMARK SMILES IDX 18 24 19 25 77 26 20 27 76 28 21 29 22 30 23 31 70 32 24 33
REMARK SMILES IDX 75 34 69 35 71 36 25 37 74 38 68 39 67 40 26 42 56 43 37 44
REMARK SMILES IDX 55 45 38 46 41 47 54 48 72 49 39 50 40 51 53 53 73 54 42 55
REMARK SMILES IDX 27 56 28 57 36 58 29 59 35 60 30 61 31 62 32 63 33 64 34 65
REMARK SMILES IDX 57 66 58 67 66 68 59 69 65 70 60 71 61 72 62 73 63 74 64 75
REMARK SMILES IDX 43 76 44 77 52 78 45 79 51 80 46 81 47 82 48 83 49 84 50 85
REMARK H PARENT 71 41 41 52
REMARK Flexibility Score: inf
ROOT
ATOM      1  C   UNL A   1      33.648  28.560  25.883  1.00  0.00     0.202 C 
ENDROOT
BRANCH   1   2
ATOM      2  O   UNL A   1      33.582  29.328  24.684  1.00  0.00    -0.374 OA
BRANCH   2   3
ATOM      3  C   UNL A   1      32.823  28.805  23.598  1.00  0.00     0.202 C 
BRANCH   3   4
ATOM      4  C   UNL A   1      33.302  27.496  22.963  1.00  0.00     0.261 C 
BRANCH   4   5
ATOM      5  O   UNL A   1      32.463  26.373  23.284  1.00  0.00    -0.463 OA
BRANCH   5   6
ATOM      6  C   UNL A   1      33.005  25.152  23.016  1.00  0.00     0.316 C 
ATOM      7  O   UNL A   1      33.334  24.788  21.890  1.00  0.00    -0.251 OA
BRANCH   6   8
ATOM      8  C   UNL A   1      33.116  24.232  24.268  1.00  0.00     0.096 C 
BRANCH   8   9
ATOM      9  C   UNL A   1      32.567  24.917  25.572  1.00  0.00     0.050 C 
BRANCH   9  10
ATOM     10  C   UNL A   1      31.450  24.169  26.275  1.00  0.00    -0.033 C 
ATOM     11  C   UNL A   1      30.157  24.520  26.259  1.00  0.00     0.004 C 
ENDBRANCH   9  10
ENDBRANCH   8   9
BRANCH   8  12
ATOM     12  C   UNL A   1      32.232  22.981  23.920  1.00  0.00     0.020 C 
ATOM     13  C   UNL A   1      32.902  21.623  24.135  1.00  0.00     0.005 C 
ENDBRANCH   8  12
BRANCH   8  14
ATOM     14  C   UNL A   1      34.628  23.843  24.396  1.00  0.00    -0.030 A 
ATOM     15  C   UNL A   1      35.294  23.938  25.635  1.00  0.00     0.005 A 
ATOM     16  C   UNL A   1      35.358  23.281  23.331  1.00  0.00     0.005 A 
ATOM     17  C   UNL A   1      36.621  23.525  25.792  1.00  0.00     0.000 A 
ATOM     18  C   UNL A   1      36.691  22.880  23.483  1.00  0.00     0.000 A 
ATOM     19  C   UNL A   1      37.323  23.004  24.714  1.00  0.00     0.000 A 
ENDBRANCH   8  14
ENDBRANCH   6   8
ENDBRANCH   5   6
ENDBRANCH   4   5
ENDBRANCH   3   4
ENDBRANCH   2   3
ENDBRANCH   1   2
BRANCH   1  20
ATOM     20  C   UNL A   1      33.494  29.306  27.215  1.00  0.00     0.261 C 
BRANCH  20  21
ATOM     21  O   UNL A   1      34.022  30.646  27.176  1.00  0.00    -0.460 OA
BRANCH  21  22
ATOM     22  C   UNL A   1      34.739  31.000  28.270  1.00  0.00     0.338 C 
ATOM     23  O   UNL A   1      34.373  31.735  29.182  1.00  0.00    -0.246 OA
BRANCH  22  24
ATOM     24  C   UNL A   1      35.999  30.240  28.346  1.00  0.00     0.060 A 
ATOM     25  C   UNL A   1      36.300  29.610  29.560  1.00  0.00     0.016 A 
ATOM     26  C   UNL A   1      36.927  30.246  27.302  1.00  0.00     0.016 A 
ATOM     27  C   UNL A   1      37.552  29.032  29.756  1.00  0.00     0.010 A 
ATOM     28  C   UNL A   1      38.189  29.674  27.506  1.00  0.00     0.010 A 
ATOM     29  C   UNL A   1      38.522  29.101  28.747  1.00  0.00    -0.014 A 
BRANCH  29  30
ATOM     30  C   UNL A   1      39.921  28.717  29.062  1.00  0.00     0.031 A 
ATOM     31  C   UNL A   1      40.802  29.698  29.790  1.00  0.00     0.074 A 
ATOM     32  C   UNL A   1      40.385  27.490  28.762  1.00  0.00     0.049 A 
ATOM     33  N   UNL A   1      42.042  29.561  30.188  1.00  0.00    -0.248 NA
ATOM     34  C   UNL A   1      40.205  31.003  30.120  1.00  0.00     0.031 C 
ATOM     35  C   UNL A   1      39.618  26.435  28.102  1.00  0.00     0.029 A 
ATOM     36  N   UNL A   1      41.616  26.926  28.982  1.00  0.00    -0.354 N 
ATOM     37  C   UNL A   1      42.372  30.757  30.816  1.00  0.00     0.074 A 
ATOM     38  C   UNL A   1      41.214  31.620  30.718  1.00  0.00     0.031 C 
ATOM     39  C   UNL A   1      40.399  25.348  27.969  1.00  0.00     0.029 A 
ATOM     40  C   UNL A   1      41.726  25.640  28.510  1.00  0.00     0.049 A 
ATOM     41  H   UNL A   1      42.352  27.398  29.435  1.00  0.00     0.167 HD
ATOM     42  C   UNL A   1      43.530  31.105  31.427  1.00  0.00     0.031 A 
ATOM     43  C   UNL A   1      42.778  24.798  28.503  1.00  0.00     0.031 A 
ATOM     44  C   UNL A   1      44.688  30.257  31.510  1.00  0.00     0.049 A 
ATOM     45  C   UNL A   1      44.080  25.236  29.121  1.00  0.00     0.074 A 
ATOM     46  C   UNL A   1      45.910  30.523  32.106  1.00  0.00     0.029 A 
ATOM     47  N   UNL A   1      44.773  28.980  30.978  1.00  0.00    -0.354 N 
ATOM     48  N   UNL A   1      44.371  26.366  29.722  1.00  0.00    -0.248 NA
ATOM     49  C   UNL A   1      45.195  24.279  29.066  1.00  0.00     0.031 C 
ATOM     50  C   UNL A   1      46.749  29.423  31.893  1.00  0.00     0.029 A 
ATOM     51  C   UNL A   1      46.032  28.452  31.211  1.00  0.00     0.049 A 
ATOM     52  H   UNL A   1      44.045  28.516  30.504  1.00  0.00     0.167 HD
ATOM     53  C   UNL A   1      45.692  26.244  30.139  1.00  0.00     0.074 A 
ATOM     54  C   UNL A   1      46.140  24.928  29.733  1.00  0.00     0.031 C 
ATOM     55  C   UNL A   1      46.465  27.142  30.801  1.00  0.00     0.031 A 
BRANCH  42  56
ATOM     56  C   UNL A   1      43.605  32.481  32.033  1.00  0.00    -0.014 A 
ATOM     57  C   UNL A   1      44.106  33.572  31.299  1.00  0.00     0.010 A 
ATOM     58  C   UNL A   1      43.143  32.693  33.345  1.00  0.00     0.010 A 
ATOM     59  C   UNL A   1      44.179  34.840  31.878  1.00  0.00     0.020 A 
ATOM     60  C   UNL A   1      43.192  33.966  33.920  1.00  0.00     0.020 A 
ATOM     61  C   UNL A   1      43.727  35.029  33.187  1.00  0.00     0.054 A 
BRANCH  61  62
ATOM     62  S   UNL A   1      43.821  36.689  33.913  1.00  0.00     0.124 S 
ATOM     63  O   UNL A   1      43.463  37.534  32.776  1.00  0.00    -0.237 OA
ATOM     64  O   UNL A   1      42.831  36.628  34.985  1.00  0.00    -0.237 OA
ATOM     65  O   UNL A   1      45.209  36.797  34.357  1.00  0.00    -0.744 OA
ENDBRANCH  61  62
ENDBRANCH  42  56
BRANCH  43  66
ATOM     66  C   UNL A   1      42.652  23.456  27.873  1.00  0.00    -0.014 A 
ATOM     67  C   UNL A   1      43.101  23.230  26.561  1.00  0.00     0.010 A 
ATOM     68  C   UNL A   1      42.068  22.394  28.589  1.00  0.00     0.010 A 
ATOM     69  C   UNL A   1      42.953  21.972  25.969  1.00  0.00     0.020 A 
ATOM     70  C   UNL A   1      41.941  21.129  28.010  1.00  0.00     0.020 A 
ATOM     71  C   UNL A   1      42.373  20.930  26.698  1.00  0.00     0.054 A 
BRANCH  71  72
ATOM     72  S   UNL A   1      42.230  19.291  25.929  1.00  0.00     0.124 S 
ATOM     73  O   UNL A   1      40.788  19.167  25.748  1.00  0.00    -0.237 OA
ATOM     74  O   UNL A   1      43.012  19.446  24.705  1.00  0.00    -0.237 OA
ATOM     75  O   UNL A   1      42.817  18.397  26.925  1.00  0.00    -0.744 OA
ENDBRANCH  71  72
ENDBRANCH  43  66
BRANCH  55  76
ATOM     76  C   UNL A   1      47.865  26.720  31.157  1.00  0.00    -0.014 A 
ATOM     77  C   UNL A   1      48.128  25.969  32.316  1.00  0.00     0.010 A 
ATOM     78  C   UNL A   1      48.928  27.040  30.292  1.00  0.00     0.010 A 
ATOM     79  C   UNL A   1      49.433  25.574  32.622  1.00  0.00     0.020 A 
ATOM     80  C   UNL A   1      50.231  26.625  30.581  1.00  0.00     0.020 A 
ATOM     81  C   UNL A   1      50.477  25.908  31.753  1.00  0.00     0.054 A 
BRANCH  81  82
ATOM     82  S   UNL A   1      52.159  25.353  32.151  1.00  0.00     0.124 S 
ATOM     83  O   UNL A   1      51.989  23.905  32.232  1.00  0.00    -0.237 OA
ATOM     84  O   UNL A   1      52.935  25.833  31.011  1.00  0.00    -0.237 OA
ATOM     85  O   UNL A   1      52.451  26.017  33.420  1.00  0.00    -0.744 OA
ENDBRANCH  81  82
ENDBRANCH  55  76
ENDBRANCH  29  30
ENDBRANCH  22  24
ENDBRANCH  21  22
ENDBRANCH  20  21
ENDBRANCH   1  20
TORSDOF 21
ENDMDL
MODEL 3
REMARK VINA RESULT:      -8.6      4.182     10.003
REMARK SMILES C=CC[C@@](CC)(C(=O)OCCOCCOC(=O)c1ccc(-c2c3nc(c(-c4ccc(S(=O)(=O)[O-])cc4)c4ccc([nH]4)c(-c4ccc(S(=O)(=O)[O-])cc4)c4nc(c(-c5ccc(S(=O)(=O)[O-])cc5)c5ccc2[nH]5)C=C4)C=C3)cc1)c1ccccc1
REMARK SMILES IDX 13 1 12 2 11 3 10 4 9 5 7 6 8 7 4 8 3 9 2 10 1 11 5 12 6 13
REMARK SMILES IDX 78 14 79 15 83 16 80 17 82 18 81 19 14 20 15 21 16 22 17 23
REMARK SMILES IDX 18 24 19 25 77 26 20 27 76 28 21 29 22 30 23 31 70 32 24 33
REMARK SMILES IDX 75 34 69 35 71 36 25 37 74 38 68 39 67 40 26 42 56 43 37 44
REMARK SMILES IDX 55 45 38 46 41 47 54 48 72 49 39 50 40 51 53 53 73 54 42 55
REMARK SMILES IDX 27 56 28 57 36 58 29 59 35 60 30 61 31 62 32 63 33 64 34 65
REMARK SMILES IDX 57 66 58 67 66 68 59 69 65 70 60 71 61 72 62 73 63 74 64 75
REMARK SMILES IDX 43 76 44 77 52 78 45 79 51 80 46 81 47 82 48 83 49 84 50 85
REMARK H PARENT 71 41 41 52
REMARK Flexibility Score: inf
ROOT
ATOM      1  C   UNL A   1      39.427  22.388  26.540  1.00  0.00     0.202 C 
ENDROOT
BRANCH   1   2
ATOM      2  O   UNL A   1      38.300  23.145  26.105  1.00  0.00    -0.374 OA
BRANCH   2   3
ATOM      3  C   UNL A   1      37.369  22.514  25.231  1.00  0.00     0.202 C 
BRANCH   3   4
ATOM      4  C   UNL A   1      35.968  23.124  25.125  1.00  0.00     0.261 C 
BRANCH   4   5
ATOM      5  O   UNL A   1      35.147  22.484  24.134  1.00  0.00    -0.463 OA
BRANCH   5   6
ATOM      6  C   UNL A   1      34.204  23.283  23.561  1.00  0.00     0.316 C 
ATOM      7  O   UNL A   1      34.468  24.171  22.754  1.00  0.00    -0.251 OA
BRANCH   6   8
ATOM      8  C   UNL A   1      32.759  23.005  24.069  1.00  0.00     0.096 C 
BRANCH   8   9
ATOM      9  C   UNL A   1      32.484  23.634  25.484  1.00  0.00     0.050 C 
BRANCH   9  10
ATOM     10  C   UNL A   1      33.123  24.988  25.726  1.00  0.00    -0.033 C 
ATOM     11  C   UNL A   1      32.457  26.143  25.859  1.00  0.00     0.004 C 
ENDBRANCH   9  10
ENDBRANCH   8   9
BRANCH   8  12
ATOM     12  C   UNL A   1      31.827  23.683  23.003  1.00  0.00     0.020 C 
ATOM     13  C   UNL A   1      30.436  24.079  23.502  1.00  0.00     0.005 C 
ENDBRANCH   8  12
BRANCH   8  14
ATOM     14  C   UNL A   1      32.585  21.449  24.070  1.00  0.00    -0.030 A 
ATOM     15  C   UNL A   1      32.240  20.762  22.888  1.00  0.00     0.005 A 
ATOM     16  C   UNL A   1      32.867  20.655  25.199  1.00  0.00     0.005 A 
ATOM     17  C   UNL A   1      32.152  19.366  22.846  1.00  0.00     0.000 A 
ATOM     18  C   UNL A   1      32.765  19.259  25.162  1.00  0.00     0.000 A 
ATOM     19  C   UNL A   1      32.406  18.614  23.985  1.00  0.00     0.000 A 
ENDBRANCH   8  14
ENDBRANCH   6   8
ENDBRANCH   5   6
ENDBRANCH   4   5
ENDBRANCH   3   4
ENDBRANCH   2   3
ENDBRANCH   1   2
BRANCH   1  20
ATOM     20  C   UNL A   1      39.580  20.963  25.991  1.00  0.00     0.261 C 
BRANCH  20  21
ATOM     21  O   UNL A   1      40.371  20.111  26.842  1.00  0.00    -0.460 OA
BRANCH  21  22
ATOM     22  C   UNL A   1      41.601  19.817  26.356  1.00  0.00     0.338 C 
ATOM     23  O   UNL A   1      41.929  18.799  25.754  1.00  0.00    -0.246 OA
BRANCH  22  24
ATOM     24  C   UNL A   1      42.509  20.971  26.477  1.00  0.00     0.060 A 
ATOM     25  C   UNL A   1      42.700  21.510  27.756  1.00  0.00     0.016 A 
ATOM     26  C   UNL A   1      43.061  21.594  25.355  1.00  0.00     0.016 A 
ATOM     27  C   UNL A   1      43.397  22.707  27.912  1.00  0.00     0.010 A 
ATOM     28  C   UNL A   1      43.752  22.802  25.515  1.00  0.00     0.010 A 
ATOM     29  C   UNL A   1      43.887  23.385  26.788  1.00  0.00    -0.014 A 
BRANCH  29  30
ATOM     30  C   UNL A   1      44.392  24.772  26.946  1.00  0.00     0.031 A 
ATOM     31  C   UNL A   1      43.432  25.857  27.357  1.00  0.00     0.074 A 
ATOM     32  C   UNL A   1      45.698  25.054  26.787  1.00  0.00     0.049 A 
ATOM     33  N   UNL A   1      43.662  27.127  27.577  1.00  0.00    -0.248 NA
ATOM     34  C   UNL A   1      42.028  25.458  27.552  1.00  0.00     0.031 C 
ATOM     35  C   UNL A   1      46.736  24.085  26.438  1.00  0.00     0.029 A 
ATOM     36  N   UNL A   1      46.373  26.242  26.908  1.00  0.00    -0.354 N 
ATOM     37  C   UNL A   1      42.437  27.677  27.939  1.00  0.00     0.074 A 
ATOM     38  C   UNL A   1      41.461  26.610  27.877  1.00  0.00     0.031 C 
ATOM     39  C   UNL A   1      47.919  24.720  26.370  1.00  0.00     0.029 A 
ATOM     40  C   UNL A   1      47.719  26.142  26.645  1.00  0.00     0.049 A 
ATOM     41  H   UNL A   1      45.935  27.088  27.158  1.00  0.00     0.167 HD
ATOM     42  C   UNL A   1      42.150  28.950  28.300  1.00  0.00     0.031 A 
ATOM     43  C   UNL A   1      48.677  27.089  26.618  1.00  0.00     0.031 A 
ATOM     44  C   UNL A   1      43.114  30.016  28.345  1.00  0.00     0.049 A 
ATOM     45  C   UNL A   1      48.318  28.515  26.948  1.00  0.00     0.074 A 
ATOM     46  C   UNL A   1      42.918  31.341  28.694  1.00  0.00     0.029 A 
ATOM     47  N   UNL A   1      44.456  29.882  28.026  1.00  0.00    -0.354 N 
ATOM     48  N   UNL A   1      47.157  29.014  27.300  1.00  0.00    -0.248 NA
ATOM     49  C   UNL A   1      49.405  29.503  26.884  1.00  0.00     0.031 C 
ATOM     50  C   UNL A   1      44.133  32.019  28.542  1.00  0.00     0.029 A 
ATOM     51  C   UNL A   1      45.097  31.104  28.149  1.00  0.00     0.049 A 
ATOM     52  H   UNL A   1      44.891  29.041  27.754  1.00  0.00     0.167 HD
ATOM     53  C   UNL A   1      47.379  30.369  27.525  1.00  0.00     0.074 A 
ATOM     54  C   UNL A   1      48.787  30.608  27.281  1.00  0.00     0.031 C 
ATOM     55  C   UNL A   1      46.498  31.328  27.902  1.00  0.00     0.031 A 
BRANCH  42  56
ATOM     56  C   UNL A   1      40.719  29.264  28.649  1.00  0.00    -0.014 A 
ATOM     57  C   UNL A   1      39.741  29.401  27.647  1.00  0.00     0.010 A 
ATOM     58  C   UNL A   1      40.343  29.395  29.998  1.00  0.00     0.010 A 
ATOM     59  C   UNL A   1      38.420  29.702  27.987  1.00  0.00     0.020 A 
ATOM     60  C   UNL A   1      39.017  29.673  30.343  1.00  0.00     0.020 A 
ATOM     61  C   UNL A   1      38.067  29.843  29.332  1.00  0.00     0.054 A 
BRANCH  61  62
ATOM     62  S   UNL A   1      36.341  30.221  29.748  1.00  0.00     0.124 S 
ATOM     63  O   UNL A   1      36.371  31.679  29.850  1.00  0.00    -0.237 OA
ATOM     64  O   UNL A   1      35.610  29.686  28.602  1.00  0.00    -0.237 OA
ATOM     65  O   UNL A   1      36.125  29.513  31.007  1.00  0.00    -0.744 OA
ENDBRANCH  61  62
ENDBRANCH  42  56
BRANCH  43  66
ATOM     66  C   UNL A   1      50.071  26.725  26.248  1.00  0.00    -0.014 A 
ATOM     67  C   UNL A   1      50.482  26.717  24.904  1.00  0.00     0.010 A 
ATOM     68  C   UNL A   1      50.997  26.373  27.248  1.00  0.00     0.010 A 
ATOM     69  C   UNL A   1      51.786  26.347  24.565  1.00  0.00     0.020 A 
ATOM     70  C   UNL A   1      52.308  26.027  26.916  1.00  0.00     0.020 A 
ATOM     71  C   UNL A   1      52.691  26.004  25.574  1.00  0.00     0.054 A 
BRANCH  71  72
ATOM     72  S   UNL A   1      54.394  25.570  25.118  1.00  0.00     0.124 S 
ATOM     73  O   UNL A   1      55.151  26.084  26.254  1.00  0.00    -0.237 OA
ATOM     74  O   UNL A   1      54.332  24.115  25.005  1.00  0.00    -0.237 OA
ATOM     75  O   UNL A   1      54.598  26.276  23.856  1.00  0.00    -0.744 OA
ENDBRANCH  71  72
ENDBRANCH  43  66
BRANCH  55  76
ATOM     76  C   UNL A   1      47.034  32.719  28.106  1.00  0.00    -0.014 A 
ATOM     77  C   UNL A   1      47.039  33.659  27.061  1.00  0.00     0.010 A 
ATOM     78  C   UNL A   1      47.495  33.106  29.378  1.00  0.00     0.010 A 
ATOM     79  C   UNL A   1      47.527  34.952  27.275  1.00  0.00     0.020 A 
ATOM     80  C   UNL A   1      47.961  34.404  29.602  1.00  0.00     0.020 A 
ATOM     81  C   UNL A   1      47.988  35.314  28.544  1.00  0.00     0.054 A 
BRANCH  81  82
ATOM     82  S   UNL A   1      48.583  37.009  28.809  1.00  0.00     0.124 S 
ATOM     83  O   UNL A   1      48.469  37.147  30.258  1.00  0.00    -0.237 OA
ATOM     84  O   UNL A   1      49.946  36.957  28.287  1.00  0.00    -0.237 OA
ATOM     85  O   UNL A   1      47.656  37.826  28.030  1.00  0.00    -0.744 OA
ENDBRANCH  81  82
ENDBRANCH  55  76
ENDBRANCH  29  30
ENDBRANCH  22  24
ENDBRANCH  21  22
ENDBRANCH  20  21
ENDBRANCH   1  20
TORSDOF 21
ENDMDL
