MODEL 1
REMARK VINA RESULT:     -10.9      0.000      0.000
REMARK SMILES Cc1cc2c(c(C)c1Cl)C=C(C(=O)OCCOCCOC(=O)c1ccc(-c3c4nc(c(-c5ccc(S(=O)(=O)[O-])cc5)c5ccc([nH]5)c(-c5ccc(S(=O)(=O)[O-])cc5)c5nc(c(-c6ccc(S(=O)(=O)[O-])cc6)c6ccc3[nH]6)C=C5)C=C4)cc1)[C@@H](C(F)(F)F)O2
REMARK SMILES IDX 18 1 17 2 16 3 15 4 14 5 12 6 13 7 11 8 1 9 2 10 3 11 8 12
REMARK SMILES IDX 4 13 6 14 9 15 5 16 88 17 7 18 10 19 83 20 84 21 85 22 86 23
REMARK SMILES IDX 87 24 19 25 20 26 21 27 22 28 23 29 24 30 82 31 25 32 81 33
REMARK SMILES IDX 26 34 27 35 28 36 75 37 29 38 80 39 74 40 76 41 30 42 79 43
REMARK SMILES IDX 73 44 72 45 31 47 61 48 42 49 60 50 43 51 46 52 59 53 77 54
REMARK SMILES IDX 44 55 45 56 58 58 78 59 47 60 32 61 33 62 41 63 34 64 40 65
REMARK SMILES IDX 35 66 36 67 37 68 38 69 39 70 62 71 63 72 71 73 64 74 70 75
REMARK SMILES IDX 65 76 66 77 67 78 68 79 69 80 48 81 49 82 57 83 50 84 56 85
REMARK SMILES IDX 51 86 52 87 53 88 54 89 55 90
REMARK H PARENT 76 46 46 57
REMARK Flexibility Score: inf
ROOT
ATOM      1  C   UNL A   1      31.678  29.613  26.254  1.00  0.00     0.202 C 
ENDROOT
BRANCH   1   2
ATOM      2  O   UNL A   1      31.275  29.887  24.912  1.00  0.00    -0.374 OA
BRANCH   2   3
ATOM      3  C   UNL A   1      31.313  28.814  23.972  1.00  0.00     0.202 C 
BRANCH   3   4
ATOM      4  C   UNL A   1      32.630  28.602  23.220  1.00  0.00     0.261 C 
BRANCH   4   5
ATOM      5  O   UNL A   1      33.393  27.522  23.783  1.00  0.00    -0.460 OA
BRANCH   5   6
ATOM      6  C   UNL A   1      33.538  26.454  22.967  1.00  0.00     0.338 C 
ATOM      7  O   UNL A   1      33.956  26.457  21.818  1.00  0.00    -0.246 OA
BRANCH   6   8
ATOM      8  C   UNL A   1      33.249  25.213  23.709  1.00  0.00     0.087 C 
ATOM      9  C   UNL A   1      32.944  19.041  25.559  1.00  0.00     0.046 C 
ATOM     10  C   UNL A   1      33.400  20.440  25.244  1.00  0.00    -0.028 A 
ATOM     11  C   UNL A   1      32.441  21.463  25.271  1.00  0.00     0.052 A 
ATOM     12  C   UNL A   1      34.713  20.749  24.837  1.00  0.00     0.047 A 
ATOM     13  C   UNL A   1      32.758  22.754  24.855  1.00  0.00     0.128 A 
ATOM     14  C   UNL A   1      35.066  22.064  24.458  1.00  0.00    -0.021 A 
ATOM     15  Cl  UNL A   1      35.892  19.473  24.764  1.00  0.00    -0.084 Cl
ATOM     16  C   UNL A   1      34.052  23.054  24.416  1.00  0.00     0.022 A 
ATOM     17  O   UNL A   1      31.735  23.658  24.914  1.00  0.00    -0.475 OA
ATOM     18  C   UNL A   1      36.481  22.433  24.075  1.00  0.00     0.047 C 
ATOM     19  C   UNL A   1      34.283  24.372  23.837  1.00  0.00     0.027 C 
ATOM     20  C   UNL A   1      31.873  24.936  24.234  1.00  0.00     0.316 C 
BRANCH  20  21
ATOM     21  C   UNL A   1      30.791  25.025  23.147  1.00  0.00     0.430 C 
ATOM     22  F   UNL A   1      30.086  23.871  23.065  1.00  0.00    -0.167 F 
ATOM     23  F   UNL A   1      29.903  26.011  23.404  1.00  0.00    -0.167 F 
ATOM     24  F   UNL A   1      31.324  25.263  21.927  1.00  0.00    -0.167 F 
ENDBRANCH  20  21
ENDBRANCH   6   8
ENDBRANCH   5   6
ENDBRANCH   4   5
ENDBRANCH   3   4
ENDBRANCH   2   3
ENDBRANCH   1   2
BRANCH   1  25
ATOM     25  C   UNL A   1      32.545  30.660  26.964  1.00  0.00     0.261 C 
BRANCH  25  26
ATOM     26  O   UNL A   1      33.928  30.270  27.035  1.00  0.00    -0.460 OA
BRANCH  26  27
ATOM     27  C   UNL A   1      34.646  30.905  27.992  1.00  0.00     0.338 C 
ATOM     28  O   UNL A   1      34.264  31.810  28.722  1.00  0.00    -0.246 OA
BRANCH  27  29
ATOM     29  C   UNL A   1      35.940  30.229  28.185  1.00  0.00     0.060 A 
ATOM     30  C   UNL A   1      36.182  29.633  29.430  1.00  0.00     0.016 A 
ATOM     31  C   UNL A   1      36.930  30.250  27.201  1.00  0.00     0.016 A 
ATOM     32  C   UNL A   1      37.433  29.091  29.711  1.00  0.00     0.010 A 
ATOM     33  C   UNL A   1      38.190  29.717  27.491  1.00  0.00     0.010 A 
ATOM     34  C   UNL A   1      38.457  29.167  28.758  1.00  0.00    -0.014 A 
BRANCH  34  35
ATOM     35  C   UNL A   1      39.840  28.801  29.144  1.00  0.00     0.031 A 
ATOM     36  C   UNL A   1      40.654  29.776  29.951  1.00  0.00     0.074 A 
ATOM     37  C   UNL A   1      40.348  27.598  28.823  1.00  0.00     0.049 A 
ATOM     38  N   UNL A   1      41.880  29.664  30.390  1.00  0.00    -0.248 NA
ATOM     39  C   UNL A   1      39.994  31.041  30.317  1.00  0.00     0.031 C 
ATOM     40  C   UNL A   1      39.635  26.546  28.097  1.00  0.00     0.029 A 
ATOM     41  N   UNL A   1      41.584  27.057  29.073  1.00  0.00    -0.354 N 
ATOM     42  C   UNL A   1      42.140  30.839  31.086  1.00  0.00     0.074 A 
ATOM     43  C   UNL A   1      40.957  31.665  30.984  1.00  0.00     0.031 C 
ATOM     44  C   UNL A   1      40.446  25.482  27.966  1.00  0.00     0.029 A 
ATOM     45  C   UNL A   1      41.742  25.789  28.567  1.00  0.00     0.049 A 
ATOM     46  H   UNL A   1      42.289  27.531  29.569  1.00  0.00     0.167 HD
ATOM     47  C   UNL A   1      43.260  31.194  31.759  1.00  0.00     0.031 A 
ATOM     48  C   UNL A   1      42.816  24.975  28.575  1.00  0.00     0.031 A 
ATOM     49  C   UNL A   1      44.444  30.381  31.842  1.00  0.00     0.049 A 
ATOM     50  C   UNL A   1      44.086  25.433  29.243  1.00  0.00     0.074 A 
ATOM     51  C   UNL A   1      45.633  30.658  32.492  1.00  0.00     0.029 A 
ATOM     52  N   UNL A   1      44.589  29.133  31.255  1.00  0.00    -0.354 N 
ATOM     53  N   UNL A   1      44.318  26.549  29.893  1.00  0.00    -0.248 NA
ATOM     54  C   UNL A   1      45.238  24.522  29.179  1.00  0.00     0.031 C 
ATOM     55  C   UNL A   1      46.517  29.601  32.254  1.00  0.00     0.029 A 
ATOM     56  C   UNL A   1      45.857  28.639  31.507  1.00  0.00     0.049 A 
ATOM     57  H   UNL A   1      43.894  28.667  30.738  1.00  0.00     0.167 HD
ATOM     58  C   UNL A   1      45.633  26.464  30.335  1.00  0.00     0.074 A 
ATOM     59  C   UNL A   1      46.143  25.183  29.890  1.00  0.00     0.031 C 
ATOM     60  C   UNL A   1      46.353  27.364  31.050  1.00  0.00     0.031 A 
BRANCH  47  61
ATOM     61  C   UNL A   1      43.268  32.537  32.439  1.00  0.00    -0.014 A 
ATOM     62  C   UNL A   1      42.814  32.681  33.763  1.00  0.00     0.010 A 
ATOM     63  C   UNL A   1      43.779  33.660  31.763  1.00  0.00     0.010 A 
ATOM     64  C   UNL A   1      42.845  33.929  34.388  1.00  0.00     0.020 A 
ATOM     65  C   UNL A   1      43.834  34.906  32.395  1.00  0.00     0.020 A 
ATOM     66  C   UNL A   1      43.355  35.034  33.700  1.00  0.00     0.054 A 
BRANCH  66  67
ATOM     67  S   UNL A   1      43.410  36.636  34.550  1.00  0.00     0.124 S 
ATOM     68  O   UNL A   1      42.374  36.473  35.568  1.00  0.00    -0.237 OA
ATOM     69  O   UNL A   1      44.781  36.686  35.051  1.00  0.00    -0.237 OA
ATOM     70  O   UNL A   1      43.099  37.599  33.497  1.00  0.00    -0.744 OA
ENDBRANCH  66  67
ENDBRANCH  47  61
BRANCH  48  71
ATOM     71  C   UNL A   1      42.737  23.639  27.922  1.00  0.00    -0.014 A 
ATOM     72  C   UNL A   1      42.161  22.548  28.596  1.00  0.00     0.010 A 
ATOM     73  C   UNL A   1      43.223  23.457  26.614  1.00  0.00     0.010 A 
ATOM     74  C   UNL A   1      42.075  21.299  27.975  1.00  0.00     0.020 A 
ATOM     75  C   UNL A   1      43.115  22.216  25.980  1.00  0.00     0.020 A 
ATOM     76  C   UNL A   1      42.546  21.142  26.668  1.00  0.00     0.054 A 
BRANCH  76  77
ATOM     77  S   UNL A   1      42.363  19.527  25.862  1.00  0.00     0.124 S 
ATOM     78  O   UNL A   1      40.951  19.531  25.491  1.00  0.00    -0.237 OA
ATOM     79  O   UNL A   1      43.310  19.621  24.754  1.00  0.00    -0.237 OA
ATOM     80  O   UNL A   1      42.733  18.578  26.909  1.00  0.00    -0.744 OA
ENDBRANCH  76  77
ENDBRANCH  48  71
BRANCH  60  81
ATOM     81  C   UNL A   1      47.766  26.996  31.419  1.00  0.00    -0.014 A 
ATOM     82  C   UNL A   1      48.035  26.162  32.518  1.00  0.00     0.010 A 
ATOM     83  C   UNL A   1      48.831  27.425  30.605  1.00  0.00     0.010 A 
ATOM     84  C   UNL A   1      49.349  25.780  32.808  1.00  0.00     0.020 A 
ATOM     85  C   UNL A   1      50.141  27.024  30.876  1.00  0.00     0.020 A 
ATOM     86  C   UNL A   1      50.392  26.210  31.983  1.00  0.00     0.054 A 
BRANCH  86  87
ATOM     87  S   UNL A   1      52.079  25.650  32.349  1.00  0.00     0.124 S 
ATOM     88  O   UNL A   1      51.852  24.283  32.812  1.00  0.00    -0.237 OA
ATOM     89  O   UNL A   1      52.744  25.773  31.055  1.00  0.00    -0.237 OA
ATOM     90  O   UNL A   1      52.541  26.585  33.374  1.00  0.00    -0.744 OA
ENDBRANCH  86  87
ENDBRANCH  60  81
ENDBRANCH  34  35
ENDBRANCH  27  29
ENDBRANCH  26  27
ENDBRANCH  25  26
ENDBRANCH   1  25
TORSDOF 18
ENDMDL
MODEL 2
REMARK VINA RESULT:     -10.8      3.194      4.059
REMARK SMILES Cc1cc2c(c(C)c1Cl)C=C(C(=O)OCCOCCOC(=O)c1ccc(-c3c4nc(c(-c5ccc(S(=O)(=O)[O-])cc5)c5ccc([nH]5)c(-c5ccc(S(=O)(=O)[O-])cc5)c5nc(c(-c6ccc(S(=O)(=O)[O-])cc6)c6ccc3[nH]6)C=C5)C=C4)cc1)[C@@H](C(F)(F)F)O2
REMARK SMILES IDX 18 1 17 2 16 3 15 4 14 5 12 6 13 7 11 8 1 9 2 10 3 11 8 12
REMARK SMILES IDX 4 13 6 14 9 15 5 16 88 17 7 18 10 19 83 20 84 21 85 22 86 23
REMARK SMILES IDX 87 24 19 25 20 26 21 27 22 28 23 29 24 30 82 31 25 32 81 33
REMARK SMILES IDX 26 34 27 35 28 36 75 37 29 38 80 39 74 40 76 41 30 42 79 43
REMARK SMILES IDX 73 44 72 45 31 47 61 48 42 49 60 50 43 51 46 52 59 53 77 54
REMARK SMILES IDX 44 55 45 56 58 58 78 59 47 60 32 61 33 62 41 63 34 64 40 65
REMARK SMILES IDX 35 66 36 67 37 68 38 69 39 70 62 71 63 72 71 73 64 74 70 75
REMARK SMILES IDX 65 76 66 77 67 78 68 79 69 80 48 81 49 82 57 83 50 84 56 85
REMARK SMILES IDX 51 86 52 87 53 88 54 89 55 90
REMARK H PARENT 76 46 46 57
REMARK Flexibility Score: inf
ROOT
ATOM      1  C   UNL A   1      34.472  32.342  28.142  1.00  0.00     0.202 C 
ENDROOT
BRANCH   1   2
ATOM      2  O   UNL A   1      33.669  31.191  27.879  1.00  0.00    -0.374 OA
BRANCH   2   3
ATOM      3  C   UNL A   1      34.268  30.110  27.166  1.00  0.00     0.202 C 
BRANCH   3   4
ATOM      4  C   UNL A   1      33.344  29.272  26.278  1.00  0.00     0.261 C 
BRANCH   4   5
ATOM      5  O   UNL A   1      33.258  27.913  26.737  1.00  0.00    -0.460 OA
BRANCH   5   6
ATOM      6  C   UNL A   1      32.003  27.494  27.015  1.00  0.00     0.338 C 
ATOM      7  O   UNL A   1      31.194  28.033  27.756  1.00  0.00    -0.246 OA
BRANCH   6   8
ATOM      8  C   UNL A   1      31.665  26.332  26.173  1.00  0.00     0.087 C 
ATOM      9  C   UNL A   1      32.029  21.145  22.354  1.00  0.00     0.046 C 
ATOM     10  C   UNL A   1      32.078  22.094  23.522  1.00  0.00    -0.028 A 
ATOM     11  C   UNL A   1      31.206  23.192  23.511  1.00  0.00     0.052 A 
ATOM     12  C   UNL A   1      33.014  21.978  24.568  1.00  0.00     0.047 A 
ATOM     13  C   UNL A   1      31.292  24.184  24.484  1.00  0.00     0.128 A 
ATOM     14  C   UNL A   1      33.083  22.951  25.592  1.00  0.00    -0.021 A 
ATOM     15  Cl  UNL A   1      34.123  20.639  24.561  1.00  0.00    -0.084 Cl
ATOM     16  C   UNL A   1      32.245  24.091  25.503  1.00  0.00     0.022 A 
ATOM     17  O   UNL A   1      30.398  25.210  24.357  1.00  0.00    -0.475 OA
ATOM     18  C   UNL A   1      34.038  22.820  26.756  1.00  0.00     0.047 C 
ATOM     19  C   UNL A   1      32.400  25.235  26.394  1.00  0.00     0.027 C 
ATOM     20  C   UNL A   1      30.593  26.426  25.130  1.00  0.00     0.316 C 
BRANCH  20  21
ATOM     21  C   UNL A   1      30.811  27.591  24.153  1.00  0.00     0.430 C 
ATOM     22  F   UNL A   1      30.036  27.454  23.051  1.00  0.00    -0.167 F 
ATOM     23  F   UNL A   1      30.494  28.780  24.712  1.00  0.00    -0.167 F 
ATOM     24  F   UNL A   1      32.097  27.664  23.739  1.00  0.00    -0.167 F 
ENDBRANCH  20  21
ENDBRANCH   6   8
ENDBRANCH   5   6
ENDBRANCH   4   5
ENDBRANCH   3   4
ENDBRANCH   2   3
ENDBRANCH   1   2
BRANCH   1  25
ATOM     25  C   UNL A   1      34.901  32.591  29.594  1.00  0.00     0.261 C 
BRANCH  25  26
ATOM     26  O   UNL A   1      35.649  31.491  30.141  1.00  0.00    -0.460 OA
BRANCH  26  27
ATOM     27  C   UNL A   1      36.773  31.847  30.808  1.00  0.00     0.338 C 
ATOM     28  O   UNL A   1      36.849  32.586  31.781  1.00  0.00    -0.246 OA
BRANCH  27  29
ATOM     29  C   UNL A   1      37.920  31.064  30.321  1.00  0.00     0.060 A 
ATOM     30  C   UNL A   1      38.831  30.585  31.272  1.00  0.00     0.016 A 
ATOM     31  C   UNL A   1      38.149  30.874  28.957  1.00  0.00     0.016 A 
ATOM     32  C   UNL A   1      39.998  29.949  30.859  1.00  0.00     0.010 A 
ATOM     33  C   UNL A   1      39.330  30.247  28.545  1.00  0.00     0.010 A 
ATOM     34  C   UNL A   1      40.274  29.813  29.493  1.00  0.00    -0.014 A 
BRANCH  34  35
ATOM     35  C   UNL A   1      41.614  29.348  29.063  1.00  0.00     0.031 A 
ATOM     36  C   UNL A   1      42.767  30.314  29.099  1.00  0.00     0.074 A 
ATOM     37  C   UNL A   1      41.812  28.070  28.692  1.00  0.00     0.049 A 
ATOM     38  N   UNL A   1      44.016  30.123  28.763  1.00  0.00    -0.248 NA
ATOM     39  C   UNL A   1      42.473  31.674  29.583  1.00  0.00     0.031 C 
ATOM     40  C   UNL A   1      40.787  27.027  28.675  1.00  0.00     0.029 A 
ATOM     41  N   UNL A   1      42.949  27.433  28.263  1.00  0.00    -0.354 N 
ATOM     42  C   UNL A   1      44.659  31.333  28.998  1.00  0.00     0.074 A 
ATOM     43  C   UNL A   1      43.657  32.262  29.473  1.00  0.00     0.031 C 
ATOM     44  C   UNL A   1      41.345  25.876  28.262  1.00  0.00     0.029 A 
ATOM     45  C   UNL A   1      42.754  26.108  27.954  1.00  0.00     0.049 A 
ATOM     46  H   UNL A   1      43.821  27.882  28.185  1.00  0.00     0.167 HD
ATOM     47  C   UNL A   1      45.969  31.639  28.842  1.00  0.00     0.031 A 
ATOM     48  C   UNL A   1      43.612  25.192  27.464  1.00  0.00     0.031 A 
ATOM     49  C   UNL A   1      46.960  30.720  28.350  1.00  0.00     0.049 A 
ATOM     50  C   UNL A   1      45.043  25.584  27.203  1.00  0.00     0.074 A 
ATOM     51  C   UNL A   1      48.311  30.940  28.147  1.00  0.00     0.029 A 
ATOM     52  N   UNL A   1      46.707  29.408  27.980  1.00  0.00    -0.354 N 
ATOM     53  N   UNL A   1      45.635  26.734  27.426  1.00  0.00    -0.248 NA
ATOM     54  C   UNL A   1      45.920  24.556  26.625  1.00  0.00     0.031 C 
ATOM     55  C   UNL A   1      48.865  29.776  27.605  1.00  0.00     0.029 A 
ATOM     56  C   UNL A   1      47.872  28.813  27.527  1.00  0.00     0.049 A 
ATOM     57  H   UNL A   1      45.831  28.964  28.034  1.00  0.00     0.167 HD
ATOM     58  C   UNL A   1      46.959  26.560  27.038  1.00  0.00     0.074 A 
ATOM     59  C   UNL A   1      47.084  25.192  26.578  1.00  0.00     0.031 C 
ATOM     60  C   UNL A   1      47.980  27.452  27.065  1.00  0.00     0.031 A 
BRANCH  47  61
ATOM     61  C   UNL A   1      46.402  33.040  29.184  1.00  0.00    -0.014 A 
ATOM     62  C   UNL A   1      46.839  33.366  30.481  1.00  0.00     0.010 A 
ATOM     63  C   UNL A   1      46.416  34.031  28.186  1.00  0.00     0.010 A 
ATOM     64  C   UNL A   1      47.256  34.665  30.779  1.00  0.00     0.020 A 
ATOM     65  C   UNL A   1      46.857  35.326  28.475  1.00  0.00     0.020 A 
ATOM     66  C   UNL A   1      47.263  35.637  29.774  1.00  0.00     0.054 A 
BRANCH  66  67
ATOM     67  S   UNL A   1      47.838  37.307  30.186  1.00  0.00     0.124 S 
ATOM     68  O   UNL A   1      48.213  37.829  28.873  1.00  0.00    -0.237 OA
ATOM     69  O   UNL A   1      46.654  37.914  30.788  1.00  0.00    -0.237 OA
ATOM     70  O   UNL A   1      48.951  37.076  31.103  1.00  0.00    -0.744 OA
ENDBRANCH  66  67
ENDBRANCH  47  61
BRANCH  48  71
ATOM     71  C   UNL A   1      43.138  23.809  27.184  1.00  0.00    -0.014 A 
ATOM     72  C   UNL A   1      42.911  23.384  25.864  1.00  0.00     0.010 A 
ATOM     73  C   UNL A   1      42.926  22.904  28.241  1.00  0.00     0.010 A 
ATOM     74  C   UNL A   1      42.479  22.081  25.604  1.00  0.00     0.020 A 
ATOM     75  C   UNL A   1      42.519  21.592  27.984  1.00  0.00     0.020 A 
ATOM     76  C   UNL A   1      42.292  21.190  26.665  1.00  0.00     0.054 A 
BRANCH  76  77
ATOM     77  S   UNL A   1      41.794  19.485  26.296  1.00  0.00     0.124 S 
ATOM     78  O   UNL A   1      42.277  18.765  27.471  1.00  0.00    -0.237 OA
ATOM     79  O   UNL A   1      40.344  19.602  26.176  1.00  0.00    -0.237 OA
ATOM     80  O   UNL A   1      42.494  19.187  25.048  1.00  0.00    -0.744 OA
ENDBRANCH  76  77
ENDBRANCH  48  71
BRANCH  60  81
ATOM     81  C   UNL A   1      49.334  26.980  26.604  1.00  0.00    -0.014 A 
ATOM     82  C   UNL A   1      50.267  26.452  27.513  1.00  0.00     0.010 A 
ATOM     83  C   UNL A   1      49.643  26.991  25.231  1.00  0.00     0.010 A 
ATOM     84  C   UNL A   1      51.494  25.960  27.058  1.00  0.00     0.020 A 
ATOM     85  C   UNL A   1      50.858  26.477  24.770  1.00  0.00     0.020 A 
ATOM     86  C   UNL A   1      51.780  25.973  25.690  1.00  0.00     0.054 A 
BRANCH  86  87
ATOM     87  S   UNL A   1      53.356  25.275  25.123  1.00  0.00     0.124 S 
ATOM     88  O   UNL A   1      54.305  25.862  26.066  1.00  0.00    -0.237 OA
ATOM     89  O   UNL A   1      53.138  23.838  25.264  1.00  0.00    -0.237 OA
ATOM     90  O   UNL A   1      53.472  25.751  23.746  1.00  0.00    -0.744 OA
ENDBRANCH  86  87
ENDBRANCH  60  81
ENDBRANCH  34  35
ENDBRANCH  27  29
ENDBRANCH  26  27
ENDBRANCH  25  26
ENDBRANCH   1  25
TORSDOF 18
ENDMDL
MODEL 3
REMARK VINA RESULT:     -10.8      3.874     10.098
REMARK SMILES Cc1cc2c(c(C)c1Cl)C=C(C(=O)OCCOCCOC(=O)c1ccc(-c3c4nc(c(-c5ccc(S(=O)(=O)[O-])cc5)c5ccc([nH]5)c(-c5ccc(S(=O)(=O)[O-])cc5)c5nc(c(-c6ccc(S(=O)(=O)[O-])cc6)c6ccc3[nH]6)C=C5)C=C4)cc1)[C@@H](C(F)(F)F)O2
REMARK SMILES IDX 18 1 17 2 16 3 15 4 14 5 12 6 13 7 11 8 1 9 2 10 3 11 8 12
REMARK SMILES IDX 4 13 6 14 9 15 5 16 88 17 7 18 10 19 83 20 84 21 85 22 86 23
REMARK SMILES IDX 87 24 19 25 20 26 21 27 22 28 23 29 24 30 82 31 25 32 81 33
REMARK SMILES IDX 26 34 27 35 28 36 75 37 29 38 80 39 74 40 76 41 30 42 79 43
REMARK SMILES IDX 73 44 72 45 31 47 61 48 42 49 60 50 43 51 46 52 59 53 77 54
REMARK SMILES IDX 44 55 45 56 58 58 78 59 47 60 32 61 33 62 41 63 34 64 40 65
REMARK SMILES IDX 35 66 36 67 37 68 38 69 39 70 62 71 63 72 71 73 64 74 70 75
REMARK SMILES IDX 65 76 66 77 67 78 68 79 69 80 48 81 49 82 57 83 50 84 56 85
REMARK SMILES IDX 51 86 52 87 53 88 54 89 55 90
REMARK H PARENT 76 46 46 57
REMARK Flexibility Score: inf
ROOT
ATOM      1  C   UNL A   1      40.730  21.396  26.215  1.00  0.00     0.202 C 
ENDROOT
BRANCH   1   2
ATOM      2  O   UNL A   1      39.654  22.010  26.926  1.00  0.00    -0.374 OA
BRANCH   2   3
ATOM      3  C   UNL A   1      38.748  22.828  26.187  1.00  0.00     0.202 C 
BRANCH   3   4
ATOM      4  C   UNL A   1      37.534  22.129  25.570  1.00  0.00     0.261 C 
BRANCH   4   5
ATOM      5  O   UNL A   1      36.685  23.058  24.875  1.00  0.00    -0.460 OA
BRANCH   5   6
ATOM      6  C   UNL A   1      35.525  23.338  25.508  1.00  0.00     0.338 C 
ATOM      7  O   UNL A   1      35.220  23.039  26.654  1.00  0.00    -0.246 OA
BRANCH   6   8
ATOM      8  C   UNL A   1      34.687  24.205  24.659  1.00  0.00     0.087 C 
ATOM      9  C   UNL A   1      30.212  28.355  22.569  1.00  0.00     0.046 C 
ATOM     10  C   UNL A   1      31.418  27.723  23.210  1.00  0.00    -0.028 A 
ATOM     11  C   UNL A   1      31.905  26.530  22.657  1.00  0.00     0.052 A 
ATOM     12  C   UNL A   1      32.017  28.223  24.384  1.00  0.00     0.047 A 
ATOM     13  C   UNL A   1      32.927  25.816  23.278  1.00  0.00     0.128 A 
ATOM     14  C   UNL A   1      33.089  27.538  25.001  1.00  0.00    -0.021 A 
ATOM     15  Cl  UNL A   1      31.388  29.681  25.093  1.00  0.00    -0.084 Cl
ATOM     16  C   UNL A   1      33.497  26.291  24.463  1.00  0.00     0.022 A 
ATOM     17  O   UNL A   1      33.303  24.663  22.650  1.00  0.00    -0.475 OA
ATOM     18  C   UNL A   1      33.786  28.083  26.226  1.00  0.00     0.047 C 
ATOM     19  C   UNL A   1      34.443  25.425  25.156  1.00  0.00     0.027 C 
ATOM     20  C   UNL A   1      34.137  23.705  23.358  1.00  0.00     0.316 C 
BRANCH  20  21
ATOM     21  C   UNL A   1      33.351  22.394  23.507  1.00  0.00     0.430 C 
ATOM     22  F   UNL A   1      32.449  22.479  24.513  1.00  0.00    -0.167 F 
ATOM     23  F   UNL A   1      32.661  22.094  22.384  1.00  0.00    -0.167 F 
ATOM     24  F   UNL A   1      34.165  21.348  23.777  1.00  0.00    -0.167 F 
ENDBRANCH  20  21
ENDBRANCH   6   8
ENDBRANCH   5   6
ENDBRANCH   4   5
ENDBRANCH   3   4
ENDBRANCH   2   3
ENDBRANCH   1   2
BRANCH   1  25
ATOM     25  C   UNL A   1      42.065  22.149  26.159  1.00  0.00     0.261 C 
BRANCH  25  26
ATOM     26  O   UNL A   1      42.104  23.264  27.066  1.00  0.00    -0.460 OA
BRANCH  26  27
ATOM     27  C   UNL A   1      42.305  24.467  26.476  1.00  0.00     0.338 C 
ATOM     28  O   UNL A   1      42.668  24.672  25.325  1.00  0.00    -0.246 OA
BRANCH  27  29
ATOM     29  C   UNL A   1      41.839  25.548  27.360  1.00  0.00     0.060 A 
ATOM     30  C   UNL A   1      42.592  26.730  27.395  1.00  0.00     0.016 A 
ATOM     31  C   UNL A   1      40.738  25.380  28.203  1.00  0.00     0.016 A 
ATOM     32  C   UNL A   1      42.271  27.733  28.304  1.00  0.00     0.010 A 
ATOM     33  C   UNL A   1      40.427  26.385  29.125  1.00  0.00     0.010 A 
ATOM     34  C   UNL A   1      41.212  27.550  29.202  1.00  0.00    -0.014 A 
BRANCH  34  35
ATOM     35  C   UNL A   1      41.023  28.513  30.313  1.00  0.00     0.031 A 
ATOM     36  C   UNL A   1      41.967  28.470  31.483  1.00  0.00     0.074 A 
ATOM     37  C   UNL A   1      40.054  29.444  30.257  1.00  0.00     0.049 A 
ATOM     38  N   UNL A   1      41.981  29.211  32.560  1.00  0.00    -0.248 NA
ATOM     39  C   UNL A   1      43.039  27.462  31.430  1.00  0.00     0.031 C 
ATOM     40  C   UNL A   1      39.118  29.624  29.148  1.00  0.00     0.029 A 
ATOM     41  N   UNL A   1      39.703  30.420  31.156  1.00  0.00    -0.354 N 
ATOM     42  C   UNL A   1      43.064  28.765  33.311  1.00  0.00     0.074 A 
ATOM     43  C   UNL A   1      43.661  27.667  32.583  1.00  0.00     0.031 C 
ATOM     44  C   UNL A   1      38.301  30.654  29.430  1.00  0.00     0.029 A 
ATOM     45  C   UNL A   1      38.634  31.182  30.752  1.00  0.00     0.049 A 
ATOM     46  H   UNL A   1      40.173  30.560  32.010  1.00  0.00     0.167 HD
ATOM     47  C   UNL A   1      43.524  29.235  34.495  1.00  0.00     0.031 A 
ATOM     48  C   UNL A   1      37.989  32.184  31.382  1.00  0.00     0.031 A 
ATOM     49  C   UNL A   1      42.916  30.313  35.227  1.00  0.00     0.049 A 
ATOM     50  C   UNL A   1      38.457  32.622  32.745  1.00  0.00     0.074 A 
ATOM     51  C   UNL A   1      43.302  30.854  36.440  1.00  0.00     0.029 A 
ATOM     52  N   UNL A   1      41.791  31.013  34.816  1.00  0.00    -0.354 N 
ATOM     53  N   UNL A   1      39.480  32.187  33.444  1.00  0.00    -0.248 NA
ATOM     54  C   UNL A   1      37.686  33.686  33.403  1.00  0.00     0.031 C 
ATOM     55  C   UNL A   1      42.381  31.846  36.788  1.00  0.00     0.029 A 
ATOM     56  C   UNL A   1      41.456  31.964  35.764  1.00  0.00     0.049 A 
ATOM     57  H   UNL A   1      41.305  30.857  33.975  1.00  0.00     0.167 HD
ATOM     58  C   UNL A   1      39.488  32.940  34.613  1.00  0.00     0.074 A 
ATOM     59  C   UNL A   1      38.377  33.866  34.522  1.00  0.00     0.031 C 
ATOM     60  C   UNL A   1      40.342  32.874  35.664  1.00  0.00     0.031 A 
BRANCH  47  61
ATOM     61  C   UNL A   1      44.735  28.564  35.086  1.00  0.00    -0.014 A 
ATOM     62  C   UNL A   1      46.027  29.071  34.859  1.00  0.00     0.010 A 
ATOM     63  C   UNL A   1      44.574  27.440  35.917  1.00  0.00     0.010 A 
ATOM     64  C   UNL A   1      47.139  28.450  35.431  1.00  0.00     0.020 A 
ATOM     65  C   UNL A   1      45.684  26.831  36.511  1.00  0.00     0.020 A 
ATOM     66  C   UNL A   1      46.961  27.333  36.254  1.00  0.00     0.054 A 
BRANCH  66  67
ATOM     67  S   UNL A   1      48.423  26.566  37.005  1.00  0.00     0.124 S 
ATOM     68  O   UNL A   1      49.190  26.163  35.828  1.00  0.00    -0.237 OA
ATOM     69  O   UNL A   1      48.996  27.663  37.782  1.00  0.00    -0.237 OA
ATOM     70  O   UNL A   1      47.873  25.468  37.794  1.00  0.00    -0.744 OA
ENDBRANCH  66  67
ENDBRANCH  47  61
BRANCH  48  71
ATOM     71  C   UNL A   1      36.823  32.839  30.729  1.00  0.00    -0.014 A 
ATOM     72  C   UNL A   1      35.513  32.561  31.158  1.00  0.00     0.010 A 
ATOM     73  C   UNL A   1      37.020  33.761  29.684  1.00  0.00     0.010 A 
ATOM     74  C   UNL A   1      34.422  33.189  30.552  1.00  0.00     0.020 A 
ATOM     75  C   UNL A   1      35.933  34.410  29.093  1.00  0.00     0.020 A 
ATOM     76  C   UNL A   1      34.639  34.116  29.527  1.00  0.00     0.054 A 
BRANCH  76  77
ATOM     77  S   UNL A   1      33.209  34.966  28.802  1.00  0.00     0.124 S 
ATOM     78  O   UNL A   1      32.697  33.963  27.874  1.00  0.00    -0.237 OA
ATOM     79  O   UNL A   1      32.377  35.231  29.973  1.00  0.00    -0.237 OA
ATOM     80  O   UNL A   1      33.795  36.152  28.182  1.00  0.00    -0.744 OA
ENDBRANCH  76  77
ENDBRANCH  48  71
BRANCH  60  81
ATOM     81  C   UNL A   1      40.129  33.840  36.800  1.00  0.00    -0.014 A 
ATOM     82  C   UNL A   1      40.838  35.051  36.864  1.00  0.00     0.010 A 
ATOM     83  C   UNL A   1      39.148  33.566  37.770  1.00  0.00     0.010 A 
ATOM     84  C   UNL A   1      40.583  35.964  37.892  1.00  0.00     0.020 A 
ATOM     85  C   UNL A   1      38.872  34.487  38.784  1.00  0.00     0.020 A 
ATOM     86  C   UNL A   1      39.599  35.678  38.843  1.00  0.00     0.054 A 
BRANCH  86  87
ATOM     87  S   UNL A   1      39.248  36.907  40.131  1.00  0.00     0.124 S 
ATOM     88  O   UNL A   1      40.587  37.219  40.625  1.00  0.00    -0.237 OA
ATOM     89  O   UNL A   1      38.590  37.974  39.382  1.00  0.00    -0.237 OA
ATOM     90  O   UNL A   1      38.389  36.190  41.071  1.00  0.00    -0.744 OA
ENDBRANCH  86  87
ENDBRANCH  60  81
ENDBRANCH  34  35
ENDBRANCH  27  29
ENDBRANCH  26  27
ENDBRANCH  25  26
ENDBRANCH   1  25
TORSDOF 18
ENDMDL
