MODEL 1
REMARK VINA RESULT:     -10.2      0.000      0.000
REMARK SMILES CS(=O)(=O)[C@@H]1CCC[C@@H](Sc2ccc(C(=O)OCCOCCOC(=O)c3ccc(-c4c5nc(c(-c6ccc(S(=O)(=O)[O-])cc6)c6ccc([nH]6)c(-c6ccc(S(=O)(=O)[O-])cc6)c6nc(c(-c7ccc(S(=O)(=O)[O-])cc7)c7ccc4[nH]7)C=C6)C=C5)cc3)cn2)C1
REMARK SMILES IDX 20 1 19 2 18 3 17 4 15 5 16 6 14 7 11 8 12 9 87 10 13 11
REMARK SMILES IDX 86 12 10 13 9 14 5 15 6 16 88 17 7 18 8 19 2 20 1 21 3 22
REMARK SMILES IDX 4 23 21 24 22 25 23 26 24 27 25 28 26 29 27 30 85 31 28 32
REMARK SMILES IDX 84 33 29 34 30 35 31 36 78 37 32 38 83 39 77 40 79 41 33 42
REMARK SMILES IDX 82 43 76 44 75 45 34 47 64 48 45 49 63 50 46 51 49 52 62 53
REMARK SMILES IDX 80 54 47 55 48 56 61 58 81 59 50 60 35 61 36 62 44 63 37 64
REMARK SMILES IDX 43 65 38 66 39 67 40 68 41 69 42 70 65 71 66 72 74 73 67 74
REMARK SMILES IDX 73 75 68 76 69 77 70 78 71 79 72 80 51 81 52 82 60 83 53 84
REMARK SMILES IDX 59 85 54 86 55 87 56 88 57 89 58 90
REMARK H PARENT 79 46 49 57
REMARK Flexibility Score: inf
ROOT
ATOM      1  O   UNL A   1      42.233  21.772  25.516  1.00  0.00    -0.374 OA
ENDROOT
BRANCH   1   2
ATOM      2  C   UNL A   1      41.079  21.284  26.201  1.00  0.00     0.202 C 
BRANCH   2   3
ATOM      3  C   UNL A   1      40.159  22.365  26.775  1.00  0.00     0.261 C 
BRANCH   3   4
ATOM      4  O   UNL A   1      38.925  22.413  26.048  1.00  0.00    -0.460 OA
BRANCH   4   5
ATOM      5  C   UNL A   1      38.124  23.486  26.260  1.00  0.00     0.339 C 
ATOM      6  O   UNL A   1      38.312  24.415  27.026  1.00  0.00    -0.246 OA
BRANCH   5   7
ATOM      7  C   UNL A   1      37.009  23.424  25.296  1.00  0.00     0.078 A 
ATOM      8  C   UNL A   1      34.930  23.459  23.437  1.00  0.00     0.096 A 
ATOM      9  C   UNL A   1      35.990  22.590  23.306  1.00  0.00     0.036 A 
ATOM     10  N   UNL A   1      34.904  24.322  24.481  1.00  0.00    -0.249 NA
ATOM     11  C   UNL A   1      37.031  22.555  24.220  1.00  0.00     0.020 A 
ATOM     12  C   UNL A   1      35.931  24.288  25.384  1.00  0.00     0.128 A 
BRANCH   8  13
ATOM     13  S   UNL A   1      33.575  23.598  22.294  1.00  0.00    -0.103 SA
BRANCH  13  14
ATOM     14  C   UNL A   1      32.019  22.763  22.920  1.00  0.00     0.054 C 
ATOM     15  C   UNL A   1      32.677  20.728  24.273  1.00  0.00     0.109 C 
ATOM     16  C   UNL A   1      31.896  21.251  25.493  1.00  0.00     0.020 C 
ATOM     17  C   UNL A   1      32.066  21.231  22.977  1.00  0.00     0.034 C 
ATOM     18  C   UNL A   1      31.518  22.741  25.484  1.00  0.00     0.002 C 
ATOM     19  C   UNL A   1      31.279  23.376  24.114  1.00  0.00     0.015 C 
BRANCH  15  20
ATOM     20  S   UNL A   1      32.873  18.941  24.309  1.00  0.00     0.150 S 
ATOM     21  C   UNL A   1      34.622  18.755  24.606  1.00  0.00     0.158 C 
ATOM     22  O   UNL A   1      32.620  18.435  22.973  1.00  0.00    -0.229 OA
ATOM     23  O   UNL A   1      32.154  18.411  25.449  1.00  0.00    -0.229 OA
ENDBRANCH  15  20
ENDBRANCH  13  14
ENDBRANCH   8  13
ENDBRANCH   5   7
ENDBRANCH   4   5
ENDBRANCH   3   4
ENDBRANCH   2   3
ENDBRANCH   1   2
BRANCH   1  24
ATOM     24  C   UNL A   1      42.984  22.788  26.187  1.00  0.00     0.202 C 
BRANCH  24  25
ATOM     25  C   UNL A   1      43.137  24.113  25.431  1.00  0.00     0.261 C 
BRANCH  25  26
ATOM     26  O   UNL A   1      41.996  24.968  25.628  1.00  0.00    -0.460 OA
BRANCH  26  27
ATOM     27  C   UNL A   1      42.271  26.295  25.602  1.00  0.00     0.338 C 
ATOM     28  O   UNL A   1      42.468  26.991  24.622  1.00  0.00    -0.246 OA
BRANCH  27  29
ATOM     29  C   UNL A   1      42.113  26.843  26.962  1.00  0.00     0.060 A 
ATOM     30  C   UNL A   1      41.193  26.223  27.818  1.00  0.00     0.016 A 
ATOM     31  C   UNL A   1      42.819  27.975  27.373  1.00  0.00     0.016 A 
ATOM     32  C   UNL A   1      40.945  26.758  29.081  1.00  0.00     0.010 A 
ATOM     33  C   UNL A   1      42.565  28.511  28.636  1.00  0.00     0.010 A 
ATOM     34  C   UNL A   1      41.605  27.925  29.482  1.00  0.00    -0.014 A 
BRANCH  34  35
ATOM     35  C   UNL A   1      41.212  28.632  30.724  1.00  0.00     0.031 A 
ATOM     36  C   UNL A   1      40.051  29.585  30.675  1.00  0.00     0.074 A 
ATOM     37  C   UNL A   1      41.913  28.473  31.858  1.00  0.00     0.049 A 
ATOM     38  N   UNL A   1      39.636  30.431  31.580  1.00  0.00    -0.248 NA
ATOM     39  C   UNL A   1      39.268  29.595  29.430  1.00  0.00     0.031 C 
ATOM     40  C   UNL A   1      43.031  27.548  32.038  1.00  0.00     0.029 A 
ATOM     41  N   UNL A   1      41.807  29.117  33.065  1.00  0.00    -0.354 N 
ATOM     42  C   UNL A   1      38.565  31.103  31.002  1.00  0.00     0.074 A 
ATOM     43  C   UNL A   1      38.408  30.576  29.664  1.00  0.00     0.031 C 
ATOM     44  C   UNL A   1      43.531  27.708  33.275  1.00  0.00     0.029 A 
ATOM     45  C   UNL A   1      42.800  28.777  33.953  1.00  0.00     0.049 A 
ATOM     46  H   UNL A   1      41.091  29.757  33.275  1.00  0.00     0.167 HD
ATOM     47  C   UNL A   1      37.789  32.076  31.538  1.00  0.00     0.031 A 
ATOM     48  C   UNL A   1      43.113  29.300  35.155  1.00  0.00     0.031 A 
ATOM     49  C   UNL A   1      37.969  32.602  32.865  1.00  0.00     0.049 A 
ATOM     50  C   UNL A   1      42.278  30.419  35.715  1.00  0.00     0.074 A 
ATOM     51  C   UNL A   1      37.216  33.563  33.517  1.00  0.00     0.029 A 
ATOM     52  N   UNL A   1      38.982  32.227  33.736  1.00  0.00    -0.354 N 
ATOM     53  N   UNL A   1      41.248  31.027  35.173  1.00  0.00    -0.248 NA
ATOM     54  C   UNL A   1      42.639  30.917  37.049  1.00  0.00     0.031 C 
ATOM     55  C   UNL A   1      37.818  33.820  34.753  1.00  0.00     0.029 A 
ATOM     56  C   UNL A   1      38.895  32.962  34.906  1.00  0.00     0.049 A 
ATOM     57  H   UNL A   1      39.662  31.541  33.549  1.00  0.00     0.167 HD
ATOM     58  C   UNL A   1      40.818  31.958  36.114  1.00  0.00     0.074 A 
ATOM     59  C   UNL A   1      41.698  31.830  37.259  1.00  0.00     0.031 C 
ATOM     60  C   UNL A   1      39.779  32.827  36.039  1.00  0.00     0.031 A 
BRANCH  47  61
ATOM     61  C   UNL A   1      36.723  32.676  30.656  1.00  0.00    -0.014 A 
ATOM     62  C   UNL A   1      36.998  33.743  29.782  1.00  0.00     0.010 A 
ATOM     63  C   UNL A   1      35.416  32.156  30.707  1.00  0.00     0.010 A 
ATOM     64  C   UNL A   1      35.973  34.321  29.026  1.00  0.00     0.020 A 
ATOM     65  C   UNL A   1      34.396  32.707  29.927  1.00  0.00     0.020 A 
ATOM     66  C   UNL A   1      34.677  33.804  29.112  1.00  0.00     0.054 A 
BRANCH  66  67
ATOM     67  S   UNL A   1      33.362  34.587  28.137  1.00  0.00     0.124 S 
ATOM     68  O   UNL A   1      34.122  35.220  27.062  1.00  0.00    -0.237 OA
ATOM     69  O   UNL A   1      32.539  33.449  27.739  1.00  0.00    -0.237 OA
ATOM     70  O   UNL A   1      32.732  35.508  29.081  1.00  0.00    -0.744 OA
ENDBRANCH  66  67
ENDBRANCH  47  61
BRANCH  48  71
ATOM     71  C   UNL A   1      44.296  28.772  35.887  1.00  0.00    -0.014 A 
ATOM     72  C   UNL A   1      45.558  29.368  35.738  1.00  0.00     0.010 A 
ATOM     73  C   UNL A   1      44.143  27.706  36.796  1.00  0.00     0.010 A 
ATOM     74  C   UNL A   1      46.645  28.919  36.496  1.00  0.00     0.020 A 
ATOM     75  C   UNL A   1      45.220  27.273  37.574  1.00  0.00     0.020 A 
ATOM     76  C   UNL A   1      46.465  27.885  37.420  1.00  0.00     0.054 A 
BRANCH  76  77
ATOM     77  S   UNL A   1      47.862  27.400  38.472  1.00  0.00     0.124 S 
ATOM     78  O   UNL A   1      47.946  25.964  38.225  1.00  0.00    -0.237 OA
ATOM     79  O   UNL A   1      48.954  28.203  37.929  1.00  0.00    -0.237 OA
ATOM     80  O   UNL A   1      47.426  27.784  39.813  1.00  0.00    -0.744 OA
ENDBRANCH  76  77
ENDBRANCH  48  71
BRANCH  60  81
ATOM     81  C   UNL A   1      39.491  33.686  37.244  1.00  0.00    -0.014 A 
ATOM     82  C   UNL A   1      38.822  33.177  38.372  1.00  0.00     0.010 A 
ATOM     83  C   UNL A   1      39.983  35.004  37.279  1.00  0.00     0.010 A 
ATOM     84  C   UNL A   1      38.638  33.977  39.504  1.00  0.00     0.020 A 
ATOM     85  C   UNL A   1      39.828  35.797  38.419  1.00  0.00     0.020 A 
ATOM     86  C   UNL A   1      39.148  35.280  39.522  1.00  0.00     0.054 A 
BRANCH  86  87
ATOM     87  S   UNL A   1      38.957  36.272  41.029  1.00  0.00     0.124 S 
ATOM     88  O   UNL A   1      38.611  37.583  40.488  1.00  0.00    -0.237 OA
ATOM     89  O   UNL A   1      37.883  35.578  41.734  1.00  0.00    -0.237 OA
ATOM     90  O   UNL A   1      40.269  36.189  41.668  1.00  0.00    -0.744 OA
ENDBRANCH  86  87
ENDBRANCH  60  81
ENDBRANCH  34  35
ENDBRANCH  27  29
ENDBRANCH  26  27
ENDBRANCH  25  26
ENDBRANCH  24  25
ENDBRANCH   1  24
TORSDOF 20
ENDMDL
MODEL 2
REMARK VINA RESULT:     -10.1      2.403      8.721
REMARK SMILES CS(=O)(=O)[C@@H]1CCC[C@@H](Sc2ccc(C(=O)OCCOCCOC(=O)c3ccc(-c4c5nc(c(-c6ccc(S(=O)(=O)[O-])cc6)c6ccc([nH]6)c(-c6ccc(S(=O)(=O)[O-])cc6)c6nc(c(-c7ccc(S(=O)(=O)[O-])cc7)c7ccc4[nH]7)C=C6)C=C5)cc3)cn2)C1
REMARK SMILES IDX 20 1 19 2 18 3 17 4 15 5 16 6 14 7 11 8 12 9 87 10 13 11
REMARK SMILES IDX 86 12 10 13 9 14 5 15 6 16 88 17 7 18 8 19 2 20 1 21 3 22
REMARK SMILES IDX 4 23 21 24 22 25 23 26 24 27 25 28 26 29 27 30 85 31 28 32
REMARK SMILES IDX 84 33 29 34 30 35 31 36 78 37 32 38 83 39 77 40 79 41 33 42
REMARK SMILES IDX 82 43 76 44 75 45 34 47 64 48 45 49 63 50 46 51 49 52 62 53
REMARK SMILES IDX 80 54 47 55 48 56 61 58 81 59 50 60 35 61 36 62 44 63 37 64
REMARK SMILES IDX 43 65 38 66 39 67 40 68 41 69 42 70 65 71 66 72 74 73 67 74
REMARK SMILES IDX 73 75 68 76 69 77 70 78 71 79 72 80 51 81 52 82 60 83 53 84
REMARK SMILES IDX 59 85 54 86 55 87 56 88 57 89 58 90
REMARK H PARENT 79 46 49 57
REMARK Flexibility Score: inf
ROOT
ATOM      1  O   UNL A   1      37.863  22.330  25.977  1.00  0.00    -0.374 OA
ENDROOT
BRANCH   1   2
ATOM      2  C   UNL A   1      37.449  21.598  24.823  1.00  0.00     0.202 C 
BRANCH   2   3
ATOM      3  C   UNL A   1      36.425  20.493  25.088  1.00  0.00     0.261 C 
BRANCH   3   4
ATOM      4  O   UNL A   1      35.163  21.056  25.468  1.00  0.00    -0.460 OA
BRANCH   4   5
ATOM      5  C   UNL A   1      34.069  20.644  24.779  1.00  0.00     0.339 C 
ATOM      6  O   UNL A   1      33.777  19.505  24.462  1.00  0.00    -0.246 OA
BRANCH   5   7
ATOM      7  C   UNL A   1      33.190  21.811  24.575  1.00  0.00     0.078 A 
ATOM      8  C   UNL A   1      31.406  23.915  24.164  1.00  0.00     0.096 A 
ATOM      9  C   UNL A   1      32.094  23.784  25.349  1.00  0.00     0.036 A 
ATOM     10  N   UNL A   1      31.590  22.997  23.185  1.00  0.00    -0.249 NA
ATOM     11  C   UNL A   1      32.987  22.746  25.572  1.00  0.00     0.020 A 
ATOM     12  C   UNL A   1      32.471  21.974  23.402  1.00  0.00     0.128 A 
BRANCH   8  13
ATOM     13  S   UNL A   1      30.216  25.187  23.809  1.00  0.00    -0.103 SA
BRANCH  13  14
ATOM     14  C   UNL A   1      31.016  26.857  23.519  1.00  0.00     0.054 C 
ATOM     15  C   UNL A   1      32.330  27.498  25.585  1.00  0.00     0.109 C 
ATOM     16  C   UNL A   1      33.615  27.662  24.752  1.00  0.00     0.020 C 
ATOM     17  C   UNL A   1      31.095  27.775  24.746  1.00  0.00     0.034 C 
ATOM     18  C   UNL A   1      33.617  27.022  23.354  1.00  0.00     0.002 C 
ATOM     19  C   UNL A   1      32.269  26.936  22.640  1.00  0.00     0.015 C 
BRANCH  15  20
ATOM     20  S   UNL A   1      32.377  28.463  27.102  1.00  0.00     0.150 S 
ATOM     21  C   UNL A   1      31.897  30.085  26.537  1.00  0.00     0.158 C 
ATOM     22  O   UNL A   1      33.760  28.561  27.528  1.00  0.00    -0.229 OA
ATOM     23  O   UNL A   1      31.358  27.970  28.005  1.00  0.00    -0.229 OA
ENDBRANCH  15  20
ENDBRANCH  13  14
ENDBRANCH   8  13
ENDBRANCH   5   7
ENDBRANCH   4   5
ENDBRANCH   3   4
ENDBRANCH   2   3
ENDBRANCH   1   2
BRANCH   1  24
ATOM     24  C   UNL A   1      39.274  22.422  26.195  1.00  0.00     0.202 C 
BRANCH  24  25
ATOM     25  C   UNL A   1      39.715  23.368  27.317  1.00  0.00     0.261 C 
BRANCH  25  26
ATOM     26  O   UNL A   1      39.059  24.645  27.219  1.00  0.00    -0.460 OA
BRANCH  26  27
ATOM     27  C   UNL A   1      39.877  25.683  26.917  1.00  0.00     0.338 C 
ATOM     28  O   UNL A   1      40.476  25.873  25.874  1.00  0.00    -0.246 OA
BRANCH  27  29
ATOM     29  C   UNL A   1      39.800  26.684  27.997  1.00  0.00     0.060 A 
ATOM     30  C   UNL A   1      40.427  27.921  27.792  1.00  0.00     0.016 A 
ATOM     31  C   UNL A   1      39.167  26.397  29.208  1.00  0.00     0.016 A 
ATOM     32  C   UNL A   1      40.457  28.866  28.816  1.00  0.00     0.010 A 
ATOM     33  C   UNL A   1      39.203  27.343  30.233  1.00  0.00     0.010 A 
ATOM     34  C   UNL A   1      39.875  28.567  30.053  1.00  0.00    -0.014 A 
BRANCH  34  35
ATOM     35  C   UNL A   1      40.072  29.458  31.221  1.00  0.00     0.031 A 
ATOM     36  C   UNL A   1      41.218  29.185  32.153  1.00  0.00     0.074 A 
ATOM     37  C   UNL A   1      39.209  30.455  31.479  1.00  0.00     0.049 A 
ATOM     38  N   UNL A   1      41.486  29.718  33.315  1.00  0.00    -0.248 NA
ATOM     39  C   UNL A   1      42.180  28.158  31.720  1.00  0.00     0.031 C 
ATOM     40  C   UNL A   1      38.084  30.841  30.628  1.00  0.00     0.029 A 
ATOM     41  N   UNL A   1      39.127  31.302  32.555  1.00  0.00    -0.354 N 
ATOM     42  C   UNL A   1      42.626  29.068  33.773  1.00  0.00     0.074 A 
ATOM     43  C   UNL A   1      42.986  28.089  32.769  1.00  0.00     0.031 C 
ATOM     44  C   UNL A   1      37.403  31.830  31.233  1.00  0.00     0.029 A 
ATOM     45  C   UNL A   1      38.016  32.109  32.530  1.00  0.00     0.049 A 
ATOM     46  H   UNL A   1      39.799  31.329  33.273  1.00  0.00     0.167 HD
ATOM     47  C   UNL A   1      43.304  29.264  34.929  1.00  0.00     0.031 A 
ATOM     48  C   UNL A   1      37.521  32.945  33.465  1.00  0.00     0.031 A 
ATOM     49  C   UNL A   1      42.923  30.228  35.926  1.00  0.00     0.049 A 
ATOM     50  C   UNL A   1      38.254  33.112  34.769  1.00  0.00     0.074 A 
ATOM     51  C   UNL A   1      43.561  30.531  37.116  1.00  0.00     0.029 A 
ATOM     52  N   UNL A   1      41.794  31.032  35.860  1.00  0.00    -0.354 N 
ATOM     53  N   UNL A   1      39.348  32.514  35.180  1.00  0.00    -0.248 NA
ATOM     54  C   UNL A   1      37.692  34.069  35.731  1.00  0.00     0.031 C 
ATOM     55  C   UNL A   1      42.779  31.465  37.802  1.00  0.00     0.029 A 
ATOM     56  C   UNL A   1      41.698  31.806  37.004  1.00  0.00     0.049 A 
ATOM     57  H   UNL A   1      41.156  31.049  35.111  1.00  0.00     0.167 HD
ATOM     58  C   UNL A   1      39.625  33.047  36.435  1.00  0.00     0.074 A 
ATOM     59  C   UNL A   1      38.583  34.017  36.714  1.00  0.00     0.031 C 
ATOM     60  C   UNL A   1      40.655  32.768  37.271  1.00  0.00     0.031 A 
BRANCH  47  61
ATOM     61  C   UNL A   1      44.486  28.366  35.199  1.00  0.00    -0.014 A 
ATOM     62  C   UNL A   1      45.759  28.635  34.665  1.00  0.00     0.010 A 
ATOM     63  C   UNL A   1      44.312  27.226  36.008  1.00  0.00     0.010 A 
ATOM     64  C   UNL A   1      46.818  27.748  34.880  1.00  0.00     0.020 A 
ATOM     65  C   UNL A   1      45.377  26.356  36.254  1.00  0.00     0.020 A 
ATOM     66  C   UNL A   1      46.616  26.609  35.666  1.00  0.00     0.054 A 
BRANCH  66  67
ATOM     67  S   UNL A   1      48.002  25.464  35.909  1.00  0.00     0.124 S 
ATOM     68  O   UNL A   1      48.964  25.942  34.920  1.00  0.00    -0.237 OA
ATOM     69  O   UNL A   1      48.367  25.696  37.304  1.00  0.00    -0.237 OA
ATOM     70  O   UNL A   1      47.421  24.152  35.631  1.00  0.00    -0.744 OA
ENDBRANCH  66  67
ENDBRANCH  47  61
BRANCH  48  71
ATOM     71  C   UNL A   1      36.247  33.662  33.193  1.00  0.00    -0.014 A 
ATOM     72  C   UNL A   1      36.246  35.030  32.875  1.00  0.00     0.010 A 
ATOM     73  C   UNL A   1      35.029  32.954  33.183  1.00  0.00     0.010 A 
ATOM     74  C   UNL A   1      35.051  35.675  32.537  1.00  0.00     0.020 A 
ATOM     75  C   UNL A   1      33.838  33.589  32.820  1.00  0.00     0.020 A 
ATOM     76  C   UNL A   1      33.858  34.947  32.497  1.00  0.00     0.054 A 
BRANCH  76  77
ATOM     77  S   UNL A   1      32.344  35.780  31.942  1.00  0.00     0.124 S 
ATOM     78  O   UNL A   1      32.328  35.467  30.517  1.00  0.00    -0.237 OA
ATOM     79  O   UNL A   1      31.316  35.126  32.748  1.00  0.00    -0.237 OA
ATOM     80  O   UNL A   1      32.586  37.182  32.276  1.00  0.00    -0.744 OA
ENDBRANCH  76  77
ENDBRANCH  48  71
BRANCH  60  81
ATOM     81  C   UNL A   1      40.753  33.551  38.556  1.00  0.00    -0.014 A 
ATOM     82  C   UNL A   1      41.472  34.757  38.634  1.00  0.00     0.010 A 
ATOM     83  C   UNL A   1      40.031  33.112  39.681  1.00  0.00     0.010 A 
ATOM     84  C   UNL A   1      41.479  35.498  39.821  1.00  0.00     0.020 A 
ATOM     85  C   UNL A   1      40.010  33.865  40.858  1.00  0.00     0.020 A 
ATOM     86  C   UNL A   1      40.743  35.051  40.922  1.00  0.00     0.054 A 
BRANCH  86  87
ATOM     87  S   UNL A   1      40.712  36.067  42.425  1.00  0.00     0.124 S 
ATOM     88  O   UNL A   1      39.281  36.269  42.627  1.00  0.00    -0.237 OA
ATOM     89  O   UNL A   1      41.373  35.208  43.404  1.00  0.00    -0.237 OA
ATOM     90  O   UNL A   1      41.462  37.264  42.049  1.00  0.00    -0.744 OA
ENDBRANCH  86  87
ENDBRANCH  60  81
ENDBRANCH  34  35
ENDBRANCH  27  29
ENDBRANCH  26  27
ENDBRANCH  25  26
ENDBRANCH  24  25
ENDBRANCH   1  24
TORSDOF 20
ENDMDL
MODEL 3
REMARK VINA RESULT:     -10.1      3.448      9.195
REMARK SMILES CS(=O)(=O)[C@@H]1CCC[C@@H](Sc2ccc(C(=O)OCCOCCOC(=O)c3ccc(-c4c5nc(c(-c6ccc(S(=O)(=O)[O-])cc6)c6ccc([nH]6)c(-c6ccc(S(=O)(=O)[O-])cc6)c6nc(c(-c7ccc(S(=O)(=O)[O-])cc7)c7ccc4[nH]7)C=C6)C=C5)cc3)cn2)C1
REMARK SMILES IDX 20 1 19 2 18 3 17 4 15 5 16 6 14 7 11 8 12 9 87 10 13 11
REMARK SMILES IDX 86 12 10 13 9 14 5 15 6 16 88 17 7 18 8 19 2 20 1 21 3 22
REMARK SMILES IDX 4 23 21 24 22 25 23 26 24 27 25 28 26 29 27 30 85 31 28 32
REMARK SMILES IDX 84 33 29 34 30 35 31 36 78 37 32 38 83 39 77 40 79 41 33 42
REMARK SMILES IDX 82 43 76 44 75 45 34 47 64 48 45 49 63 50 46 51 49 52 62 53
REMARK SMILES IDX 80 54 47 55 48 56 61 58 81 59 50 60 35 61 36 62 44 63 37 64
REMARK SMILES IDX 43 65 38 66 39 67 40 68 41 69 42 70 65 71 66 72 74 73 67 74
REMARK SMILES IDX 73 75 68 76 69 77 70 78 71 79 72 80 51 81 52 82 60 83 53 84
REMARK SMILES IDX 59 85 54 86 55 87 56 88 57 89 58 90
REMARK H PARENT 79 46 49 57
REMARK Flexibility Score: inf
ROOT
ATOM      1  O   UNL A   1      35.743  20.375  24.998  1.00  0.00    -0.374 OA
ENDROOT
BRANCH   1   2
ATOM      2  C   UNL A   1      34.583  21.188  25.181  1.00  0.00     0.202 C 
BRANCH   2   3
ATOM      3  C   UNL A   1      33.621  20.710  26.271  1.00  0.00     0.261 C 
BRANCH   3   4
ATOM      4  O   UNL A   1      32.978  21.827  26.899  1.00  0.00    -0.460 OA
BRANCH   4   5
ATOM      5  C   UNL A   1      31.853  22.304  26.311  1.00  0.00     0.339 C 
ATOM      6  O   UNL A   1      30.861  21.676  25.987  1.00  0.00    -0.246 OA
BRANCH   5   7
ATOM      7  C   UNL A   1      31.962  23.773  26.235  1.00  0.00     0.078 A 
ATOM      8  C   UNL A   1      32.103  26.558  26.238  1.00  0.00     0.096 A 
ATOM      9  C   UNL A   1      33.237  25.786  26.123  1.00  0.00     0.036 A 
ATOM     10  N   UNL A   1      30.898  25.952  26.366  1.00  0.00    -0.249 NA
ATOM     11  C   UNL A   1      33.188  24.401  26.117  1.00  0.00     0.020 A 
ATOM     12  C   UNL A   1      30.848  24.586  26.360  1.00  0.00     0.128 A 
BRANCH   8  13
ATOM     13  S   UNL A   1      32.078  28.335  26.294  1.00  0.00    -0.103 SA
BRANCH  13  14
ATOM     14  C   UNL A   1      31.945  29.105  24.590  1.00  0.00     0.054 C 
ATOM     15  C   UNL A   1      31.632  27.259  22.887  1.00  0.00     0.109 C 
ATOM     16  C   UNL A   1      30.333  27.911  22.377  1.00  0.00     0.020 C 
ATOM     17  C   UNL A   1      32.582  28.302  23.449  1.00  0.00     0.034 C 
ATOM     18  C   UNL A   1      29.683  28.962  23.292  1.00  0.00     0.002 C 
ATOM     19  C   UNL A   1      30.627  29.772  24.180  1.00  0.00     0.015 C 
BRANCH  15  20
ATOM     20  S   UNL A   1      32.398  26.211  21.643  1.00  0.00     0.150 S 
ATOM     21  C   UNL A   1      32.440  24.624  22.456  1.00  0.00     0.158 C 
ATOM     22  O   UNL A   1      33.775  26.637  21.484  1.00  0.00    -0.229 OA
ATOM     23  O   UNL A   1      31.515  26.117  20.498  1.00  0.00    -0.229 OA
ENDBRANCH  15  20
ENDBRANCH  13  14
ENDBRANCH   8  13
ENDBRANCH   5   7
ENDBRANCH   4   5
ENDBRANCH   3   4
ENDBRANCH   2   3
ENDBRANCH   1   2
BRANCH   1  24
ATOM     24  C   UNL A   1      37.000  21.058  25.001  1.00  0.00     0.202 C 
BRANCH  24  25
ATOM     25  C   UNL A   1      37.030  22.396  25.750  1.00  0.00     0.261 C 
BRANCH  25  26
ATOM     26  O   UNL A   1      38.191  23.170  25.401  1.00  0.00    -0.460 OA
BRANCH  26  27
ATOM     27  C   UNL A   1      39.222  23.074  26.275  1.00  0.00     0.338 C 
ATOM     28  O   UNL A   1      39.986  22.136  26.417  1.00  0.00    -0.246 OA
BRANCH  27  29
ATOM     29  C   UNL A   1      39.416  24.379  26.934  1.00  0.00     0.060 A 
ATOM     30  C   UNL A   1      40.174  25.347  26.262  1.00  0.00     0.016 A 
ATOM     31  C   UNL A   1      38.904  24.631  28.208  1.00  0.00     0.016 A 
ATOM     32  C   UNL A   1      40.459  26.563  26.881  1.00  0.00     0.010 A 
ATOM     33  C   UNL A   1      39.194  25.847  28.827  1.00  0.00     0.010 A 
ATOM     34  C   UNL A   1      39.999  26.805  28.180  1.00  0.00    -0.014 A 
BRANCH  34  35
ATOM     35  C   UNL A   1      40.458  27.991  28.940  1.00  0.00     0.031 A 
ATOM     36  C   UNL A   1      41.749  27.905  29.703  1.00  0.00     0.074 A 
ATOM     37  C   UNL A   1      39.707  29.104  28.999  1.00  0.00     0.049 A 
ATOM     38  N   UNL A   1      42.260  28.745  30.564  1.00  0.00    -0.248 NA
ATOM     39  C   UNL A   1      42.561  26.699  29.476  1.00  0.00     0.031 C 
ATOM     40  C   UNL A   1      38.458  29.320  28.270  1.00  0.00     0.029 A 
ATOM     41  N   UNL A   1      39.873  30.249  29.735  1.00  0.00    -0.354 N 
ATOM     42  C   UNL A   1      43.436  28.154  31.011  1.00  0.00     0.074 A 
ATOM     43  C   UNL A   1      43.551  26.878  30.338  1.00  0.00     0.031 C 
ATOM     44  C   UNL A   1      37.952  30.514  28.623  1.00  0.00     0.029 A 
ATOM     45  C   UNL A   1      38.816  31.121  29.634  1.00  0.00     0.049 A 
ATOM     46  H   UNL A   1      40.672  30.430  30.281  1.00  0.00     0.167 HD
ATOM     47  C   UNL A   1      44.334  28.630  31.908  1.00  0.00     0.031 A 
ATOM     48  C   UNL A   1      38.550  32.254  30.313  1.00  0.00     0.031 A 
ATOM     49  C   UNL A   1      44.197  29.893  32.583  1.00  0.00     0.049 A 
ATOM     50  C   UNL A   1      39.527  32.744  31.347  1.00  0.00     0.074 A 
ATOM     51  C   UNL A   1      45.065  30.485  33.483  1.00  0.00     0.029 A 
ATOM     52  N   UNL A   1      43.114  30.750  32.448  1.00  0.00    -0.354 N 
ATOM     53  N   UNL A   1      40.651  32.193  31.741  1.00  0.00    -0.248 NA
ATOM     54  C   UNL A   1      39.206  34.008  32.022  1.00  0.00     0.031 C 
ATOM     55  C   UNL A   1      44.473  31.664  33.946  1.00  0.00     0.029 A 
ATOM     56  C   UNL A   1      43.276  31.850  33.274  1.00  0.00     0.049 A 
ATOM     57  H   UNL A   1      42.344  30.598  31.854  1.00  0.00     0.167 HD
ATOM     58  C   UNL A   1      41.190  33.061  32.686  1.00  0.00     0.074 A 
ATOM     59  C   UNL A   1      40.267  34.173  32.803  1.00  0.00     0.031 C 
ATOM     60  C   UNL A   1      42.348  32.951  33.382  1.00  0.00     0.031 A 
BRANCH  47  61
ATOM     61  C   UNL A   1      45.503  27.743  32.255  1.00  0.00    -0.014 A 
ATOM     62  C   UNL A   1      45.400  26.725  33.221  1.00  0.00     0.010 A 
ATOM     63  C   UNL A   1      46.733  27.938  31.597  1.00  0.00     0.010 A 
ATOM     64  C   UNL A   1      46.521  25.964  33.568  1.00  0.00     0.020 A 
ATOM     65  C   UNL A   1      47.845  27.155  31.916  1.00  0.00     0.020 A 
ATOM     66  C   UNL A   1      47.738  26.191  32.919  1.00  0.00     0.054 A 
BRANCH  66  67
ATOM     67  S   UNL A   1      49.181  25.204  33.405  1.00  0.00     0.124 S 
ATOM     68  O   UNL A   1      49.696  24.769  32.109  1.00  0.00    -0.237 OA
ATOM     69  O   UNL A   1      50.007  26.176  34.116  1.00  0.00    -0.237 OA
ATOM     70  O   UNL A   1      48.613  24.146  34.237  1.00  0.00    -0.744 OA
ENDBRANCH  66  67
ENDBRANCH  47  61
BRANCH  48  71
ATOM     71  C   UNL A   1      37.281  32.980  30.039  1.00  0.00    -0.014 A 
ATOM     72  C   UNL A   1      37.148  33.793  28.902  1.00  0.00     0.010 A 
ATOM     73  C   UNL A   1      36.169  32.801  30.886  1.00  0.00     0.010 A 
ATOM     74  C   UNL A   1      35.924  34.403  28.608  1.00  0.00     0.020 A 
ATOM     75  C   UNL A   1      34.938  33.386  30.581  1.00  0.00     0.020 A 
ATOM     76  C   UNL A   1      34.823  34.183  29.441  1.00  0.00     0.054 A 
BRANCH  76  77
ATOM     77  S   UNL A   1      33.218  34.889  28.974  1.00  0.00     0.124 S 
ATOM     78  O   UNL A   1      32.529  34.956  30.258  1.00  0.00    -0.237 OA
ATOM     79  O   UNL A   1      33.601  36.172  28.391  1.00  0.00    -0.237 OA
ATOM     80  O   UNL A   1      32.683  33.918  28.022  1.00  0.00    -0.744 OA
ENDBRANCH  76  77
ENDBRANCH  48  71
BRANCH  60  81
ATOM     81  C   UNL A   1      42.728  34.083  34.304  1.00  0.00    -0.014 A 
ATOM     82  C   UNL A   1      42.360  34.086  35.661  1.00  0.00     0.010 A 
ATOM     83  C   UNL A   1      43.547  35.117  33.816  1.00  0.00     0.010 A 
ATOM     84  C   UNL A   1      42.792  35.113  36.507  1.00  0.00     0.020 A 
ATOM     85  C   UNL A   1      44.007  36.127  34.664  1.00  0.00     0.020 A 
ATOM     86  C   UNL A   1      43.619  36.123  36.004  1.00  0.00     0.054 A 
BRANCH  86  87
ATOM     87  S   UNL A   1      44.223  37.403  37.138  1.00  0.00     0.124 S 
ATOM     88  O   UNL A   1      44.291  38.574  36.269  1.00  0.00    -0.237 OA
ATOM     89  O   UNL A   1      43.183  37.438  38.163  1.00  0.00    -0.237 OA
ATOM     90  O   UNL A   1      45.515  36.887  37.588  1.00  0.00    -0.744 OA
ENDBRANCH  86  87
ENDBRANCH  60  81
ENDBRANCH  34  35
ENDBRANCH  27  29
ENDBRANCH  26  27
ENDBRANCH  25  26
ENDBRANCH  24  25
ENDBRANCH   1  24
TORSDOF 20
ENDMDL
