MODEL 1
REMARK VINA RESULT:      -8.7      0.000      0.000
REMARK SMILES COc1cc(Cl)ccc1-c1ccc(CC(=O)OCCOCCOC(=O)c2ccc(-c3c4nc(c(-c5ccc(S(=O)(=O)[O-])cc5)c5ccc([nH]5)c(-c5ccc(S(=O)(=O)[O-])cc5)c5nc(c(-c6ccc(S(=O)(=O)[O-])cc6)c6ccc3[nH]6)C=C5)C=C4)cc2)cc1
REMARK SMILES IDX 20 1 19 2 18 3 17 4 15 5 16 6 14 7 13 8 10 9 11 10 87 11
REMARK SMILES IDX 12 12 86 13 9 14 3 15 4 16 5 17 8 18 6 19 7 20 2 21 1 22
REMARK SMILES IDX 21 23 22 24 23 25 24 26 25 27 26 28 27 29 85 30 28 31 84 32
REMARK SMILES IDX 29 33 30 34 31 35 78 36 32 37 83 38 77 39 79 40 33 41 82 42
REMARK SMILES IDX 76 43 75 44 34 46 64 47 45 48 63 49 46 50 49 51 62 52 80 53
REMARK SMILES IDX 47 54 48 55 61 57 81 58 50 59 35 60 36 61 44 62 37 63 43 64
REMARK SMILES IDX 38 65 39 66 40 67 41 68 42 69 65 70 66 71 74 72 67 73 73 74
REMARK SMILES IDX 68 75 69 76 70 77 71 78 72 79 51 80 52 81 60 82 53 83 59 84
REMARK SMILES IDX 54 85 55 86 56 87 57 88 58 89
REMARK H PARENT 79 45 49 56
REMARK Flexibility Score: inf
ROOT
ATOM      1  O   UNL A   1      42.678  19.476  26.383  1.00  0.00    -0.374 OA
ENDROOT
BRANCH   1   2
ATOM      2  C   UNL A   1      43.543  18.844  25.438  1.00  0.00     0.202 C 
BRANCH   2   3
ATOM      3  C   UNL A   1      44.659  19.711  24.849  1.00  0.00     0.261 C 
BRANCH   3   4
ATOM      4  O   UNL A   1      45.218  20.620  25.818  1.00  0.00    -0.463 OA
BRANCH   4   5
ATOM      5  C   UNL A   1      45.517  21.863  25.358  1.00  0.00     0.310 C 
ATOM      6  O   UNL A   1      46.536  22.152  24.737  1.00  0.00    -0.252 OA
BRANCH   5   7
ATOM      7  C   UNL A   1      44.503  22.919  25.726  1.00  0.00     0.158 C 
BRANCH   7   8
ATOM      8  C   UNL A   1      44.413  23.384  27.163  1.00  0.00    -0.037 A 
ATOM      9  C   UNL A   1      44.278  23.996  29.928  1.00  0.00    -0.015 A 
ATOM     10  C   UNL A   1      45.481  24.126  29.224  1.00  0.00     0.009 A 
ATOM     11  C   UNL A   1      43.136  23.592  29.220  1.00  0.00     0.009 A 
ATOM     12  C   UNL A   1      45.551  23.815  27.859  1.00  0.00     0.005 A 
ATOM     13  C   UNL A   1      43.199  23.298  27.854  1.00  0.00     0.005 A 
BRANCH   9  14
ATOM     14  C   UNL A   1      44.205  24.250  31.374  1.00  0.00     0.024 A 
ATOM     15  C   UNL A   1      44.269  25.555  31.906  1.00  0.00     0.128 A 
ATOM     16  C   UNL A   1      44.221  25.767  33.289  1.00  0.00     0.067 A 
ATOM     17  C   UNL A   1      44.138  24.677  34.151  1.00  0.00     0.044 A 
ATOM     18  C   UNL A   1      44.109  23.169  32.268  1.00  0.00     0.014 A 
ATOM     19  Cl  UNL A   1      44.096  24.941  35.853  1.00  0.00    -0.084 Cl
ATOM     20  C   UNL A   1      44.081  23.380  33.650  1.00  0.00     0.021 A 
BRANCH  15  21
ATOM     21  O   UNL A   1      44.293  26.613  31.029  1.00  0.00    -0.496 OA
ATOM     22  C   UNL A   1      44.980  27.752  31.540  1.00  0.00     0.278 C 
ENDBRANCH  15  21
ENDBRANCH   9  14
ENDBRANCH   7   8
ENDBRANCH   5   7
ENDBRANCH   4   5
ENDBRANCH   3   4
ENDBRANCH   2   3
ENDBRANCH   1   2
BRANCH   1  23
ATOM     23  C   UNL A   1      41.774  20.455  25.874  1.00  0.00     0.202 C 
BRANCH  23  24
ATOM     24  C   UNL A   1      40.385  20.509  26.522  1.00  0.00     0.261 C 
BRANCH  24  25
ATOM     25  O   UNL A   1      40.139  21.756  27.192  1.00  0.00    -0.460 OA
BRANCH  25  26
ATOM     26  C   UNL A   1      39.362  22.623  26.497  1.00  0.00     0.338 C 
ATOM     27  O   UNL A   1      38.496  22.342  25.685  1.00  0.00    -0.246 OA
BRANCH  26  28
ATOM     28  C   UNL A   1      39.575  24.006  26.971  1.00  0.00     0.060 A 
ATOM     29  C   UNL A   1      40.150  24.906  26.064  1.00  0.00     0.016 A 
ATOM     30  C   UNL A   1      39.297  24.402  28.281  1.00  0.00     0.016 A 
ATOM     31  C   UNL A   1      40.514  26.182  26.483  1.00  0.00     0.010 A 
ATOM     32  C   UNL A   1      39.668  25.686  28.702  1.00  0.00     0.010 A 
ATOM     33  C   UNL A   1      40.318  26.565  27.816  1.00  0.00    -0.014 A 
BRANCH  33  34
ATOM     34  C   UNL A   1      40.933  27.827  28.296  1.00  0.00     0.031 A 
ATOM     35  C   UNL A   1      42.420  28.016  28.156  1.00  0.00     0.074 A 
ATOM     36  C   UNL A   1      40.170  28.818  28.791  1.00  0.00     0.049 A 
ATOM     37  N   UNL A   1      43.151  29.063  28.440  1.00  0.00    -0.248 NA
ATOM     38  C   UNL A   1      43.183  26.874  27.626  1.00  0.00     0.031 C 
ATOM     39  C   UNL A   1      38.718  28.764  28.953  1.00  0.00     0.029 A 
ATOM     40  N   UNL A   1      40.515  30.068  29.241  1.00  0.00    -0.354 N 
ATOM     41  C   UNL A   1      44.458  28.706  28.128  1.00  0.00     0.074 A 
ATOM     42  C   UNL A   1      44.423  27.335  27.665  1.00  0.00     0.031 C 
ATOM     43  C   UNL A   1      38.295  29.932  29.468  1.00  0.00     0.029 A 
ATOM     44  C   UNL A   1      39.447  30.806  29.687  1.00  0.00     0.049 A 
ATOM     45  H   UNL A   1      41.441  30.403  29.244  1.00  0.00     0.167 HD
ATOM     46  C   UNL A   1      45.586  29.453  28.210  1.00  0.00     0.031 A 
ATOM     47  C   UNL A   1      39.400  32.044  30.218  1.00  0.00     0.031 A 
ATOM     48  C   UNL A   1      45.620  30.812  28.683  1.00  0.00     0.049 A 
ATOM     49  C   UNL A   1      40.669  32.845  30.339  1.00  0.00     0.074 A 
ATOM     50  C   UNL A   1      46.707  31.664  28.776  1.00  0.00     0.029 A 
ATOM     51  N   UNL A   1      44.520  31.514  29.152  1.00  0.00    -0.354 N 
ATOM     52  N   UNL A   1      41.890  32.510  29.992  1.00  0.00    -0.248 NA
ATOM     53  C   UNL A   1      40.553  34.194  30.911  1.00  0.00     0.031 C 
ATOM     54  C   UNL A   1      46.273  32.862  29.355  1.00  0.00     0.029 A 
ATOM     55  C   UNL A   1      44.906  32.777  29.567  1.00  0.00     0.049 A 
ATOM     56  H   UNL A   1      43.600  31.164  29.187  1.00  0.00     0.167 HD
ATOM     57  C   UNL A   1      42.683  33.616  30.281  1.00  0.00     0.074 A 
ATOM     58  C   UNL A   1      41.802  34.632  30.820  1.00  0.00     0.031 C 
ATOM     59  C   UNL A   1      44.019  33.776  30.111  1.00  0.00     0.031 A 
BRANCH  46  60
ATOM     60  C   UNL A   1      46.881  28.795  27.816  1.00  0.00    -0.014 A 
ATOM     61  C   UNL A   1      47.382  28.892  26.505  1.00  0.00     0.010 A 
ATOM     62  C   UNL A   1      47.616  28.077  28.777  1.00  0.00     0.010 A 
ATOM     63  C   UNL A   1      48.568  28.241  26.150  1.00  0.00     0.020 A 
ATOM     64  C   UNL A   1      48.815  27.446  28.433  1.00  0.00     0.020 A 
ATOM     65  C   UNL A   1      49.271  27.514  27.115  1.00  0.00     0.054 A 
BRANCH  65  66
ATOM     66  S   UNL A   1      50.804  26.674  26.629  1.00  0.00     0.124 S 
ATOM     67  O   UNL A   1      50.602  25.337  27.185  1.00  0.00    -0.237 OA
ATOM     68  O   UNL A   1      50.769  26.758  25.172  1.00  0.00    -0.237 OA
ATOM     69  O   UNL A   1      51.851  27.463  27.271  1.00  0.00    -0.744 OA
ENDBRANCH  65  66
ENDBRANCH  46  60
BRANCH  47  70
ATOM     70  C   UNL A   1      38.096  32.597  30.673  1.00  0.00    -0.014 A 
ATOM     71  C   UNL A   1      37.676  32.452  32.006  1.00  0.00     0.010 A 
ATOM     72  C   UNL A   1      37.283  33.312  29.773  1.00  0.00     0.010 A 
ATOM     73  C   UNL A   1      36.466  33.010  32.432  1.00  0.00     0.020 A 
ATOM     74  C   UNL A   1      36.085  33.891  30.201  1.00  0.00     0.020 A 
ATOM     75  C   UNL A   1      35.682  33.732  31.527  1.00  0.00     0.054 A 
BRANCH  75  76
ATOM     76  S   UNL A   1      34.159  34.521  32.120  1.00  0.00     0.124 S 
ATOM     77  O   UNL A   1      34.668  35.743  32.735  1.00  0.00    -0.237 OA
ATOM     78  O   UNL A   1      33.397  34.704  30.886  1.00  0.00    -0.237 OA
ATOM     79  O   UNL A   1      33.602  33.536  33.045  1.00  0.00    -0.744 OA
ENDBRANCH  75  76
ENDBRANCH  47  70
BRANCH  59  80
ATOM     80  C   UNL A   1      44.614  35.105  30.491  1.00  0.00    -0.014 A 
ATOM     81  C   UNL A   1      44.648  36.176  29.580  1.00  0.00     0.010 A 
ATOM     82  C   UNL A   1      45.089  35.305  31.801  1.00  0.00     0.010 A 
ATOM     83  C   UNL A   1      45.174  37.412  29.963  1.00  0.00     0.020 A 
ATOM     84  C   UNL A   1      45.592  36.547  32.195  1.00  0.00     0.020 A 
ATOM     85  C   UNL A   1      45.644  37.590  31.268  1.00  0.00     0.054 A 
BRANCH  85  86
ATOM     86  S   UNL A   1      46.281  39.218  31.755  1.00  0.00     0.124 S 
ATOM     87  O   UNL A   1      45.063  40.022  31.789  1.00  0.00    -0.237 OA
ATOM     88  O   UNL A   1      46.893  38.949  33.054  1.00  0.00    -0.237 OA
ATOM     89  O   UNL A   1      47.221  39.555  30.688  1.00  0.00    -0.744 OA
ENDBRANCH  85  86
ENDBRANCH  59  80
ENDBRANCH  33  34
ENDBRANCH  26  28
ENDBRANCH  25  26
ENDBRANCH  24  25
ENDBRANCH  23  24
ENDBRANCH   1  23
TORSDOF 20
ENDMDL
MODEL 2
REMARK VINA RESULT:      -8.4      4.768      7.845
REMARK SMILES COc1cc(Cl)ccc1-c1ccc(CC(=O)OCCOCCOC(=O)c2ccc(-c3c4nc(c(-c5ccc(S(=O)(=O)[O-])cc5)c5ccc([nH]5)c(-c5ccc(S(=O)(=O)[O-])cc5)c5nc(c(-c6ccc(S(=O)(=O)[O-])cc6)c6ccc3[nH]6)C=C5)C=C4)cc2)cc1
REMARK SMILES IDX 20 1 19 2 18 3 17 4 15 5 16 6 14 7 13 8 10 9 11 10 87 11
REMARK SMILES IDX 12 12 86 13 9 14 3 15 4 16 5 17 8 18 6 19 7 20 2 21 1 22
REMARK SMILES IDX 21 23 22 24 23 25 24 26 25 27 26 28 27 29 85 30 28 31 84 32
REMARK SMILES IDX 29 33 30 34 31 35 78 36 32 37 83 38 77 39 79 40 33 41 82 42
REMARK SMILES IDX 76 43 75 44 34 46 64 47 45 48 63 49 46 50 49 51 62 52 80 53
REMARK SMILES IDX 47 54 48 55 61 57 81 58 50 59 35 60 36 61 44 62 37 63 43 64
REMARK SMILES IDX 38 65 39 66 40 67 41 68 42 69 65 70 66 71 74 72 67 73 73 74
REMARK SMILES IDX 68 75 69 76 70 77 71 78 72 79 51 80 52 81 60 82 53 83 59 84
REMARK SMILES IDX 54 85 55 86 56 87 57 88 58 89
REMARK H PARENT 79 45 49 56
REMARK Flexibility Score: inf
ROOT
ATOM      1  O   UNL A   1      38.820  22.381  25.996  1.00  0.00    -0.374 OA
ENDROOT
BRANCH   1   2
ATOM      2  C   UNL A   1      37.919  23.485  26.101  1.00  0.00     0.202 C 
BRANCH   2   3
ATOM      3  C   UNL A   1      36.547  23.309  25.443  1.00  0.00     0.261 C 
BRANCH   3   4
ATOM      4  O   UNL A   1      35.547  22.844  26.371  1.00  0.00    -0.463 OA
BRANCH   4   5
ATOM      5  C   UNL A   1      34.534  22.116  25.832  1.00  0.00     0.310 C 
ATOM      6  O   UNL A   1      34.681  21.224  25.002  1.00  0.00    -0.252 OA
BRANCH   5   7
ATOM      7  C   UNL A   1      33.159  22.533  26.294  1.00  0.00     0.158 C 
BRANCH   7   8
ATOM      8  C   UNL A   1      32.625  23.889  25.885  1.00  0.00    -0.037 A 
ATOM      9  C   UNL A   1      31.458  26.298  24.951  1.00  0.00    -0.015 A 
ATOM     10  C   UNL A   1      31.010  25.697  26.134  1.00  0.00     0.009 A 
ATOM     11  C   UNL A   1      32.523  25.696  24.264  1.00  0.00     0.009 A 
ATOM     12  C   UNL A   1      31.580  24.501  26.591  1.00  0.00     0.005 A 
ATOM     13  C   UNL A   1      33.106  24.512  24.727  1.00  0.00     0.005 A 
BRANCH   9  14
ATOM     14  C   UNL A   1      30.823  27.513  24.421  1.00  0.00     0.024 A 
ATOM     15  C   UNL A   1      31.290  28.803  24.750  1.00  0.00     0.128 A 
ATOM     16  C   UNL A   1      30.651  29.944  24.250  1.00  0.00     0.067 A 
ATOM     17  C   UNL A   1      29.526  29.807  23.442  1.00  0.00     0.044 A 
ATOM     18  C   UNL A   1      29.692  27.405  23.593  1.00  0.00     0.014 A 
ATOM     19  Cl  UNL A   1      28.734  31.213  22.842  1.00  0.00    -0.084 Cl
ATOM     20  C   UNL A   1      29.043  28.545  23.111  1.00  0.00     0.021 A 
BRANCH  15  21
ATOM     21  O   UNL A   1      32.435  28.906  25.502  1.00  0.00    -0.496 OA
ATOM     22  C   UNL A   1      32.187  29.251  26.863  1.00  0.00     0.278 C 
ENDBRANCH  15  21
ENDBRANCH   9  14
ENDBRANCH   7   8
ENDBRANCH   5   7
ENDBRANCH   4   5
ENDBRANCH   3   4
ENDBRANCH   2   3
ENDBRANCH   1   2
BRANCH   1  23
ATOM     23  C   UNL A   1      38.315  21.194  25.387  1.00  0.00     0.202 C 
BRANCH  23  24
ATOM     24  C   UNL A   1      39.148  19.919  25.572  1.00  0.00     0.261 C 
BRANCH  24  25
ATOM     25  O   UNL A   1      40.100  20.036  26.642  1.00  0.00    -0.460 OA
BRANCH  25  26
ATOM     26  C   UNL A   1      41.387  19.820  26.274  1.00  0.00     0.338 C 
ATOM     27  O   UNL A   1      41.837  18.821  25.738  1.00  0.00    -0.246 OA
BRANCH  26  28
ATOM     28  C   UNL A   1      42.191  21.046  26.454  1.00  0.00     0.060 A 
ATOM     29  C   UNL A   1      42.414  21.471  27.770  1.00  0.00     0.016 A 
ATOM     30  C   UNL A   1      42.653  21.807  25.378  1.00  0.00     0.016 A 
ATOM     31  C   UNL A   1      43.038  22.691  28.014  1.00  0.00     0.010 A 
ATOM     32  C   UNL A   1      43.276  23.037  25.625  1.00  0.00     0.010 A 
ATOM     33  C   UNL A   1      43.430  23.504  26.943  1.00  0.00    -0.014 A 
BRANCH  33  34
ATOM     34  C   UNL A   1      43.863  24.896  27.222  1.00  0.00     0.031 A 
ATOM     35  C   UNL A   1      45.298  25.279  26.980  1.00  0.00     0.074 A 
ATOM     36  C   UNL A   1      42.975  25.822  27.625  1.00  0.00     0.049 A 
ATOM     37  N   UNL A   1      45.871  26.449  27.087  1.00  0.00    -0.248 NA
ATOM     38  C   UNL A   1      46.208  24.199  26.562  1.00  0.00     0.031 C 
ATOM     39  C   UNL A   1      41.554  25.580  27.870  1.00  0.00     0.029 A 
ATOM     40  N   UNL A   1      43.142  27.159  27.891  1.00  0.00    -0.354 N 
ATOM     41  C   UNL A   1      47.206  26.248  26.754  1.00  0.00     0.074 A 
ATOM     42  C   UNL A   1      47.364  24.837  26.475  1.00  0.00     0.031 C 
ATOM     43  C   UNL A   1      40.977  26.733  28.250  1.00  0.00     0.029 A 
ATOM     44  C   UNL A   1      41.989  27.787  28.293  1.00  0.00     0.049 A 
ATOM     45  H   UNL A   1      44.005  27.622  27.801  1.00  0.00     0.167 HD
ATOM     46  C   UNL A   1      48.210  27.156  26.679  1.00  0.00     0.031 A 
ATOM     47  C   UNL A   1      41.773  29.065  28.661  1.00  0.00     0.031 A 
ATOM     48  C   UNL A   1      48.053  28.556  26.970  1.00  0.00     0.049 A 
ATOM     49  C   UNL A   1      42.909  30.051  28.610  1.00  0.00     0.074 A 
ATOM     50  C   UNL A   1      49.001  29.562  26.895  1.00  0.00     0.029 A 
ATOM     51  N   UNL A   1      46.876  29.148  27.402  1.00  0.00    -0.354 N 
ATOM     52  N   UNL A   1      44.154  29.854  28.245  1.00  0.00    -0.248 NA
ATOM     53  C   UNL A   1      42.609  31.434  29.008  1.00  0.00     0.031 C 
ATOM     54  C   UNL A   1      48.410  30.752  27.336  1.00  0.00     0.029 A 
ATOM     55  C   UNL A   1      47.079  30.498  27.629  1.00  0.00     0.049 A 
ATOM     56  H   UNL A   1      46.022  28.675  27.531  1.00  0.00     0.167 HD
ATOM     57  C   UNL A   1      44.780  31.093  28.347  1.00  0.00     0.074 A 
ATOM     58  C   UNL A   1      43.773  32.033  28.796  1.00  0.00     0.031 C 
ATOM     59  C   UNL A   1      46.070  31.421  28.086  1.00  0.00     0.031 A 
BRANCH  46  60
ATOM     60  C   UNL A   1      49.576  26.646  26.305  1.00  0.00    -0.014 A 
ATOM     61  C   UNL A   1      50.102  26.841  25.014  1.00  0.00     0.010 A 
ATOM     62  C   UNL A   1      50.352  25.971  27.265  1.00  0.00     0.010 A 
ATOM     63  C   UNL A   1      51.357  26.326  24.676  1.00  0.00     0.020 A 
ATOM     64  C   UNL A   1      51.619  25.478  26.938  1.00  0.00     0.020 A 
ATOM     65  C   UNL A   1      52.103  25.639  25.638  1.00  0.00     0.054 A 
BRANCH  65  66
ATOM     66  S   UNL A   1      53.726  24.976  25.175  1.00  0.00     0.124 S 
ATOM     67  O   UNL A   1      53.962  25.631  23.890  1.00  0.00    -0.237 OA
ATOM     68  O   UNL A   1      54.582  25.421  26.271  1.00  0.00    -0.237 OA
ATOM     69  O   UNL A   1      53.506  23.534  25.106  1.00  0.00    -0.744 OA
ENDBRANCH  65  66
ENDBRANCH  46  60
BRANCH  47  70
ATOM     70  C   UNL A   1      40.416  29.479  29.110  1.00  0.00    -0.014 A 
ATOM     71  C   UNL A   1      40.127  29.646  30.475  1.00  0.00     0.010 A 
ATOM     72  C   UNL A   1      39.413  29.747  28.160  1.00  0.00     0.010 A 
ATOM     73  C   UNL A   1      38.859  30.074  30.883  1.00  0.00     0.020 A 
ATOM     74  C   UNL A   1      38.152  30.196  28.562  1.00  0.00     0.020 A 
ATOM     75  C   UNL A   1      37.881  30.352  29.922  1.00  0.00     0.054 A 
BRANCH  75  76
ATOM     76  S   UNL A   1      36.271  30.987  30.466  1.00  0.00     0.124 S 
ATOM     77  O   UNL A   1      35.472  30.873  29.250  1.00  0.00    -0.237 OA
ATOM     78  O   UNL A   1      35.917  30.067  31.545  1.00  0.00    -0.237 OA
ATOM     79  O   UNL A   1      36.570  32.352  30.896  1.00  0.00    -0.744 OA
ENDBRANCH  75  76
ENDBRANCH  47  70
BRANCH  59  80
ATOM     80  C   UNL A   1      46.468  32.862  28.259  1.00  0.00    -0.014 A 
ATOM     81  C   UNL A   1      46.941  33.345  29.492  1.00  0.00     0.010 A 
ATOM     82  C   UNL A   1      46.429  33.731  27.152  1.00  0.00     0.010 A 
ATOM     83  C   UNL A   1      47.338  34.679  29.623  1.00  0.00     0.020 A 
ATOM     84  C   UNL A   1      46.850  35.059  27.273  1.00  0.00     0.020 A 
ATOM     85  C   UNL A   1      47.289  35.527  28.513  1.00  0.00     0.054 A 
BRANCH  85  86
ATOM     86  S   UNL A   1      47.852  37.242  28.697  1.00  0.00     0.124 S 
ATOM     87  O   UNL A   1      47.752  37.441  30.140  1.00  0.00    -0.237 OA
ATOM     88  O   UNL A   1      49.211  37.194  28.162  1.00  0.00    -0.237 OA
ATOM     89  O   UNL A   1      46.900  38.007  27.894  1.00  0.00    -0.744 OA
ENDBRANCH  85  86
ENDBRANCH  59  80
ENDBRANCH  33  34
ENDBRANCH  26  28
ENDBRANCH  25  26
ENDBRANCH  24  25
ENDBRANCH  23  24
ENDBRANCH   1  23
TORSDOF 20
ENDMDL
MODEL 3
REMARK VINA RESULT:      -8.4      5.468      8.364
REMARK SMILES COc1cc(Cl)ccc1-c1ccc(CC(=O)OCCOCCOC(=O)c2ccc(-c3c4nc(c(-c5ccc(S(=O)(=O)[O-])cc5)c5ccc([nH]5)c(-c5ccc(S(=O)(=O)[O-])cc5)c5nc(c(-c6ccc(S(=O)(=O)[O-])cc6)c6ccc3[nH]6)C=C5)C=C4)cc2)cc1
REMARK SMILES IDX 20 1 19 2 18 3 17 4 15 5 16 6 14 7 13 8 10 9 11 10 87 11
REMARK SMILES IDX 12 12 86 13 9 14 3 15 4 16 5 17 8 18 6 19 7 20 2 21 1 22
REMARK SMILES IDX 21 23 22 24 23 25 24 26 25 27 26 28 27 29 85 30 28 31 84 32
REMARK SMILES IDX 29 33 30 34 31 35 78 36 32 37 83 38 77 39 79 40 33 41 82 42
REMARK SMILES IDX 76 43 75 44 34 46 64 47 45 48 63 49 46 50 49 51 62 52 80 53
REMARK SMILES IDX 47 54 48 55 61 57 81 58 50 59 35 60 36 61 44 62 37 63 43 64
REMARK SMILES IDX 38 65 39 66 40 67 41 68 42 69 65 70 66 71 74 72 67 73 73 74
REMARK SMILES IDX 68 75 69 76 70 77 71 78 72 79 51 80 52 81 60 82 53 83 59 84
REMARK SMILES IDX 54 85 55 86 56 87 57 88 58 89
REMARK H PARENT 79 45 49 56
REMARK Flexibility Score: inf
ROOT
ATOM      1  O   UNL A   1      42.451  20.708  26.272  1.00  0.00    -0.374 OA
ENDROOT
BRANCH   1   2
ATOM      2  C   UNL A   1      41.364  19.793  26.120  1.00  0.00     0.202 C 
BRANCH   2   3
ATOM      3  C   UNL A   1      39.956  20.391  26.190  1.00  0.00     0.261 C 
BRANCH   3   4
ATOM      4  O   UNL A   1      39.020  19.696  25.342  1.00  0.00    -0.463 OA
BRANCH   4   5
ATOM      5  C   UNL A   1      37.851  20.344  25.097  1.00  0.00     0.310 C 
ATOM      6  O   UNL A   1      36.802  19.793  24.774  1.00  0.00    -0.252 OA
BRANCH   5   7
ATOM      7  C   UNL A   1      37.945  21.847  25.192  1.00  0.00     0.158 C 
BRANCH   7   8
ATOM      8  C   UNL A   1      36.691  22.676  25.016  1.00  0.00    -0.037 A 
ATOM      9  C   UNL A   1      34.210  23.995  24.642  1.00  0.00    -0.015 A 
ATOM     10  C   UNL A   1      34.669  23.684  25.928  1.00  0.00     0.009 A 
ATOM     11  C   UNL A   1      35.028  23.670  23.550  1.00  0.00     0.009 A 
ATOM     12  C   UNL A   1      35.891  23.024  26.113  1.00  0.00     0.005 A 
ATOM     13  C   UNL A   1      36.256  23.027  23.733  1.00  0.00     0.005 A 
BRANCH   9  14
ATOM     14  C   UNL A   1      32.899  24.623  24.428  1.00  0.00     0.024 A 
ATOM     15  C   UNL A   1      32.724  26.023  24.480  1.00  0.00     0.128 A 
ATOM     16  C   UNL A   1      31.459  26.594  24.295  1.00  0.00     0.067 A 
ATOM     17  C   UNL A   1      30.355  25.771  24.087  1.00  0.00     0.044 A 
ATOM     18  C   UNL A   1      31.768  23.819  24.203  1.00  0.00     0.014 A 
ATOM     19  Cl  UNL A   1      28.798  26.476  23.876  1.00  0.00    -0.084 Cl
ATOM     20  C   UNL A   1      30.501  24.388  24.039  1.00  0.00     0.021 A 
BRANCH  15  21
ATOM     21  O   UNL A   1      33.841  26.810  24.630  1.00  0.00    -0.496 OA
ATOM     22  C   UNL A   1      34.019  27.743  23.567  1.00  0.00     0.278 C 
ENDBRANCH  15  21
ENDBRANCH   9  14
ENDBRANCH   7   8
ENDBRANCH   5   7
ENDBRANCH   4   5
ENDBRANCH   3   4
ENDBRANCH   2   3
ENDBRANCH   1   2
BRANCH   1  23
ATOM     23  C   UNL A   1      42.172  21.932  26.951  1.00  0.00     0.202 C 
BRANCH  23  24
ATOM     24  C   UNL A   1      42.368  23.223  26.148  1.00  0.00     0.261 C 
BRANCH  24  25
ATOM     25  O   UNL A   1      41.240  24.108  26.247  1.00  0.00    -0.460 OA
BRANCH  25  26
ATOM     26  C   UNL A   1      41.537  25.418  26.062  1.00  0.00     0.338 C 
ATOM     27  O   UNL A   1      41.628  26.005  24.997  1.00  0.00    -0.246 OA
BRANCH  26  28
ATOM     28  C   UNL A   1      41.581  26.127  27.358  1.00  0.00     0.060 A 
ATOM     29  C   UNL A   1      40.544  25.864  28.261  1.00  0.00     0.016 A 
ATOM     30  C   UNL A   1      42.558  27.079  27.661  1.00  0.00     0.016 A 
ATOM     31  C   UNL A   1      40.439  26.599  29.438  1.00  0.00     0.010 A 
ATOM     32  C   UNL A   1      42.448  27.821  28.844  1.00  0.00     0.010 A 
ATOM     33  C   UNL A   1      41.363  27.614  29.715  1.00  0.00    -0.014 A 
BRANCH  33  34
ATOM     34  C   UNL A   1      41.092  28.542  30.841  1.00  0.00     0.031 A 
ATOM     35  C   UNL A   1      41.949  28.464  32.076  1.00  0.00     0.074 A 
ATOM     36  C   UNL A   1      40.136  29.482  30.741  1.00  0.00     0.049 A 
ATOM     37  N   UNL A   1      41.934  29.221  33.142  1.00  0.00    -0.248 NA
ATOM     38  C   UNL A   1      42.957  27.391  32.113  1.00  0.00     0.031 C 
ATOM     39  C   UNL A   1      39.258  29.673  29.588  1.00  0.00     0.029 A 
ATOM     40  N   UNL A   1      39.751  30.460  31.625  1.00  0.00    -0.354 N 
ATOM     41  C   UNL A   1      42.924  28.717  33.978  1.00  0.00     0.074 A 
ATOM     42  C   UNL A   1      43.497  27.568  33.309  1.00  0.00     0.031 C 
ATOM     43  C   UNL A   1      38.435  30.707  29.835  1.00  0.00     0.029 A 
ATOM     44  C   UNL A   1      38.717  31.238  31.168  1.00  0.00     0.049 A 
ATOM     45  H   UNL A   1      40.178  30.589  32.502  1.00  0.00     0.167 HD
ATOM     46  C   UNL A   1      43.328  29.171  35.189  1.00  0.00     0.031 A 
ATOM     47  C   UNL A   1      38.064  32.259  31.758  1.00  0.00     0.031 A 
ATOM     48  C   UNL A   1      42.748  30.305  35.858  1.00  0.00     0.049 A 
ATOM     49  C   UNL A   1      38.500  32.724  33.122  1.00  0.00     0.074 A 
ATOM     50  C   UNL A   1      43.105  30.863  37.074  1.00  0.00     0.029 A 
ATOM     51  N   UNL A   1      41.682  31.049  35.375  1.00  0.00    -0.354 N 
ATOM     52  N   UNL A   1      39.471  32.267  33.877  1.00  0.00    -0.248 NA
ATOM     53  C   UNL A   1      37.760  33.852  33.708  1.00  0.00     0.031 C 
ATOM     54  C   UNL A   1      42.218  31.910  37.350  1.00  0.00     0.029 A 
ATOM     55  C   UNL A   1      41.346  32.041  36.281  1.00  0.00     0.049 A 
ATOM     56  H   UNL A   1      41.230  30.893  34.515  1.00  0.00     0.167 HD
ATOM     57  C   UNL A   1      39.475  33.066  35.016  1.00  0.00     0.074 A 
ATOM     58  C   UNL A   1      38.417  34.041  34.845  1.00  0.00     0.031 C 
ATOM     59  C   UNL A   1      40.284  32.999  36.102  1.00  0.00     0.031 A 
BRANCH  46  60
ATOM     60  C   UNL A   1      44.424  28.408  35.884  1.00  0.00    -0.014 A 
ATOM     61  C   UNL A   1      44.143  27.268  36.661  1.00  0.00     0.010 A 
ATOM     62  C   UNL A   1      45.758  28.830  35.747  1.00  0.00     0.010 A 
ATOM     63  C   UNL A   1      45.172  26.597  37.329  1.00  0.00     0.020 A 
ATOM     64  C   UNL A   1      46.793  28.146  36.392  1.00  0.00     0.020 A 
ATOM     65  C   UNL A   1      46.489  27.046  37.197  1.00  0.00     0.054 A 
BRANCH  65  66
ATOM     66  S   UNL A   1      47.805  26.162  38.078  1.00  0.00     0.124 S 
ATOM     67  O   UNL A   1      48.868  27.164  38.113  1.00  0.00    -0.237 OA
ATOM     68  O   UNL A   1      47.185  25.860  39.365  1.00  0.00    -0.237 OA
ATOM     69  O   UNL A   1      48.071  25.002  37.231  1.00  0.00    -0.744 OA
ENDBRANCH  65  66
ENDBRANCH  46  60
BRANCH  47  70
ATOM     70  C   UNL A   1      36.926  32.907  31.053  1.00  0.00    -0.014 A 
ATOM     71  C   UNL A   1      37.150  33.875  30.059  1.00  0.00     0.010 A 
ATOM     72  C   UNL A   1      35.605  32.524  31.351  1.00  0.00     0.010 A 
ATOM     73  C   UNL A   1      36.073  34.449  29.375  1.00  0.00     0.020 A 
ATOM     74  C   UNL A   1      34.528  33.078  30.653  1.00  0.00     0.020 A 
ATOM     75  C   UNL A   1      34.769  34.041  29.672  1.00  0.00     0.054 A 
BRANCH  75  76
ATOM     76  S   UNL A   1      33.392  34.735  28.715  1.00  0.00     0.124 S 
ATOM     77  O   UNL A   1      32.457  35.126  29.766  1.00  0.00    -0.237 OA
ATOM     78  O   UNL A   1      34.030  35.834  27.995  1.00  0.00    -0.237 OA
ATOM     79  O   UNL A   1      32.963  33.618  27.876  1.00  0.00    -0.744 OA
ENDBRANCH  75  76
ENDBRANCH  47  70
BRANCH  59  80
ATOM     80  C   UNL A   1      40.077  34.022  37.187  1.00  0.00    -0.014 A 
ATOM     81  C   UNL A   1      40.707  35.278  37.136  1.00  0.00     0.010 A 
ATOM     82  C   UNL A   1      39.187  33.744  38.242  1.00  0.00     0.010 A 
ATOM     83  C   UNL A   1      40.475  36.226  38.136  1.00  0.00     0.020 A 
ATOM     84  C   UNL A   1      38.933  34.699  39.230  1.00  0.00     0.020 A 
ATOM     85  C   UNL A   1      39.590  35.930  39.178  1.00  0.00     0.054 A 
BRANCH  85  86
ATOM     86  S   UNL A   1      39.270  37.194  40.440  1.00  0.00     0.124 S 
ATOM     87  O   UNL A   1      38.479  38.171  39.697  1.00  0.00    -0.237 OA
ATOM     88  O   UNL A   1      38.545  36.448  41.465  1.00  0.00    -0.237 OA
ATOM     89  O   UNL A   1      40.606  37.639  40.830  1.00  0.00    -0.744 OA
ENDBRANCH  85  86
ENDBRANCH  59  80
ENDBRANCH  33  34
ENDBRANCH  26  28
ENDBRANCH  25  26
ENDBRANCH  24  25
ENDBRANCH  23  24
ENDBRANCH   1  23
TORSDOF 20
ENDMDL
