MODEL 1
REMARK VINA RESULT:      -9.9      0.000      0.000
REMARK SMILES Cc1ccc(S(=O)(=O)n2cc(C(=O)C(=O)NCC(=O)N[C@H](Cc3c[nH]c4ccccc34)C(=O)OCCOCCOC(=O)c3ccc(-c4c5nc(c(-c6ccc(S(=O)(=O)[O-])cc6)c6ccc([nH]6)c(-c6ccc(S(=O)(=O)[O-])cc6)c6nc(c(-c7ccc(S(=O)(=O)[O-])cc7)c7ccc4[nH]7)C=C6)C=C5)cc3)c3ccccc32)cc1
REMARK SMILES IDX 35 1 34 2 32 3 33 4 21 5 20 6 18 7 19 8 17 10 16 11 14 12
REMARK SMILES IDX 15 13 12 15 13 16 11 17 9 18 10 19 108 20 103 21 107 22
REMARK SMILES IDX 104 23 106 24 105 25 6 26 7 27 8 28 5 29 1 30 2 31 3 32
REMARK SMILES IDX 110 33 4 34 109 35 22 36 23 37 24 38 31 39 25 40 26 41 30 42
REMARK SMILES IDX 27 44 29 45 28 46 36 47 37 48 38 49 39 50 40 51 41 52 42 53
REMARK SMILES IDX 43 54 44 55 102 56 45 57 101 58 46 59 47 60 48 61 95 62
REMARK SMILES IDX 49 63 100 64 94 65 96 66 50 67 99 68 93 69 92 70 51 72 81 73
REMARK SMILES IDX 62 74 80 75 63 76 66 77 79 78 97 79 64 80 65 81 78 83 98 84
REMARK SMILES IDX 67 85 52 86 53 87 61 88 54 89 60 90 55 91 56 92 57 93 58 94
REMARK SMILES IDX 59 95 82 96 83 97 91 98 84 99 90 100 85 101 86 102 87 103
REMARK SMILES IDX 88 104 89 105 68 106 69 107 77 108 70 109 76 110 71 111
REMARK SMILES IDX 72 112 73 113 74 114 75 115
REMARK H PARENT 20 9 16 14 25 43 96 71 66 82
REMARK Flexibility Score: inf
ROOT
ATOM      1  C   UNL A   1      39.498  30.000  30.856  1.00  0.00     0.261 C 
ENDROOT
BRANCH   1   2
ATOM      2  O   UNL A   1      38.617  30.380  31.911  1.00  0.00    -0.462 OA
BRANCH   2   3
ATOM      3  C   UNL A   1      37.406  29.866  31.740  1.00  0.00     0.329 C 
ATOM      4  O   UNL A   1      37.025  28.926  32.415  1.00  0.00    -0.250 OA
BRANCH   3   5
ATOM      5  C   UNL A   1      36.490  30.508  30.739  1.00  0.00     0.196 C 
BRANCH   5   6
ATOM      6  N   UNL A   1      36.605  29.667  29.532  1.00  0.00    -0.341 N 
ATOM      7  C   UNL A   1      35.968  29.764  28.315  1.00  0.00     0.240 C 
ATOM      8  O   UNL A   1      36.254  28.868  27.505  1.00  0.00    -0.273 OA
ATOM      9  H   UNL A   1      37.237  28.917  29.610  1.00  0.00     0.164 HD
BRANCH   7  10
ATOM     10  C   UNL A   1      35.026  30.962  27.846  1.00  0.00     0.216 C 
BRANCH  10  11
ATOM     11  N   UNL A   1      33.537  30.980  27.870  1.00  0.00    -0.340 N 
ATOM     12  C   UNL A   1      32.591  30.425  27.002  1.00  0.00     0.292 C 
ATOM     13  O   UNL A   1      31.402  30.721  27.027  1.00  0.00    -0.265 OA
ATOM     14  H   UNL A   1      33.150  31.470  28.632  1.00  0.00     0.164 HD
BRANCH  12  15
ATOM     15  C   UNL A   1      33.021  29.387  25.995  1.00  0.00     0.252 C 
ATOM     16  O   UNL A   1      33.646  29.868  25.044  1.00  0.00    -0.283 OA
BRANCH  15  17
ATOM     17  C   UNL A   1      32.664  27.942  25.991  1.00  0.00     0.054 A 
ATOM     18  N   UNL A   1      32.235  25.716  26.298  1.00  0.00    -0.240 N 
ATOM     19  C   UNL A   1      33.189  26.738  26.501  1.00  0.00     0.117 A 
ATOM     20  C   UNL A   1      31.085  26.355  25.771  1.00  0.00     0.065 A 
ATOM     21  C   UNL A   1      31.566  27.519  25.195  1.00  0.00     0.012 A 
ATOM     22  C   UNL A   1      29.826  25.836  25.400  1.00  0.00     0.028 A 
ATOM     23  C   UNL A   1      30.903  28.058  24.077  1.00  0.00     0.011 A 
ATOM     24  C   UNL A   1      29.247  26.326  24.226  1.00  0.00     0.002 A 
ATOM     25  C   UNL A   1      29.802  27.399  23.547  1.00  0.00     0.001 A 
BRANCH  18  26
ATOM     26  S   UNL A   1      32.408  24.162  25.506  1.00  0.00     0.268 S 
ATOM     27  O   UNL A   1      32.349  24.551  24.101  1.00  0.00    -0.201 OA
ATOM     28  O   UNL A   1      31.300  23.433  26.121  1.00  0.00    -0.201 OA
BRANCH  26  29
ATOM     29  C   UNL A   1      33.571  22.846  25.474  1.00  0.00     0.088 A 
ATOM     30  C   UNL A   1      37.314  20.707  24.989  1.00  0.00     0.044 C 
ATOM     31  C   UNL A   1      35.993  21.387  25.207  1.00  0.00    -0.051 A 
ATOM     32  C   UNL A   1      36.038  22.698  25.647  1.00  0.00     0.005 A 
ATOM     33  C   UNL A   1      34.731  20.802  24.943  1.00  0.00     0.005 A 
ATOM     34  C   UNL A   1      34.853  23.392  25.788  1.00  0.00     0.022 A 
ATOM     35  C   UNL A   1      33.506  21.529  25.063  1.00  0.00     0.022 A 
ENDBRANCH  26  29
ENDBRANCH  18  26
ENDBRANCH  15  17
ENDBRANCH  12  15
ENDBRANCH  10  11
ENDBRANCH   7  10
ENDBRANCH   5   6
BRANCH   5  36
ATOM     36  C   UNL A   1      36.636  32.043  30.534  1.00  0.00     0.074 C 
BRANCH  36  37
ATOM     37  C   UNL A   1      35.538  32.992  30.956  1.00  0.00    -0.020 A 
ATOM     38  C   UNL A   1      34.869  33.001  32.165  1.00  0.00     0.087 A 
ATOM     39  C   UNL A   1      34.929  34.049  30.151  1.00  0.00     0.003 A 
ATOM     40  N   UNL A   1      33.877  33.940  32.091  1.00  0.00    -0.361 N 
ATOM     41  C   UNL A   1      33.965  34.670  30.939  1.00  0.00     0.046 A 
ATOM     42  C   UNL A   1      35.049  34.520  28.822  1.00  0.00     0.010 A 
ATOM     43  H   UNL A   1      33.188  34.073  32.781  1.00  0.00     0.166 HD
ATOM     44  C   UNL A   1      33.168  35.746  30.525  1.00  0.00     0.026 A 
ATOM     45  C   UNL A   1      34.200  35.547  28.357  1.00  0.00     0.001 A 
ATOM     46  C   UNL A   1      33.284  36.163  29.204  1.00  0.00     0.002 A 
ENDBRANCH  36  37
ENDBRANCH   5  36
ENDBRANCH   3   5
ENDBRANCH   2   3
ENDBRANCH   1   2
BRANCH   1  47
ATOM     47  C   UNL A   1      40.476  28.931  31.312  1.00  0.00     0.202 C 
BRANCH  47  48
ATOM     48  O   UNL A   1      41.232  29.219  32.470  1.00  0.00    -0.374 OA
BRANCH  48  49
ATOM     49  C   UNL A   1      42.640  28.978  32.365  1.00  0.00     0.202 C 
BRANCH  49  50
ATOM     50  C   UNL A   1      43.392  29.063  30.981  1.00  0.00     0.261 C 
BRANCH  50  51
ATOM     51  O   UNL A   1      44.732  29.630  31.073  1.00  0.00    -0.460 OA
BRANCH  51  52
ATOM     52  C   UNL A   1      45.888  28.968  30.705  1.00  0.00     0.338 C 
ATOM     53  O   UNL A   1      46.188  28.579  29.615  1.00  0.00    -0.246 OA
BRANCH  52  54
ATOM     54  C   UNL A   1      46.731  28.837  31.965  1.00  0.00     0.060 A 
ATOM     55  C   UNL A   1      47.489  27.707  32.279  1.00  0.00     0.016 A 
ATOM     56  C   UNL A   1      46.409  29.671  33.005  1.00  0.00     0.016 A 
ATOM     57  C   UNL A   1      47.452  27.181  33.584  1.00  0.00     0.010 A 
ATOM     58  C   UNL A   1      46.258  29.096  34.252  1.00  0.00     0.010 A 
ATOM     59  C   UNL A   1      46.604  27.768  34.507  1.00  0.00    -0.014 A 
BRANCH  59  60
ATOM     60  C   UNL A   1      45.936  27.036  35.620  1.00  0.00     0.031 A 
ATOM     61  C   UNL A   1      46.477  27.297  36.977  1.00  0.00     0.074 A 
ATOM     62  C   UNL A   1      44.857  26.239  35.387  1.00  0.00     0.049 A 
ATOM     63  N   UNL A   1      47.171  26.469  37.694  1.00  0.00    -0.248 NA
ATOM     64  C   UNL A   1      46.503  28.661  37.526  1.00  0.00     0.031 C 
ATOM     65  C   UNL A   1      44.012  25.504  36.330  1.00  0.00     0.029 A 
ATOM     66  N   UNL A   1      44.316  25.874  34.142  1.00  0.00    -0.354 N 
ATOM     67  C   UNL A   1      47.386  27.158  38.882  1.00  0.00     0.074 A 
ATOM     68  C   UNL A   1      47.400  28.536  38.499  1.00  0.00     0.031 C 
ATOM     69  C   UNL A   1      43.232  24.627  35.660  1.00  0.00     0.029 A 
ATOM     70  C   UNL A   1      43.617  24.659  34.252  1.00  0.00     0.049 A 
ATOM     71  H   UNL A   1      44.414  26.395  33.312  1.00  0.00     0.167 HD
ATOM     72  C   UNL A   1      46.950  26.668  40.087  1.00  0.00     0.031 A 
ATOM     73  C   UNL A   1      44.121  23.570  33.593  1.00  0.00     0.031 A 
ATOM     74  C   UNL A   1      46.247  25.394  39.880  1.00  0.00     0.049 A 
ATOM     75  C   UNL A   1      44.977  22.769  34.575  1.00  0.00     0.074 A 
ATOM     76  C   UNL A   1      44.927  24.990  40.008  1.00  0.00     0.029 A 
ATOM     77  N   UNL A   1      46.867  24.413  39.112  1.00  0.00    -0.354 N 
ATOM     78  N   UNL A   1      45.454  23.258  35.696  1.00  0.00    -0.248 NA
ATOM     79  C   UNL A   1      45.229  21.337  34.457  1.00  0.00     0.031 C 
ATOM     80  C   UNL A   1      44.748  23.820  39.196  1.00  0.00     0.029 A 
ATOM     81  C   UNL A   1      45.957  23.516  38.583  1.00  0.00     0.049 A 
ATOM     82  H   UNL A   1      47.838  24.363  38.963  1.00  0.00     0.167 HD
ATOM     83  C   UNL A   1      45.965  22.262  36.468  1.00  0.00     0.074 A 
ATOM     84  C   UNL A   1      45.834  21.077  35.631  1.00  0.00     0.031 C 
ATOM     85  C   UNL A   1      46.452  22.431  37.735  1.00  0.00     0.031 A 
BRANCH  72  86
ATOM     86  C   UNL A   1      46.880  27.506  41.373  1.00  0.00    -0.014 A 
ATOM     87  C   UNL A   1      48.048  28.060  41.931  1.00  0.00     0.010 A 
ATOM     88  C   UNL A   1      45.686  27.842  42.057  1.00  0.00     0.010 A 
ATOM     89  C   UNL A   1      48.020  28.877  43.086  1.00  0.00     0.020 A 
ATOM     90  C   UNL A   1      45.641  28.610  43.231  1.00  0.00     0.020 A 
ATOM     91  C   UNL A   1      46.813  29.148  43.729  1.00  0.00     0.054 A 
BRANCH  91  92
ATOM     92  S   UNL A   1      46.764  30.271  45.152  1.00  0.00     0.124 S 
ATOM     93  O   UNL A   1      48.179  30.547  45.389  1.00  0.00    -0.237 OA
ATOM     94  O   UNL A   1      45.978  31.390  44.639  1.00  0.00    -0.237 OA
ATOM     95  O   UNL A   1      46.107  29.486  46.197  1.00  0.00    -0.744 OA
ENDBRANCH  91  92
ENDBRANCH  72  86
BRANCH  73  96
ATOM     96  C   UNL A   1      44.357  23.832  32.126  1.00  0.00    -0.014 A 
ATOM     97  C   UNL A   1      43.799  22.954  31.168  1.00  0.00     0.010 A 
ATOM     98  C   UNL A   1      44.697  25.116  31.679  1.00  0.00     0.010 A 
ATOM     99  C   UNL A   1      43.438  23.398  29.878  1.00  0.00     0.020 A 
ATOM    100  C   UNL A   1      44.262  25.581  30.426  1.00  0.00     0.020 A 
ATOM    101  C   UNL A   1      43.557  24.747  29.572  1.00  0.00     0.054 A 
BRANCH 101 102
ATOM    102  S   UNL A   1      42.618  25.483  28.195  1.00  0.00     0.124 S 
ATOM    103  O   UNL A   1      41.784  24.374  27.738  1.00  0.00    -0.237 OA
ATOM    104  O   UNL A   1      41.899  26.537  28.903  1.00  0.00    -0.237 OA
ATOM    105  O   UNL A   1      43.656  25.915  27.270  1.00  0.00    -0.744 OA
ENDBRANCH 101 102
ENDBRANCH  73  96
BRANCH  85 106
ATOM    106  C   UNL A   1      47.525  21.529  38.291  1.00  0.00    -0.014 A 
ATOM    107  C   UNL A   1      47.226  20.355  39.001  1.00  0.00     0.010 A 
ATOM    108  C   UNL A   1      48.878  21.742  37.935  1.00  0.00     0.010 A 
ATOM    109  C   UNL A   1      48.235  19.501  39.442  1.00  0.00     0.020 A 
ATOM    110  C   UNL A   1      49.883  20.848  38.295  1.00  0.00     0.020 A 
ATOM    111  C   UNL A   1      49.559  19.760  39.094  1.00  0.00     0.054 A 
BRANCH 111 112
ATOM    112  S   UNL A   1      50.846  18.656  39.701  1.00  0.00     0.124 S 
ATOM    113  O   UNL A   1      50.059  17.658  40.420  1.00  0.00    -0.237 OA
ATOM    114  O   UNL A   1      51.477  18.187  38.469  1.00  0.00    -0.237 OA
ATOM    115  O   UNL A   1      51.680  19.518  40.533  1.00  0.00    -0.744 OA
ENDBRANCH 111 112
ENDBRANCH  85 106
ENDBRANCH  59  60
ENDBRANCH  52  54
ENDBRANCH  51  52
ENDBRANCH  50  51
ENDBRANCH  49  50
ENDBRANCH  48  49
ENDBRANCH  47  48
ENDBRANCH   1  47
TORSDOF 26
ENDMDL
MODEL 2
REMARK VINA RESULT:      -9.7      6.876     17.714
REMARK SMILES Cc1ccc(S(=O)(=O)n2cc(C(=O)C(=O)NCC(=O)N[C@H](Cc3c[nH]c4ccccc34)C(=O)OCCOCCOC(=O)c3ccc(-c4c5nc(c(-c6ccc(S(=O)(=O)[O-])cc6)c6ccc([nH]6)c(-c6ccc(S(=O)(=O)[O-])cc6)c6nc(c(-c7ccc(S(=O)(=O)[O-])cc7)c7ccc4[nH]7)C=C6)C=C5)cc3)c3ccccc32)cc1
REMARK SMILES IDX 35 1 34 2 32 3 33 4 21 5 20 6 18 7 19 8 17 10 16 11 14 12
REMARK SMILES IDX 15 13 12 15 13 16 11 17 9 18 10 19 108 20 103 21 107 22
REMARK SMILES IDX 104 23 106 24 105 25 6 26 7 27 8 28 5 29 1 30 2 31 3 32
REMARK SMILES IDX 110 33 4 34 109 35 22 36 23 37 24 38 31 39 25 40 26 41 30 42
REMARK SMILES IDX 27 44 29 45 28 46 36 47 37 48 38 49 39 50 40 51 41 52 42 53
REMARK SMILES IDX 43 54 44 55 102 56 45 57 101 58 46 59 47 60 48 61 95 62
REMARK SMILES IDX 49 63 100 64 94 65 96 66 50 67 99 68 93 69 92 70 51 72 81 73
REMARK SMILES IDX 62 74 80 75 63 76 66 77 79 78 97 79 64 80 65 81 78 83 98 84
REMARK SMILES IDX 67 85 52 86 53 87 61 88 54 89 60 90 55 91 56 92 57 93 58 94
REMARK SMILES IDX 59 95 82 96 83 97 91 98 84 99 90 100 85 101 86 102 87 103
REMARK SMILES IDX 88 104 89 105 68 106 69 107 77 108 70 109 76 110 71 111
REMARK SMILES IDX 72 112 73 113 74 114 75 115
REMARK H PARENT 20 9 16 14 25 43 96 71 66 82
REMARK Flexibility Score: inf
ROOT
ATOM      1  C   UNL A   1      45.821  18.186  40.680  1.00  0.00     0.261 C 
ENDROOT
BRANCH   1   2
ATOM      2  O   UNL A   1      45.465  16.983  41.359  1.00  0.00    -0.462 OA
BRANCH   2   3
ATOM      3  C   UNL A   1      44.158  16.920  41.581  1.00  0.00     0.329 C 
ATOM      4  O   UNL A   1      43.376  16.763  40.661  1.00  0.00    -0.250 OA
BRANCH   3   5
ATOM      5  C   UNL A   1      43.669  16.985  42.999  1.00  0.00     0.196 C 
BRANCH   5   6
ATOM      6  N   UNL A   1      43.440  18.421  43.251  1.00  0.00    -0.341 N 
ATOM      7  C   UNL A   1      44.279  19.376  43.779  1.00  0.00     0.240 C 
ATOM      8  O   UNL A   1      43.772  20.503  43.902  1.00  0.00    -0.273 OA
ATOM      9  H   UNL A   1      42.545  18.747  43.001  1.00  0.00     0.164 HD
BRANCH   7  10
ATOM     10  C   UNL A   1      45.825  19.181  44.114  1.00  0.00     0.216 C 
BRANCH  10  11
ATOM     11  N   UNL A   1      46.589  19.857  45.199  1.00  0.00    -0.340 N 
ATOM     12  C   UNL A   1      47.871  19.627  45.710  1.00  0.00     0.292 C 
ATOM     13  O   UNL A   1      48.273  20.117  46.759  1.00  0.00    -0.265 OA
ATOM     14  H   UNL A   1      46.107  20.597  45.634  1.00  0.00     0.164 HD
BRANCH  12  15
ATOM     15  C   UNL A   1      48.836  18.762  44.938  1.00  0.00     0.252 C 
ATOM     16  O   UNL A   1      48.568  17.558  45.009  1.00  0.00    -0.283 OA
BRANCH  15  17
ATOM     17  C   UNL A   1      50.081  19.203  44.251  1.00  0.00     0.054 A 
ATOM     18  N   UNL A   1      52.149  19.808  43.483  1.00  0.00    -0.240 N 
ATOM     19  C   UNL A   1      51.264  19.894  44.581  1.00  0.00     0.117 A 
ATOM     20  C   UNL A   1      51.523  18.952  42.543  1.00  0.00     0.065 A 
ATOM     21  C   UNL A   1      50.174  19.032  42.844  1.00  0.00     0.012 A 
ATOM     22  C   UNL A   1      51.953  18.494  41.279  1.00  0.00     0.028 A 
ATOM     23  C   UNL A   1      49.229  18.873  41.813  1.00  0.00     0.011 A 
ATOM     24  C   UNL A   1      51.005  18.448  40.253  1.00  0.00     0.002 A 
ATOM     25  C   UNL A   1      49.662  18.677  40.509  1.00  0.00     0.001 A 
BRANCH  18  26
ATOM     26  S   UNL A   1      52.968  21.083  42.601  1.00  0.00     0.268 S 
ATOM     27  O   UNL A   1      54.254  20.455  42.322  1.00  0.00    -0.201 OA
ATOM     28  O   UNL A   1      52.869  22.172  43.571  1.00  0.00    -0.201 OA
BRANCH  26  29
ATOM     29  C   UNL A   1      52.700  22.032  41.148  1.00  0.00     0.088 A 
ATOM     30  C   UNL A   1      52.877  25.313  38.315  1.00  0.00     0.044 C 
ATOM     31  C   UNL A   1      52.798  24.127  39.233  1.00  0.00    -0.051 A 
ATOM     32  C   UNL A   1      53.899  23.895  40.038  1.00  0.00     0.005 A 
ATOM     33  C   UNL A   1      51.670  23.281  39.364  1.00  0.00     0.005 A 
ATOM     34  C   UNL A   1      53.846  22.863  40.955  1.00  0.00     0.022 A 
ATOM     35  C   UNL A   1      51.604  22.231  40.331  1.00  0.00     0.022 A 
ENDBRANCH  26  29
ENDBRANCH  18  26
ENDBRANCH  15  17
ENDBRANCH  12  15
ENDBRANCH  10  11
ENDBRANCH   7  10
ENDBRANCH   5   6
BRANCH   5  36
ATOM     36  C   UNL A   1      44.497  16.214  44.065  1.00  0.00     0.074 C 
BRANCH  36  37
ATOM     37  C   UNL A   1      44.401  14.710  44.188  1.00  0.00    -0.020 A 
ATOM     38  C   UNL A   1      45.402  13.846  44.590  1.00  0.00     0.087 A 
ATOM     39  C   UNL A   1      43.254  13.870  43.852  1.00  0.00     0.003 A 
ATOM     40  N   UNL A   1      44.936  12.568  44.448  1.00  0.00    -0.361 N 
ATOM     41  C   UNL A   1      43.609  12.553  44.122  1.00  0.00     0.046 A 
ATOM     42  C   UNL A   1      41.967  14.070  43.300  1.00  0.00     0.010 A 
ATOM     43  H   UNL A   1      45.488  11.761  44.566  1.00  0.00     0.166 HD
ATOM     44  C   UNL A   1      42.768  11.446  43.941  1.00  0.00     0.026 A 
ATOM     45  C   UNL A   1      41.134  12.963  43.030  1.00  0.00     0.001 A 
ATOM     46  C   UNL A   1      41.524  11.670  43.364  1.00  0.00     0.002 A 
ENDBRANCH  36  37
ENDBRANCH   5  36
ENDBRANCH   3   5
ENDBRANCH   2   3
ENDBRANCH   1   2
BRANCH   1  47
ATOM     47  C   UNL A   1      46.179  17.915  39.229  1.00  0.00     0.202 C 
BRANCH  47  48
ATOM     48  O   UNL A   1      45.363  18.530  38.252  1.00  0.00    -0.374 OA
BRANCH  48  49
ATOM     49  C   UNL A   1      46.061  19.140  37.159  1.00  0.00     0.202 C 
BRANCH  49  50
ATOM     50  C   UNL A   1      46.250  20.703  37.071  1.00  0.00     0.261 C 
BRANCH  50  51
ATOM     51  O   UNL A   1      45.321  21.357  36.156  1.00  0.00    -0.460 OA
BRANCH  51  52
ATOM     52  C   UNL A   1      45.564  21.565  34.811  1.00  0.00     0.338 C 
ATOM     53  O   UNL A   1      46.442  21.094  34.150  1.00  0.00    -0.246 OA
BRANCH  52  54
ATOM     54  C   UNL A   1      44.479  22.509  34.316  1.00  0.00     0.060 A 
ATOM     55  C   UNL A   1      44.540  23.196  33.102  1.00  0.00     0.016 A 
ATOM     56  C   UNL A   1      43.626  23.012  35.266  1.00  0.00     0.016 A 
ATOM     57  C   UNL A   1      44.200  24.561  33.054  1.00  0.00     0.010 A 
ATOM     58  C   UNL A   1      43.414  24.376  35.264  1.00  0.00     0.010 A 
ATOM     59  C   UNL A   1      43.874  25.201  34.237  1.00  0.00    -0.014 A 
BRANCH  59  60
ATOM     60  C   UNL A   1      44.138  26.641  34.514  1.00  0.00     0.031 A 
ATOM     61  C   UNL A   1      43.146  27.595  33.960  1.00  0.00     0.074 A 
ATOM     62  C   UNL A   1      45.192  27.024  35.288  1.00  0.00     0.049 A 
ATOM     63  N   UNL A   1      43.339  28.404  32.965  1.00  0.00    -0.248 NA
ATOM     64  C   UNL A   1      41.726  27.503  34.331  1.00  0.00     0.031 C 
ATOM     65  C   UNL A   1      45.582  28.360  35.747  1.00  0.00     0.029 A 
ATOM     66  N   UNL A   1      46.219  26.213  35.797  1.00  0.00    -0.354 N 
ATOM     67  C   UNL A   1      42.144  29.109  32.874  1.00  0.00     0.074 A 
ATOM     68  C   UNL A   1      41.152  28.196  33.353  1.00  0.00     0.031 C 
ATOM     69  C   UNL A   1      46.833  28.321  36.256  1.00  0.00     0.029 A 
ATOM     70  C   UNL A   1      47.371  26.981  36.043  1.00  0.00     0.049 A 
ATOM     71  H   UNL A   1      46.143  25.244  35.958  1.00  0.00     0.167 HD
ATOM     72  C   UNL A   1      42.102  30.474  33.005  1.00  0.00     0.031 A 
ATOM     73  C   UNL A   1      48.478  26.737  35.275  1.00  0.00     0.031 A 
ATOM     74  C   UNL A   1      43.454  30.990  33.265  1.00  0.00     0.049 A 
ATOM     75  C   UNL A   1      48.483  27.729  34.111  1.00  0.00     0.074 A 
ATOM     76  C   UNL A   1      44.063  31.583  34.359  1.00  0.00     0.029 A 
ATOM     77  N   UNL A   1      44.491  30.577  32.435  1.00  0.00    -0.354 N 
ATOM     78  N   UNL A   1      47.424  28.395  33.715  1.00  0.00    -0.248 NA
ATOM     79  C   UNL A   1      49.689  28.162  33.414  1.00  0.00     0.031 C 
ATOM     80  C   UNL A   1      45.480  31.401  34.221  1.00  0.00     0.029 A 
ATOM     81  C   UNL A   1      45.725  30.702  33.045  1.00  0.00     0.049 A 
ATOM     82  H   UNL A   1      44.361  30.236  31.520  1.00  0.00     0.167 HD
ATOM     83  C   UNL A   1      47.778  29.366  32.831  1.00  0.00     0.074 A 
ATOM     84  C   UNL A   1      49.208  29.156  32.646  1.00  0.00     0.031 C 
ATOM     85  C   UNL A   1      46.920  30.292  32.306  1.00  0.00     0.031 A 
BRANCH  72  86
ATOM     86  C   UNL A   1      40.805  31.270  33.220  1.00  0.00    -0.014 A 
ATOM     87  C   UNL A   1      39.988  31.617  32.128  1.00  0.00     0.010 A 
ATOM     88  C   UNL A   1      40.296  31.660  34.483  1.00  0.00     0.010 A 
ATOM     89  C   UNL A   1      38.763  32.307  32.290  1.00  0.00     0.020 A 
ATOM     90  C   UNL A   1      39.108  32.387  34.662  1.00  0.00     0.020 A 
ATOM     91  C   UNL A   1      38.330  32.687  33.559  1.00  0.00     0.054 A 
BRANCH  91  92
ATOM     92  S   UNL A   1      36.716  33.486  33.777  1.00  0.00     0.124 S 
ATOM     93  O   UNL A   1      35.921  32.893  32.706  1.00  0.00    -0.237 OA
ATOM     94  O   UNL A   1      36.352  33.087  35.133  1.00  0.00    -0.237 OA
ATOM     95  O   UNL A   1      37.005  34.911  33.612  1.00  0.00    -0.744 OA
ENDBRANCH  91  92
ENDBRANCH  72  86
BRANCH  73  96
ATOM     96  C   UNL A   1      48.885  25.284  35.283  1.00  0.00    -0.014 A 
ATOM     97  C   UNL A   1      48.482  24.448  34.216  1.00  0.00     0.010 A 
ATOM     98  C   UNL A   1      49.991  24.859  36.030  1.00  0.00     0.010 A 
ATOM     99  C   UNL A   1      49.255  23.339  33.811  1.00  0.00     0.020 A 
ATOM    100  C   UNL A   1      50.806  23.807  35.578  1.00  0.00     0.020 A 
ATOM    101  C   UNL A   1      50.481  23.112  34.423  1.00  0.00     0.054 A 
BRANCH 101 102
ATOM    102  S   UNL A   1      51.760  22.097  33.614  1.00  0.00     0.124 S 
ATOM    103  O   UNL A   1      52.495  23.073  32.814  1.00  0.00    -0.237 OA
ATOM    104  O   UNL A   1      52.477  21.600  34.783  1.00  0.00    -0.237 OA
ATOM    105  O   UNL A   1      50.987  21.118  32.861  1.00  0.00    -0.744 OA
ENDBRANCH 101 102
ENDBRANCH  73  96
BRANCH  85 106
ATOM    106  C   UNL A   1      47.157  30.902  30.946  1.00  0.00    -0.014 A 
ATOM    107  C   UNL A   1      47.019  30.166  29.759  1.00  0.00     0.010 A 
ATOM    108  C   UNL A   1      47.333  32.300  30.823  1.00  0.00     0.010 A 
ATOM    109  C   UNL A   1      47.174  30.770  28.513  1.00  0.00     0.020 A 
ATOM    110  C   UNL A   1      47.400  32.927  29.582  1.00  0.00     0.020 A 
ATOM    111  C   UNL A   1      47.374  32.146  28.434  1.00  0.00     0.054 A 
BRANCH 111 112
ATOM    112  S   UNL A   1      47.598  32.898  26.813  1.00  0.00     0.124 S 
ATOM    113  O   UNL A   1      48.946  32.455  26.470  1.00  0.00    -0.237 OA
ATOM    114  O   UNL A   1      46.522  32.298  26.026  1.00  0.00    -0.237 OA
ATOM    115  O   UNL A   1      47.452  34.328  27.069  1.00  0.00    -0.744 OA
ENDBRANCH 111 112
ENDBRANCH  85 106
ENDBRANCH  59  60
ENDBRANCH  52  54
ENDBRANCH  51  52
ENDBRANCH  50  51
ENDBRANCH  49  50
ENDBRANCH  48  49
ENDBRANCH  47  48
ENDBRANCH   1  47
TORSDOF 26
ENDMDL
MODEL 3
REMARK VINA RESULT:      -9.5      6.958     12.314
REMARK SMILES Cc1ccc(S(=O)(=O)n2cc(C(=O)C(=O)NCC(=O)N[C@H](Cc3c[nH]c4ccccc34)C(=O)OCCOCCOC(=O)c3ccc(-c4c5nc(c(-c6ccc(S(=O)(=O)[O-])cc6)c6ccc([nH]6)c(-c6ccc(S(=O)(=O)[O-])cc6)c6nc(c(-c7ccc(S(=O)(=O)[O-])cc7)c7ccc4[nH]7)C=C6)C=C5)cc3)c3ccccc32)cc1
REMARK SMILES IDX 35 1 34 2 32 3 33 4 21 5 20 6 18 7 19 8 17 10 16 11 14 12
REMARK SMILES IDX 15 13 12 15 13 16 11 17 9 18 10 19 108 20 103 21 107 22
REMARK SMILES IDX 104 23 106 24 105 25 6 26 7 27 8 28 5 29 1 30 2 31 3 32
REMARK SMILES IDX 110 33 4 34 109 35 22 36 23 37 24 38 31 39 25 40 26 41 30 42
REMARK SMILES IDX 27 44 29 45 28 46 36 47 37 48 38 49 39 50 40 51 41 52 42 53
REMARK SMILES IDX 43 54 44 55 102 56 45 57 101 58 46 59 47 60 48 61 95 62
REMARK SMILES IDX 49 63 100 64 94 65 96 66 50 67 99 68 93 69 92 70 51 72 81 73
REMARK SMILES IDX 62 74 80 75 63 76 66 77 79 78 97 79 64 80 65 81 78 83 98 84
REMARK SMILES IDX 67 85 52 86 53 87 61 88 54 89 60 90 55 91 56 92 57 93 58 94
REMARK SMILES IDX 59 95 82 96 83 97 91 98 84 99 90 100 85 101 86 102 87 103
REMARK SMILES IDX 88 104 89 105 68 106 69 107 77 108 70 109 76 110 71 111
REMARK SMILES IDX 72 112 73 113 74 114 75 115
REMARK H PARENT 20 9 16 14 25 43 96 71 66 82
REMARK Flexibility Score: inf
ROOT
ATOM      1  C   UNL A   1      45.852  23.350  27.448  1.00  0.00     0.261 C 
ENDROOT
BRANCH   1   2
ATOM      2  O   UNL A   1      44.999  24.239  28.166  1.00  0.00    -0.462 OA
BRANCH   2   3
ATOM      3  C   UNL A   1      43.720  23.997  27.909  1.00  0.00     0.329 C 
ATOM      4  O   UNL A   1      43.096  23.180  28.563  1.00  0.00    -0.250 OA
BRANCH   3   5
ATOM      5  C   UNL A   1      43.041  24.797  26.836  1.00  0.00     0.196 C 
BRANCH   5   6
ATOM      6  N   UNL A   1      42.004  25.572  27.544  1.00  0.00    -0.341 N 
ATOM      7  C   UNL A   1      42.124  26.644  28.401  1.00  0.00     0.240 C 
ATOM      8  O   UNL A   1      41.052  27.056  28.872  1.00  0.00    -0.273 OA
ATOM      9  H   UNL A   1      41.080  25.276  27.378  1.00  0.00     0.164 HD
BRANCH   7  10
ATOM     10  C   UNL A   1      43.468  27.438  28.721  1.00  0.00     0.216 C 
BRANCH  10  11
ATOM     11  N   UNL A   1      44.741  26.858  29.234  1.00  0.00    -0.340 N 
ATOM     12  C   UNL A   1      45.966  27.452  29.554  1.00  0.00     0.292 C 
ATOM     13  O   UNL A   1      46.993  26.812  29.744  1.00  0.00    -0.265 OA
ATOM     14  H   UNL A   1      44.715  25.883  29.371  1.00  0.00     0.164 HD
BRANCH  12  15
ATOM     15  C   UNL A   1      46.050  28.951  29.706  1.00  0.00     0.252 C 
ATOM     16  O   UNL A   1      46.619  29.298  30.747  1.00  0.00    -0.283 OA
BRANCH  15  17
ATOM     17  C   UNL A   1      45.427  29.976  28.826  1.00  0.00     0.054 A 
ATOM     18  N   UNL A   1      44.357  31.293  27.292  1.00  0.00    -0.240 N 
ATOM     19  C   UNL A   1      45.184  30.159  27.450  1.00  0.00     0.117 A 
ATOM     20  C   UNL A   1      44.012  31.711  28.601  1.00  0.00     0.065 A 
ATOM     21  C   UNL A   1      45.022  31.209  29.404  1.00  0.00     0.012 A 
ATOM     22  C   UNL A   1      43.195  32.771  29.050  1.00  0.00     0.028 A 
ATOM     23  C   UNL A   1      45.382  31.906  30.573  1.00  0.00     0.011 A 
ATOM     24  C   UNL A   1      43.639  33.505  30.153  1.00  0.00     0.002 A 
ATOM     25  C   UNL A   1      44.746  33.101  30.883  1.00  0.00     0.001 A 
BRANCH  18  26
ATOM     26  S   UNL A   1      44.594  32.725  26.307  1.00  0.00     0.268 S 
ATOM     27  O   UNL A   1      43.775  32.407  25.143  1.00  0.00    -0.201 OA
ATOM     28  O   UNL A   1      46.052  32.732  26.209  1.00  0.00    -0.201 OA
BRANCH  26  29
ATOM     29  C   UNL A   1      44.356  34.458  26.462  1.00  0.00     0.088 A 
ATOM     30  C   UNL A   1      44.572  38.490  28.048  1.00  0.00     0.044 C 
ATOM     31  C   UNL A   1      44.483  37.127  27.425  1.00  0.00    -0.051 A 
ATOM     32  C   UNL A   1      45.562  36.284  27.624  1.00  0.00     0.005 A 
ATOM     33  C   UNL A   1      43.363  36.639  26.707  1.00  0.00     0.005 A 
ATOM     34  C   UNL A   1      45.495  34.993  27.137  1.00  0.00     0.022 A 
ATOM     35  C   UNL A   1      43.283  35.296  26.227  1.00  0.00     0.022 A 
ENDBRANCH  26  29
ENDBRANCH  18  26
ENDBRANCH  15  17
ENDBRANCH  12  15
ENDBRANCH  10  11
ENDBRANCH   7  10
ENDBRANCH   5   6
BRANCH   5  36
ATOM     36  C   UNL A   1      42.586  24.025  25.564  1.00  0.00     0.074 C 
BRANCH  36  37
ATOM     37  C   UNL A   1      43.393  22.865  25.028  1.00  0.00    -0.020 A 
ATOM     38  C   UNL A   1      44.361  22.915  24.043  1.00  0.00     0.087 A 
ATOM     39  C   UNL A   1      43.271  21.458  25.402  1.00  0.00     0.003 A 
ATOM     40  N   UNL A   1      44.757  21.633  23.777  1.00  0.00    -0.361 N 
ATOM     41  C   UNL A   1      44.209  20.747  24.661  1.00  0.00     0.046 A 
ATOM     42  C   UNL A   1      42.434  20.695  26.251  1.00  0.00     0.010 A 
ATOM     43  H   UNL A   1      45.362  21.381  23.042  1.00  0.00     0.166 HD
ATOM     44  C   UNL A   1      44.410  19.362  24.747  1.00  0.00     0.026 A 
ATOM     45  C   UNL A   1      42.563  19.290  26.291  1.00  0.00     0.001 A 
ATOM     46  C   UNL A   1      43.550  18.635  25.562  1.00  0.00     0.002 A 
ENDBRANCH  36  37
ENDBRANCH   5  36
ENDBRANCH   3   5
ENDBRANCH   2   3
ENDBRANCH   1   2
BRANCH   1  47
ATOM     47  C   UNL A   1      46.653  24.088  26.390  1.00  0.00     0.202 C 
BRANCH  47  48
ATOM     48  O   UNL A   1      47.281  25.288  26.795  1.00  0.00    -0.374 OA
BRANCH  48  49
ATOM     49  C   UNL A   1      48.468  25.131  27.581  1.00  0.00     0.202 C 
BRANCH  49  50
ATOM     50  C   UNL A   1      49.903  25.303  26.952  1.00  0.00     0.261 C 
BRANCH  50  51
ATOM     51  O   UNL A   1      49.906  26.019  25.681  1.00  0.00    -0.460 OA
BRANCH  51  52
ATOM     52  C   UNL A   1      49.055  27.062  25.369  1.00  0.00     0.338 C 
ATOM     53  O   UNL A   1      48.072  27.020  24.689  1.00  0.00    -0.246 OA
BRANCH  52  54
ATOM     54  C   UNL A   1      49.600  28.293  26.078  1.00  0.00     0.060 A 
ATOM     55  C   UNL A   1      50.955  28.501  26.343  1.00  0.00     0.016 A 
ATOM     56  C   UNL A   1      48.707  29.005  26.837  1.00  0.00     0.016 A 
ATOM     57  C   UNL A   1      51.356  28.958  27.612  1.00  0.00     0.010 A 
ATOM     58  C   UNL A   1      49.090  29.329  28.124  1.00  0.00     0.010 A 
ATOM     59  C   UNL A   1      50.390  29.125  28.589  1.00  0.00    -0.014 A 
BRANCH  59  60
ATOM     60  C   UNL A   1      50.628  28.939  30.048  1.00  0.00     0.031 A 
ATOM     61  C   UNL A   1      50.493  27.550  30.549  1.00  0.00     0.074 A 
ATOM     62  C   UNL A   1      51.011  29.984  30.834  1.00  0.00     0.049 A 
ATOM     63  N   UNL A   1      49.532  27.097  31.293  1.00  0.00    -0.248 NA
ATOM     64  C   UNL A   1      51.323  26.468  29.999  1.00  0.00     0.031 C 
ATOM     65  C   UNL A   1      51.371  30.006  32.254  1.00  0.00     0.029 A 
ATOM     66  N   UNL A   1      51.099  31.339  30.474  1.00  0.00    -0.354 N 
ATOM     67  C   UNL A   1      49.889  25.775  31.528  1.00  0.00     0.074 A 
ATOM     68  C   UNL A   1      50.635  25.393  30.368  1.00  0.00     0.031 C 
ATOM     69  C   UNL A   1      51.419  31.283  32.694  1.00  0.00     0.029 A 
ATOM     70  C   UNL A   1      50.971  32.155  31.612  1.00  0.00     0.049 A 
ATOM     71  H   UNL A   1      51.229  31.670  29.556  1.00  0.00     0.167 HD
ATOM     72  C   UNL A   1      50.091  25.298  32.800  1.00  0.00     0.031 A 
ATOM     73  C   UNL A   1      49.860  32.949  31.708  1.00  0.00     0.031 A 
ATOM     74  C   UNL A   1      49.897  26.383  33.772  1.00  0.00     0.049 A 
ATOM     75  C   UNL A   1      48.813  32.210  32.544  1.00  0.00     0.074 A 
ATOM     76  C   UNL A   1      50.743  27.073  34.626  1.00  0.00     0.029 A 
ATOM     77  N   UNL A   1      48.743  27.155  33.682  1.00  0.00    -0.354 N 
ATOM     78  N   UNL A   1      48.836  30.917  32.766  1.00  0.00    -0.248 NA
ATOM     79  C   UNL A   1      47.766  32.876  33.313  1.00  0.00     0.031 C 
ATOM     80  C   UNL A   1      50.119  28.328  34.937  1.00  0.00     0.029 A 
ATOM     81  C   UNL A   1      48.899  28.393  34.277  1.00  0.00     0.049 A 
ATOM     82  H   UNL A   1      47.913  26.855  33.245  1.00  0.00     0.167 HD
ATOM     83  C   UNL A   1      47.931  30.585  33.726  1.00  0.00     0.074 A 
ATOM     84  C   UNL A   1      47.258  31.844  34.013  1.00  0.00     0.031 C 
ATOM     85  C   UNL A   1      47.776  29.332  34.251  1.00  0.00     0.031 A 
BRANCH  72  86
ATOM     86  C   UNL A   1      50.775  23.958  33.109  1.00  0.00    -0.014 A 
ATOM     87  C   UNL A   1      52.174  23.830  33.023  1.00  0.00     0.010 A 
ATOM     88  C   UNL A   1      50.105  22.790  33.552  1.00  0.00     0.010 A 
ATOM     89  C   UNL A   1      52.846  22.628  33.346  1.00  0.00     0.020 A 
ATOM     90  C   UNL A   1      50.747  21.574  33.831  1.00  0.00     0.020 A 
ATOM     91  C   UNL A   1      52.125  21.505  33.750  1.00  0.00     0.054 A 
BRANCH  91  92
ATOM     92  S   UNL A   1      52.990  19.992  34.255  1.00  0.00     0.124 S 
ATOM     93  O   UNL A   1      53.720  19.625  33.045  1.00  0.00    -0.237 OA
ATOM     94  O   UNL A   1      53.808  20.460  35.371  1.00  0.00    -0.237 OA
ATOM     95  O   UNL A   1      51.911  19.077  34.624  1.00  0.00    -0.744 OA
ENDBRANCH  91  92
ENDBRANCH  72  86
BRANCH  73  96
ATOM     96  C   UNL A   1      49.658  33.821  30.493  1.00  0.00    -0.014 A 
ATOM     97  C   UNL A   1      50.723  34.636  30.043  1.00  0.00     0.010 A 
ATOM     98  C   UNL A   1      48.661  33.517  29.557  1.00  0.00     0.010 A 
ATOM     99  C   UNL A   1      50.869  34.979  28.683  1.00  0.00     0.020 A 
ATOM    100  C   UNL A   1      48.849  33.786  28.191  1.00  0.00     0.020 A 
ATOM    101  C   UNL A   1      49.993  34.435  27.752  1.00  0.00     0.054 A 
BRANCH 101 102
ATOM    102  S   UNL A   1      50.431  34.357  25.985  1.00  0.00     0.124 S 
ATOM    103  O   UNL A   1      51.887  34.241  26.014  1.00  0.00    -0.237 OA
ATOM    104  O   UNL A   1      49.728  33.140  25.595  1.00  0.00    -0.237 OA
ATOM    105  O   UNL A   1      49.909  35.608  25.452  1.00  0.00    -0.744 OA
ENDBRANCH 101 102
ENDBRANCH  73  96
BRANCH  85 106
ATOM    106  C   UNL A   1      46.449  28.866  34.794  1.00  0.00    -0.014 A 
ATOM    107  C   UNL A   1      45.348  28.604  33.964  1.00  0.00     0.010 A 
ATOM    108  C   UNL A   1      46.339  28.486  36.153  1.00  0.00     0.010 A 
ATOM    109  C   UNL A   1      44.154  28.106  34.483  1.00  0.00     0.020 A 
ATOM    110  C   UNL A   1      45.181  27.904  36.663  1.00  0.00     0.020 A 
ATOM    111  C   UNL A   1      44.076  27.769  35.832  1.00  0.00     0.054 A 
BRANCH 111 112
ATOM    112  S   UNL A   1      42.514  27.153  36.483  1.00  0.00     0.124 S 
ATOM    113  O   UNL A   1      41.743  28.386  36.606  1.00  0.00    -0.237 OA
ATOM    114  O   UNL A   1      42.067  26.235  35.438  1.00  0.00    -0.237 OA
ATOM    115  O   UNL A   1      42.889  26.519  37.744  1.00  0.00    -0.744 OA
ENDBRANCH 111 112
ENDBRANCH  85 106
ENDBRANCH  59  60
ENDBRANCH  52  54
ENDBRANCH  51  52
ENDBRANCH  50  51
ENDBRANCH  49  50
ENDBRANCH  48  49
ENDBRANCH  47  48
ENDBRANCH   1  47
TORSDOF 26
ENDMDL
