MODEL 1
REMARK VINA RESULT:      -9.3      0.000      0.000
REMARK SMILES C[C@H](C(=O)OCCOCCOC(=O)c1ccc(-c2c3nc(c(-c4ccc(S(=O)(=O)[O-])cc4)c4ccc([nH]4)c(-c4ccc(S(=O)(=O)[O-])cc4)c4nc(c(-c5ccc(S(=O)(=O)[O-])cc5)c5ccc2[nH]5)C=C4)C=C3)cc1)n1ccc(C(=O)N(C)Cc2cnn(C)c2)n1
REMARK SMILES IDX 7 1 6 2 5 3 3 4 4 5 2 6 1 7 74 8 75 9 89 10 76 11 77 12
REMARK SMILES IDX 78 13 79 14 80 15 81 16 82 17 83 18 84 19 88 20 85 21 86 22
REMARK SMILES IDX 87 23 8 24 9 25 10 26 11 27 12 28 13 29 14 30 15 31 73 32
REMARK SMILES IDX 16 33 72 34 17 35 18 36 19 37 66 38 20 39 71 40 65 41 67 42
REMARK SMILES IDX 21 43 70 44 64 45 63 46 22 48 52 49 33 50 51 51 34 52 37 53
REMARK SMILES IDX 50 54 68 55 35 56 36 57 49 59 69 60 38 61 23 62 24 63 32 64
REMARK SMILES IDX 25 65 31 66 26 67 27 68 28 69 29 70 30 71 53 72 54 73 62 74
REMARK SMILES IDX 55 75 61 76 56 77 57 78 58 79 59 80 60 81 39 82 40 83 48 84
REMARK SMILES IDX 41 85 47 86 42 87 43 88 44 89 45 90 46 91
REMARK H PARENT 67 47 37 58
REMARK Flexibility Score: inf
ROOT
ATOM      1  C   UNL A   1      37.463  20.941  24.593  1.00  0.00     0.202 C 
ENDROOT
BRANCH   1   2
ATOM      2  C   UNL A   1      36.080  20.502  25.079  1.00  0.00     0.261 C 
BRANCH   2   3
ATOM      3  O   UNL A   1      35.680  21.328  26.192  1.00  0.00    -0.462 OA
BRANCH   3   4
ATOM      4  C   UNL A   1      34.350  21.466  26.410  1.00  0.00     0.330 C 
ATOM      5  O   UNL A   1      33.775  21.027  27.404  1.00  0.00    -0.250 OA
BRANCH   4   6
ATOM      6  C   UNL A   1      33.637  22.342  25.399  1.00  0.00     0.213 C 
ATOM      7  C   UNL A   1      32.313  21.665  25.017  1.00  0.00     0.046 C 
BRANCH   6   8
ATOM      8  N   UNL A   1      33.446  23.760  25.728  1.00  0.00    -0.258 N 
ATOM      9  C   UNL A   1      34.373  24.744  25.905  1.00  0.00     0.110 A 
ATOM     10  N   UNL A   1      32.177  24.248  25.694  1.00  0.00    -0.167 NA
ATOM     11  C   UNL A   1      33.671  25.914  26.050  1.00  0.00     0.056 A 
ATOM     12  C   UNL A   1      32.299  25.571  25.907  1.00  0.00     0.150 A 
BRANCH  12  13
ATOM     13  C   UNL A   1      31.197  26.557  25.902  1.00  0.00     0.274 C 
ATOM     14  O   UNL A   1      30.887  27.097  26.969  1.00  0.00    -0.267 OA
BRANCH  13  15
ATOM     15  N   UNL A   1      30.484  26.865  24.733  1.00  0.00    -0.336 N 
ATOM     16  C   UNL A   1      29.216  26.290  24.317  1.00  0.00     0.147 C 
BRANCH  15  17
ATOM     17  C   UNL A   1      31.079  27.844  23.828  1.00  0.00     0.158 C 
BRANCH  17  18
ATOM     18  C   UNL A   1      31.881  27.170  22.761  1.00  0.00     0.009 A 
ATOM     19  C   UNL A   1      33.265  26.863  22.775  1.00  0.00     0.140 A 
ATOM     20  C   UNL A   1      31.444  26.630  21.566  1.00  0.00     0.113 A 
ATOM     21  N   UNL A   1      33.662  26.209  21.683  1.00  0.00    -0.181 NA
ATOM     22  N   UNL A   1      32.532  26.048  20.982  1.00  0.00    -0.275 N 
ATOM     23  C   UNL A   1      32.568  25.269  19.768  1.00  0.00     0.173 C 
ENDBRANCH  17  18
ENDBRANCH  15  17
ENDBRANCH  13  15
ENDBRANCH  12  13
ENDBRANCH   6   8
ENDBRANCH   4   6
ENDBRANCH   3   4
ENDBRANCH   2   3
ENDBRANCH   1   2
BRANCH   1  24
ATOM     24  O   UNL A   1      38.093  21.944  25.397  1.00  0.00    -0.374 OA
BRANCH  24  25
ATOM     25  C   UNL A   1      39.291  21.570  26.075  1.00  0.00     0.202 C 
BRANCH  25  26
ATOM     26  C   UNL A   1      39.710  20.100  25.969  1.00  0.00     0.261 C 
BRANCH  26  27
ATOM     27  O   UNL A   1      41.026  19.932  25.422  1.00  0.00    -0.460 OA
BRANCH  27  28
ATOM     28  C   UNL A   1      41.993  19.750  26.352  1.00  0.00     0.338 C 
ATOM     29  O   UNL A   1      42.287  18.702  26.913  1.00  0.00    -0.246 OA
BRANCH  28  30
ATOM     30  C   UNL A   1      42.793  20.978  26.504  1.00  0.00     0.060 A 
ATOM     31  C   UNL A   1      42.909  21.514  27.793  1.00  0.00     0.016 A 
ATOM     32  C   UNL A   1      43.356  21.635  25.408  1.00  0.00     0.016 A 
ATOM     33  C   UNL A   1      43.545  22.738  27.983  1.00  0.00     0.010 A 
ATOM     34  C   UNL A   1      43.988  22.868  25.601  1.00  0.00     0.010 A 
ATOM     35  C   UNL A   1      44.053  23.442  26.883  1.00  0.00    -0.014 A 
BRANCH  35  36
ATOM     36  C   UNL A   1      44.525  24.834  27.067  1.00  0.00     0.031 A 
ATOM     37  C   UNL A   1      43.535  25.897  27.463  1.00  0.00     0.074 A 
ATOM     38  C   UNL A   1      45.827  25.143  26.923  1.00  0.00     0.049 A 
ATOM     39  N   UNL A   1      43.730  27.172  27.675  1.00  0.00    -0.248 NA
ATOM     40  C   UNL A   1      42.140  25.460  27.647  1.00  0.00     0.031 C 
ATOM     41  C   UNL A   1      46.886  24.194  26.582  1.00  0.00     0.029 A 
ATOM     42  N   UNL A   1      46.477  26.345  27.045  1.00  0.00    -0.354 N 
ATOM     43  C   UNL A   1      42.486  27.693  28.014  1.00  0.00     0.074 A 
ATOM     44  C   UNL A   1      41.538  26.601  27.952  1.00  0.00     0.031 C 
ATOM     45  C   UNL A   1      48.056  24.855  26.513  1.00  0.00     0.029 A 
ATOM     46  C   UNL A   1      47.822  26.273  26.776  1.00  0.00     0.049 A 
ATOM     47  H   UNL A   1      46.021  27.180  27.300  1.00  0.00     0.167 HD
ATOM     48  C   UNL A   1      42.163  28.964  28.352  1.00  0.00     0.031 A 
ATOM     49  C   UNL A   1      48.755  27.244  26.728  1.00  0.00     0.031 A 
ATOM     50  C   UNL A   1      43.103  30.052  28.395  1.00  0.00     0.049 A 
ATOM     51  C   UNL A   1      48.359  28.664  27.040  1.00  0.00     0.074 A 
ATOM     52  C   UNL A   1      42.875  31.374  28.731  1.00  0.00     0.029 A 
ATOM     53  N   UNL A   1      44.450  29.945  28.082  1.00  0.00    -0.354 N 
ATOM     54  N   UNL A   1      47.184  29.136  27.382  1.00  0.00    -0.248 NA
ATOM     55  C   UNL A   1      49.419  29.680  26.968  1.00  0.00     0.031 C 
ATOM     56  C   UNL A   1      44.075  32.078  28.572  1.00  0.00     0.029 A 
ATOM     57  C   UNL A   1      45.062  31.181  28.195  1.00  0.00     0.049 A 
ATOM     58  H   UNL A   1      44.905  29.112  27.818  1.00  0.00     0.167 HD
ATOM     59  C   UNL A   1      47.368  30.499  27.590  1.00  0.00     0.074 A 
ATOM     60  C   UNL A   1      48.770  30.773  27.349  1.00  0.00     0.031 C 
ATOM     61  C   UNL A   1      46.459  31.438  27.949  1.00  0.00     0.031 A 
BRANCH  48  62
ATOM     62  C   UNL A   1      40.720  29.251  28.676  1.00  0.00    -0.014 A 
ATOM     63  C   UNL A   1      39.766  29.419  27.655  1.00  0.00     0.010 A 
ATOM     64  C   UNL A   1      40.306  29.319  30.018  1.00  0.00     0.010 A 
ATOM     65  C   UNL A   1      38.431  29.686  27.973  1.00  0.00     0.020 A 
ATOM     66  C   UNL A   1      38.967  29.561  30.339  1.00  0.00     0.020 A 
ATOM     67  C   UNL A   1      38.042  29.759  29.313  1.00  0.00     0.054 A 
BRANCH  67  68
ATOM     68  S   UNL A   1      36.298  30.086  29.697  1.00  0.00     0.124 S 
ATOM     69  O   UNL A   1      35.617  29.441  28.577  1.00  0.00    -0.237 OA
ATOM     70  O   UNL A   1      36.127  29.435  30.994  1.00  0.00    -0.237 OA
ATOM     71  O   UNL A   1      36.215  31.544  29.720  1.00  0.00    -0.744 OA
ENDBRANCH  67  68
ENDBRANCH  48  62
BRANCH  49  72
ATOM     72  C   UNL A   1      50.155  26.908  26.351  1.00  0.00    -0.014 A 
ATOM     73  C   UNL A   1      51.064  26.423  27.306  1.00  0.00     0.010 A 
ATOM     74  C   UNL A   1      50.584  27.071  25.019  1.00  0.00     0.010 A 
ATOM     75  C   UNL A   1      52.379  26.120  26.941  1.00  0.00     0.020 A 
ATOM     76  C   UNL A   1      51.889  26.743  24.645  1.00  0.00     0.020 A 
ATOM     77  C   UNL A   1      52.783  26.279  25.612  1.00  0.00     0.054 A 
BRANCH  77  78
ATOM     78  S   UNL A   1      54.478  25.825  25.149  1.00  0.00     0.124 S 
ATOM     79  O   UNL A   1      54.466  26.042  23.705  1.00  0.00    -0.237 OA
ATOM     80  O   UNL A   1      55.281  26.769  25.923  1.00  0.00    -0.237 OA
ATOM     81  O   UNL A   1      54.587  24.432  25.574  1.00  0.00    -0.744 OA
ENDBRANCH  77  78
ENDBRANCH  49  72
BRANCH  61  82
ATOM     82  C   UNL A   1      46.954  32.848  28.139  1.00  0.00    -0.014 A 
ATOM     83  C   UNL A   1      46.704  33.845  27.180  1.00  0.00     0.010 A 
ATOM     84  C   UNL A   1      47.631  33.191  29.325  1.00  0.00     0.010 A 
ATOM     85  C   UNL A   1      47.150  35.154  27.388  1.00  0.00     0.020 A 
ATOM     86  C   UNL A   1      48.053  34.504  29.548  1.00  0.00     0.020 A 
ATOM     87  C   UNL A   1      47.823  35.475  28.572  1.00  0.00     0.054 A 
BRANCH  87  88
ATOM     88  S   UNL A   1      48.353  37.189  28.839  1.00  0.00     0.124 S 
ATOM     89  O   UNL A   1      48.605  37.208  30.277  1.00  0.00    -0.237 OA
ATOM     90  O   UNL A   1      49.537  37.295  27.991  1.00  0.00    -0.237 OA
ATOM     91  O   UNL A   1      47.205  37.979  28.397  1.00  0.00    -0.744 OA
ENDBRANCH  87  88
ENDBRANCH  61  82
ENDBRANCH  35  36
ENDBRANCH  28  30
ENDBRANCH  27  28
ENDBRANCH  26  27
ENDBRANCH  25  26
ENDBRANCH  24  25
ENDBRANCH   1  24
TORSDOF 22
ENDMDL
MODEL 2
REMARK VINA RESULT:      -9.0      1.135      8.135
REMARK SMILES C[C@H](C(=O)OCCOCCOC(=O)c1ccc(-c2c3nc(c(-c4ccc(S(=O)(=O)[O-])cc4)c4ccc([nH]4)c(-c4ccc(S(=O)(=O)[O-])cc4)c4nc(c(-c5ccc(S(=O)(=O)[O-])cc5)c5ccc2[nH]5)C=C4)C=C3)cc1)n1ccc(C(=O)N(C)Cc2cnn(C)c2)n1
REMARK SMILES IDX 7 1 6 2 5 3 3 4 4 5 2 6 1 7 74 8 75 9 89 10 76 11 77 12
REMARK SMILES IDX 78 13 79 14 80 15 81 16 82 17 83 18 84 19 88 20 85 21 86 22
REMARK SMILES IDX 87 23 8 24 9 25 10 26 11 27 12 28 13 29 14 30 15 31 73 32
REMARK SMILES IDX 16 33 72 34 17 35 18 36 19 37 66 38 20 39 71 40 65 41 67 42
REMARK SMILES IDX 21 43 70 44 64 45 63 46 22 48 52 49 33 50 51 51 34 52 37 53
REMARK SMILES IDX 50 54 68 55 35 56 36 57 49 59 69 60 38 61 23 62 24 63 32 64
REMARK SMILES IDX 25 65 31 66 26 67 27 68 28 69 29 70 30 71 53 72 54 73 62 74
REMARK SMILES IDX 55 75 61 76 56 77 57 78 58 79 59 80 60 81 39 82 40 83 48 84
REMARK SMILES IDX 41 85 47 86 42 87 43 88 44 89 45 90 46 91
REMARK H PARENT 67 47 37 58
REMARK Flexibility Score: inf
ROOT
ATOM      1  C   UNL A   1      36.437  20.206  25.014  1.00  0.00     0.202 C 
ENDROOT
BRANCH   1   2
ATOM      2  C   UNL A   1      34.989  20.699  24.997  1.00  0.00     0.261 C 
BRANCH   2   3
ATOM      3  O   UNL A   1      34.970  22.118  24.737  1.00  0.00    -0.462 OA
BRANCH   3   4
ATOM      4  C   UNL A   1      34.739  22.935  25.792  1.00  0.00     0.330 C 
ATOM      5  O   UNL A   1      35.543  23.775  26.190  1.00  0.00    -0.250 OA
BRANCH   4   6
ATOM      6  C   UNL A   1      33.338  22.839  26.365  1.00  0.00     0.213 C 
ATOM      7  C   UNL A   1      33.441  22.402  27.832  1.00  0.00     0.046 C 
BRANCH   6   8
ATOM      8  N   UNL A   1      32.447  23.995  26.204  1.00  0.00    -0.258 N 
ATOM      9  C   UNL A   1      31.117  24.032  25.908  1.00  0.00     0.110 A 
ATOM     10  N   UNL A   1      32.931  25.215  26.559  1.00  0.00    -0.167 NA
ATOM     11  C   UNL A   1      30.734  25.345  26.019  1.00  0.00     0.056 A 
ATOM     12  C   UNL A   1      31.891  26.059  26.434  1.00  0.00     0.150 A 
BRANCH  12  13
ATOM     13  C   UNL A   1      31.896  27.501  26.765  1.00  0.00     0.274 C 
ATOM     14  O   UNL A   1      31.508  27.848  27.885  1.00  0.00    -0.267 OA
BRANCH  13  15
ATOM     15  N   UNL A   1      32.296  28.473  25.834  1.00  0.00    -0.336 N 
ATOM     16  C   UNL A   1      31.506  29.601  25.369  1.00  0.00     0.147 C 
BRANCH  15  17
ATOM     17  C   UNL A   1      33.628  28.332  25.255  1.00  0.00     0.158 C 
BRANCH  17  18
ATOM     18  C   UNL A   1      33.549  27.910  23.823  1.00  0.00     0.009 A 
ATOM     19  C   UNL A   1      34.228  28.468  22.712  1.00  0.00     0.140 A 
ATOM     20  C   UNL A   1      32.863  26.840  23.277  1.00  0.00     0.113 A 
ATOM     21  N   UNL A   1      33.977  27.822  21.572  1.00  0.00    -0.181 NA
ATOM     22  N   UNL A   1      33.175  26.816  21.948  1.00  0.00    -0.275 N 
ATOM     23  C   UNL A   1      32.786  25.831  20.970  1.00  0.00     0.173 C 
ENDBRANCH  17  18
ENDBRANCH  15  17
ENDBRANCH  13  15
ENDBRANCH  12  13
ENDBRANCH   6   8
ENDBRANCH   4   6
ENDBRANCH   3   4
ENDBRANCH   2   3
ENDBRANCH   1   2
BRANCH   1  24
ATOM     24  O   UNL A   1      37.414  21.194  24.666  1.00  0.00    -0.374 OA
BRANCH  24  25
ATOM     25  C   UNL A   1      38.542  21.320  25.529  1.00  0.00     0.202 C 
BRANCH  25  26
ATOM     26  C   UNL A   1      39.314  20.033  25.841  1.00  0.00     0.261 C 
BRANCH  26  27
ATOM     27  O   UNL A   1      40.721  20.149  25.580  1.00  0.00    -0.460 OA
BRANCH  27  28
ATOM     28  C   UNL A   1      41.496  20.105  26.689  1.00  0.00     0.338 C 
ATOM     29  O   UNL A   1      41.669  19.146  27.429  1.00  0.00    -0.246 OA
BRANCH  28  30
ATOM     30  C   UNL A   1      42.268  21.354  26.822  1.00  0.00     0.060 A 
ATOM     31  C   UNL A   1      42.643  21.743  28.114  1.00  0.00     0.016 A 
ATOM     32  C   UNL A   1      42.556  22.166  25.723  1.00  0.00     0.016 A 
ATOM     33  C   UNL A   1      43.263  22.973  28.318  1.00  0.00     0.010 A 
ATOM     34  C   UNL A   1      43.172  23.405  25.933  1.00  0.00     0.010 A 
ATOM     35  C   UNL A   1      43.496  23.829  27.234  1.00  0.00    -0.014 A 
BRANCH  35  36
ATOM     36  C   UNL A   1      43.948  25.216  27.488  1.00  0.00     0.031 A 
ATOM     37  C   UNL A   1      45.395  25.567  27.270  1.00  0.00     0.074 A 
ATOM     38  C   UNL A   1      43.072  26.164  27.869  1.00  0.00     0.049 A 
ATOM     39  N   UNL A   1      46.002  26.713  27.431  1.00  0.00    -0.248 NA
ATOM     40  C   UNL A   1      46.273  24.479  26.805  1.00  0.00     0.031 C 
ATOM     41  C   UNL A   1      41.639  25.957  28.073  1.00  0.00     0.029 A 
ATOM     42  N   UNL A   1      43.264  27.493  28.153  1.00  0.00    -0.354 N 
ATOM     43  C   UNL A   1      47.331  26.488  27.093  1.00  0.00     0.074 A 
ATOM     44  C   UNL A   1      47.449  25.088  26.743  1.00  0.00     0.031 C 
ATOM     45  C   UNL A   1      41.082  27.119  28.459  1.00  0.00     0.029 A 
ATOM     46  C   UNL A   1      42.122  28.141  28.557  1.00  0.00     0.049 A 
ATOM     47  H   UNL A   1      44.139  27.939  28.075  1.00  0.00     0.167 HD
ATOM     48  C   UNL A   1      48.361  27.367  27.067  1.00  0.00     0.031 A 
ATOM     49  C   UNL A   1      41.940  29.408  28.977  1.00  0.00     0.031 A 
ATOM     50  C   UNL A   1      48.248  28.754  27.433  1.00  0.00     0.049 A 
ATOM     51  C   UNL A   1      43.114  30.351  29.008  1.00  0.00     0.074 A 
ATOM     52  C   UNL A   1      49.231  29.727  27.436  1.00  0.00     0.029 A 
ATOM     53  N   UNL A   1      47.081  29.363  27.870  1.00  0.00    -0.354 N 
ATOM     54  N   UNL A   1      44.360  30.128  28.662  1.00  0.00    -0.248 NA
ATOM     55  C   UNL A   1      42.855  31.719  29.479  1.00  0.00     0.031 C 
ATOM     56  C   UNL A   1      48.670  30.913  27.923  1.00  0.00     0.029 A 
ATOM     57  C   UNL A   1      47.324  30.693  28.167  1.00  0.00     0.049 A 
ATOM     58  H   UNL A   1      46.208  28.915  27.957  1.00  0.00     0.167 HD
ATOM     59  C   UNL A   1      45.028  31.334  28.850  1.00  0.00     0.074 A 
ATOM     60  C   UNL A   1      44.045  32.286  29.326  1.00  0.00     0.031 C 
ATOM     61  C   UNL A   1      46.335  31.627  28.643  1.00  0.00     0.031 A 
BRANCH  48  62
ATOM     62  C   UNL A   1      49.712  26.843  26.656  1.00  0.00    -0.014 A 
ATOM     63  C   UNL A   1      50.098  26.809  25.303  1.00  0.00     0.010 A 
ATOM     64  C   UNL A   1      50.621  26.409  27.638  1.00  0.00     0.010 A 
ATOM     65  C   UNL A   1      51.355  26.318  24.939  1.00  0.00     0.020 A 
ATOM     66  C   UNL A   1      51.888  25.940  27.279  1.00  0.00     0.020 A 
ATOM     67  C   UNL A   1      52.240  25.883  25.930  1.00  0.00     0.054 A 
BRANCH  67  68
ATOM     68  S   UNL A   1      53.873  25.269  25.430  1.00  0.00     0.124 S 
ATOM     69  O   UNL A   1      53.521  24.197  24.502  1.00  0.00    -0.237 OA
ATOM     70  O   UNL A   1      54.487  26.447  24.823  1.00  0.00    -0.237 OA
ATOM     71  O   UNL A   1      54.479  24.831  26.685  1.00  0.00    -0.744 OA
ENDBRANCH  67  68
ENDBRANCH  48  62
BRANCH  49  72
ATOM     72  C   UNL A   1      40.591  29.854  29.422  1.00  0.00    -0.014 A 
ATOM     73  C   UNL A   1      39.583  30.144  28.488  1.00  0.00     0.010 A 
ATOM     74  C   UNL A   1      40.311  29.986  30.796  1.00  0.00     0.010 A 
ATOM     75  C   UNL A   1      38.322  30.572  28.918  1.00  0.00     0.020 A 
ATOM     76  C   UNL A   1      39.044  30.387  31.230  1.00  0.00     0.020 A 
ATOM     77  C   UNL A   1      38.060  30.688  30.286  1.00  0.00     0.054 A 
BRANCH  77  78
ATOM     78  S   UNL A   1      36.401  31.189  30.823  1.00  0.00     0.124 S 
ATOM     79  O   UNL A   1      36.080  30.165  31.813  1.00  0.00    -0.237 OA
ATOM     80  O   UNL A   1      36.632  32.531  31.353  1.00  0.00    -0.237 OA
ATOM     81  O   UNL A   1      35.614  31.141  29.593  1.00  0.00    -0.744 OA
ENDBRANCH  77  78
ENDBRANCH  49  72
BRANCH  61  82
ATOM     82  C   UNL A   1      46.778  33.044  28.899  1.00  0.00    -0.014 A 
ATOM     83  C   UNL A   1      46.723  34.020  27.888  1.00  0.00     0.010 A 
ATOM     84  C   UNL A   1      47.203  33.415  30.188  1.00  0.00     0.010 A 
ATOM     85  C   UNL A   1      47.115  35.335  28.154  1.00  0.00     0.020 A 
ATOM     86  C   UNL A   1      47.569  34.735  30.464  1.00  0.00     0.020 A 
ATOM     87  C   UNL A   1      47.536  35.684  29.441  1.00  0.00     0.054 A 
BRANCH  87  88
ATOM     88  S   UNL A   1      47.998  37.407  29.773  1.00  0.00     0.124 S 
ATOM     89  O   UNL A   1      49.186  37.248  30.606  1.00  0.00    -0.237 OA
ATOM     90  O   UNL A   1      48.235  37.940  28.434  1.00  0.00    -0.237 OA
ATOM     91  O   UNL A   1      46.827  37.953  30.456  1.00  0.00    -0.744 OA
ENDBRANCH  87  88
ENDBRANCH  61  82
ENDBRANCH  35  36
ENDBRANCH  28  30
ENDBRANCH  27  28
ENDBRANCH  26  27
ENDBRANCH  25  26
ENDBRANCH  24  25
ENDBRANCH   1  24
TORSDOF 22
ENDMDL
MODEL 3
REMARK VINA RESULT:      -9.0      4.423      9.561
REMARK SMILES C[C@H](C(=O)OCCOCCOC(=O)c1ccc(-c2c3nc(c(-c4ccc(S(=O)(=O)[O-])cc4)c4ccc([nH]4)c(-c4ccc(S(=O)(=O)[O-])cc4)c4nc(c(-c5ccc(S(=O)(=O)[O-])cc5)c5ccc2[nH]5)C=C4)C=C3)cc1)n1ccc(C(=O)N(C)Cc2cnn(C)c2)n1
REMARK SMILES IDX 7 1 6 2 5 3 3 4 4 5 2 6 1 7 74 8 75 9 89 10 76 11 77 12
REMARK SMILES IDX 78 13 79 14 80 15 81 16 82 17 83 18 84 19 88 20 85 21 86 22
REMARK SMILES IDX 87 23 8 24 9 25 10 26 11 27 12 28 13 29 14 30 15 31 73 32
REMARK SMILES IDX 16 33 72 34 17 35 18 36 19 37 66 38 20 39 71 40 65 41 67 42
REMARK SMILES IDX 21 43 70 44 64 45 63 46 22 48 52 49 33 50 51 51 34 52 37 53
REMARK SMILES IDX 50 54 68 55 35 56 36 57 49 59 69 60 38 61 23 62 24 63 32 64
REMARK SMILES IDX 25 65 31 66 26 67 27 68 28 69 29 70 30 71 53 72 54 73 62 74
REMARK SMILES IDX 55 75 61 76 56 77 57 78 58 79 59 80 60 81 39 82 40 83 48 84
REMARK SMILES IDX 41 85 47 86 42 87 43 88 44 89 45 90 46 91
REMARK H PARENT 67 47 37 58
REMARK Flexibility Score: inf
ROOT
ATOM      1  C   UNL A   1      35.638  20.494  25.272  1.00  0.00     0.202 C 
ENDROOT
BRANCH   1   2
ATOM      2  C   UNL A   1      34.819  21.572  25.984  1.00  0.00     0.261 C 
BRANCH   2   3
ATOM      3  O   UNL A   1      33.921  22.192  25.039  1.00  0.00    -0.462 OA
BRANCH   3   4
ATOM      4  C   UNL A   1      33.097  23.157  25.514  1.00  0.00     0.330 C 
ATOM      5  O   UNL A   1      33.477  24.091  26.217  1.00  0.00    -0.250 OA
BRANCH   4   6
ATOM      6  C   UNL A   1      31.677  23.083  24.987  1.00  0.00     0.213 C 
ATOM      7  C   UNL A   1      30.910  22.032  25.802  1.00  0.00     0.046 C 
BRANCH   6   8
ATOM      8  N   UNL A   1      30.920  24.335  24.868  1.00  0.00    -0.258 N 
ATOM      9  C   UNL A   1      30.177  24.994  25.801  1.00  0.00     0.110 A 
ATOM     10  N   UNL A   1      31.093  25.068  23.735  1.00  0.00    -0.167 NA
ATOM     11  C   UNL A   1      29.803  26.183  25.228  1.00  0.00     0.056 A 
ATOM     12  C   UNL A   1      30.397  26.202  23.936  1.00  0.00     0.150 A 
BRANCH  12  13
ATOM     13  C   UNL A   1      30.323  27.352  23.010  1.00  0.00     0.274 C 
ATOM     14  O   UNL A   1      30.779  27.218  21.870  1.00  0.00    -0.267 OA
BRANCH  13  15
ATOM     15  N   UNL A   1      29.783  28.587  23.404  1.00  0.00    -0.336 N 
ATOM     16  C   UNL A   1      30.502  29.683  24.033  1.00  0.00     0.147 C 
BRANCH  15  17
ATOM     17  C   UNL A   1      28.355  28.790  23.183  1.00  0.00     0.158 C 
BRANCH  17  18
ATOM     18  C   UNL A   1      28.093  30.127  22.567  1.00  0.00     0.009 A 
ATOM     19  C   UNL A   1      27.783  31.343  23.224  1.00  0.00     0.140 A 
ATOM     20  C   UNL A   1      28.170  30.491  21.235  1.00  0.00     0.113 A 
ATOM     21  N   UNL A   1      27.658  32.370  22.383  1.00  0.00    -0.181 NA
ATOM     22  N   UNL A   1      27.933  31.835  21.186  1.00  0.00    -0.275 N 
ATOM     23  C   UNL A   1      28.000  32.700  20.034  1.00  0.00     0.173 C 
ENDBRANCH  17  18
ENDBRANCH  15  17
ENDBRANCH  13  15
ENDBRANCH  12  13
ENDBRANCH   6   8
ENDBRANCH   4   6
ENDBRANCH   3   4
ENDBRANCH   2   3
ENDBRANCH   1   2
BRANCH   1  24
ATOM     24  O   UNL A   1      36.759  20.983  24.526  1.00  0.00    -0.374 OA
BRANCH  24  25
ATOM     25  C   UNL A   1      36.834  22.393  24.323  1.00  0.00     0.202 C 
BRANCH  25  26
ATOM     26  C   UNL A   1      37.600  23.198  25.379  1.00  0.00     0.261 C 
BRANCH  26  27
ATOM     27  O   UNL A   1      39.014  22.953  25.351  1.00  0.00    -0.460 OA
BRANCH  27  28
ATOM     28  C   UNL A   1      39.589  22.886  26.575  1.00  0.00     0.338 C 
ATOM     29  O   UNL A   1      40.107  21.906  27.093  1.00  0.00    -0.246 OA
BRANCH  28  30
ATOM     30  C   UNL A   1      39.665  24.230  27.176  1.00  0.00     0.060 A 
ATOM     31  C   UNL A   1      40.455  25.183  26.521  1.00  0.00     0.016 A 
ATOM     32  C   UNL A   1      39.045  24.534  28.390  1.00  0.00     0.016 A 
ATOM     33  C   UNL A   1      40.670  26.429  27.105  1.00  0.00     0.010 A 
ATOM     34  C   UNL A   1      39.267  25.784  28.977  1.00  0.00     0.010 A 
ATOM     35  C   UNL A   1      40.109  26.723  28.354  1.00  0.00    -0.014 A 
BRANCH  35  36
ATOM     36  C   UNL A   1      40.522  27.957  29.063  1.00  0.00     0.031 A 
ATOM     37  C   UNL A   1      41.891  28.022  29.685  1.00  0.00     0.074 A 
ATOM     38  C   UNL A   1      39.702  29.023  29.118  1.00  0.00     0.049 A 
ATOM     39  N   UNL A   1      42.453  28.998  30.348  1.00  0.00    -0.248 NA
ATOM     40  C   UNL A   1      42.739  26.827  29.533  1.00  0.00     0.031 C 
ATOM     41  C   UNL A   1      38.370  29.096  28.519  1.00  0.00     0.029 A 
ATOM     42  N   UNL A   1      39.875  30.250  29.709  1.00  0.00    -0.354 N 
ATOM     43  C   UNL A   1      43.717  28.538  30.698  1.00  0.00     0.074 A 
ATOM     44  C   UNL A   1      43.830  27.184  30.197  1.00  0.00     0.031 C 
ATOM     45  C   UNL A   1      37.841  30.305  28.782  1.00  0.00     0.029 A 
ATOM     46  C   UNL A   1      38.783  31.076  29.590  1.00  0.00     0.049 A 
ATOM     47  H   UNL A   1      40.702  30.512  30.174  1.00  0.00     0.167 HD
ATOM     48  C   UNL A   1      44.700  29.185  31.370  1.00  0.00     0.031 A 
ATOM     49  C   UNL A   1      38.563  32.307  30.092  1.00  0.00     0.031 A 
ATOM     50  C   UNL A   1      44.579  30.523  31.884  1.00  0.00     0.049 A 
ATOM     51  C   UNL A   1      39.643  32.981  30.896  1.00  0.00     0.074 A 
ATOM     52  C   UNL A   1      45.519  31.268  32.573  1.00  0.00     0.029 A 
ATOM     53  N   UNL A   1      43.446  31.314  31.773  1.00  0.00    -0.354 N 
ATOM     54  N   UNL A   1      40.842  32.541  31.198  1.00  0.00    -0.248 NA
ATOM     55  C   UNL A   1      39.343  34.320  31.421  1.00  0.00     0.031 C 
ATOM     56  C   UNL A   1      44.936  32.491  32.923  1.00  0.00     0.029 A 
ATOM     57  C   UNL A   1      43.653  32.530  32.400  1.00  0.00     0.049 A 
ATOM     58  H   UNL A   1      42.614  31.049  31.315  1.00  0.00     0.167 HD
ATOM     59  C   UNL A   1      41.448  33.560  31.926  1.00  0.00     0.074 A 
ATOM     60  C   UNL A   1      40.489  34.643  32.007  1.00  0.00     0.031 C 
ATOM     61  C   UNL A   1      42.687  33.597  32.474  1.00  0.00     0.031 A 
BRANCH  48  62
ATOM     62  C   UNL A   1      45.984  28.436  31.612  1.00  0.00    -0.014 A 
ATOM     63  C   UNL A   1      46.238  27.809  32.846  1.00  0.00     0.010 A 
ATOM     64  C   UNL A   1      46.935  28.330  30.581  1.00  0.00     0.010 A 
ATOM     65  C   UNL A   1      47.436  27.120  33.055  1.00  0.00     0.020 A 
ATOM     66  C   UNL A   1      48.123  27.620  30.779  1.00  0.00     0.020 A 
ATOM     67  C   UNL A   1      48.372  27.033  32.021  1.00  0.00     0.054 A 
BRANCH  67  68
ATOM     68  S   UNL A   1      49.910  26.114  32.312  1.00  0.00     0.124 S 
ATOM     69  O   UNL A   1      49.577  25.342  33.507  1.00  0.00    -0.237 OA
ATOM     70  O   UNL A   1      50.058  25.338  31.084  1.00  0.00    -0.237 OA
ATOM     71  O   UNL A   1      50.909  27.162  32.507  1.00  0.00    -0.744 OA
ENDBRANCH  67  68
ENDBRANCH  48  62
BRANCH  49  72
ATOM     72  C   UNL A   1      37.252  32.976  29.863  1.00  0.00    -0.014 A 
ATOM     73  C   UNL A   1      37.034  33.764  28.720  1.00  0.00     0.010 A 
ATOM     74  C   UNL A   1      36.209  32.820  30.797  1.00  0.00     0.010 A 
ATOM     75  C   UNL A   1      35.801  34.394  28.521  1.00  0.00     0.020 A 
ATOM     76  C   UNL A   1      34.968  33.427  30.588  1.00  0.00     0.020 A 
ATOM     77  C   UNL A   1      34.775  34.220  29.455  1.00  0.00     0.054 A 
BRANCH  77  78
ATOM     78  S   UNL A   1      33.166  35.001  29.149  1.00  0.00     0.124 S 
ATOM     79  O   UNL A   1      32.612  34.151  28.099  1.00  0.00    -0.237 OA
ATOM     80  O   UNL A   1      32.514  34.903  30.453  1.00  0.00    -0.237 OA
ATOM     81  O   UNL A   1      33.518  36.358  28.738  1.00  0.00    -0.744 OA
ENDBRANCH  77  78
ENDBRANCH  49  72
BRANCH  61  82
ATOM     82  C   UNL A   1      43.095  34.860  33.186  1.00  0.00    -0.014 A 
ATOM     83  C   UNL A   1      42.902  35.014  34.570  1.00  0.00     0.010 A 
ATOM     84  C   UNL A   1      43.734  35.886  32.465  1.00  0.00     0.010 A 
ATOM     85  C   UNL A   1      43.312  36.185  35.215  1.00  0.00     0.020 A 
ATOM     86  C   UNL A   1      44.170  37.045  33.111  1.00  0.00     0.020 A 
ATOM     87  C   UNL A   1      43.943  37.194  34.480  1.00  0.00     0.054 A 
BRANCH  87  88
ATOM     88  S   UNL A   1      44.506  38.684  35.347  1.00  0.00     0.124 S 
ATOM     89  O   UNL A   1      44.070  38.424  36.715  1.00  0.00    -0.237 OA
ATOM     90  O   UNL A   1      45.951  38.656  35.131  1.00  0.00    -0.237 OA
ATOM     91  O   UNL A   1      43.803  39.768  34.663  1.00  0.00    -0.744 OA
ENDBRANCH  87  88
ENDBRANCH  61  82
ENDBRANCH  35  36
ENDBRANCH  28  30
ENDBRANCH  27  28
ENDBRANCH  26  27
ENDBRANCH  25  26
ENDBRANCH  24  25
ENDBRANCH   1  24
TORSDOF 22
ENDMDL
