MODEL 1
REMARK VINA RESULT:     -12.0      0.000      0.000
REMARK SMILES Cc1ccc(C(=O)N2C[C@@H](C(=O)OCCOCCOC(=O)c3ccc(-c4c5nc(c(-c6ccc(S(=O)(=O)[O-])cc6)c6ccc([nH]6)c(-c6ccc(S(=O)(=O)[O-])cc6)c6nc(c(-c7ccc(S(=O)(=O)[O-])cc7)c7ccc4[nH]7)C=C6)C=C5)cc3)C[C@H](C(=O)N3CCOCC3)C2)cc1F
REMARK SMILES IDX 17 1 16 2 15 3 14 4 13 5 11 6 12 7 10 8 8 9 9 10 92 11 83 12
REMARK SMILES IDX 82 13 6 14 7 15 5 16 1 17 2 18 3 19 94 20 4 21 93 22 95 23
REMARK SMILES IDX 84 24 85 25 86 26 87 27 91 28 88 29 90 30 89 31 18 32 19 33
REMARK SMILES IDX 20 34 21 35 22 36 23 37 81 38 24 39 80 40 25 41 26 42 27 43
REMARK SMILES IDX 74 44 28 45 79 46 73 47 75 48 29 49 78 50 72 51 71 52 30 54
REMARK SMILES IDX 60 55 41 56 59 57 42 58 45 59 58 60 76 61 43 62 44 63 57 65
REMARK SMILES IDX 77 66 46 67 31 68 32 69 40 70 33 71 39 72 34 73 35 74 36 75
REMARK SMILES IDX 37 76 38 77 61 78 62 79 70 80 63 81 69 82 64 83 65 84 66 85
REMARK SMILES IDX 67 86 68 87 47 88 48 89 56 90 49 91 55 92 50 93 51 94 52 95
REMARK SMILES IDX 53 96 54 97
REMARK H PARENT 75 53 45 64
REMARK Flexibility Score: inf
ROOT
ATOM      1  C   UNL A   1      41.527  22.750  27.066  1.00  0.00     0.202 C 
ENDROOT
BRANCH   1   2
ATOM      2  O   UNL A   1      40.189  22.297  27.257  1.00  0.00    -0.374 OA
BRANCH   2   3
ATOM      3  C   UNL A   1      39.512  21.732  26.138  1.00  0.00     0.202 C 
BRANCH   3   4
ATOM      4  C   UNL A   1      38.152  22.324  25.744  1.00  0.00     0.261 C 
BRANCH   4   5
ATOM      5  O   UNL A   1      37.459  21.585  24.723  1.00  0.00    -0.463 OA
BRANCH   5   6
ATOM      6  C   UNL A   1      36.647  22.340  23.939  1.00  0.00     0.310 C 
ATOM      7  O   UNL A   1      37.030  23.133  23.087  1.00  0.00    -0.252 OA
BRANCH   6   8
ATOM      8  C   UNL A   1      35.180  22.101  24.187  1.00  0.00     0.119 C 
ATOM      9  N   UNL A   1      33.022  23.135  24.410  1.00  0.00    -0.337 N 
ATOM     10  C   UNL A   1      34.455  23.381  24.518  1.00  0.00     0.135 C 
ATOM     11  C   UNL A   1      32.461  22.085  25.267  1.00  0.00     0.133 C 
ATOM     12  C   UNL A   1      33.289  20.773  25.253  1.00  0.00     0.099 C 
ATOM     13  C   UNL A   1      34.805  21.012  25.197  1.00  0.00     0.032 C 
BRANCH   9  14
ATOM     14  C   UNL A   1      32.369  23.577  23.268  1.00  0.00     0.254 C 
ATOM     15  O   UNL A   1      32.462  23.004  22.185  1.00  0.00    -0.269 OA
BRANCH  14  16
ATOM     16  C   UNL A   1      31.663  24.882  23.336  1.00  0.00     0.042 A 
ATOM     17  C   UNL A   1      29.058  28.286  22.996  1.00  0.00     0.047 C 
ATOM     18  C   UNL A   1      30.014  27.143  23.153  1.00  0.00    -0.015 A 
ATOM     19  C   UNL A   1      31.128  27.018  22.316  1.00  0.00     0.007 A 
ATOM     20  C   UNL A   1      29.766  26.146  24.103  1.00  0.00     0.126 A 
ATOM     21  C   UNL A   1      31.948  25.891  22.405  1.00  0.00     0.014 A 
ATOM     22  C   UNL A   1      30.572  25.018  24.198  1.00  0.00     0.053 A 
ATOM     23  F   UNL A   1      28.701  26.251  24.911  1.00  0.00    -0.207 F 
ENDBRANCH  14  16
ENDBRANCH   9  14
BRANCH  12  24
ATOM     24  C   UNL A   1      32.653  19.766  24.277  1.00  0.00     0.227 C 
ATOM     25  O   UNL A   1      32.055  20.213  23.291  1.00  0.00    -0.275 OA
ATOM     26  N   UNL A   1      32.951  18.420  24.353  1.00  0.00    -0.338 N 
ATOM     27  C   UNL A   1      32.556  17.525  25.449  1.00  0.00     0.148 C 
ATOM     28  C   UNL A   1      33.111  17.693  23.093  1.00  0.00     0.148 C 
ATOM     29  C   UNL A   1      33.537  16.348  25.567  1.00  0.00     0.181 C 
ATOM     30  C   UNL A   1      34.074  16.516  23.275  1.00  0.00     0.181 C 
ATOM     31  O   UNL A   1      33.618  15.638  24.318  1.00  0.00    -0.378 OA
ENDBRANCH  12  24
ENDBRANCH   6   8
ENDBRANCH   5   6
ENDBRANCH   4   5
ENDBRANCH   3   4
ENDBRANCH   2   3
ENDBRANCH   1   2
BRANCH   1  32
ATOM     32  C   UNL A   1      41.731  24.170  26.523  1.00  0.00     0.261 C 
BRANCH  32  33
ATOM     33  O   UNL A   1      40.594  25.021  26.764  1.00  0.00    -0.460 OA
BRANCH  33  34
ATOM     34  C   UNL A   1      40.816  26.335  26.505  1.00  0.00     0.338 C 
ATOM     35  O   UNL A   1      41.126  26.831  25.436  1.00  0.00    -0.246 OA
BRANCH  34  36
ATOM     36  C   UNL A   1      40.448  27.158  27.671  1.00  0.00     0.060 A 
ATOM     37  C   UNL A   1      41.044  28.421  27.783  1.00  0.00     0.016 A 
ATOM     38  C   UNL A   1      39.640  26.660  28.695  1.00  0.00     0.016 A 
ATOM     39  C   UNL A   1      40.867  29.174  28.941  1.00  0.00     0.010 A 
ATOM     40  C   UNL A   1      39.473  27.416  29.863  1.00  0.00     0.010 A 
ATOM     41  C   UNL A   1      40.115  28.659  30.006  1.00  0.00    -0.014 A 
BRANCH  41  42
ATOM     42  C   UNL A   1      40.118  29.382  31.301  1.00  0.00     0.031 A 
ATOM     43  C   UNL A   1      41.221  29.121  32.291  1.00  0.00     0.074 A 
ATOM     44  C   UNL A   1      39.181  30.311  31.566  1.00  0.00     0.049 A 
ATOM     45  N   UNL A   1      41.446  29.691  33.447  1.00  0.00    -0.248 NA
ATOM     46  C   UNL A   1      42.204  28.086  31.928  1.00  0.00     0.031 C 
ATOM     47  C   UNL A   1      38.081  30.679  30.676  1.00  0.00     0.029 A 
ATOM     48  N   UNL A   1      39.017  31.123  32.660  1.00  0.00    -0.354 N 
ATOM     49  C   UNL A   1      42.596  29.089  33.949  1.00  0.00     0.074 A 
ATOM     50  C   UNL A   1      43.002  28.089  32.986  1.00  0.00     0.031 C 
ATOM     51  C   UNL A   1      37.356  31.649  31.259  1.00  0.00     0.029 A 
ATOM     52  C   UNL A   1      37.928  31.956  32.568  1.00  0.00     0.049 A 
ATOM     53  H   UNL A   1      39.621  31.110  33.437  1.00  0.00     0.167 HD
ATOM     54  C   UNL A   1      43.258  29.352  35.101  1.00  0.00     0.031 A 
ATOM     55  C   UNL A   1      37.443  32.859  33.443  1.00  0.00     0.031 A 
ATOM     56  C   UNL A   1      42.846  30.335  36.069  1.00  0.00     0.049 A 
ATOM     57  C   UNL A   1      38.165  33.093  34.742  1.00  0.00     0.074 A 
ATOM     58  C   UNL A   1      43.459  30.679  37.262  1.00  0.00     0.029 A 
ATOM     59  N   UNL A   1      41.713  31.125  35.960  1.00  0.00    -0.354 N 
ATOM     60  N   UNL A   1      39.265  32.534  35.187  1.00  0.00    -0.248 NA
ATOM     61  C   UNL A   1      37.584  34.092  35.651  1.00  0.00     0.031 C 
ATOM     62  C   UNL A   1      42.668  31.643  37.898  1.00  0.00     0.029 A 
ATOM     63  C   UNL A   1      41.593  31.937  37.076  1.00  0.00     0.049 A 
ATOM     64  H   UNL A   1      41.085  31.110  35.202  1.00  0.00     0.167 HD
ATOM     65  C   UNL A   1      39.519  33.127  36.419  1.00  0.00     0.074 A 
ATOM     66  C   UNL A   1      38.469  34.101  36.639  1.00  0.00     0.031 C 
ATOM     67  C   UNL A   1      40.533  32.890  37.290  1.00  0.00     0.031 A 
BRANCH  54  68
ATOM     68  C   UNL A   1      44.488  28.534  35.393  1.00  0.00    -0.014 A 
ATOM     69  C   UNL A   1      45.763  28.967  34.983  1.00  0.00     0.010 A 
ATOM     70  C   UNL A   1      44.372  27.331  36.113  1.00  0.00     0.010 A 
ATOM     71  C   UNL A   1      46.894  28.192  35.255  1.00  0.00     0.020 A 
ATOM     72  C   UNL A   1      45.504  26.565  36.407  1.00  0.00     0.020 A 
ATOM     73  C   UNL A   1      46.756  26.992  35.960  1.00  0.00     0.054 A 
BRANCH  73  74
ATOM     74  S   UNL A   1      48.241  26.012  36.313  1.00  0.00     0.124 S 
ATOM     75  O   UNL A   1      48.292  25.119  35.158  1.00  0.00    -0.237 OA
ATOM     76  O   UNL A   1      49.291  27.026  36.371  1.00  0.00    -0.237 OA
ATOM     77  O   UNL A   1      47.934  25.366  37.588  1.00  0.00    -0.744 OA
ENDBRANCH  73  74
ENDBRANCH  54  68
BRANCH  55  78
ATOM     78  C   UNL A   1      36.199  33.607  33.118  1.00  0.00    -0.014 A 
ATOM     79  C   UNL A   1      34.935  33.059  33.394  1.00  0.00     0.010 A 
ATOM     80  C   UNL A   1      36.279  34.884  32.532  1.00  0.00     0.010 A 
ATOM     81  C   UNL A   1      33.773  33.768  33.080  1.00  0.00     0.020 A 
ATOM     82  C   UNL A   1      35.120  35.606  32.239  1.00  0.00     0.020 A 
ATOM     83  C   UNL A   1      33.873  35.039  32.505  1.00  0.00     0.054 A 
BRANCH  83  84
ATOM     84  S   UNL A   1      32.355  35.972  32.163  1.00  0.00     0.124 S 
ATOM     85  O   UNL A   1      32.522  37.145  33.015  1.00  0.00    -0.237 OA
ATOM     86  O   UNL A   1      32.449  36.214  30.725  1.00  0.00    -0.237 OA
ATOM     87  O   UNL A   1      31.294  35.051  32.563  1.00  0.00    -0.744 OA
ENDBRANCH  83  84
ENDBRANCH  55  78
BRANCH  67  88
ATOM     88  C   UNL A   1      40.561  33.713  38.550  1.00  0.00    -0.014 A 
ATOM     89  C   UNL A   1      41.256  34.934  38.606  1.00  0.00     0.010 A 
ATOM     90  C   UNL A   1      39.867  33.266  39.689  1.00  0.00     0.010 A 
ATOM     91  C   UNL A   1      41.295  35.671  39.793  1.00  0.00     0.020 A 
ATOM     92  C   UNL A   1      39.883  34.013  40.871  1.00  0.00     0.020 A 
ATOM     93  C   UNL A   1      40.615  35.201  40.921  1.00  0.00     0.054 A 
BRANCH  93  94
ATOM     94  S   UNL A   1      40.673  36.176  42.450  1.00  0.00     0.124 S 
ATOM     95  O   UNL A   1      39.256  36.417  42.708  1.00  0.00    -0.237 OA
ATOM     96  O   UNL A   1      41.336  35.270  43.386  1.00  0.00    -0.237 OA
ATOM     97  O   UNL A   1      41.450  37.355  42.078  1.00  0.00    -0.744 OA
ENDBRANCH  93  94
ENDBRANCH  67  88
ENDBRANCH  41  42
ENDBRANCH  34  36
ENDBRANCH  33  34
ENDBRANCH  32  33
ENDBRANCH   1  32
TORSDOF 20
ENDMDL
MODEL 2
REMARK VINA RESULT:     -11.3      2.285      4.551
REMARK SMILES Cc1ccc(C(=O)N2C[C@@H](C(=O)OCCOCCOC(=O)c3ccc(-c4c5nc(c(-c6ccc(S(=O)(=O)[O-])cc6)c6ccc([nH]6)c(-c6ccc(S(=O)(=O)[O-])cc6)c6nc(c(-c7ccc(S(=O)(=O)[O-])cc7)c7ccc4[nH]7)C=C6)C=C5)cc3)C[C@H](C(=O)N3CCOCC3)C2)cc1F
REMARK SMILES IDX 17 1 16 2 15 3 14 4 13 5 11 6 12 7 10 8 8 9 9 10 92 11 83 12
REMARK SMILES IDX 82 13 6 14 7 15 5 16 1 17 2 18 3 19 94 20 4 21 93 22 95 23
REMARK SMILES IDX 84 24 85 25 86 26 87 27 91 28 88 29 90 30 89 31 18 32 19 33
REMARK SMILES IDX 20 34 21 35 22 36 23 37 81 38 24 39 80 40 25 41 26 42 27 43
REMARK SMILES IDX 74 44 28 45 79 46 73 47 75 48 29 49 78 50 72 51 71 52 30 54
REMARK SMILES IDX 60 55 41 56 59 57 42 58 45 59 58 60 76 61 43 62 44 63 57 65
REMARK SMILES IDX 77 66 46 67 31 68 32 69 40 70 33 71 39 72 34 73 35 74 36 75
REMARK SMILES IDX 37 76 38 77 61 78 62 79 70 80 63 81 69 82 64 83 65 84 66 85
REMARK SMILES IDX 67 86 68 87 47 88 48 89 56 90 49 91 55 92 50 93 51 94 52 95
REMARK SMILES IDX 53 96 54 97
REMARK H PARENT 75 53 45 64
REMARK Flexibility Score: inf
ROOT
ATOM      1  C   UNL A   1      41.149  21.384  26.465  1.00  0.00     0.202 C 
ENDROOT
BRANCH   1   2
ATOM      2  O   UNL A   1      39.940  21.940  26.975  1.00  0.00    -0.374 OA
BRANCH   2   3
ATOM      3  C   UNL A   1      38.813  21.991  26.105  1.00  0.00     0.202 C 
BRANCH   3   4
ATOM      4  C   UNL A   1      38.095  23.337  25.935  1.00  0.00     0.261 C 
BRANCH   4   5
ATOM      5  O   UNL A   1      36.672  23.228  25.746  1.00  0.00    -0.463 OA
BRANCH   5   6
ATOM      6  C   UNL A   1      36.267  23.363  24.457  1.00  0.00     0.310 C 
ATOM      7  O   UNL A   1      36.963  23.143  23.473  1.00  0.00    -0.252 OA
BRANCH   6   8
ATOM      8  C   UNL A   1      34.831  23.798  24.321  1.00  0.00     0.119 C 
ATOM      9  N   UNL A   1      32.655  23.197  23.497  1.00  0.00    -0.337 N 
ATOM     10  C   UNL A   1      34.082  22.947  23.327  1.00  0.00     0.135 C 
ATOM     11  C   UNL A   1      32.196  24.578  23.317  1.00  0.00     0.133 C 
ATOM     12  C   UNL A   1      33.071  25.618  24.066  1.00  0.00     0.099 C 
ATOM     13  C   UNL A   1      34.568  25.281  24.041  1.00  0.00     0.032 C 
BRANCH   9  14
ATOM     14  C   UNL A   1      31.909  22.259  24.197  1.00  0.00     0.254 C 
ATOM     15  O   UNL A   1      30.959  22.565  24.912  1.00  0.00    -0.269 OA
BRANCH  14  16
ATOM     16  C   UNL A   1      32.388  20.853  24.196  1.00  0.00     0.042 A 
ATOM     17  C   UNL A   1      32.946  16.592  24.337  1.00  0.00     0.047 C 
ATOM     18  C   UNL A   1      32.827  18.084  24.285  1.00  0.00    -0.015 A 
ATOM     19  C   UNL A   1      33.003  18.860  25.435  1.00  0.00     0.007 A 
ATOM     20  C   UNL A   1      32.470  18.719  23.090  1.00  0.00     0.126 A 
ATOM     21  C   UNL A   1      32.783  20.238  25.392  1.00  0.00     0.014 A 
ATOM     22  C   UNL A   1      32.243  20.089  23.035  1.00  0.00     0.053 A 
ATOM     23  F   UNL A   1      32.295  17.989  21.978  1.00  0.00    -0.207 F 
ENDBRANCH  14  16
ENDBRANCH   9  14
BRANCH  12  24
ATOM     24  C   UNL A   1      32.407  25.990  25.405  1.00  0.00     0.227 C 
ATOM     25  O   UNL A   1      32.295  25.104  26.262  1.00  0.00    -0.275 OA
ATOM     26  N   UNL A   1      32.179  27.308  25.741  1.00  0.00    -0.338 N 
ATOM     27  C   UNL A   1      31.214  28.197  25.079  1.00  0.00     0.148 C 
ATOM     28  C   UNL A   1      32.404  27.699  27.134  1.00  0.00     0.148 C 
ATOM     29  C   UNL A   1      31.645  29.665  25.219  1.00  0.00     0.181 C 
ATOM     30  C   UNL A   1      32.802  29.175  27.216  1.00  0.00     0.181 C 
ATOM     31  O   UNL A   1      31.803  30.010  26.607  1.00  0.00    -0.378 OA
ENDBRANCH  12  24
ENDBRANCH   6   8
ENDBRANCH   5   6
ENDBRANCH   4   5
ENDBRANCH   3   4
ENDBRANCH   2   3
ENDBRANCH   1   2
BRANCH   1  32
ATOM     32  C   UNL A   1      42.321  22.340  26.202  1.00  0.00     0.261 C 
BRANCH  32  33
ATOM     33  O   UNL A   1      41.905  23.718  26.144  1.00  0.00    -0.460 OA
BRANCH  33  34
ATOM     34  C   UNL A   1      42.861  24.605  26.518  1.00  0.00     0.338 C 
ATOM     35  O   UNL A   1      44.000  24.682  26.092  1.00  0.00    -0.246 OA
BRANCH  34  36
ATOM     36  C   UNL A   1      42.291  25.632  27.409  1.00  0.00     0.060 A 
ATOM     37  C   UNL A   1      43.044  26.794  27.620  1.00  0.00     0.016 A 
ATOM     38  C   UNL A   1      41.110  25.411  28.119  1.00  0.00     0.016 A 
ATOM     39  C   UNL A   1      42.639  27.721  28.577  1.00  0.00     0.010 A 
ATOM     40  C   UNL A   1      40.711  26.341  29.089  1.00  0.00     0.010 A 
ATOM     41  C   UNL A   1      41.492  27.481  29.347  1.00  0.00    -0.014 A 
BRANCH  41  42
ATOM     42  C   UNL A   1      41.202  28.372  30.497  1.00  0.00     0.031 A 
ATOM     43  C   UNL A   1      42.055  28.284  31.734  1.00  0.00     0.074 A 
ATOM     44  C   UNL A   1      40.227  29.296  30.415  1.00  0.00     0.049 A 
ATOM     45  N   UNL A   1      42.013  29.013  32.821  1.00  0.00    -0.248 NA
ATOM     46  C   UNL A   1      43.097  27.244  31.746  1.00  0.00     0.031 C 
ATOM     47  C   UNL A   1      39.355  29.504  29.261  1.00  0.00     0.029 A 
ATOM     48  N   UNL A   1      39.819  30.242  31.322  1.00  0.00    -0.354 N 
ATOM     49  C   UNL A   1      43.022  28.523  33.644  1.00  0.00     0.074 A 
ATOM     50  C   UNL A   1      43.637  27.416  32.944  1.00  0.00     0.031 C 
ATOM     51  C   UNL A   1      38.514  30.518  29.527  1.00  0.00     0.029 A 
ATOM     52  C   UNL A   1      38.776  31.018  30.876  1.00  0.00     0.049 A 
ATOM     53  H   UNL A   1      40.233  30.355  32.207  1.00  0.00     0.167 HD
ATOM     54  C   UNL A   1      43.408  28.960  34.867  1.00  0.00     0.031 A 
ATOM     55  C   UNL A   1      38.105  32.014  31.487  1.00  0.00     0.031 A 
ATOM     56  C   UNL A   1      42.786  30.050  35.573  1.00  0.00     0.049 A 
ATOM     57  C   UNL A   1      38.516  32.446  32.868  1.00  0.00     0.074 A 
ATOM     58  C   UNL A   1      43.113  30.573  36.812  1.00  0.00     0.029 A 
ATOM     59  N   UNL A   1      41.704  30.780  35.106  1.00  0.00    -0.354 N 
ATOM     60  N   UNL A   1      39.489  31.988  33.619  1.00  0.00    -0.248 NA
ATOM     61  C   UNL A   1      37.743  33.537  33.477  1.00  0.00     0.031 C 
ATOM     62  C   UNL A   1      42.197  31.587  37.116  1.00  0.00     0.029 A 
ATOM     63  C   UNL A   1      41.334  31.731  36.043  1.00  0.00     0.049 A 
ATOM     64  H   UNL A   1      41.262  30.642  34.237  1.00  0.00     0.167 HD
ATOM     65  C   UNL A   1      39.458  32.751  34.783  1.00  0.00     0.074 A 
ATOM     66  C   UNL A   1      38.383  33.709  34.626  1.00  0.00     0.031 C 
ATOM     67  C   UNL A   1      40.250  32.667  35.881  1.00  0.00     0.031 A 
BRANCH  54  68
ATOM     68  C   UNL A   1      44.543  28.231  35.535  1.00  0.00    -0.014 A 
ATOM     69  C   UNL A   1      44.305  27.113  36.355  1.00  0.00     0.010 A 
ATOM     70  C   UNL A   1      45.867  28.653  35.317  1.00  0.00     0.010 A 
ATOM     71  C   UNL A   1      45.370  26.452  36.974  1.00  0.00     0.020 A 
ATOM     72  C   UNL A   1      46.936  27.980  35.917  1.00  0.00     0.020 A 
ATOM     73  C   UNL A   1      46.678  26.894  36.756  1.00  0.00     0.054 A 
BRANCH  73  74
ATOM     74  S   UNL A   1      48.044  26.010  37.560  1.00  0.00     0.124 S 
ATOM     75  O   UNL A   1      47.514  24.651  37.643  1.00  0.00    -0.237 OA
ATOM     76  O   UNL A   1      49.147  26.198  36.621  1.00  0.00    -0.237 OA
ATOM     77  O   UNL A   1      48.196  26.699  38.839  1.00  0.00    -0.744 OA
ENDBRANCH  73  74
ENDBRANCH  54  68
BRANCH  55  78
ATOM     78  C   UNL A   1      36.964  32.669  30.792  1.00  0.00    -0.014 A 
ATOM     79  C   UNL A   1      35.639  32.291  31.069  1.00  0.00     0.010 A 
ATOM     80  C   UNL A   1      37.205  33.685  29.849  1.00  0.00     0.010 A 
ATOM     81  C   UNL A   1      34.575  32.910  30.407  1.00  0.00     0.020 A 
ATOM     82  C   UNL A   1      36.142  34.323  29.204  1.00  0.00     0.020 A 
ATOM     83  C   UNL A   1      34.834  33.924  29.479  1.00  0.00     0.054 A 
BRANCH  83  84
ATOM     84  S   UNL A   1      33.437  34.760  28.677  1.00  0.00     0.124 S 
ATOM     85  O   UNL A   1      34.063  35.978  28.172  1.00  0.00    -0.237 OA
ATOM     86  O   UNL A   1      33.028  33.790  27.663  1.00  0.00    -0.237 OA
ATOM     87  O   UNL A   1      32.483  34.948  29.767  1.00  0.00    -0.744 OA
ENDBRANCH  83  84
ENDBRANCH  55  78
BRANCH  67  88
ATOM     88  C   UNL A   1      39.992  33.653  36.990  1.00  0.00    -0.014 A 
ATOM     89  C   UNL A   1      39.059  33.377  38.006  1.00  0.00     0.010 A 
ATOM     90  C   UNL A   1      40.706  34.864  37.025  1.00  0.00     0.010 A 
ATOM     91  C   UNL A   1      38.812  34.316  39.011  1.00  0.00     0.020 A 
ATOM     92  C   UNL A   1      40.480  35.794  38.044  1.00  0.00     0.020 A 
ATOM     93  C   UNL A   1      39.518  35.523  39.018  1.00  0.00     0.054 A 
BRANCH  93  94
ATOM     94  S   UNL A   1      39.187  36.725  40.336  1.00  0.00     0.124 S 
ATOM     95  O   UNL A   1      38.328  35.959  41.235  1.00  0.00    -0.237 OA
ATOM     96  O   UNL A   1      40.524  37.021  40.847  1.00  0.00    -0.237 OA
ATOM     97  O   UNL A   1      38.535  37.830  39.639  1.00  0.00    -0.744 OA
ENDBRANCH  93  94
ENDBRANCH  67  88
ENDBRANCH  41  42
ENDBRANCH  34  36
ENDBRANCH  33  34
ENDBRANCH  32  33
ENDBRANCH   1  32
TORSDOF 20
ENDMDL
MODEL 3
REMARK VINA RESULT:     -11.3      1.285      7.796
REMARK SMILES Cc1ccc(C(=O)N2C[C@@H](C(=O)OCCOCCOC(=O)c3ccc(-c4c5nc(c(-c6ccc(S(=O)(=O)[O-])cc6)c6ccc([nH]6)c(-c6ccc(S(=O)(=O)[O-])cc6)c6nc(c(-c7ccc(S(=O)(=O)[O-])cc7)c7ccc4[nH]7)C=C6)C=C5)cc3)C[C@H](C(=O)N3CCOCC3)C2)cc1F
REMARK SMILES IDX 17 1 16 2 15 3 14 4 13 5 11 6 12 7 10 8 8 9 9 10 92 11 83 12
REMARK SMILES IDX 82 13 6 14 7 15 5 16 1 17 2 18 3 19 94 20 4 21 93 22 95 23
REMARK SMILES IDX 84 24 85 25 86 26 87 27 91 28 88 29 90 30 89 31 18 32 19 33
REMARK SMILES IDX 20 34 21 35 22 36 23 37 81 38 24 39 80 40 25 41 26 42 27 43
REMARK SMILES IDX 74 44 28 45 79 46 73 47 75 48 29 49 78 50 72 51 71 52 30 54
REMARK SMILES IDX 60 55 41 56 59 57 42 58 45 59 58 60 76 61 43 62 44 63 57 65
REMARK SMILES IDX 77 66 46 67 31 68 32 69 40 70 33 71 39 72 34 73 35 74 36 75
REMARK SMILES IDX 37 76 38 77 61 78 62 79 70 80 63 81 69 82 64 83 65 84 66 85
REMARK SMILES IDX 67 86 68 87 47 88 48 89 56 90 49 91 55 92 50 93 51 94 52 95
REMARK SMILES IDX 53 96 54 97
REMARK H PARENT 75 53 45 64
REMARK Flexibility Score: inf
ROOT
ATOM      1  C   UNL A   1      41.669  22.282  27.124  1.00  0.00     0.202 C 
ENDROOT
BRANCH   1   2
ATOM      2  O   UNL A   1      40.290  22.452  27.440  1.00  0.00    -0.374 OA
BRANCH   2   3
ATOM      3  C   UNL A   1      39.331  22.054  26.465  1.00  0.00     0.202 C 
BRANCH   3   4
ATOM      4  C   UNL A   1      38.305  23.096  25.996  1.00  0.00     0.261 C 
BRANCH   4   5
ATOM      5  O   UNL A   1      36.948  22.618  25.966  1.00  0.00    -0.463 OA
BRANCH   5   6
ATOM      6  C   UNL A   1      36.549  22.142  24.759  1.00  0.00     0.310 C 
ATOM      7  O   UNL A   1      37.296  21.878  23.824  1.00  0.00    -0.252 OA
BRANCH   6   8
ATOM      8  C   UNL A   1      35.060  21.932  24.658  1.00  0.00     0.119 C 
ATOM      9  N   UNL A   1      32.931  23.005  24.359  1.00  0.00    -0.337 N 
ATOM     10  C   UNL A   1      34.304  23.229  24.798  1.00  0.00     0.135 C 
ATOM     11  C   UNL A   1      32.164  21.977  25.070  1.00  0.00     0.133 C 
ATOM     12  C   UNL A   1      32.947  20.651  25.263  1.00  0.00     0.099 C 
ATOM     13  C   UNL A   1      34.437  20.864  25.562  1.00  0.00     0.032 C 
BRANCH   9  14
ATOM     14  C   UNL A   1      32.573  23.443  23.091  1.00  0.00     0.254 C 
ATOM     15  O   UNL A   1      33.008  22.930  22.064  1.00  0.00    -0.269 OA
BRANCH  14  16
ATOM     16  C   UNL A   1      31.758  24.681  22.991  1.00  0.00     0.042 A 
ATOM     17  C   UNL A   1      29.765  28.463  23.458  1.00  0.00     0.047 C 
ATOM     18  C   UNL A   1      30.416  27.132  23.235  1.00  0.00    -0.015 A 
ATOM     19  C   UNL A   1      29.806  25.951  23.671  1.00  0.00     0.007 A 
ATOM     20  C   UNL A   1      31.681  27.060  22.643  1.00  0.00     0.126 A 
ATOM     21  C   UNL A   1      30.474  24.731  23.552  1.00  0.00     0.014 A 
ATOM     22  C   UNL A   1      32.359  25.852  22.523  1.00  0.00     0.053 A 
ATOM     23  F   UNL A   1      32.281  28.183  22.222  1.00  0.00    -0.207 F 
ENDBRANCH  14  16
ENDBRANCH   9  14
BRANCH  12  24
ATOM     24  C   UNL A   1      32.537  19.642  24.174  1.00  0.00     0.227 C 
ATOM     25  O   UNL A   1      32.131  20.087  23.093  1.00  0.00    -0.275 OA
ATOM     26  N   UNL A   1      32.847  18.303  24.296  1.00  0.00    -0.338 N 
ATOM     27  C   UNL A   1      32.269  17.386  25.288  1.00  0.00     0.148 C 
ATOM     28  C   UNL A   1      33.267  17.594  23.086  1.00  0.00     0.148 C 
ATOM     29  C   UNL A   1      33.236  16.230  25.586  1.00  0.00     0.181 C 
ATOM     30  C   UNL A   1      34.204  16.437  23.444  1.00  0.00     0.181 C 
ATOM     31  O   UNL A   1      33.576  15.536  24.372  1.00  0.00    -0.378 OA
ENDBRANCH  12  24
ENDBRANCH   6   8
ENDBRANCH   5   6
ENDBRANCH   4   5
ENDBRANCH   3   4
ENDBRANCH   2   3
ENDBRANCH   1   2
BRANCH   1  32
ATOM     32  C   UNL A   1      42.296  23.250  26.112  1.00  0.00     0.261 C 
BRANCH  32  33
ATOM     33  O   UNL A   1      42.469  24.575  26.652  1.00  0.00    -0.460 OA
BRANCH  33  34
ATOM     34  C   UNL A   1      41.619  25.501  26.140  1.00  0.00     0.338 C 
ATOM     35  O   UNL A   1      41.120  25.506  25.029  1.00  0.00    -0.246 OA
BRANCH  34  36
ATOM     36  C   UNL A   1      41.203  26.451  27.187  1.00  0.00     0.060 A 
ATOM     37  C   UNL A   1      41.853  27.691  27.229  1.00  0.00     0.016 A 
ATOM     38  C   UNL A   1      40.291  26.094  28.182  1.00  0.00     0.016 A 
ATOM     39  C   UNL A   1      41.624  28.563  28.291  1.00  0.00     0.010 A 
ATOM     40  C   UNL A   1      40.071  26.968  29.254  1.00  0.00     0.010 A 
ATOM     41  C   UNL A   1      40.763  28.189  29.332  1.00  0.00    -0.014 A 
BRANCH  41  42
ATOM     42  C   UNL A   1      40.700  29.036  30.549  1.00  0.00     0.031 A 
ATOM     43  C   UNL A   1      39.657  30.118  30.644  1.00  0.00     0.074 A 
ATOM     44  C   UNL A   1      41.523  28.800  31.588  1.00  0.00     0.049 A 
ATOM     45  N   UNL A   1      39.390  30.922  31.642  1.00  0.00    -0.248 NA
ATOM     46  C   UNL A   1      38.800  30.315  29.464  1.00  0.00     0.031 C 
ATOM     47  C   UNL A   1      42.551  27.762  31.631  1.00  0.00     0.029 A 
ATOM     48  N   UNL A   1      41.611  29.415  32.811  1.00  0.00    -0.354 N 
ATOM     49  C   UNL A   1      38.332  31.717  31.212  1.00  0.00     0.074 A 
ATOM     50  C   UNL A   1      38.029  31.320  29.854  1.00  0.00     0.031 C 
ATOM     51  C   UNL A   1      43.166  27.809  32.826  1.00  0.00     0.029 A 
ATOM     52  C   UNL A   1      42.589  28.890  33.621  1.00  0.00     0.049 A 
ATOM     53  H   UNL A   1      41.029  30.161  33.083  1.00  0.00     0.167 HD
ATOM     54  C   UNL A   1      37.668  32.684  31.889  1.00  0.00     0.031 A 
ATOM     55  C   UNL A   1      42.979  29.246  34.861  1.00  0.00     0.031 A 
ATOM     56  C   UNL A   1      37.978  33.094  33.235  1.00  0.00     0.049 A 
ATOM     57  C   UNL A   1      42.262  30.361  35.572  1.00  0.00     0.074 A 
ATOM     58  C   UNL A   1      37.354  34.058  34.008  1.00  0.00     0.029 A 
ATOM     59  N   UNL A   1      39.005  32.569  34.004  1.00  0.00    -0.354 N 
ATOM     60  N   UNL A   1      41.248  31.083  35.161  1.00  0.00    -0.248 NA
ATOM     61  C   UNL A   1      42.736  30.697  36.922  1.00  0.00     0.031 C 
ATOM     62  C   UNL A   1      38.035  34.150  35.227  1.00  0.00     0.029 A 
ATOM     63  C   UNL A   1      39.049  33.206  35.233  1.00  0.00     0.049 A 
ATOM     64  H   UNL A   1      39.614  31.850  33.718  1.00  0.00     0.167 HD
ATOM     65  C   UNL A   1      40.950  31.948  36.210  1.00  0.00     0.074 A 
ATOM     66  C   UNL A   1      41.879  31.644  37.278  1.00  0.00     0.031 C 
ATOM     67  C   UNL A   1      39.991  32.906  36.282  1.00  0.00     0.031 A 
BRANCH  54  68
ATOM     68  C   UNL A   1      36.552  33.392  31.167  1.00  0.00    -0.014 A 
ATOM     69  C   UNL A   1      36.746  33.931  29.882  1.00  0.00     0.010 A 
ATOM     70  C   UNL A   1      35.285  33.492  31.769  1.00  0.00     0.010 A 
ATOM     71  C   UNL A   1      35.701  34.592  29.229  1.00  0.00     0.020 A 
ATOM     72  C   UNL A   1      34.232  34.132  31.108  1.00  0.00     0.020 A 
ATOM     73  C   UNL A   1      34.452  34.693  29.849  1.00  0.00     0.054 A 
BRANCH  73  74
ATOM     74  S   UNL A   1      33.109  35.543  28.974  1.00  0.00     0.124 S 
ATOM     75  O   UNL A   1      33.842  36.541  28.198  1.00  0.00    -0.237 OA
ATOM     76  O   UNL A   1      32.499  34.467  28.197  1.00  0.00    -0.237 OA
ATOM     77  O   UNL A   1      32.278  36.077  30.050  1.00  0.00    -0.744 OA
ENDBRANCH  73  74
ENDBRANCH  54  68
BRANCH  55  78
ATOM     78  C   UNL A   1      44.116  28.537  35.508  1.00  0.00    -0.014 A 
ATOM     79  C   UNL A   1      43.890  27.479  36.404  1.00  0.00     0.010 A 
ATOM     80  C   UNL A   1      45.438  28.922  35.221  1.00  0.00     0.010 A 
ATOM     81  C   UNL A   1      44.965  26.824  37.011  1.00  0.00     0.020 A 
ATOM     82  C   UNL A   1      46.517  28.253  35.806  1.00  0.00     0.020 A 
ATOM     83  C   UNL A   1      46.273  27.215  36.705  1.00  0.00     0.054 A 
BRANCH  83  84
ATOM     84  S   UNL A   1      47.658  26.311  37.452  1.00  0.00     0.124 S 
ATOM     85  O   UNL A   1      47.054  25.014  37.739  1.00  0.00    -0.237 OA
ATOM     86  O   UNL A   1      48.657  26.324  36.386  1.00  0.00    -0.237 OA
ATOM     87  O   UNL A   1      47.998  27.119  38.622  1.00  0.00    -0.744 OA
ENDBRANCH  83  84
ENDBRANCH  55  78
BRANCH  67  88
ATOM     88  C   UNL A   1      39.890  33.679  37.570  1.00  0.00    -0.014 A 
ATOM     89  C   UNL A   1      40.537  34.918  37.726  1.00  0.00     0.010 A 
ATOM     90  C   UNL A   1      39.122  33.168  38.631  1.00  0.00     0.010 A 
ATOM     91  C   UNL A   1      40.456  35.609  38.938  1.00  0.00     0.020 A 
ATOM     92  C   UNL A   1      39.018  33.868  39.836  1.00  0.00     0.020 A 
ATOM     93  C   UNL A   1      39.703  35.075  39.989  1.00  0.00     0.054 A 
BRANCH  93  94
ATOM     94  S   UNL A   1      39.605  35.991  41.552  1.00  0.00     0.124 S 
ATOM     95  O   UNL A   1      38.162  36.061  41.770  1.00  0.00    -0.237 OA
ATOM     96  O   UNL A   1      40.338  35.131  42.477  1.00  0.00    -0.237 OA
ATOM     97  O   UNL A   1      40.254  37.263  41.248  1.00  0.00    -0.744 OA
ENDBRANCH  93  94
ENDBRANCH  67  88
ENDBRANCH  41  42
ENDBRANCH  34  36
ENDBRANCH  33  34
ENDBRANCH  32  33
ENDBRANCH   1  32
TORSDOF 20
ENDMDL
