MODEL 1
REMARK VINA RESULT:     -10.7      0.000      0.000
REMARK SMILES CCOc1cccc(-c2ccc([C@@H](C)C(=O)OCCOCCOC(=O)c3ccc(-c4c5nc(c(-c6ccc(S(=O)(=O)[O-])cc6)c6ccc([nH]6)c(-c6ccc(S(=O)(=O)[O-])cc6)c6nc(c(-c7ccc(S(=O)(=O)[O-])cc7)c7ccc4[nH]7)C=C6)C=C5)cc3)cc2F)c1
REMARK SMILES IDX 19 1 18 2 17 3 15 4 16 5 13 6 14 7 12 8 9 9 10 10 87 11
REMARK SMILES IDX 11 12 86 13 88 14 8 15 4 16 5 17 89 18 6 19 7 20 3 21 2 22
REMARK SMILES IDX 1 23 20 24 21 25 22 26 23 27 24 28 25 29 26 30 27 31 85 32
REMARK SMILES IDX 28 33 84 34 29 35 30 36 31 37 78 38 32 39 83 40 77 41 79 42
REMARK SMILES IDX 33 43 82 44 76 45 75 46 34 48 64 49 45 50 63 51 46 52 49 53
REMARK SMILES IDX 62 54 80 55 47 56 48 57 61 59 81 60 50 61 35 62 36 63 44 64
REMARK SMILES IDX 37 65 43 66 38 67 39 68 40 69 41 70 42 71 65 72 66 73 74 74
REMARK SMILES IDX 67 75 73 76 68 77 69 78 70 79 71 80 72 81 51 82 52 83 60 84
REMARK SMILES IDX 53 85 59 86 54 87 55 88 56 89 57 90 58 91
REMARK H PARENT 79 47 49 58
REMARK Flexibility Score: inf
ROOT
ATOM      1  C   UNL A   1      33.210  28.497  25.480  1.00  0.00     0.202 C 
ENDROOT
BRANCH   1   2
ATOM      2  C   UNL A   1      32.780  29.340  24.277  1.00  0.00     0.261 C 
BRANCH   2   3
ATOM      3  O   UNL A   1      32.298  28.513  23.203  1.00  0.00    -0.463 OA
BRANCH   3   4
ATOM      4  C   UNL A   1      30.963  28.263  23.199  1.00  0.00     0.313 C 
ATOM      5  O   UNL A   1      30.094  29.127  23.276  1.00  0.00    -0.252 OA
BRANCH   4   6
ATOM      6  C   UNL A   1      30.613  26.786  23.125  1.00  0.00     0.126 C 
ATOM      7  C   UNL A   1      29.348  26.523  23.936  1.00  0.00     0.025 C 
BRANCH   6   8
ATOM      8  C   UNL A   1      31.706  25.771  23.434  1.00  0.00    -0.031 A 
ATOM      9  C   UNL A   1      33.873  24.052  24.165  1.00  0.00     0.018 A 
ATOM     10  C   UNL A   1      33.698  24.487  22.842  1.00  0.00     0.012 A 
ATOM     11  C   UNL A   1      32.916  24.471  25.100  1.00  0.00     0.131 A 
ATOM     12  C   UNL A   1      32.635  25.332  22.480  1.00  0.00     0.005 A 
ATOM     13  C   UNL A   1      31.854  25.306  24.749  1.00  0.00     0.044 A 
ATOM     14  F   UNL A   1      33.013  24.100  26.387  1.00  0.00    -0.206 F 
BRANCH   9  15
ATOM     15  C   UNL A   1      35.019  23.207  24.557  1.00  0.00    -0.012 A 
ATOM     16  C   UNL A   1      36.003  20.999  24.894  1.00  0.00     0.119 A 
ATOM     17  C   UNL A   1      37.174  21.570  25.381  1.00  0.00     0.046 A 
ATOM     18  C   UNL A   1      34.931  21.806  24.510  1.00  0.00     0.055 A 
ATOM     19  C   UNL A   1      37.285  22.958  25.441  1.00  0.00     0.004 A 
ATOM     20  C   UNL A   1      36.221  23.767  25.028  1.00  0.00     0.009 A 
BRANCH  16  21
ATOM     21  O   UNL A   1      35.882  19.638  24.918  1.00  0.00    -0.494 OA
BRANCH  21  22
ATOM     22  C   UNL A   1      34.535  19.198  24.693  1.00  0.00     0.226 C 
ATOM     23  C   UNL A   1      34.496  17.764  24.189  1.00  0.00     0.049 C 
ENDBRANCH  21  22
ENDBRANCH  16  21
ENDBRANCH   9  15
ENDBRANCH   6   8
ENDBRANCH   4   6
ENDBRANCH   3   4
ENDBRANCH   2   3
ENDBRANCH   1   2
BRANCH   1  24
ATOM     24  O   UNL A   1      32.988  29.076  26.765  1.00  0.00    -0.374 OA
BRANCH  24  25
ATOM     25  C   UNL A   1      34.135  29.348  27.570  1.00  0.00     0.202 C 
BRANCH  25  26
ATOM     26  C   UNL A   1      34.461  30.824  27.831  1.00  0.00     0.261 C 
BRANCH  26  27
ATOM     27  O   UNL A   1      35.875  31.082  27.814  1.00  0.00    -0.460 OA
BRANCH  27  28
ATOM     28  C   UNL A   1      36.498  30.946  29.008  1.00  0.00     0.338 C 
ATOM     29  O   UNL A   1      36.076  31.289  30.104  1.00  0.00    -0.246 OA
BRANCH  28  30
ATOM     30  C   UNL A   1      37.721  30.138  28.847  1.00  0.00     0.060 A 
ATOM     31  C   UNL A   1      38.465  29.840  29.997  1.00  0.00     0.016 A 
ATOM     32  C   UNL A   1      38.175  29.745  27.586  1.00  0.00     0.016 A 
ATOM     33  C   UNL A   1      39.695  29.194  29.889  1.00  0.00     0.010 A 
ATOM     34  C   UNL A   1      39.414  29.108  27.479  1.00  0.00     0.010 A 
ATOM     35  C   UNL A   1      40.195  28.864  28.623  1.00  0.00    -0.014 A 
BRANCH  35  36
ATOM     36  C   UNL A   1      41.605  28.434  28.465  1.00  0.00     0.031 A 
ATOM     37  C   UNL A   1      42.686  29.478  28.557  1.00  0.00     0.074 A 
ATOM     38  C   UNL A   1      41.922  27.150  28.228  1.00  0.00     0.049 A 
ATOM     39  N   UNL A   1      43.965  29.371  28.311  1.00  0.00    -0.248 NA
ATOM     40  C   UNL A   1      42.262  30.825  28.977  1.00  0.00     0.031 C 
ATOM     41  C   UNL A   1      40.975  26.038  28.185  1.00  0.00     0.029 A 
ATOM     42  N   UNL A   1      43.137  26.569  27.959  1.00  0.00    -0.354 N 
ATOM     43  C   UNL A   1      44.495  30.638  28.521  1.00  0.00     0.074 A 
ATOM     44  C   UNL A   1      43.400  31.501  28.902  1.00  0.00     0.031 C 
ATOM     45  C   UNL A   1      41.642  24.909  27.882  1.00  0.00     0.029 A 
ATOM     46  C   UNL A   1      43.053  25.229  27.666  1.00  0.00     0.049 A 
ATOM     47  H   UNL A   1      43.987  27.066  27.975  1.00  0.00     0.167 HD
ATOM     48  C   UNL A   1      45.781  31.047  28.401  1.00  0.00     0.031 A 
ATOM     49  C   UNL A   1      43.998  24.370  27.234  1.00  0.00     0.031 A 
ATOM     50  C   UNL A   1      46.864  30.185  28.014  1.00  0.00     0.049 A 
ATOM     51  C   UNL A   1      45.406  24.862  27.028  1.00  0.00     0.074 A 
ATOM     52  C   UNL A   1      48.203  30.500  27.867  1.00  0.00     0.029 A 
ATOM     53  N   UNL A   1      46.732  28.839  27.707  1.00  0.00    -0.354 N 
ATOM     54  N   UNL A   1      45.896  26.063  27.227  1.00  0.00    -0.248 NA
ATOM     55  C   UNL A   1      46.392  23.886  26.538  1.00  0.00     0.031 C 
ATOM     56  C   UNL A   1      48.872  29.357  27.422  1.00  0.00     0.029 A 
ATOM     57  C   UNL A   1      47.961  28.314  27.352  1.00  0.00     0.049 A 
ATOM     58  H   UNL A   1      45.888  28.332  27.738  1.00  0.00     0.167 HD
ATOM     59  C   UNL A   1      47.251  25.977  26.924  1.00  0.00     0.074 A 
ATOM     60  C   UNL A   1      47.505  24.609  26.525  1.00  0.00     0.031 C 
ATOM     61  C   UNL A   1      48.200  26.943  26.980  1.00  0.00     0.031 A 
BRANCH  48  62
ATOM     62  C   UNL A   1      46.075  32.501  28.649  1.00  0.00    -0.014 A 
ATOM     63  C   UNL A   1      46.485  32.959  29.914  1.00  0.00     0.010 A 
ATOM     64  C   UNL A   1      45.971  33.419  27.588  1.00  0.00     0.010 A 
ATOM     65  C   UNL A   1      46.748  34.315  30.122  1.00  0.00     0.020 A 
ATOM     66  C   UNL A   1      46.259  34.772  27.786  1.00  0.00     0.020 A 
ATOM     67  C   UNL A   1      46.630  35.214  29.056  1.00  0.00     0.054 A 
BRANCH  67  68
ATOM     68  S   UNL A   1      46.991  36.967  29.350  1.00  0.00     0.124 S 
ATOM     69  O   UNL A   1      46.105  37.622  28.392  1.00  0.00    -0.237 OA
ATOM     70  O   UNL A   1      46.632  37.138  30.756  1.00  0.00    -0.237 OA
ATOM     71  O   UNL A   1      48.418  37.081  29.057  1.00  0.00    -0.744 OA
ENDBRANCH  67  68
ENDBRANCH  48  62
BRANCH  49  72
ATOM     72  C   UNL A   1      43.633  22.957  26.935  1.00  0.00    -0.014 A 
ATOM     73  C   UNL A   1      44.217  22.279  25.852  1.00  0.00     0.010 A 
ATOM     74  C   UNL A   1      42.697  22.281  27.740  1.00  0.00     0.010 A 
ATOM     75  C   UNL A   1      43.866  20.955  25.572  1.00  0.00     0.020 A 
ATOM     76  C   UNL A   1      42.364  20.949  27.481  1.00  0.00     0.020 A 
ATOM     77  C   UNL A   1      42.943  20.297  26.391  1.00  0.00     0.054 A 
BRANCH  77  78
ATOM     78  S   UNL A   1      42.544  18.561  26.044  1.00  0.00     0.124 S 
ATOM     79  O   UNL A   1      42.905  17.910  27.300  1.00  0.00    -0.237 OA
ATOM     80  O   UNL A   1      41.115  18.619  25.748  1.00  0.00    -0.237 OA
ATOM     81  O   UNL A   1      43.395  18.237  24.902  1.00  0.00    -0.744 OA
ENDBRANCH  77  78
ENDBRANCH  49  72
BRANCH  61  82
ATOM     82  C   UNL A   1      49.621  26.560  26.662  1.00  0.00    -0.014 A 
ATOM     83  C   UNL A   1      50.450  25.960  27.623  1.00  0.00     0.010 A 
ATOM     84  C   UNL A   1      50.086  26.696  25.340  1.00  0.00     0.010 A 
ATOM     85  C   UNL A   1      51.723  25.502  27.268  1.00  0.00     0.020 A 
ATOM     86  C   UNL A   1      51.348  26.220  24.976  1.00  0.00     0.020 A 
ATOM     87  C   UNL A   1      52.160  25.628  25.944  1.00  0.00     0.054 A 
BRANCH  87  88
ATOM     88  S   UNL A   1      53.775  24.938  25.487  1.00  0.00     0.124 S 
ATOM     89  O   UNL A   1      54.519  25.049  26.739  1.00  0.00    -0.237 OA
ATOM     90  O   UNL A   1      53.437  23.578  25.075  1.00  0.00    -0.237 OA
ATOM     91  O   UNL A   1      54.233  25.814  24.410  1.00  0.00    -0.744 OA
ENDBRANCH  87  88
ENDBRANCH  61  82
ENDBRANCH  35  36
ENDBRANCH  28  30
ENDBRANCH  27  28
ENDBRANCH  26  27
ENDBRANCH  25  26
ENDBRANCH  24  25
ENDBRANCH   1  24
TORSDOF 21
ENDMDL
MODEL 2
REMARK VINA RESULT:      -9.9      5.258      7.199
REMARK SMILES CCOc1cccc(-c2ccc([C@@H](C)C(=O)OCCOCCOC(=O)c3ccc(-c4c5nc(c(-c6ccc(S(=O)(=O)[O-])cc6)c6ccc([nH]6)c(-c6ccc(S(=O)(=O)[O-])cc6)c6nc(c(-c7ccc(S(=O)(=O)[O-])cc7)c7ccc4[nH]7)C=C6)C=C5)cc3)cc2F)c1
REMARK SMILES IDX 19 1 18 2 17 3 15 4 16 5 13 6 14 7 12 8 9 9 10 10 87 11
REMARK SMILES IDX 11 12 86 13 88 14 8 15 4 16 5 17 89 18 6 19 7 20 3 21 2 22
REMARK SMILES IDX 1 23 20 24 21 25 22 26 23 27 24 28 25 29 26 30 27 31 85 32
REMARK SMILES IDX 28 33 84 34 29 35 30 36 31 37 78 38 32 39 83 40 77 41 79 42
REMARK SMILES IDX 33 43 82 44 76 45 75 46 34 48 64 49 45 50 63 51 46 52 49 53
REMARK SMILES IDX 62 54 80 55 47 56 48 57 61 59 81 60 50 61 35 62 36 63 44 64
REMARK SMILES IDX 37 65 43 66 38 67 39 68 40 69 41 70 42 71 65 72 66 73 74 74
REMARK SMILES IDX 67 75 73 76 68 77 69 78 70 79 71 80 72 81 51 82 52 83 60 84
REMARK SMILES IDX 53 85 59 86 54 87 55 88 56 89 57 90 58 91
REMARK H PARENT 79 47 49 58
REMARK Flexibility Score: inf
ROOT
ATOM      1  C   UNL A   1      34.293  34.764  32.859  1.00  0.00     0.202 C 
ENDROOT
BRANCH   1   2
ATOM      2  C   UNL A   1      34.566  34.647  31.357  1.00  0.00     0.261 C 
BRANCH   2   3
ATOM      3  O   UNL A   1      35.455  33.552  31.070  1.00  0.00    -0.463 OA
BRANCH   3   4
ATOM      4  C   UNL A   1      36.350  33.762  30.070  1.00  0.00     0.313 C 
ATOM      5  O   UNL A   1      36.079  34.282  28.992  1.00  0.00    -0.252 OA
BRANCH   4   6
ATOM      6  C   UNL A   1      37.750  33.260  30.382  1.00  0.00     0.126 C 
ATOM      7  C   UNL A   1      38.762  34.366  30.095  1.00  0.00     0.025 C 
BRANCH   6   8
ATOM      8  C   UNL A   1      38.186  31.926  29.788  1.00  0.00    -0.031 A 
ATOM      9  C   UNL A   1      39.209  29.550  28.567  1.00  0.00     0.018 A 
ATOM     10  C   UNL A   1      37.985  30.110  28.167  1.00  0.00     0.012 A 
ATOM     11  C   UNL A   1      39.885  30.190  29.615  1.00  0.00     0.131 A 
ATOM     12  C   UNL A   1      37.481  31.278  28.764  1.00  0.00     0.005 A 
ATOM     13  C   UNL A   1      39.388  31.348  30.218  1.00  0.00     0.044 A 
ATOM     14  F   UNL A   1      41.063  29.720  30.055  1.00  0.00    -0.206 F 
BRANCH   9  15
ATOM     15  C   UNL A   1      39.766  28.354  27.904  1.00  0.00    -0.012 A 
ATOM     16  C   UNL A   1      41.168  27.351  26.176  1.00  0.00     0.119 A 
ATOM     17  C   UNL A   1      40.781  26.075  26.570  1.00  0.00     0.046 A 
ATOM     18  C   UNL A   1      40.649  28.476  26.819  1.00  0.00     0.055 A 
ATOM     19  C   UNL A   1      39.903  25.926  27.642  1.00  0.00     0.004 A 
ATOM     20  C   UNL A   1      39.406  27.054  28.305  1.00  0.00     0.009 A 
BRANCH  16  21
ATOM     21  O   UNL A   1      41.965  27.481  25.073  1.00  0.00    -0.494 OA
BRANCH  21  22
ATOM     22  C   UNL A   1      43.353  27.624  25.406  1.00  0.00     0.226 C 
ATOM     23  C   UNL A   1      43.829  26.488  26.297  1.00  0.00     0.049 C 
ENDBRANCH  21  22
ENDBRANCH  16  21
ENDBRANCH   9  15
ENDBRANCH   6   8
ENDBRANCH   4   6
ENDBRANCH   3   4
ENDBRANCH   2   3
ENDBRANCH   1   2
BRANCH   1  24
ATOM     24  O   UNL A   1      35.406  35.128  33.674  1.00  0.00    -0.374 OA
BRANCH  24  25
ATOM     25  C   UNL A   1      35.784  34.223  34.711  1.00  0.00     0.202 C 
BRANCH  25  26
ATOM     26  C   UNL A   1      37.284  33.946  34.871  1.00  0.00     0.261 C 
BRANCH  26  27
ATOM     27  O   UNL A   1      37.679  33.859  36.252  1.00  0.00    -0.460 OA
BRANCH  27  28
ATOM     28  C   UNL A   1      37.836  32.601  36.725  1.00  0.00     0.338 C 
ATOM     29  O   UNL A   1      37.109  32.013  37.514  1.00  0.00    -0.246 OA
BRANCH  28  30
ATOM     30  C   UNL A   1      38.938  31.930  36.011  1.00  0.00     0.060 A 
ATOM     31  C   UNL A   1      40.251  32.262  36.376  1.00  0.00     0.016 A 
ATOM     32  C   UNL A   1      38.695  31.053  34.953  1.00  0.00     0.016 A 
ATOM     33  C   UNL A   1      41.328  31.759  35.648  1.00  0.00     0.010 A 
ATOM     34  C   UNL A   1      39.775  30.560  34.217  1.00  0.00     0.010 A 
ATOM     35  C   UNL A   1      41.092  30.940  34.537  1.00  0.00    -0.014 A 
BRANCH  35  36
ATOM     36  C   UNL A   1      42.192  30.624  33.594  1.00  0.00     0.031 A 
ATOM     37  C   UNL A   1      42.528  31.628  32.525  1.00  0.00     0.074 A 
ATOM     38  C   UNL A   1      42.868  29.464  33.672  1.00  0.00     0.049 A 
ATOM     39  N   UNL A   1      43.340  31.515  31.508  1.00  0.00    -0.248 NA
ATOM     40  C   UNL A   1      41.849  32.933  32.614  1.00  0.00     0.031 C 
ATOM     41  C   UNL A   1      42.683  28.443  34.701  1.00  0.00     0.029 A 
ATOM     42  N   UNL A   1      43.837  28.944  32.850  1.00  0.00    -0.354 N 
ATOM     43  C   UNL A   1      43.254  32.720  30.821  1.00  0.00     0.074 A 
ATOM     44  C   UNL A   1      42.301  33.546  31.529  1.00  0.00     0.031 C 
ATOM     45  C   UNL A   1      43.497  27.406  34.436  1.00  0.00     0.029 A 
ATOM     46  C   UNL A   1      44.225  27.672  33.196  1.00  0.00     0.049 A 
ATOM     47  H   UNL A   1      44.218  29.436  32.087  1.00  0.00     0.167 HD
ATOM     48  C   UNL A   1      43.906  33.102  29.698  1.00  0.00     0.031 A 
ATOM     49  C   UNL A   1      45.042  26.807  32.562  1.00  0.00     0.031 A 
ATOM     50  C   UNL A   1      44.846  32.273  28.995  1.00  0.00     0.049 A 
ATOM     51  C   UNL A   1      45.696  27.220  31.269  1.00  0.00     0.074 A 
ATOM     52  C   UNL A   1      45.564  32.568  27.849  1.00  0.00     0.029 A 
ATOM     53  N   UNL A   1      45.195  30.984  29.367  1.00  0.00    -0.354 N 
ATOM     54  N   UNL A   1      45.605  28.361  30.628  1.00  0.00    -0.248 NA
ATOM     55  C   UNL A   1      46.563  26.230  30.611  1.00  0.00     0.031 C 
ATOM     56  C   UNL A   1      46.309  31.438  27.501  1.00  0.00     0.029 A 
ATOM     57  C   UNL A   1      46.103  30.462  28.463  1.00  0.00     0.049 A 
ATOM     58  H   UNL A   1      44.849  30.511  30.159  1.00  0.00     0.167 HD
ATOM     59  C   UNL A   1      46.429  28.240  29.514  1.00  0.00     0.074 A 
ATOM     60  C   UNL A   1      47.010  26.915  29.566  1.00  0.00     0.031 C 
ATOM     61  C   UNL A   1      46.689  29.148  28.542  1.00  0.00     0.031 A 
BRANCH  48  62
ATOM     62  C   UNL A   1      43.590  34.462  29.137  1.00  0.00    -0.014 A 
ATOM     63  C   UNL A   1      42.568  34.642  28.188  1.00  0.00     0.010 A 
ATOM     64  C   UNL A   1      44.308  35.582  29.592  1.00  0.00     0.010 A 
ATOM     65  C   UNL A   1      42.296  35.913  27.677  1.00  0.00     0.020 A 
ATOM     66  C   UNL A   1      44.021  36.860  29.103  1.00  0.00     0.020 A 
ATOM     67  C   UNL A   1      43.027  37.014  28.136  1.00  0.00     0.054 A 
BRANCH  67  68
ATOM     68  S   UNL A   1      42.643  38.656  27.466  1.00  0.00     0.124 S 
ATOM     69  O   UNL A   1      42.231  39.381  28.665  1.00  0.00    -0.237 OA
ATOM     70  O   UNL A   1      43.919  39.073  26.889  1.00  0.00    -0.237 OA
ATOM     71  O   UNL A   1      41.580  38.397  26.499  1.00  0.00    -0.744 OA
ENDBRANCH  67  68
ENDBRANCH  48  62
BRANCH  49  72
ATOM     72  C   UNL A   1      45.263  25.447  33.127  1.00  0.00    -0.014 A 
ATOM     73  C   UNL A   1      46.360  25.188  33.967  1.00  0.00     0.010 A 
ATOM     74  C   UNL A   1      44.370  24.401  32.828  1.00  0.00     0.010 A 
ATOM     75  C   UNL A   1      46.565  23.907  34.489  1.00  0.00     0.020 A 
ATOM     76  C   UNL A   1      44.556  23.127  33.370  1.00  0.00     0.020 A 
ATOM     77  C   UNL A   1      45.659  22.885  34.189  1.00  0.00     0.054 A 
BRANCH  77  78
ATOM     78  S   UNL A   1      45.914  21.246  34.924  1.00  0.00     0.124 S 
ATOM     79  O   UNL A   1      46.275  21.581  36.297  1.00  0.00    -0.237 OA
ATOM     80  O   UNL A   1      44.607  20.615  34.748  1.00  0.00    -0.237 OA
ATOM     81  O   UNL A   1      46.986  20.672  34.115  1.00  0.00    -0.744 OA
ENDBRANCH  77  78
ENDBRANCH  49  72
BRANCH  61  82
ATOM     82  C   UNL A   1      47.687  28.781  27.477  1.00  0.00    -0.014 A 
ATOM     83  C   UNL A   1      49.056  29.056  27.629  1.00  0.00     0.010 A 
ATOM     84  C   UNL A   1      47.254  28.039  26.361  1.00  0.00     0.010 A 
ATOM     85  C   UNL A   1      49.976  28.595  26.683  1.00  0.00     0.020 A 
ATOM     86  C   UNL A   1      48.173  27.558  25.425  1.00  0.00     0.020 A 
ATOM     87  C   UNL A   1      49.529  27.841  25.591  1.00  0.00     0.054 A 
BRANCH  87  88
ATOM     88  S   UNL A   1      50.753  27.173  24.430  1.00  0.00     0.124 S 
ATOM     89  O   UNL A   1      51.146  25.928  25.083  1.00  0.00    -0.237 OA
ATOM     90  O   UNL A   1      49.978  27.022  23.201  1.00  0.00    -0.237 OA
ATOM     91  O   UNL A   1      51.786  28.206  24.385  1.00  0.00    -0.744 OA
ENDBRANCH  87  88
ENDBRANCH  61  82
ENDBRANCH  35  36
ENDBRANCH  28  30
ENDBRANCH  27  28
ENDBRANCH  26  27
ENDBRANCH  25  26
ENDBRANCH  24  25
ENDBRANCH   1  24
TORSDOF 21
ENDMDL
MODEL 3
REMARK VINA RESULT:      -9.8      6.259     10.333
REMARK SMILES CCOc1cccc(-c2ccc([C@@H](C)C(=O)OCCOCCOC(=O)c3ccc(-c4c5nc(c(-c6ccc(S(=O)(=O)[O-])cc6)c6ccc([nH]6)c(-c6ccc(S(=O)(=O)[O-])cc6)c6nc(c(-c7ccc(S(=O)(=O)[O-])cc7)c7ccc4[nH]7)C=C6)C=C5)cc3)cc2F)c1
REMARK SMILES IDX 19 1 18 2 17 3 15 4 16 5 13 6 14 7 12 8 9 9 10 10 87 11
REMARK SMILES IDX 11 12 86 13 88 14 8 15 4 16 5 17 89 18 6 19 7 20 3 21 2 22
REMARK SMILES IDX 1 23 20 24 21 25 22 26 23 27 24 28 25 29 26 30 27 31 85 32
REMARK SMILES IDX 28 33 84 34 29 35 30 36 31 37 78 38 32 39 83 40 77 41 79 42
REMARK SMILES IDX 33 43 82 44 76 45 75 46 34 48 64 49 45 50 63 51 46 52 49 53
REMARK SMILES IDX 62 54 80 55 47 56 48 57 61 59 81 60 50 61 35 62 36 63 44 64
REMARK SMILES IDX 37 65 43 66 38 67 39 68 40 69 41 70 42 71 65 72 66 73 74 74
REMARK SMILES IDX 67 75 73 76 68 77 69 78 70 79 71 80 72 81 51 82 52 83 60 84
REMARK SMILES IDX 53 85 59 86 54 87 55 88 56 89 57 90 58 91
REMARK H PARENT 79 47 49 58
REMARK Flexibility Score: inf
ROOT
ATOM      1  C   UNL A   1      33.715  27.995  25.745  1.00  0.00     0.202 C 
ENDROOT
BRANCH   1   2
ATOM      2  C   UNL A   1      33.762  28.595  24.338  1.00  0.00     0.261 C 
BRANCH   2   3
ATOM      3  O   UNL A   1      32.959  27.835  23.417  1.00  0.00    -0.463 OA
BRANCH   3   4
ATOM      4  C   UNL A   1      31.628  28.103  23.429  1.00  0.00     0.313 C 
ATOM      5  O   UNL A   1      31.137  29.169  23.792  1.00  0.00    -0.252 OA
BRANCH   4   6
ATOM      6  C   UNL A   1      30.761  26.940  22.978  1.00  0.00     0.126 C 
ATOM      7  C   UNL A   1      29.359  27.096  23.558  1.00  0.00     0.025 C 
BRANCH   6   8
ATOM      8  C   UNL A   1      31.299  25.526  23.166  1.00  0.00    -0.031 A 
ATOM      9  C   UNL A   1      32.453  22.968  23.719  1.00  0.00     0.018 A 
ATOM     10  C   UNL A   1      32.716  23.646  22.517  1.00  0.00     0.012 A 
ATOM     11  C   UNL A   1      31.572  23.589  24.615  1.00  0.00     0.131 A 
ATOM     12  C   UNL A   1      32.151  24.903  22.244  1.00  0.00     0.005 A 
ATOM     13  C   UNL A   1      31.002  24.836  24.349  1.00  0.00     0.044 A 
ATOM     14  F   UNL A   1      31.271  23.009  25.788  1.00  0.00    -0.206 F 
BRANCH   9  15
ATOM     15  C   UNL A   1      33.088  21.672  24.031  1.00  0.00    -0.012 A 
ATOM     16  C   UNL A   1      32.982  19.237  24.146  1.00  0.00     0.119 A 
ATOM     17  C   UNL A   1      34.256  19.184  24.700  1.00  0.00     0.046 A 
ATOM     18  C   UNL A   1      32.396  20.466  23.838  1.00  0.00     0.055 A 
ATOM     19  C   UNL A   1      34.963  20.367  24.906  1.00  0.00     0.004 A 
ATOM     20  C   UNL A   1      34.386  21.598  24.569  1.00  0.00     0.009 A 
BRANCH  16  21
ATOM     21  O   UNL A   1      32.273  18.074  24.027  1.00  0.00    -0.494 OA
BRANCH  21  22
ATOM     22  C   UNL A   1      32.441  17.205  25.156  1.00  0.00     0.226 C 
ATOM     23  C   UNL A   1      33.262  15.977  24.794  1.00  0.00     0.049 C 
ENDBRANCH  21  22
ENDBRANCH  16  21
ENDBRANCH   9  15
ENDBRANCH   6   8
ENDBRANCH   4   6
ENDBRANCH   3   4
ENDBRANCH   2   3
ENDBRANCH   1   2
BRANCH   1  24
ATOM     24  O   UNL A   1      32.768  28.570  26.643  1.00  0.00    -0.374 OA
BRANCH  24  25
ATOM     25  C   UNL A   1      33.250  29.535  27.578  1.00  0.00     0.202 C 
BRANCH  25  26
ATOM     26  C   UNL A   1      33.070  31.011  27.201  1.00  0.00     0.261 C 
BRANCH  26  27
ATOM     27  O   UNL A   1      34.223  31.803  27.533  1.00  0.00    -0.460 OA
BRANCH  27  28
ATOM     28  C   UNL A   1      33.969  32.899  28.286  1.00  0.00     0.338 C 
ATOM     29  O   UNL A   1      33.045  33.690  28.151  1.00  0.00    -0.246 OA
BRANCH  28  30
ATOM     30  C   UNL A   1      34.874  32.929  29.450  1.00  0.00     0.060 A 
ATOM     31  C   UNL A   1      35.149  34.174  30.033  1.00  0.00     0.016 A 
ATOM     32  C   UNL A   1      35.505  31.773  29.914  1.00  0.00     0.016 A 
ATOM     33  C   UNL A   1      36.097  34.278  31.050  1.00  0.00     0.010 A 
ATOM     34  C   UNL A   1      36.463  31.881  30.925  1.00  0.00     0.010 A 
ATOM     35  C   UNL A   1      36.790  33.136  31.470  1.00  0.00    -0.014 A 
BRANCH  35  36
ATOM     36  C   UNL A   1      37.983  33.265  32.341  1.00  0.00     0.031 A 
ATOM     37  C   UNL A   1      39.337  33.354  31.690  1.00  0.00     0.074 A 
ATOM     38  C   UNL A   1      37.872  33.284  33.680  1.00  0.00     0.049 A 
ATOM     39  N   UNL A   1      40.523  33.325  32.239  1.00  0.00    -0.248 NA
ATOM     40  C   UNL A   1      39.353  33.487  30.223  1.00  0.00     0.031 C 
ATOM     41  C   UNL A   1      36.615  33.273  34.426  1.00  0.00     0.029 A 
ATOM     42  N   UNL A   1      38.841  33.298  34.652  1.00  0.00    -0.354 N 
ATOM     43  C   UNL A   1      41.426  33.411  31.185  1.00  0.00     0.074 A 
ATOM     44  C   UNL A   1      40.653  33.480  29.966  1.00  0.00     0.031 C 
ATOM     45  C   UNL A   1      36.890  33.257  35.743  1.00  0.00     0.029 A 
ATOM     46  C   UNL A   1      38.340  33.210  35.929  1.00  0.00     0.049 A 
ATOM     47  H   UNL A   1      39.803  33.364  34.453  1.00  0.00     0.167 HD
ATOM     48  C   UNL A   1      42.779  33.425  31.231  1.00  0.00     0.031 A 
ATOM     49  C   UNL A   1      38.978  33.068  37.109  1.00  0.00     0.031 A 
ATOM     50  C   UNL A   1      43.542  33.348  32.447  1.00  0.00     0.049 A 
ATOM     51  C   UNL A   1      40.483  33.003  37.132  1.00  0.00     0.074 A 
ATOM     52  C   UNL A   1      44.917  33.358  32.602  1.00  0.00     0.029 A 
ATOM     53  N   UNL A   1      42.996  33.240  33.717  1.00  0.00    -0.354 N 
ATOM     54  N   UNL A   1      41.326  33.083  36.130  1.00  0.00    -0.248 NA
ATOM     55  C   UNL A   1      41.125  32.829  38.444  1.00  0.00     0.031 C 
ATOM     56  C   UNL A   1      45.202  33.206  33.961  1.00  0.00     0.029 A 
ATOM     57  C   UNL A   1      44.005  33.164  34.659  1.00  0.00     0.049 A 
ATOM     58  H   UNL A   1      42.032  33.223  33.918  1.00  0.00     0.167 HD
ATOM     59  C   UNL A   1      42.596  33.006  36.693  1.00  0.00     0.074 A 
ATOM     60  C   UNL A   1      42.412  32.872  38.123  1.00  0.00     0.031 C 
ATOM     61  C   UNL A   1      43.804  33.053  36.082  1.00  0.00     0.031 A 
BRANCH  48  62
ATOM     62  C   UNL A   1      43.520  33.483  29.923  1.00  0.00    -0.014 A 
ATOM     63  C   UNL A   1      43.905  34.710  29.354  1.00  0.00     0.010 A 
ATOM     64  C   UNL A   1      43.864  32.286  29.269  1.00  0.00     0.010 A 
ATOM     65  C   UNL A   1      44.588  34.739  28.135  1.00  0.00     0.020 A 
ATOM     66  C   UNL A   1      44.570  32.309  28.064  1.00  0.00     0.020 A 
ATOM     67  C   UNL A   1      44.913  33.537  27.496  1.00  0.00     0.054 A 
BRANCH  67  68
ATOM     68  S   UNL A   1      45.812  33.603  25.922  1.00  0.00     0.124 S 
ATOM     69  O   UNL A   1      45.936  35.043  25.706  1.00  0.00    -0.237 OA
ATOM     70  O   UNL A   1      47.058  32.906  26.234  1.00  0.00    -0.237 OA
ATOM     71  O   UNL A   1      44.930  32.908  24.988  1.00  0.00    -0.744 OA
ENDBRANCH  67  68
ENDBRANCH  48  62
BRANCH  49  72
ATOM     72  C   UNL A   1      38.190  32.943  38.366  1.00  0.00    -0.014 A 
ATOM     73  C   UNL A   1      38.268  33.932  39.362  1.00  0.00     0.010 A 
ATOM     74  C   UNL A   1      37.352  31.832  38.571  1.00  0.00     0.010 A 
ATOM     75  C   UNL A   1      37.531  33.806  40.544  1.00  0.00     0.020 A 
ATOM     76  C   UNL A   1      36.592  31.716  39.738  1.00  0.00     0.020 A 
ATOM     77  C   UNL A   1      36.695  32.700  40.723  1.00  0.00     0.054 A 
BRANCH  77  78
ATOM     78  S   UNL A   1      35.704  32.586  42.238  1.00  0.00     0.124 S 
ATOM     79  O   UNL A   1      35.053  33.891  42.274  1.00  0.00    -0.237 OA
ATOM     80  O   UNL A   1      34.830  31.449  41.959  1.00  0.00    -0.237 OA
ATOM     81  O   UNL A   1      36.701  32.353  43.281  1.00  0.00    -0.744 OA
ENDBRANCH  77  78
ENDBRANCH  49  72
BRANCH  61  82
ATOM     82  C   UNL A   1      45.038  33.019  36.944  1.00  0.00    -0.014 A 
ATOM     83  C   UNL A   1      45.577  34.192  37.497  1.00  0.00     0.010 A 
ATOM     84  C   UNL A   1      45.588  31.774  37.301  1.00  0.00     0.010 A 
ATOM     85  C   UNL A   1      46.648  34.120  38.393  1.00  0.00     0.020 A 
ATOM     86  C   UNL A   1      46.643  31.696  38.213  1.00  0.00     0.020 A 
ATOM     87  C   UNL A   1      47.168  32.871  38.752  1.00  0.00     0.054 A 
BRANCH  87  88
ATOM     88  S   UNL A   1      48.493  32.799  39.991  1.00  0.00     0.124 S 
ATOM     89  O   UNL A   1      47.860  33.420  41.150  1.00  0.00    -0.237 OA
ATOM     90  O   UNL A   1      48.746  31.365  40.105  1.00  0.00    -0.237 OA
ATOM     91  O   UNL A   1      49.576  33.570  39.383  1.00  0.00    -0.744 OA
ENDBRANCH  87  88
ENDBRANCH  61  82
ENDBRANCH  35  36
ENDBRANCH  28  30
ENDBRANCH  27  28
ENDBRANCH  26  27
ENDBRANCH  25  26
ENDBRANCH  24  25
ENDBRANCH   1  24
TORSDOF 21
ENDMDL
