MODEL 1
REMARK VINA RESULT:     -11.1      0.000      0.000
REMARK SMILES Cc1ccc(NC(=O)C[C@@H](C(=O)OCCOCCOC(=O)c2ccc(-c3c4nc(c(-c5ccc(S(=O)(=O)[O-])cc5)c5ccc([nH]5)c(-c5ccc(S(=O)(=O)[O-])cc5)c5nc(c(-c6ccc(S(=O)(=O)[O-])cc6)c6ccc3[nH]6)C=C5)C=C4)cc2)[NH+]2CCOCC2)cc1
REMARK SMILES IDX 16 1 15 2 14 3 13 4 11 5 12 6 10 7 9 8 7 9 6 10 8 12 5 13
REMARK SMILES IDX 1 14 2 15 3 16 89 17 4 18 88 19 82 20 83 21 87 22 84 24
REMARK SMILES IDX 86 25 85 26 17 27 18 28 19 29 20 30 21 31 22 32 23 33 81 34
REMARK SMILES IDX 24 35 80 36 25 37 26 38 27 39 74 40 28 41 79 42 73 43 75 44
REMARK SMILES IDX 29 45 78 46 72 47 71 48 30 50 60 51 41 52 59 53 42 54 45 55
REMARK SMILES IDX 58 56 76 57 43 58 44 59 57 61 77 62 46 63 31 64 32 65 40 66
REMARK SMILES IDX 33 67 39 68 34 69 35 70 36 71 37 72 38 73 61 74 62 75 70 76
REMARK SMILES IDX 63 77 69 78 64 79 65 80 66 81 67 82 68 83 47 84 48 85 56 86
REMARK SMILES IDX 49 87 55 88 50 89 51 90 52 91 53 92 54 93
REMARK H PARENT 6 11 82 23 75 49 45 60
REMARK Flexibility Score: inf
ROOT
ATOM      1  O   UNL A   1      37.027  22.880  24.971  1.00  0.00    -0.374 OA
ENDROOT
BRANCH   1   2
ATOM      2  C   UNL A   1      36.410  22.863  23.335  1.00  0.00     0.202 C 
BRANCH   2   3
ATOM      3  C   UNL A   1      34.196  23.350  23.007  1.00  0.00     0.261 C 
BRANCH   3   4
ATOM      4  O   UNL A   1      33.269  24.289  23.576  1.00  0.00    -0.459 OA
BRANCH   4   5
ATOM      5  C   UNL A   1      33.571  25.196  24.458  1.00  0.00     0.365 C 
ATOM      6  O   UNL A   1      34.624  25.285  25.060  1.00  0.00    -0.245 OA
BRANCH   5   7
ATOM      7  C   UNL A   1      32.391  26.154  24.391  1.00  0.00     0.304 C 
BRANCH   7   8
ATOM      8  C   UNL A   1      31.019  25.413  24.765  1.00  0.00     0.177 C 
BRANCH   8   9
ATOM      9  C   UNL A   1      30.489  25.272  26.226  1.00  0.00     0.231 C 
ATOM     10  N   UNL A   1      30.294  24.032  26.826  1.00  0.00    -0.326 N 
ATOM     11  H   UNL A   1      29.560  23.960  27.477  1.00  0.00     0.169 HD
ATOM     12  O   UNL A   1      30.223  26.293  26.871  1.00  0.00    -0.274 OA
BRANCH  10  13
ATOM     13  C   UNL A   1      31.063  22.853  26.582  1.00  0.00     0.041 A 
ATOM     14  C   UNL A   1      34.996  18.957  24.747  1.00  0.00     0.044 C 
ATOM     15  C   UNL A   1      34.280  20.222  25.303  1.00  0.00    -0.051 A 
ATOM     16  C   UNL A   1      32.509  20.366  24.440  1.00  0.00     0.005 A 
ATOM     17  C   UNL A   1      34.394  21.554  26.963  1.00  0.00     0.005 A 
ATOM     18  C   UNL A   1      31.209  21.778  24.898  1.00  0.00     0.026 A 
ATOM     19  C   UNL A   1      32.810  22.558  27.560  1.00  0.00     0.026 A 
ENDBRANCH  10  13
ENDBRANCH   8   9
ENDBRANCH   7   8
BRANCH   7  20
ATOM     20  N   UNL A   1      32.486  26.643  23.007  1.00  0.00    -0.319 N 
ATOM     21  C   UNL A   1      33.605  27.583  22.767  1.00  0.00     0.291 C 
ATOM     22  C   UNL A   1      31.292  27.024  22.289  1.00  0.00     0.291 C 
ATOM     23  H   UNL A   1      32.699  25.749  22.564  1.00  0.00     0.348 HD
ATOM     24  C   UNL A   1      33.197  29.035  22.955  1.00  0.00     0.221 C 
ATOM     25  C   UNL A   1      30.965  28.509  22.427  1.00  0.00     0.221 C 
ATOM     26  O   UNL A   1      32.080  29.355  22.122  1.00  0.00    -0.370 OA
ENDBRANCH   7  20
ENDBRANCH   5   7
ENDBRANCH   4   5
ENDBRANCH   3   4
ENDBRANCH   2   3
ENDBRANCH   1   2
BRANCH   1  27
ATOM     27  C   UNL A   1      37.669  21.697  25.370  1.00  0.00     0.202 C 
BRANCH  27  28
ATOM     28  C   UNL A   1      39.117  21.855  25.833  1.00  0.00     0.261 C 
BRANCH  28  29
ATOM     29  O   UNL A   1      39.326  23.263  26.236  1.00  0.00    -0.460 OA
BRANCH  29  30
ATOM     30  C   UNL A   1      40.241  23.565  27.222  1.00  0.00     0.338 C 
ATOM     31  O   UNL A   1      40.645  22.697  27.989  1.00  0.00    -0.246 OA
BRANCH  30  32
ATOM     32  C   UNL A   1      40.980  25.000  27.161  1.00  0.00     0.060 A 
ATOM     33  C   UNL A   1      42.104  25.043  28.589  1.00  0.00     0.016 A 
ATOM     34  C   UNL A   1      40.538  26.929  26.657  1.00  0.00     0.016 A 
ATOM     35  C   UNL A   1      42.607  26.624  29.259  1.00  0.00     0.010 A 
ATOM     36  C   UNL A   1      41.347  28.260  27.461  1.00  0.00     0.010 A 
ATOM     37  C   UNL A   1      42.159  28.157  28.695  1.00  0.00    -0.014 A 
BRANCH  37  38
ATOM     38  C   UNL A   1      42.342  29.672  28.865  1.00  0.00     0.031 A 
ATOM     39  C   UNL A   1      41.413  30.275  29.892  1.00  0.00     0.074 A 
ATOM     40  C   UNL A   1      43.699  30.055  28.907  1.00  0.00     0.049 A 
ATOM     41  N   UNL A   1      40.992  31.496  29.973  1.00  0.00    -0.248 NA
ATOM     42  C   UNL A   1      40.839  29.433  30.957  1.00  0.00     0.031 C 
ATOM     43  C   UNL A   1      44.509  30.715  29.981  1.00  0.00     0.029 A 
ATOM     44  N   UNL A   1      44.752  29.446  28.196  1.00  0.00    -0.354 N 
ATOM     45  C   UNL A   1      40.451  31.614  31.258  1.00  0.00     0.074 A 
ATOM     46  C   UNL A   1      40.082  30.275  31.655  1.00  0.00     0.031 C 
ATOM     47  C   UNL A   1      45.834  30.731  29.675  1.00  0.00     0.029 A 
ATOM     48  C   UNL A   1      46.030  29.986  28.440  1.00  0.00     0.049 A 
ATOM     49  H   UNL A   1      44.606  28.697  27.575  1.00  0.00     0.167 HD
ATOM     50  C   UNL A   1      40.945  32.510  32.176  1.00  0.00     0.031 A 
ATOM     51  C   UNL A   1      46.711  30.346  27.327  1.00  0.00     0.031 A 
ATOM     52  C   UNL A   1      42.269  33.036  31.768  1.00  0.00     0.049 A 
ATOM     53  C   UNL A   1      46.076  31.721  27.054  1.00  0.00     0.074 A 
ATOM     54  C   UNL A   1      43.514  33.124  32.371  1.00  0.00     0.029 A 
ATOM     55  N   UNL A   1      42.506  33.340  30.423  1.00  0.00    -0.354 N 
ATOM     56  N   UNL A   1      44.935  32.099  27.598  1.00  0.00    -0.248 NA
ATOM     57  C   UNL A   1      46.820  32.874  26.560  1.00  0.00     0.031 C 
ATOM     58  C   UNL A   1      44.472  33.516  31.368  1.00  0.00     0.029 A 
ATOM     59  C   UNL A   1      43.835  33.597  30.130  1.00  0.00     0.049 A 
ATOM     60  H   UNL A   1      41.792  33.368  29.747  1.00  0.00     0.167 HD
ATOM     61  C   UNL A   1      44.960  33.431  27.866  1.00  0.00     0.074 A 
ATOM     62  C   UNL A   1      46.102  33.892  27.080  1.00  0.00     0.031 C 
ATOM     63  C   UNL A   1      44.204  34.108  28.793  1.00  0.00     0.031 A 
BRANCH  50  64
ATOM     64  C   UNL A   1      40.295  32.714  33.561  1.00  0.00    -0.014 A 
ATOM     65  C   UNL A   1      39.143  33.515  33.698  1.00  0.00     0.010 A 
ATOM     66  C   UNL A   1      40.682  32.020  34.741  1.00  0.00     0.010 A 
ATOM     67  C   UNL A   1      38.414  33.602  34.905  1.00  0.00     0.020 A 
ATOM     68  C   UNL A   1      39.981  32.124  35.964  1.00  0.00     0.020 A 
ATOM     69  C   UNL A   1      38.827  32.893  36.029  1.00  0.00     0.054 A 
BRANCH  69  70
ATOM     70  S   UNL A   1      37.789  32.907  37.524  1.00  0.00     0.124 S 
ATOM     71  O   UNL A   1      38.449  33.903  38.364  1.00  0.00    -0.237 OA
ATOM     72  O   UNL A   1      36.485  33.297  36.996  1.00  0.00    -0.237 OA
ATOM     73  O   UNL A   1      37.868  31.534  38.020  1.00  0.00    -0.744 OA
ENDBRANCH  69  70
ENDBRANCH  50  64
BRANCH  51  74
ATOM     74  C   UNL A   1      47.038  29.067  26.534  1.00  0.00    -0.014 A 
ATOM     75  C   UNL A   1      47.516  27.957  27.298  1.00  0.00     0.010 A 
ATOM     76  C   UNL A   1      46.501  28.719  25.271  1.00  0.00     0.010 A 
ATOM     77  C   UNL A   1      47.410  26.605  26.874  1.00  0.00     0.020 A 
ATOM     78  C   UNL A   1      46.386  27.357  24.835  1.00  0.00     0.020 A 
ATOM     79  C   UNL A   1      46.828  26.303  25.647  1.00  0.00     0.054 A 
BRANCH  79  80
ATOM     80  S   UNL A   1      46.321  24.544  25.328  1.00  0.00     0.124 S 
ATOM     81  O   UNL A   1      46.956  24.235  24.055  1.00  0.00    -0.237 OA
ATOM     82  O   UNL A   1      46.873  23.853  26.499  1.00  0.00    -0.237 OA
ATOM     83  O   UNL A   1      44.863  24.612  25.310  1.00  0.00    -0.744 OA
ENDBRANCH  79  80
ENDBRANCH  51  74
BRANCH  63  84
ATOM     84  C   UNL A   1      43.568  35.405  28.369  1.00  0.00    -0.014 A 
ATOM     85  C   UNL A   1      43.571  36.541  29.185  1.00  0.00     0.010 A 
ATOM     86  C   UNL A   1      43.111  35.558  27.037  1.00  0.00     0.010 A 
ATOM     87  C   UNL A   1      43.053  37.744  28.731  1.00  0.00     0.020 A 
ATOM     88  C   UNL A   1      42.680  36.780  26.543  1.00  0.00     0.020 A 
ATOM     89  C   UNL A   1      42.612  37.854  27.414  1.00  0.00     0.054 A 
BRANCH  89  90
ATOM     90  S   UNL A   1      41.940  39.428  26.873  1.00  0.00     0.124 S 
ATOM     91  O   UNL A   1      40.820  38.994  26.042  1.00  0.00    -0.237 OA
ATOM     92  O   UNL A   1      41.577  40.065  28.137  1.00  0.00    -0.237 OA
ATOM     93  O   UNL A   1      43.048  40.053  26.157  1.00  0.00    -0.744 OA
ENDBRANCH  89  90
ENDBRANCH  63  84
ENDBRANCH  37  38
ENDBRANCH  30  32
ENDBRANCH  29  30
ENDBRANCH  28  29
ENDBRANCH  27  28
ENDBRANCH   1  27
TORSDOF 21
ENDMDL
MODEL 2
REMARK VINA RESULT:     -10.8      1.324      3.407
REMARK SMILES Cc1ccc(NC(=O)C[C@@H](C(=O)OCCOCCOC(=O)c2ccc(-c3c4nc(c(-c5ccc(S(=O)(=O)[O-])cc5)c5ccc([nH]5)c(-c5ccc(S(=O)(=O)[O-])cc5)c5nc(c(-c6ccc(S(=O)(=O)[O-])cc6)c6ccc3[nH]6)C=C5)C=C4)cc2)[NH+]2CCOCC2)cc1
REMARK SMILES IDX 16 1 15 2 14 3 13 4 11 5 12 6 10 7 9 8 7 9 6 10 8 12 5 13
REMARK SMILES IDX 1 14 2 15 3 16 89 17 4 18 88 19 82 20 83 21 87 22 84 24
REMARK SMILES IDX 86 25 85 26 17 27 18 28 19 29 20 30 21 31 22 32 23 33 81 34
REMARK SMILES IDX 24 35 80 36 25 37 26 38 27 39 74 40 28 41 79 42 73 43 75 44
REMARK SMILES IDX 29 45 78 46 72 47 71 48 30 50 60 51 41 52 59 53 42 54 45 55
REMARK SMILES IDX 58 56 76 57 43 58 44 59 57 61 77 62 46 63 31 64 32 65 40 66
REMARK SMILES IDX 33 67 39 68 34 69 35 70 36 71 37 72 38 73 61 74 62 75 70 76
REMARK SMILES IDX 63 77 69 78 64 79 65 80 66 81 67 82 68 83 47 84 48 85 56 86
REMARK SMILES IDX 49 87 55 88 50 89 51 90 52 91 53 92 54 93
REMARK H PARENT 6 11 82 23 75 49 45 60
REMARK Flexibility Score: inf
ROOT
ATOM      1  O   UNL A   1      37.481  21.708  25.800  1.00  0.00    -0.374 OA
ENDROOT
BRANCH   1   2
ATOM      2  C   UNL A   1      36.868  23.248  25.245  1.00  0.00     0.202 C 
BRANCH   2   3
ATOM      3  C   UNL A   1      34.957  23.261  23.982  1.00  0.00     0.261 C 
BRANCH   3   4
ATOM      4  O   UNL A   1      33.550  23.274  24.272  1.00  0.00    -0.459 OA
BRANCH   4   5
ATOM      5  C   UNL A   1      32.637  22.676  23.565  1.00  0.00     0.365 C 
ATOM      6  O   UNL A   1      32.430  22.839  22.377  1.00  0.00    -0.245 OA
BRANCH   5   7
ATOM      7  C   UNL A   1      32.064  21.649  24.532  1.00  0.00     0.304 C 
BRANCH   7   8
ATOM      8  C   UNL A   1      31.791  22.298  25.973  1.00  0.00     0.177 C 
BRANCH   8   9
ATOM      9  C   UNL A   1      30.396  22.833  26.424  1.00  0.00     0.231 C 
ATOM     10  N   UNL A   1      30.145  24.190  26.598  1.00  0.00    -0.326 N 
ATOM     11  H   UNL A   1      29.499  24.440  27.297  1.00  0.00     0.169 HD
ATOM     12  O   UNL A   1      29.484  22.026  26.645  1.00  0.00    -0.274 OA
BRANCH  10  13
ATOM     13  C   UNL A   1      30.742  25.255  25.855  1.00  0.00     0.041 A 
ATOM     14  C   UNL A   1      34.060  28.520  22.343  1.00  0.00     0.044 C 
ATOM     15  C   UNL A   1      33.168  27.402  22.955  1.00  0.00    -0.051 A 
ATOM     16  C   UNL A   1      33.509  27.326  24.899  1.00  0.00     0.005 A 
ATOM     17  C   UNL A   1      31.428  26.268  22.475  1.00  0.00     0.005 A 
ATOM     18  C   UNL A   1      32.537  26.107  26.108  1.00  0.00     0.026 A 
ATOM     19  C   UNL A   1      30.305  25.495  23.894  1.00  0.00     0.026 A 
ENDBRANCH  10  13
ENDBRANCH   8   9
ENDBRANCH   7   8
BRANCH   7  20
ATOM     20  N   UNL A   1      33.097  20.603  24.497  1.00  0.00    -0.319 N 
ATOM     21  C   UNL A   1      32.990  19.677  23.346  1.00  0.00     0.291 C 
ATOM     22  C   UNL A   1      33.479  19.921  25.711  1.00  0.00     0.291 C 
ATOM     23  H   UNL A   1      33.902  21.215  24.360  1.00  0.00     0.348 HD
ATOM     24  C   UNL A   1      32.154  18.448  23.664  1.00  0.00     0.221 C 
ATOM     25  C   UNL A   1      32.680  18.641  25.949  1.00  0.00     0.221 C 
ATOM     26  O   UNL A   1      32.671  17.771  24.812  1.00  0.00    -0.370 OA
ENDBRANCH   7  20
ENDBRANCH   5   7
ENDBRANCH   4   5
ENDBRANCH   3   4
ENDBRANCH   2   3
ENDBRANCH   1   2
BRANCH   1  27
ATOM     27  C   UNL A   1      38.841  21.485  25.531  1.00  0.00     0.202 C 
BRANCH  27  28
ATOM     28  C   UNL A   1      39.794  21.727  26.701  1.00  0.00     0.261 C 
BRANCH  28  29
ATOM     29  O   UNL A   1      40.439  23.045  26.513  1.00  0.00    -0.460 OA
BRANCH  29  30
ATOM     30  C   UNL A   1      39.922  24.157  27.144  1.00  0.00     0.338 C 
ATOM     31  O   UNL A   1      38.960  24.058  27.899  1.00  0.00    -0.246 OA
BRANCH  30  32
ATOM     32  C   UNL A   1      40.778  25.525  27.096  1.00  0.00     0.060 A 
ATOM     33  C   UNL A   1      41.896  25.464  28.528  1.00  0.00     0.016 A 
ATOM     34  C   UNL A   1      40.502  27.488  26.605  1.00  0.00     0.016 A 
ATOM     35  C   UNL A   1      42.527  26.992  29.212  1.00  0.00     0.010 A 
ATOM     36  C   UNL A   1      41.416  28.740  27.422  1.00  0.00     0.010 A 
ATOM     37  C   UNL A   1      42.211  28.561  28.658  1.00  0.00    -0.014 A 
BRANCH  37  38
ATOM     38  C   UNL A   1      42.520  30.055  28.841  1.00  0.00     0.031 A 
ATOM     39  C   UNL A   1      41.626  30.730  29.854  1.00  0.00     0.074 A 
ATOM     40  C   UNL A   1      43.903  30.319  28.910  1.00  0.00     0.049 A 
ATOM     41  N   UNL A   1      41.310  31.982  29.934  1.00  0.00    -0.248 NA
ATOM     42  C   UNL A   1      40.962  29.936  30.903  1.00  0.00     0.031 C 
ATOM     43  C   UNL A   1      44.746  30.903  30.003  1.00  0.00     0.029 A 
ATOM     44  N   UNL A   1      44.914  29.626  28.216  1.00  0.00    -0.354 N 
ATOM     45  C   UNL A   1      40.756  32.140  31.209  1.00  0.00     0.074 A 
ATOM     46  C   UNL A   1      40.266  30.837  31.591  1.00  0.00     0.031 C 
ATOM     47  C   UNL A   1      46.073  30.807  29.723  1.00  0.00     0.029 A 
ATOM     48  C   UNL A   1      46.228  30.054  28.487  1.00  0.00     0.049 A 
ATOM     49  H   UNL A   1      44.717  28.894  27.588  1.00  0.00     0.167 HD
ATOM     50  C   UNL A   1      41.307  32.987  32.141  1.00  0.00     0.031 A 
ATOM     51  C   UNL A   1      46.959  30.359  27.389  1.00  0.00     0.031 A 
ATOM     52  C   UNL A   1      42.679  33.400  31.761  1.00  0.00     0.049 A 
ATOM     53  C   UNL A   1      46.450  31.784  27.112  1.00  0.00     0.074 A 
ATOM     54  C   UNL A   1      43.915  33.378  32.388  1.00  0.00     0.029 A 
ATOM     55  N   UNL A   1      42.967  33.688  30.423  1.00  0.00    -0.354 N 
ATOM     56  N   UNL A   1      45.334  32.256  27.637  1.00  0.00    -0.248 NA
ATOM     57  C   UNL A   1      47.298  32.871  26.639  1.00  0.00     0.031 C 
ATOM     58  C   UNL A   1      44.922  33.691  31.406  1.00  0.00     0.029 A 
ATOM     59  C   UNL A   1      44.318  33.832  30.156  1.00  0.00     0.049 A 
ATOM     60  H   UNL A   1      42.271  33.780  29.734  1.00  0.00     0.167 HD
ATOM     61  C   UNL A   1      45.468  33.579  27.913  1.00  0.00     0.074 A 
ATOM     62  C   UNL A   1      46.660  33.945  27.152  1.00  0.00     0.031 C 
ATOM     63  C   UNL A   1      44.755  34.315  28.830  1.00  0.00     0.031 A 
BRANCH  50  64
ATOM     64  C   UNL A   1      40.651  33.240  33.516  1.00  0.00    -0.014 A 
ATOM     65  C   UNL A   1      39.391  33.867  33.599  1.00  0.00     0.010 A 
ATOM     66  C   UNL A   1      41.154  32.745  34.750  1.00  0.00     0.010 A 
ATOM     67  C   UNL A   1      38.671  33.974  34.811  1.00  0.00     0.020 A 
ATOM     68  C   UNL A   1      40.461  32.875  35.976  1.00  0.00     0.020 A 
ATOM     69  C   UNL A   1      39.203  33.462  35.992  1.00  0.00     0.054 A 
BRANCH  69  70
ATOM     70  S   UNL A   1      38.193  33.482  37.506  1.00  0.00     0.124 S 
ATOM     71  O   UNL A   1      36.830  33.444  36.982  1.00  0.00    -0.237 OA
ATOM     72  O   UNL A   1      38.634  32.271  38.193  1.00  0.00    -0.237 OA
ATOM     73  O   UNL A   1      38.566  34.734  38.162  1.00  0.00    -0.744 OA
ENDBRANCH  69  70
ENDBRANCH  50  64
BRANCH  51  74
ATOM     74  C   UNL A   1      47.190  29.059  26.595  1.00  0.00    -0.014 A 
ATOM     75  C   UNL A   1      47.712  27.953  27.335  1.00  0.00     0.010 A 
ATOM     76  C   UNL A   1      46.538  28.701  25.390  1.00  0.00     0.010 A 
ATOM     77  C   UNL A   1      47.543  26.596  26.947  1.00  0.00     0.020 A 
ATOM     78  C   UNL A   1      46.360  27.335  24.991  1.00  0.00     0.020 A 
ATOM     79  C   UNL A   1      46.850  26.285  25.782  1.00  0.00     0.054 A 
BRANCH  79  80
ATOM     80  S   UNL A   1      46.284  24.533  25.541  1.00  0.00     0.124 S 
ATOM     81  O   UNL A   1      44.840  24.618  25.705  1.00  0.00    -0.237 OA
ATOM     82  O   UNL A   1      46.754  24.246  24.182  1.00  0.00    -0.237 OA
ATOM     83  O   UNL A   1      46.998  23.802  26.584  1.00  0.00    -0.744 OA
ENDBRANCH  79  80
ENDBRANCH  51  74
BRANCH  63  84
ATOM     84  C   UNL A   1      44.241  35.663  28.402  1.00  0.00    -0.014 A 
ATOM     85  C   UNL A   1      43.778  35.910  27.106  1.00  0.00     0.010 A 
ATOM     86  C   UNL A   1      44.038  36.675  29.372  1.00  0.00     0.010 A 
ATOM     87  C   UNL A   1      43.231  37.138  26.766  1.00  0.00     0.020 A 
ATOM     88  C   UNL A   1      43.405  37.871  29.066  1.00  0.00     0.020 A 
ATOM     89  C   UNL A   1      43.049  38.109  27.750  1.00  0.00     0.054 A 
BRANCH  89  90
ATOM     90  S   UNL A   1      42.347  39.687  27.263  1.00  0.00     0.124 S 
ATOM     91  O   UNL A   1      41.153  39.260  26.537  1.00  0.00    -0.237 OA
ATOM     92  O   UNL A   1      42.102  40.333  28.550  1.00  0.00    -0.237 OA
ATOM     93  O   UNL A   1      43.392  40.298  26.448  1.00  0.00    -0.744 OA
ENDBRANCH  89  90
ENDBRANCH  63  84
ENDBRANCH  37  38
ENDBRANCH  30  32
ENDBRANCH  29  30
ENDBRANCH  28  29
ENDBRANCH  27  28
ENDBRANCH   1  27
TORSDOF 21
ENDMDL
MODEL 3
REMARK VINA RESULT:      -9.9      2.042      4.188
REMARK SMILES Cc1ccc(NC(=O)C[C@@H](C(=O)OCCOCCOC(=O)c2ccc(-c3c4nc(c(-c5ccc(S(=O)(=O)[O-])cc5)c5ccc([nH]5)c(-c5ccc(S(=O)(=O)[O-])cc5)c5nc(c(-c6ccc(S(=O)(=O)[O-])cc6)c6ccc3[nH]6)C=C5)C=C4)cc2)[NH+]2CCOCC2)cc1
REMARK SMILES IDX 16 1 15 2 14 3 13 4 11 5 12 6 10 7 9 8 7 9 6 10 8 12 5 13
REMARK SMILES IDX 1 14 2 15 3 16 89 17 4 18 88 19 82 20 83 21 87 22 84 24
REMARK SMILES IDX 86 25 85 26 17 27 18 28 19 29 20 30 21 31 22 32 23 33 81 34
REMARK SMILES IDX 24 35 80 36 25 37 26 38 27 39 74 40 28 41 79 42 73 43 75 44
REMARK SMILES IDX 29 45 78 46 72 47 71 48 30 50 60 51 41 52 59 53 42 54 45 55
REMARK SMILES IDX 58 56 76 57 43 58 44 59 57 61 77 62 46 63 31 64 32 65 40 66
REMARK SMILES IDX 33 67 39 68 34 69 35 70 36 71 37 72 38 73 61 74 62 75 70 76
REMARK SMILES IDX 63 77 69 78 64 79 65 80 66 81 67 82 68 83 47 84 48 85 56 86
REMARK SMILES IDX 49 87 55 88 50 89 51 90 52 91 53 92 54 93
REMARK H PARENT 6 11 82 23 75 49 45 60
REMARK Flexibility Score: inf
ROOT
ATOM      1  O   UNL A   1      38.928  23.557  26.506  1.00  0.00    -0.374 OA
ENDROOT
BRANCH   1   2
ATOM      2  C   UNL A   1      37.273  23.933  26.087  1.00  0.00     0.202 C 
BRANCH   2   3
ATOM      3  C   UNL A   1      36.372  22.938  24.231  1.00  0.00     0.261 C 
BRANCH   3   4
ATOM      4  O   UNL A   1      35.575  21.767  23.995  1.00  0.00    -0.459 OA
BRANCH   4   5
ATOM      5  C   UNL A   1      35.541  20.719  24.764  1.00  0.00     0.365 C 
ATOM      6  O   UNL A   1      36.434  20.341  25.498  1.00  0.00    -0.245 OA
BRANCH   5   7
ATOM      7  C   UNL A   1      34.102  20.240  24.638  1.00  0.00     0.304 C 
BRANCH   7   8
ATOM      8  C   UNL A   1      33.095  21.215  25.415  1.00  0.00     0.177 C 
BRANCH   8   9
ATOM      9  C   UNL A   1      33.473  21.974  26.725  1.00  0.00     0.231 C 
ATOM     10  N   UNL A   1      33.686  23.348  26.750  1.00  0.00    -0.326 N 
ATOM     11  H   UNL A   1      34.351  23.688  27.393  1.00  0.00     0.169 HD
ATOM     12  O   UNL A   1      33.599  21.334  27.777  1.00  0.00    -0.274 OA
BRANCH  10  13
ATOM     13  C   UNL A   1      33.030  24.313  25.926  1.00  0.00     0.041 A 
ATOM     14  C   UNL A   1      30.452  29.082  23.776  1.00  0.00     0.044 C 
ATOM     15  C   UNL A   1      31.412  28.082  24.482  1.00  0.00    -0.051 A 
ATOM     16  C   UNL A   1      30.345  26.564  25.158  1.00  0.00     0.005 A 
ATOM     17  C   UNL A   1      33.489  27.609  24.564  1.00  0.00     0.005 A 
ATOM     18  C   UNL A   1      31.155  25.005  26.057  1.00  0.00     0.026 A 
ATOM     19  C   UNL A   1      34.092  25.802  25.060  1.00  0.00     0.026 A 
ENDBRANCH  10  13
ENDBRANCH   8   9
ENDBRANCH   7   8
BRANCH   7  20
ATOM     20  N   UNL A   1      34.197  18.875  25.174  1.00  0.00    -0.319 N 
ATOM     21  C   UNL A   1      34.891  17.915  24.284  1.00  0.00     0.291 C 
ATOM     22  C   UNL A   1      33.064  18.277  25.841  1.00  0.00     0.291 C 
ATOM     23  H   UNL A   1      34.799  19.086  25.971  1.00  0.00     0.348 HD
ATOM     24  C   UNL A   1      33.933  17.183  23.358  1.00  0.00     0.221 C 
ATOM     25  C   UNL A   1      32.175  17.473  24.894  1.00  0.00     0.221 C 
ATOM     26  O   UNL A   1      32.910  16.527  24.109  1.00  0.00    -0.370 OA
ENDBRANCH   7  20
ENDBRANCH   5   7
ENDBRANCH   4   5
ENDBRANCH   3   4
ENDBRANCH   2   3
ENDBRANCH   1   2
BRANCH   1  27
ATOM     27  C   UNL A   1      39.740  24.675  26.755  1.00  0.00     0.202 C 
BRANCH  27  28
ATOM     28  C   UNL A   1      40.425  24.702  28.122  1.00  0.00     0.261 C 
BRANCH  28  29
ATOM     29  O   UNL A   1      41.450  23.637  28.151  1.00  0.00    -0.460 OA
BRANCH  29  30
ATOM     30  C   UNL A   1      42.678  23.851  27.562  1.00  0.00     0.338 C 
ATOM     31  O   UNL A   1      43.196  22.988  26.861  1.00  0.00    -0.246 OA
BRANCH  30  32
ATOM     32  C   UNL A   1      43.277  25.351  27.575  1.00  0.00     0.060 A 
ATOM     33  C   UNL A   1      44.019  25.577  29.218  1.00  0.00     0.016 A 
ATOM     34  C   UNL A   1      42.794  27.198  26.850  1.00  0.00     0.016 A 
ATOM     35  C   UNL A   1      44.202  27.231  29.876  1.00  0.00     0.010 A 
ATOM     36  C   UNL A   1      43.264  28.641  27.726  1.00  0.00     0.010 A 
ATOM     37  C   UNL A   1      43.764  28.681  29.119  1.00  0.00    -0.014 A 
BRANCH  37  38
ATOM     38  C   UNL A   1      43.763  30.213  29.222  1.00  0.00     0.031 A 
ATOM     39  C   UNL A   1      42.602  30.758  30.021  1.00  0.00     0.074 A 
ATOM     40  C   UNL A   1      45.043  30.742  29.486  1.00  0.00     0.049 A 
ATOM     41  N   UNL A   1      42.056  31.929  29.945  1.00  0.00    -0.248 NA
ATOM     42  C   UNL A   1      41.923  29.908  31.014  1.00  0.00     0.031 C 
ATOM     43  C   UNL A   1      45.568  31.533  30.646  1.00  0.00     0.029 A 
ATOM     44  N   UNL A   1      46.266  30.219  29.021  1.00  0.00    -0.354 N 
ATOM     45  C   UNL A   1      41.274  32.045  31.098  1.00  0.00     0.074 A 
ATOM     46  C   UNL A   1      40.969  30.694  31.506  1.00  0.00     0.031 C 
ATOM     47  C   UNL A   1      46.919  31.678  30.588  1.00  0.00     0.029 A 
ATOM     48  C   UNL A   1      47.416  30.904  29.460  1.00  0.00     0.049 A 
ATOM     49  H   UNL A   1      46.314  29.431  28.433  1.00  0.00     0.167 HD
ATOM     50  C   UNL A   1      41.496  33.029  32.031  1.00  0.00     0.031 A 
ATOM     51  C   UNL A   1      48.257  31.285  28.469  1.00  0.00     0.031 A 
ATOM     52  C   UNL A   1      42.815  33.676  31.840  1.00  0.00     0.049 A 
ATOM     53  C   UNL A   1      47.553  32.570  27.996  1.00  0.00     0.074 A 
ATOM     54  C   UNL A   1      43.909  33.926  32.653  1.00  0.00     0.029 A 
ATOM     55  N   UNL A   1      43.271  33.943  30.544  1.00  0.00    -0.354 N 
ATOM     56  N   UNL A   1      46.298  32.846  28.297  1.00  0.00    -0.248 NA
ATOM     57  C   UNL A   1      48.260  33.773  27.574  1.00  0.00     0.031 C 
ATOM     58  C   UNL A   1      44.997  34.373  31.820  1.00  0.00     0.029 A 
ATOM     59  C   UNL A   1      44.599  34.329  30.483  1.00  0.00     0.049 A 
ATOM     60  H   UNL A   1      42.698  33.864  29.748  1.00  0.00     0.167 HD
ATOM     61  C   UNL A   1      46.142  34.184  28.479  1.00  0.00     0.074 A 
ATOM     62  C   UNL A   1      47.361  34.730  27.887  1.00  0.00     0.031 C 
ATOM     63  C   UNL A   1      45.162  34.817  29.206  1.00  0.00     0.031 A 
BRANCH  50  64
ATOM     64  C   UNL A   1      40.579  33.224  33.259  1.00  0.00    -0.014 A 
ATOM     65  C   UNL A   1      39.234  33.611  33.090  1.00  0.00     0.010 A 
ATOM     66  C   UNL A   1      40.942  32.892  34.593  1.00  0.00     0.010 A 
ATOM     67  C   UNL A   1      38.310  33.643  34.159  1.00  0.00     0.020 A 
ATOM     68  C   UNL A   1      40.036  32.952  35.678  1.00  0.00     0.020 A 
ATOM     69  C   UNL A   1      38.712  33.297  35.446  1.00  0.00     0.054 A 
BRANCH  69  70
ATOM     70  S   UNL A   1      37.470  33.204  36.773  1.00  0.00     0.124 S 
ATOM     71  O   UNL A   1      37.475  31.785  37.118  1.00  0.00    -0.237 OA
ATOM     72  O   UNL A   1      38.025  34.097  37.786  1.00  0.00    -0.237 OA
ATOM     73  O   UNL A   1      36.241  33.678  36.138  1.00  0.00    -0.744 OA
ENDBRANCH  69  70
ENDBRANCH  50  64
BRANCH  51  74
ATOM     74  C   UNL A   1      48.850  30.014  27.833  1.00  0.00    -0.014 A 
ATOM     75  C   UNL A   1      49.682  29.217  28.679  1.00  0.00     0.010 A 
ATOM     76  C   UNL A   1      48.318  29.324  26.717  1.00  0.00     0.010 A 
ATOM     77  C   UNL A   1      49.916  27.830  28.473  1.00  0.00     0.020 A 
ATOM     78  C   UNL A   1      48.544  27.924  26.502  1.00  0.00     0.020 A 
ATOM     79  C   UNL A   1      49.331  27.178  27.392  1.00  0.00     0.054 A 
BRANCH  79  80
ATOM     80  S   UNL A   1      49.302  25.320  27.402  1.00  0.00     0.124 S 
ATOM     81  O   UNL A   1      48.854  24.996  28.748  1.00  0.00    -0.237 OA
ATOM     82  O   UNL A   1      48.350  25.026  26.326  1.00  0.00    -0.237 OA
ATOM     83  O   UNL A   1      50.682  24.960  27.088  1.00  0.00    -0.744 OA
ENDBRANCH  79  80
ENDBRANCH  51  74
BRANCH  63  84
ATOM     84  C   UNL A   1      44.494  36.016  28.591  1.00  0.00    -0.014 A 
ATOM     85  C   UNL A   1      43.672  35.919  27.464  1.00  0.00     0.010 A 
ATOM     86  C   UNL A   1      44.537  37.263  29.263  1.00  0.00     0.010 A 
ATOM     87  C   UNL A   1      43.003  37.030  26.973  1.00  0.00     0.020 A 
ATOM     88  C   UNL A   1      43.796  38.355  28.835  1.00  0.00     0.020 A 
ATOM     89  C   UNL A   1      43.071  38.238  27.663  1.00  0.00     0.054 A 
BRANCH  89  90
ATOM     90  S   UNL A   1      42.197  39.651  26.984  1.00  0.00     0.124 S 
ATOM     91  O   UNL A   1      41.781  40.346  28.201  1.00  0.00    -0.237 OA
ATOM     92  O   UNL A   1      43.235  40.318  26.203  1.00  0.00    -0.237 OA
ATOM     93  O   UNL A   1      41.118  39.053  26.203  1.00  0.00    -0.744 OA
ENDBRANCH  89  90
ENDBRANCH  63  84
ENDBRANCH  37  38
ENDBRANCH  30  32
ENDBRANCH  29  30
ENDBRANCH  28  29
ENDBRANCH  27  28
ENDBRANCH   1  27
TORSDOF 21
ENDMDL
