MODEL 1
REMARK VINA RESULT:     -10.1      0.000      0.000
REMARK SMILES CC[C@@]1(C(=O)OCCOCCOC(=O)c2ccc(-c3c4nc(c(-c5ccc(S(=O)(=O)[O-])cc5)c5ccc([nH]5)c(-c5ccc(S(=O)(=O)[O-])cc5)c5nc(c(-c6ccc(S(=O)(=O)[O-])cc6)c6ccc3[nH]6)C=C5)C=C4)cc2)CCC[N@@H+](Cc2ccc(C3CC3)cc2)C1
REMARK SMILES IDX 9 1 8 2 7 3 6 4 4 5 5 6 3 7 75 8 89 9 76 10 78 11 77 12 2 14
REMARK SMILES IDX 1 15 79 16 80 17 81 18 88 19 82 20 87 21 83 22 84 23 85 24
REMARK SMILES IDX 86 25 10 26 11 27 12 28 13 29 14 30 15 31 16 32 74 33 17 34
REMARK SMILES IDX 73 35 18 36 19 37 20 38 67 39 21 40 72 41 66 42 68 43 22 44
REMARK SMILES IDX 71 45 65 46 64 47 23 49 53 50 34 51 52 52 35 53 38 54 51 55
REMARK SMILES IDX 69 56 36 57 37 58 50 60 70 61 39 62 24 63 25 64 33 65 26 66
REMARK SMILES IDX 32 67 27 68 28 69 29 70 30 71 31 72 54 73 55 74 63 75 56 76
REMARK SMILES IDX 62 77 57 78 58 79 59 80 60 81 61 82 40 83 41 84 49 85 42 86
REMARK SMILES IDX 48 87 43 88 44 89 45 90 46 91 47 92
REMARK H PARENT 78 13 68 48 38 59
REMARK Flexibility Score: inf
ROOT
ATOM      1  O   UNL A   1      39.347  22.266  26.225  1.00  0.00    -0.374 OA
ENDROOT
BRANCH   1   2
ATOM      2  C   UNL A   1      38.392  21.451  25.546  1.00  0.00     0.202 C 
BRANCH   2   3
ATOM      3  C   UNL A   1      37.509  22.134  24.501  1.00  0.00     0.261 C 
BRANCH   3   4
ATOM      4  O   UNL A   1      36.137  22.262  24.918  1.00  0.00    -0.463 OA
BRANCH   4   5
ATOM      5  C   UNL A   1      35.272  22.617  23.935  1.00  0.00     0.317 C 
ATOM      6  O   UNL A   1      35.617  23.154  22.885  1.00  0.00    -0.251 OA
BRANCH   5   7
ATOM      7  C   UNL A   1      33.819  22.217  24.204  1.00  0.00     0.117 C 
ATOM      8  C   UNL A   1      33.125  22.166  22.820  1.00  0.00     0.030 C 
ATOM      9  C   UNL A   1      33.018  23.175  25.107  1.00  0.00     0.281 C 
ATOM     10  C   UNL A   1      32.942  23.577  22.262  1.00  0.00     0.063 C 
ATOM     11  N   UNL A   1      32.637  24.482  24.563  1.00  0.00    -0.330 N 
ATOM     12  C   UNL A   1      32.084  24.417  23.207  1.00  0.00     0.262 C 
ATOM     13  H   UNL A   1      33.503  25.015  24.472  1.00  0.00     0.348 HD
BRANCH   7  14
ATOM     14  C   UNL A   1      33.827  20.782  24.827  1.00  0.00     0.021 C 
ATOM     15  C   UNL A   1      32.474  20.065  24.848  1.00  0.00     0.005 C 
ENDBRANCH   7  14
BRANCH  11  16
ATOM     16  C   UNL A   1      31.744  25.222  25.501  1.00  0.00     0.299 C 
BRANCH  16  17
ATOM     17  C   UNL A   1      32.244  26.594  25.936  1.00  0.00     0.006 A 
ATOM     18  C   UNL A   1      31.459  27.401  26.765  1.00  0.00     0.010 A 
ATOM     19  C   UNL A   1      33.533  27.039  25.620  1.00  0.00     0.010 A 
ATOM     20  C   UNL A   1      32.000  28.546  27.364  1.00  0.00     0.004 A 
ATOM     21  C   UNL A   1      34.078  28.165  26.248  1.00  0.00     0.004 A 
ATOM     22  C   UNL A   1      33.340  28.927  27.168  1.00  0.00    -0.045 A 
BRANCH  22  23
ATOM     23  C   UNL A   1      33.918  30.087  27.958  1.00  0.00     0.019 C 
ATOM     24  C   UNL A   1      35.339  30.049  28.470  1.00  0.00     0.009 C 
ATOM     25  C   UNL A   1      34.963  31.001  27.371  1.00  0.00     0.009 C 
ENDBRANCH  22  23
ENDBRANCH  16  17
ENDBRANCH  11  16
ENDBRANCH   5   7
ENDBRANCH   4   5
ENDBRANCH   3   4
ENDBRANCH   2   3
ENDBRANCH   1   2
BRANCH   1  26
ATOM     26  C   UNL A   1      40.336  21.605  27.012  1.00  0.00     0.202 C 
BRANCH  26  27
ATOM     27  C   UNL A   1      41.798  21.839  26.614  1.00  0.00     0.261 C 
BRANCH  27  28
ATOM     28  O   UNL A   1      42.362  22.973  27.303  1.00  0.00    -0.460 OA
BRANCH  28  29
ATOM     29  C   UNL A   1      42.442  24.106  26.564  1.00  0.00     0.338 C 
ATOM     30  O   UNL A   1      42.745  24.191  25.386  1.00  0.00    -0.246 OA
BRANCH  29  31
ATOM     31  C   UNL A   1      41.902  25.252  27.324  1.00  0.00     0.060 A 
ATOM     32  C   UNL A   1      42.705  26.397  27.409  1.00  0.00     0.016 A 
ATOM     33  C   UNL A   1      40.696  25.180  28.022  1.00  0.00     0.016 A 
ATOM     34  C   UNL A   1      42.346  27.444  28.253  1.00  0.00     0.010 A 
ATOM     35  C   UNL A   1      40.340  26.230  28.879  1.00  0.00     0.010 A 
ATOM     36  C   UNL A   1      41.191  27.340  29.038  1.00  0.00    -0.014 A 
BRANCH  36  37
ATOM     37  C   UNL A   1      41.001  28.278  30.174  1.00  0.00     0.031 A 
ATOM     38  C   UNL A   1      41.916  28.157  31.365  1.00  0.00     0.074 A 
ATOM     39  C   UNL A   1      40.078  29.256  30.134  1.00  0.00     0.049 A 
ATOM     40  N   UNL A   1      41.915  28.833  32.485  1.00  0.00    -0.248 NA
ATOM     41  C   UNL A   1      42.977  27.139  31.279  1.00  0.00     0.031 C 
ATOM     42  C   UNL A   1      39.181  29.529  29.013  1.00  0.00     0.029 A 
ATOM     43  N   UNL A   1      39.746  30.203  31.072  1.00  0.00    -0.354 N 
ATOM     44  C   UNL A   1      42.960  28.312  33.242  1.00  0.00     0.074 A 
ATOM     45  C   UNL A   1      43.556  27.247  32.466  1.00  0.00     0.031 C 
ATOM     46  C   UNL A   1      38.393  30.573  29.332  1.00  0.00     0.029 A 
ATOM     47  C   UNL A   1      38.704  31.014  30.691  1.00  0.00     0.049 A 
ATOM     48  H   UNL A   1      40.211  30.293  31.935  1.00  0.00     0.167 HD
ATOM     49  C   UNL A   1      43.390  28.687  34.470  1.00  0.00     0.031 A 
ATOM     50  C   UNL A   1      38.057  31.983  31.370  1.00  0.00     0.031 A 
ATOM     51  C   UNL A   1      42.795  29.743  35.244  1.00  0.00     0.049 A 
ATOM     52  C   UNL A   1      38.494  32.326  32.773  1.00  0.00     0.074 A 
ATOM     53  C   UNL A   1      43.161  30.198  36.499  1.00  0.00     0.029 A 
ATOM     54  N   UNL A   1      41.712  30.508  34.841  1.00  0.00    -0.354 N 
ATOM     55  N   UNL A   1      39.481  31.822  33.476  1.00  0.00    -0.248 NA
ATOM     56  C   UNL A   1      37.733  33.373  33.470  1.00  0.00     0.031 C 
ATOM     57  C   UNL A   1      42.261  31.198  36.880  1.00  0.00     0.029 A 
ATOM     58  C   UNL A   1      41.380  31.415  35.832  1.00  0.00     0.049 A 
ATOM     59  H   UNL A   1      41.247  30.419  33.977  1.00  0.00     0.167 HD
ATOM     60  C   UNL A   1      39.482  32.518  34.682  1.00  0.00     0.074 A 
ATOM     61  C   UNL A   1      38.402  33.479  34.611  1.00  0.00     0.031 C 
ATOM     62  C   UNL A   1      40.310  32.378  35.747  1.00  0.00     0.031 A 
BRANCH  49  63
ATOM     63  C   UNL A   1      44.535  27.918  35.072  1.00  0.00    -0.014 A 
ATOM     64  C   UNL A   1      44.317  26.759  35.838  1.00  0.00     0.010 A 
ATOM     65  C   UNL A   1      45.855  28.343  34.836  1.00  0.00     0.010 A 
ATOM     66  C   UNL A   1      45.397  26.062  36.390  1.00  0.00     0.020 A 
ATOM     67  C   UNL A   1      46.939  27.633  35.359  1.00  0.00     0.020 A 
ATOM     68  C   UNL A   1      46.702  26.507  36.148  1.00  0.00     0.054 A 
BRANCH  68  69
ATOM     69  S   UNL A   1      48.084  25.574  36.859  1.00  0.00     0.124 S 
ATOM     70  O   UNL A   1      48.167  24.426  35.960  1.00  0.00    -0.237 OA
ATOM     71  O   UNL A   1      49.191  26.522  36.770  1.00  0.00    -0.237 OA
ATOM     72  O   UNL A   1      47.637  25.270  38.216  1.00  0.00    -0.744 OA
ENDBRANCH  68  69
ENDBRANCH  49  63
BRANCH  50  73
ATOM     73  C   UNL A   1      36.903  32.686  30.745  1.00  0.00    -0.014 A 
ATOM     74  C   UNL A   1      37.105  33.695  29.786  1.00  0.00     0.010 A 
ATOM     75  C   UNL A   1      35.587  32.353  31.117  1.00  0.00     0.010 A 
ATOM     76  C   UNL A   1      36.015  34.367  29.224  1.00  0.00     0.020 A 
ATOM     77  C   UNL A   1      34.495  33.002  30.536  1.00  0.00     0.020 A 
ATOM     78  C   UNL A   1      34.716  34.015  29.601  1.00  0.00     0.054 A 
BRANCH  78  79
ATOM     79  S   UNL A   1      33.315  34.867  28.824  1.00  0.00     0.124 S 
ATOM     80  O   UNL A   1      33.970  35.999  28.177  1.00  0.00    -0.237 OA
ATOM     81  O   UNL A   1      32.783  33.844  27.927  1.00  0.00    -0.237 OA
ATOM     82  O   UNL A   1      32.452  35.205  29.954  1.00  0.00    -0.744 OA
ENDBRANCH  78  79
ENDBRANCH  50  73
BRANCH  62  83
ATOM     83  C   UNL A   1      40.130  33.319  36.910  1.00  0.00    -0.014 A 
ATOM     84  C   UNL A   1      40.792  34.558  36.964  1.00  0.00     0.010 A 
ATOM     85  C   UNL A   1      39.217  32.986  37.928  1.00  0.00     0.010 A 
ATOM     86  C   UNL A   1      40.558  35.437  38.026  1.00  0.00     0.020 A 
ATOM     87  C   UNL A   1      38.960  33.873  38.977  1.00  0.00     0.020 A 
ATOM     88  C   UNL A   1      39.641  35.091  39.024  1.00  0.00     0.054 A 
BRANCH  88  89
ATOM     89  S   UNL A   1      39.311  36.274  40.359  1.00  0.00     0.124 S 
ATOM     90  O   UNL A   1      38.291  35.577  41.139  1.00  0.00    -0.237 OA
ATOM     91  O   UNL A   1      40.616  36.401  41.003  1.00  0.00    -0.237 OA
ATOM     92  O   UNL A   1      38.850  37.469  39.658  1.00  0.00    -0.744 OA
ENDBRANCH  88  89
ENDBRANCH  62  83
ENDBRANCH  36  37
ENDBRANCH  29  31
ENDBRANCH  28  29
ENDBRANCH  27  28
ENDBRANCH  26  27
ENDBRANCH   1  26
TORSDOF 21
ENDMDL
MODEL 2
REMARK VINA RESULT:     -10.1      5.985     11.886
REMARK SMILES CC[C@@]1(C(=O)OCCOCCOC(=O)c2ccc(-c3c4nc(c(-c5ccc(S(=O)(=O)[O-])cc5)c5ccc([nH]5)c(-c5ccc(S(=O)(=O)[O-])cc5)c5nc(c(-c6ccc(S(=O)(=O)[O-])cc6)c6ccc3[nH]6)C=C5)C=C4)cc2)CCC[N@@H+](Cc2ccc(C3CC3)cc2)C1
REMARK SMILES IDX 9 1 8 2 7 3 6 4 4 5 5 6 3 7 75 8 89 9 76 10 78 11 77 12 2 14
REMARK SMILES IDX 1 15 79 16 80 17 81 18 88 19 82 20 87 21 83 22 84 23 85 24
REMARK SMILES IDX 86 25 10 26 11 27 12 28 13 29 14 30 15 31 16 32 74 33 17 34
REMARK SMILES IDX 73 35 18 36 19 37 20 38 67 39 21 40 72 41 66 42 68 43 22 44
REMARK SMILES IDX 71 45 65 46 64 47 23 49 53 50 34 51 52 52 35 53 38 54 51 55
REMARK SMILES IDX 69 56 36 57 37 58 50 60 70 61 39 62 24 63 25 64 33 65 26 66
REMARK SMILES IDX 32 67 27 68 28 69 29 70 30 71 31 72 54 73 55 74 63 75 56 76
REMARK SMILES IDX 62 77 57 78 58 79 59 80 60 81 61 82 40 83 41 84 49 85 42 86
REMARK SMILES IDX 48 87 43 88 44 89 45 90 46 91 47 92
REMARK H PARENT 78 13 68 48 38 59
REMARK Flexibility Score: inf
ROOT
ATOM      1  O   UNL A   1      33.919  29.750  26.225  1.00  0.00    -0.374 OA
ENDROOT
BRANCH   1   2
ATOM      2  C   UNL A   1      34.374  28.427  26.501  1.00  0.00     0.202 C 
BRANCH   2   3
ATOM      3  C   UNL A   1      33.365  27.290  26.333  1.00  0.00     0.261 C 
BRANCH   3   4
ATOM      4  O   UNL A   1      33.616  26.481  25.169  1.00  0.00    -0.463 OA
BRANCH   4   5
ATOM      5  C   UNL A   1      32.583  26.403  24.294  1.00  0.00     0.317 C 
ATOM      6  O   UNL A   1      32.091  27.379  23.730  1.00  0.00    -0.251 OA
BRANCH   5   7
ATOM      7  C   UNL A   1      32.118  24.975  23.997  1.00  0.00     0.117 C 
ATOM      8  C   UNL A   1      30.605  24.938  24.327  1.00  0.00     0.030 C 
ATOM      9  C   UNL A   1      32.813  23.863  24.806  1.00  0.00     0.281 C 
ATOM     10  C   UNL A   1      30.386  25.007  25.838  1.00  0.00     0.063 C 
ATOM     11  N   UNL A   1      32.499  23.748  26.234  1.00  0.00    -0.330 N 
ATOM     12  C   UNL A   1      31.065  23.827  26.530  1.00  0.00     0.262 C 
ATOM     13  H   UNL A   1      32.909  24.568  26.681  1.00  0.00     0.348 HD
BRANCH   7  14
ATOM     14  C   UNL A   1      32.315  24.720  22.465  1.00  0.00     0.021 C 
ATOM     15  C   UNL A   1      32.993  23.396  22.100  1.00  0.00     0.005 C 
ENDBRANCH   7  14
BRANCH  11  16
ATOM     16  C   UNL A   1      33.133  22.538  26.834  1.00  0.00     0.299 C 
BRANCH  16  17
ATOM     17  C   UNL A   1      33.396  21.389  25.867  1.00  0.00     0.006 A 
ATOM     18  C   UNL A   1      34.706  21.034  25.533  1.00  0.00     0.010 A 
ATOM     19  C   UNL A   1      32.355  20.590  25.378  1.00  0.00     0.010 A 
ATOM     20  C   UNL A   1      34.966  19.842  24.846  1.00  0.00     0.004 A 
ATOM     21  C   UNL A   1      32.625  19.384  24.723  1.00  0.00     0.004 A 
ATOM     22  C   UNL A   1      33.939  18.956  24.474  1.00  0.00    -0.045 A 
BRANCH  22  23
ATOM     23  C   UNL A   1      34.286  17.608  23.868  1.00  0.00     0.019 C 
ATOM     24  C   UNL A   1      34.713  16.449  24.740  1.00  0.00     0.009 C 
ATOM     25  C   UNL A   1      33.388  16.410  24.034  1.00  0.00     0.009 C 
ENDBRANCH  22  23
ENDBRANCH  16  17
ENDBRANCH  11  16
ENDBRANCH   5   7
ENDBRANCH   4   5
ENDBRANCH   3   4
ENDBRANCH   2   3
ENDBRANCH   1   2
BRANCH   1  26
ATOM     26  C   UNL A   1      33.693  30.615  27.336  1.00  0.00     0.202 C 
BRANCH  26  27
ATOM     27  C   UNL A   1      34.907  31.396  27.854  1.00  0.00     0.261 C 
BRANCH  27  28
ATOM     28  O   UNL A   1      35.518  30.740  28.984  1.00  0.00    -0.460 OA
BRANCH  28  29
ATOM     29  C   UNL A   1      36.680  31.296  29.405  1.00  0.00     0.338 C 
ATOM     30  O   UNL A   1      36.805  32.301  30.085  1.00  0.00    -0.246 OA
BRANCH  29  31
ATOM     31  C   UNL A   1      37.814  30.399  29.107  1.00  0.00     0.060 A 
ATOM     32  C   UNL A   1      38.680  30.091  30.165  1.00  0.00     0.016 A 
ATOM     33  C   UNL A   1      38.089  29.951  27.815  1.00  0.00     0.016 A 
ATOM     34  C   UNL A   1      39.866  29.403  29.923  1.00  0.00     0.010 A 
ATOM     35  C   UNL A   1      39.287  29.267  27.570  1.00  0.00     0.010 A 
ATOM     36  C   UNL A   1      40.204  29.038  28.614  1.00  0.00    -0.014 A 
BRANCH  36  37
ATOM     37  C   UNL A   1      41.600  28.629  28.315  1.00  0.00     0.031 A 
ATOM     38  C   UNL A   1      42.681  29.678  28.361  1.00  0.00     0.074 A 
ATOM     39  C   UNL A   1      41.920  27.347  28.063  1.00  0.00     0.049 A 
ATOM     40  N   UNL A   1      43.957  29.567  28.098  1.00  0.00    -0.248 NA
ATOM     41  C   UNL A   1      42.265  31.034  28.761  1.00  0.00     0.031 C 
ATOM     42  C   UNL A   1      40.984  26.224  28.062  1.00  0.00     0.029 A 
ATOM     43  N   UNL A   1      43.132  26.777  27.759  1.00  0.00    -0.354 N 
ATOM     44  C   UNL A   1      44.493  30.838  28.284  1.00  0.00     0.074 A 
ATOM     45  C   UNL A   1      43.401  31.708  28.656  1.00  0.00     0.031 C 
ATOM     46  C   UNL A   1      41.657  25.098  27.763  1.00  0.00     0.029 A 
ATOM     47  C   UNL A   1      43.061  25.426  27.515  1.00  0.00     0.049 A 
ATOM     48  H   UNL A   1      43.973  27.288  27.721  1.00  0.00     0.167 HD
ATOM     49  C   UNL A   1      45.779  31.244  28.162  1.00  0.00     0.031 A 
ATOM     50  C   UNL A   1      44.011  24.560  27.111  1.00  0.00     0.031 A 
ATOM     51  C   UNL A   1      46.866  30.379  27.788  1.00  0.00     0.049 A 
ATOM     52  C   UNL A   1      45.421  25.051  26.894  1.00  0.00     0.074 A 
ATOM     53  C   UNL A   1      48.204  30.698  27.638  1.00  0.00     0.029 A 
ATOM     54  N   UNL A   1      46.742  29.028  27.504  1.00  0.00    -0.354 N 
ATOM     55  N   UNL A   1      45.912  26.255  27.070  1.00  0.00    -0.248 NA
ATOM     56  C   UNL A   1      46.407  24.064  26.429  1.00  0.00     0.031 C 
ATOM     57  C   UNL A   1      48.880  29.553  27.206  1.00  0.00     0.029 A 
ATOM     58  C   UNL A   1      47.975  28.504  27.156  1.00  0.00     0.049 A 
ATOM     59  H   UNL A   1      45.901  28.517  27.543  1.00  0.00     0.167 HD
ATOM     60  C   UNL A   1      47.268  26.160  26.775  1.00  0.00     0.074 A 
ATOM     61  C   UNL A   1      47.522  24.782  26.413  1.00  0.00     0.031 C 
ATOM     62  C   UNL A   1      48.219  27.126  26.810  1.00  0.00     0.031 A 
BRANCH  49  63
ATOM     63  C   UNL A   1      46.073  32.702  28.392  1.00  0.00    -0.014 A 
ATOM     64  C   UNL A   1      46.390  33.192  29.672  1.00  0.00     0.010 A 
ATOM     65  C   UNL A   1      46.066  33.592  27.302  1.00  0.00     0.010 A 
ATOM     66  C   UNL A   1      46.657  34.551  29.863  1.00  0.00     0.020 A 
ATOM     67  C   UNL A   1      46.361  34.945  27.483  1.00  0.00     0.020 A 
ATOM     68  C   UNL A   1      46.638  35.420  28.766  1.00  0.00     0.054 A 
BRANCH  68  69
ATOM     69  S   UNL A   1      47.006  37.174  29.038  1.00  0.00     0.124 S 
ATOM     70  O   UNL A   1      47.319  37.630  27.686  1.00  0.00    -0.237 OA
ATOM     71  O   UNL A   1      45.755  37.681  29.597  1.00  0.00    -0.237 OA
ATOM     72  O   UNL A   1      48.135  37.152  29.965  1.00  0.00    -0.744 OA
ENDBRANCH  68  69
ENDBRANCH  49  63
BRANCH  50  73
ATOM     73  C   UNL A   1      43.660  23.135  26.857  1.00  0.00    -0.014 A 
ATOM     74  C   UNL A   1      43.996  22.515  25.640  1.00  0.00     0.010 A 
ATOM     75  C   UNL A   1      42.975  22.391  27.836  1.00  0.00     0.010 A 
ATOM     76  C   UNL A   1      43.638  21.184  25.402  1.00  0.00     0.020 A 
ATOM     77  C   UNL A   1      42.642  21.053  27.612  1.00  0.00     0.020 A 
ATOM     78  C   UNL A   1      42.966  20.460  26.390  1.00  0.00     0.054 A 
BRANCH  78  79
ATOM     79  S   UNL A   1      42.554  18.721  26.078  1.00  0.00     0.124 S 
ATOM     80  O   UNL A   1      41.164  18.811  25.646  1.00  0.00    -0.237 OA
ATOM     81  O   UNL A   1      43.517  18.351  25.043  1.00  0.00    -0.237 OA
ATOM     82  O   UNL A   1      42.768  18.082  27.374  1.00  0.00    -0.744 OA
ENDBRANCH  78  79
ENDBRANCH  50  73
BRANCH  62  83
ATOM     83  C   UNL A   1      49.641  26.730  26.506  1.00  0.00    -0.014 A 
ATOM     84  C   UNL A   1      50.500  26.244  27.507  1.00  0.00     0.010 A 
ATOM     85  C   UNL A   1      50.096  26.771  25.174  1.00  0.00     0.010 A 
ATOM     86  C   UNL A   1      51.795  25.826  27.183  1.00  0.00     0.020 A 
ATOM     87  C   UNL A   1      51.380  26.329  24.843  1.00  0.00     0.020 A 
ATOM     88  C   UNL A   1      52.226  25.868  25.853  1.00  0.00     0.054 A 
BRANCH  88  89
ATOM     89  S   UNL A   1      53.888  25.264  25.451  1.00  0.00     0.124 S 
ATOM     90  O   UNL A   1      53.881  23.930  26.047  1.00  0.00    -0.237 OA
ATOM     91  O   UNL A   1      53.897  25.301  23.991  1.00  0.00    -0.237 OA
ATOM     92  O   UNL A   1      54.775  26.229  26.097  1.00  0.00    -0.744 OA
ENDBRANCH  88  89
ENDBRANCH  62  83
ENDBRANCH  36  37
ENDBRANCH  29  31
ENDBRANCH  28  29
ENDBRANCH  27  28
ENDBRANCH  26  27
ENDBRANCH   1  26
TORSDOF 21
ENDMDL
MODEL 3
REMARK VINA RESULT:     -10.0      1.795      2.498
REMARK SMILES CC[C@@]1(C(=O)OCCOCCOC(=O)c2ccc(-c3c4nc(c(-c5ccc(S(=O)(=O)[O-])cc5)c5ccc([nH]5)c(-c5ccc(S(=O)(=O)[O-])cc5)c5nc(c(-c6ccc(S(=O)(=O)[O-])cc6)c6ccc3[nH]6)C=C5)C=C4)cc2)CCC[N@@H+](Cc2ccc(C3CC3)cc2)C1
REMARK SMILES IDX 9 1 8 2 7 3 6 4 4 5 5 6 3 7 75 8 89 9 76 10 78 11 77 12 2 14
REMARK SMILES IDX 1 15 79 16 80 17 81 18 88 19 82 20 87 21 83 22 84 23 85 24
REMARK SMILES IDX 86 25 10 26 11 27 12 28 13 29 14 30 15 31 16 32 74 33 17 34
REMARK SMILES IDX 73 35 18 36 19 37 20 38 67 39 21 40 72 41 66 42 68 43 22 44
REMARK SMILES IDX 71 45 65 46 64 47 23 49 53 50 34 51 52 52 35 53 38 54 51 55
REMARK SMILES IDX 69 56 36 57 37 58 50 60 70 61 39 62 24 63 25 64 33 65 26 66
REMARK SMILES IDX 32 67 27 68 28 69 29 70 30 71 31 72 54 73 55 74 63 75 56 76
REMARK SMILES IDX 62 77 57 78 58 79 59 80 60 81 61 82 40 83 41 84 49 85 42 86
REMARK SMILES IDX 48 87 43 88 44 89 45 90 46 91 47 92
REMARK H PARENT 78 13 68 48 38 59
REMARK Flexibility Score: inf
ROOT
ATOM      1  O   UNL A   1      38.781  21.553  25.674  1.00  0.00    -0.374 OA
ENDROOT
BRANCH   1   2
ATOM      2  C   UNL A   1      37.515  22.208  25.734  1.00  0.00     0.202 C 
BRANCH   2   3
ATOM      3  C   UNL A   1      36.924  22.709  24.415  1.00  0.00     0.261 C 
BRANCH   3   4
ATOM      4  O   UNL A   1      35.539  22.351  24.246  1.00  0.00    -0.463 OA
BRANCH   4   5
ATOM      5  C   UNL A   1      34.655  23.219  24.797  1.00  0.00     0.317 C 
ATOM      6  O   UNL A   1      34.921  24.392  25.056  1.00  0.00    -0.251 OA
BRANCH   5   7
ATOM      7  C   UNL A   1      33.253  22.641  25.003  1.00  0.00     0.117 C 
ATOM      8  C   UNL A   1      32.800  22.111  23.620  1.00  0.00     0.030 C 
ATOM      9  C   UNL A   1      32.187  23.633  25.508  1.00  0.00     0.281 C 
ATOM     10  C   UNL A   1      32.501  23.273  22.674  1.00  0.00     0.063 C 
ATOM     11  N   UNL A   1      31.708  24.664  24.582  1.00  0.00    -0.330 N 
ATOM     12  C   UNL A   1      31.391  24.154  23.245  1.00  0.00     0.262 C 
ATOM     13  H   UNL A   1      32.489  25.306  24.444  1.00  0.00     0.348 HD
BRANCH   7  14
ATOM     14  C   UNL A   1      33.375  21.440  25.998  1.00  0.00     0.021 C 
ATOM     15  C   UNL A   1      34.111  21.741  27.307  1.00  0.00     0.005 C 
ENDBRANCH   7  14
BRANCH  11  16
ATOM     16  C   UNL A   1      30.580  25.441  25.172  1.00  0.00     0.299 C 
BRANCH  16  17
ATOM     17  C   UNL A   1      30.033  26.566  24.300  1.00  0.00     0.006 A 
ATOM     18  C   UNL A   1      28.683  26.583  23.937  1.00  0.00     0.010 A 
ATOM     19  C   UNL A   1      30.824  27.661  23.934  1.00  0.00     0.010 A 
ATOM     20  C   UNL A   1      28.120  27.722  23.347  1.00  0.00     0.004 A 
ATOM     21  C   UNL A   1      30.248  28.808  23.376  1.00  0.00     0.004 A 
ATOM     22  C   UNL A   1      28.872  28.886  23.104  1.00  0.00    -0.045 A 
BRANCH  22  23
ATOM     23  C   UNL A   1      28.181  30.141  22.604  1.00  0.00     0.019 C 
ATOM     24  C   UNL A   1      27.559  31.124  23.570  1.00  0.00     0.009 C 
ATOM     25  C   UNL A   1      28.787  31.508  22.795  1.00  0.00     0.009 C 
ENDBRANCH  22  23
ENDBRANCH  16  17
ENDBRANCH  11  16
ENDBRANCH   5   7
ENDBRANCH   4   5
ENDBRANCH   3   4
ENDBRANCH   2   3
ENDBRANCH   1   2
BRANCH   1  26
ATOM     26  C   UNL A   1      39.861  22.136  26.400  1.00  0.00     0.202 C 
BRANCH  26  27
ATOM     27  C   UNL A   1      39.928  23.669  26.414  1.00  0.00     0.261 C 
BRANCH  27  28
ATOM     28  O   UNL A   1      41.290  24.141  26.416  1.00  0.00    -0.460 OA
BRANCH  28  29
ATOM     29  C   UNL A   1      41.438  25.457  26.128  1.00  0.00     0.338 C 
ATOM     30  O   UNL A   1      41.273  25.991  25.045  1.00  0.00    -0.246 OA
BRANCH  29  31
ATOM     31  C   UNL A   1      41.632  26.233  27.370  1.00  0.00     0.060 A 
ATOM     32  C   UNL A   1      40.983  25.769  28.522  1.00  0.00     0.016 A 
ATOM     33  C   UNL A   1      42.340  27.435  27.393  1.00  0.00     0.016 A 
ATOM     34  C   UNL A   1      40.970  26.542  29.679  1.00  0.00     0.010 A 
ATOM     35  C   UNL A   1      42.319  28.218  28.555  1.00  0.00     0.010 A 
ATOM     36  C   UNL A   1      41.588  27.798  29.684  1.00  0.00    -0.014 A 
BRANCH  36  37
ATOM     37  C   UNL A   1      41.279  28.753  30.779  1.00  0.00     0.031 A 
ATOM     38  C   UNL A   1      42.127  28.714  32.025  1.00  0.00     0.074 A 
ATOM     39  C   UNL A   1      40.308  29.676  30.657  1.00  0.00     0.049 A 
ATOM     40  N   UNL A   1      42.021  29.417  33.123  1.00  0.00    -0.248 NA
ATOM     41  C   UNL A   1      43.245  27.754  32.030  1.00  0.00     0.031 C 
ATOM     42  C   UNL A   1      39.467  29.869  29.478  1.00  0.00     0.029 A 
ATOM     43  N   UNL A   1      39.869  30.626  31.545  1.00  0.00    -0.354 N 
ATOM     44  C   UNL A   1      43.046  28.975  33.954  1.00  0.00     0.074 A 
ATOM     45  C   UNL A   1      43.744  27.926  33.246  1.00  0.00     0.031 C 
ATOM     46  C   UNL A   1      38.605  30.875  29.719  1.00  0.00     0.029 A 
ATOM     47  C   UNL A   1      38.809  31.368  31.081  1.00  0.00     0.049 A 
ATOM     48  H   UNL A   1      40.276  30.764  32.431  1.00  0.00     0.167 HD
ATOM     49  C   UNL A   1      43.380  29.405  35.194  1.00  0.00     0.031 A 
ATOM     50  C   UNL A   1      38.071  32.315  31.693  1.00  0.00     0.031 A 
ATOM     51  C   UNL A   1      42.682  30.445  35.901  1.00  0.00     0.049 A 
ATOM     52  C   UNL A   1      38.404  32.718  33.108  1.00  0.00     0.074 A 
ATOM     53  C   UNL A   1      42.947  30.952  37.162  1.00  0.00     0.029 A 
ATOM     54  N   UNL A   1      41.586  31.138  35.413  1.00  0.00    -0.354 N 
ATOM     55  N   UNL A   1      39.372  32.289  33.883  1.00  0.00    -0.248 NA
ATOM     56  C   UNL A   1      37.546  33.739  33.729  1.00  0.00     0.031 C 
ATOM     57  C   UNL A   1      41.973  31.910  37.460  1.00  0.00     0.029 A 
ATOM     58  C   UNL A   1      41.146  32.050  36.357  1.00  0.00     0.049 A 
ATOM     59  H   UNL A   1      41.179  31.000  34.527  1.00  0.00     0.167 HD
ATOM     60  C   UNL A   1      39.263  33.014  35.065  1.00  0.00     0.074 A 
ATOM     61  C   UNL A   1      38.139  33.911  34.904  1.00  0.00     0.031 C 
ATOM     62  C   UNL A   1      40.032  32.948  36.181  1.00  0.00     0.031 A 
BRANCH  49  63
ATOM     63  C   UNL A   1      44.527  28.717  35.884  1.00  0.00    -0.014 A 
ATOM     64  C   UNL A   1      45.848  29.181  35.749  1.00  0.00     0.010 A 
ATOM     65  C   UNL A   1      44.274  27.607  36.710  1.00  0.00     0.010 A 
ATOM     66  C   UNL A   1      46.898  28.524  36.396  1.00  0.00     0.020 A 
ATOM     67  C   UNL A   1      45.316  26.965  37.383  1.00  0.00     0.020 A 
ATOM     68  C   UNL A   1      46.624  27.417  37.208  1.00  0.00     0.054 A 
BRANCH  68  69
ATOM     69  S   UNL A   1      48.003  26.595  38.052  1.00  0.00     0.124 S 
ATOM     70  O   UNL A   1      49.113  27.502  37.769  1.00  0.00    -0.237 OA
ATOM     71  O   UNL A   1      47.556  26.565  39.442  1.00  0.00    -0.237 OA
ATOM     72  O   UNL A   1      48.082  25.291  37.398  1.00  0.00    -0.744 OA
ENDBRANCH  68  69
ENDBRANCH  49  63
BRANCH  50  73
ATOM     73  C   UNL A   1      36.920  32.937  30.981  1.00  0.00    -0.014 A 
ATOM     74  C   UNL A   1      37.125  33.772  29.868  1.00  0.00     0.010 A 
ATOM     75  C   UNL A   1      35.605  32.700  31.424  1.00  0.00     0.010 A 
ATOM     76  C   UNL A   1      36.038  34.371  29.223  1.00  0.00     0.020 A 
ATOM     77  C   UNL A   1      34.515  33.273  30.764  1.00  0.00     0.020 A 
ATOM     78  C   UNL A   1      34.739  34.116  29.674  1.00  0.00     0.054 A 
BRANCH  78  79
ATOM     79  S   UNL A   1      33.342  34.866  28.792  1.00  0.00     0.124 S 
ATOM     80  O   UNL A   1      32.377  35.065  29.868  1.00  0.00    -0.237 OA
ATOM     81  O   UNL A   1      33.934  36.081  28.239  1.00  0.00    -0.237 OA
ATOM     82  O   UNL A   1      32.979  33.853  27.804  1.00  0.00    -0.744 OA
ENDBRANCH  78  79
ENDBRANCH  50  73
BRANCH  62  83
ATOM     83  C   UNL A   1      39.731  33.908  37.304  1.00  0.00    -0.014 A 
ATOM     84  C   UNL A   1      39.029  33.501  38.452  1.00  0.00     0.010 A 
ATOM     85  C   UNL A   1      40.235  35.220  37.239  1.00  0.00     0.010 A 
ATOM     86  C   UNL A   1      38.819  34.398  39.504  1.00  0.00     0.020 A 
ATOM     87  C   UNL A   1      40.051  36.111  38.300  1.00  0.00     0.020 A 
ATOM     88  C   UNL A   1      39.334  35.696  39.423  1.00  0.00     0.054 A 
BRANCH  88  89
ATOM     89  S   UNL A   1      39.100  36.820  40.827  1.00  0.00     0.124 S 
ATOM     90  O   UNL A   1      40.459  36.941  41.351  1.00  0.00    -0.237 OA
ATOM     91  O   UNL A   1      38.563  38.020  40.190  1.00  0.00    -0.237 OA
ATOM     92  O   UNL A   1      38.162  36.108  41.691  1.00  0.00    -0.744 OA
ENDBRANCH  88  89
ENDBRANCH  62  83
ENDBRANCH  36  37
ENDBRANCH  29  31
ENDBRANCH  28  29
ENDBRANCH  27  28
ENDBRANCH  26  27
ENDBRANCH   1  26
TORSDOF 21
ENDMDL
