MODEL 1
REMARK VINA RESULT:      -9.3      0.000      0.000
REMARK SMILES C=CCc1cccc(-c2ccc([C@@H](C)C(=O)OCCOCCOC(=O)c3ccc(-c4c5nc(c(-c6ccc(S(=O)(=O)[O-])cc6)c6ccc([nH]6)c(-c6ccc(S(=O)(=O)[O-])cc6)c6nc(c(-c7ccc(S(=O)(=O)[O-])cc7)c7ccc4[nH]7)C=C6)C=C5)cc3)cc2)c1
REMARK SMILES IDX 19 1 18 2 17 3 15 4 16 5 13 6 14 7 12 8 9 9 10 10 87 11
REMARK SMILES IDX 11 12 86 13 8 14 4 15 5 16 88 17 6 18 7 19 3 20 2 21 1 22
REMARK SMILES IDX 20 23 21 24 22 25 23 26 24 27 25 28 26 29 27 30 85 31 28 32
REMARK SMILES IDX 84 33 29 34 30 35 31 36 78 37 32 38 83 39 77 40 79 41 33 42
REMARK SMILES IDX 82 43 76 44 75 45 34 47 64 48 45 49 63 50 46 51 49 52 62 53
REMARK SMILES IDX 80 54 47 55 48 56 61 58 81 59 50 60 35 61 36 62 44 63 37 64
REMARK SMILES IDX 43 65 38 66 39 67 40 68 41 69 42 70 65 71 66 72 74 73 67 74
REMARK SMILES IDX 73 75 68 76 69 77 70 78 71 79 72 80 51 81 52 82 60 83 53 84
REMARK SMILES IDX 59 85 54 86 55 87 56 88 57 89 58 90
REMARK H PARENT 79 46 49 57
REMARK Flexibility Score: inf
ROOT
ATOM      1  C   UNL A   1      37.586  33.699  31.197  1.00  0.00     0.202 C 
ENDROOT
BRANCH   1   2
ATOM      2  C   UNL A   1      37.040  33.894  29.780  1.00  0.00     0.261 C 
BRANCH   2   3
ATOM      3  O   UNL A   1      36.369  32.710  29.311  1.00  0.00    -0.463 OA
BRANCH   3   4
ATOM      4  C   UNL A   1      35.015  32.708  29.415  1.00  0.00     0.313 C 
ATOM      5  O   UNL A   1      34.399  32.713  30.477  1.00  0.00    -0.252 OA
BRANCH   4   6
ATOM      6  C   UNL A   1      34.297  32.658  28.075  1.00  0.00     0.126 C 
ATOM      7  C   UNL A   1      33.282  33.795  28.000  1.00  0.00     0.025 C 
BRANCH   6   8
ATOM      8  C   UNL A   1      33.705  31.321  27.642  1.00  0.00    -0.034 A 
ATOM      9  C   UNL A   1      32.739  28.825  26.658  1.00  0.00    -0.018 A 
ATOM     10  C   UNL A   1      31.917  29.961  26.690  1.00  0.00     0.009 A 
ATOM     11  C   UNL A   1      34.042  28.949  27.161  1.00  0.00     0.009 A 
ATOM     12  C   UNL A   1      32.390  31.189  27.174  1.00  0.00     0.005 A 
ATOM     13  C   UNL A   1      34.517  30.174  27.644  1.00  0.00     0.005 A 
BRANCH   9  14
ATOM     14  C   UNL A   1      32.280  27.555  26.066  1.00  0.00    -0.018 A 
ATOM     15  C   UNL A   1      32.591  25.688  24.503  1.00  0.00    -0.044 A 
ATOM     16  C   UNL A   1      31.334  25.186  24.864  1.00  0.00     0.004 A 
ATOM     17  C   UNL A   1      33.054  26.868  25.112  1.00  0.00     0.012 A 
ATOM     18  C   UNL A   1      30.558  25.846  25.813  1.00  0.00     0.001 A 
ATOM     19  C   UNL A   1      31.027  27.019  26.407  1.00  0.00     0.009 A 
BRANCH  15  20
ATOM     20  C   UNL A   1      33.428  24.966  23.472  1.00  0.00     0.062 C 
BRANCH  20  21
ATOM     21  C   UNL A   1      32.730  23.773  22.885  1.00  0.00    -0.030 C 
ATOM     22  C   UNL A   1      33.254  22.971  21.949  1.00  0.00     0.004 C 
ENDBRANCH  20  21
ENDBRANCH  15  20
ENDBRANCH   9  14
ENDBRANCH   6   8
ENDBRANCH   4   6
ENDBRANCH   3   4
ENDBRANCH   2   3
ENDBRANCH   1   2
BRANCH   1  23
ATOM     23  O   UNL A   1      38.340  32.505  31.419  1.00  0.00    -0.374 OA
BRANCH  23  24
ATOM     24  C   UNL A   1      37.698  31.459  32.148  1.00  0.00     0.202 C 
BRANCH  24  25
ATOM     25  C   UNL A   1      38.460  30.134  32.259  1.00  0.00     0.261 C 
BRANCH  25  26
ATOM     26  O   UNL A   1      37.702  29.023  31.749  1.00  0.00    -0.460 OA
BRANCH  26  27
ATOM     27  C   UNL A   1      37.533  29.013  30.409  1.00  0.00     0.338 C 
ATOM     28  O   UNL A   1      36.520  29.323  29.790  1.00  0.00    -0.246 OA
BRANCH  27  29
ATOM     29  C   UNL A   1      38.817  28.742  29.736  1.00  0.00     0.060 A 
ATOM     30  C   UNL A   1      39.799  28.059  30.466  1.00  0.00     0.016 A 
ATOM     31  C   UNL A   1      39.088  29.211  28.449  1.00  0.00     0.016 A 
ATOM     32  C   UNL A   1      41.075  27.890  29.934  1.00  0.00     0.010 A 
ATOM     33  C   UNL A   1      40.373  29.048  27.919  1.00  0.00     0.010 A 
ATOM     34  C   UNL A   1      41.382  28.422  28.675  1.00  0.00    -0.014 A 
BRANCH  34  35
ATOM     35  C   UNL A   1      42.795  28.467  28.223  1.00  0.00     0.031 A 
ATOM     36  C   UNL A   1      43.385  27.249  27.565  1.00  0.00     0.074 A 
ATOM     37  C   UNL A   1      43.534  29.581  28.370  1.00  0.00     0.049 A 
ATOM     38  N   UNL A   1      44.603  27.049  27.135  1.00  0.00    -0.248 NA
ATOM     39  C   UNL A   1      42.479  26.105  27.363  1.00  0.00     0.031 C 
ATOM     40  C   UNL A   1      43.062  30.842  28.938  1.00  0.00     0.029 A 
ATOM     41  N   UNL A   1      44.848  29.825  28.053  1.00  0.00    -0.354 N 
ATOM     42  C   UNL A   1      44.616  25.755  26.625  1.00  0.00     0.074 A 
ATOM     43  C   UNL A   1      43.289  25.211  26.817  1.00  0.00     0.031 C 
ATOM     44  C   UNL A   1      44.077  31.725  28.941  1.00  0.00     0.029 A 
ATOM     45  C   UNL A   1      45.276  31.081  28.407  1.00  0.00     0.049 A 
ATOM     46  H   UNL A   1      45.428  29.161  27.613  1.00  0.00     0.167 HD
ATOM     47  C   UNL A   1      45.638  25.082  26.046  1.00  0.00     0.031 A 
ATOM     48  C   UNL A   1      46.500  31.640  28.332  1.00  0.00     0.031 A 
ATOM     49  C   UNL A   1      46.959  25.620  25.865  1.00  0.00     0.049 A 
ATOM     50  C   UNL A   1      47.643  30.846  27.756  1.00  0.00     0.074 A 
ATOM     51  C   UNL A   1      48.061  25.018  25.284  1.00  0.00     0.029 A 
ATOM     52  N   UNL A   1      47.361  26.884  26.271  1.00  0.00    -0.354 N 
ATOM     53  N   UNL A   1      47.636  29.628  27.267  1.00  0.00    -0.248 NA
ATOM     54  C   UNL A   1      48.958  31.501  27.717  1.00  0.00     0.031 C 
ATOM     55  C   UNL A   1      49.143  25.899  25.383  1.00  0.00     0.029 A 
ATOM     56  C   UNL A   1      48.700  27.071  25.974  1.00  0.00     0.049 A 
ATOM     57  H   UNL A   1      46.780  27.549  26.705  1.00  0.00     0.167 HD
ATOM     58  C   UNL A   1      48.937  29.385  26.835  1.00  0.00     0.074 A 
ATOM     59  C   UNL A   1      49.703  30.581  27.116  1.00  0.00     0.031 C 
ATOM     60  C   UNL A   1      49.447  28.271  26.254  1.00  0.00     0.031 A 
BRANCH  47  61
ATOM     61  C   UNL A   1      45.373  23.669  25.600  1.00  0.00    -0.014 A 
ATOM     62  C   UNL A   1      45.642  22.576  26.442  1.00  0.00     0.010 A 
ATOM     63  C   UNL A   1      44.815  23.436  24.329  1.00  0.00     0.010 A 
ATOM     64  C   UNL A   1      45.396  21.271  26.004  1.00  0.00     0.020 A 
ATOM     65  C   UNL A   1      44.543  22.134  23.899  1.00  0.00     0.020 A 
ATOM     66  C   UNL A   1      44.853  21.059  24.733  1.00  0.00     0.054 A 
BRANCH  66  67
ATOM     67  S   UNL A   1      44.530  19.356  24.196  1.00  0.00     0.124 S 
ATOM     68  O   UNL A   1      44.527  19.495  22.742  1.00  0.00    -0.237 OA
ATOM     69  O   UNL A   1      45.662  18.623  24.755  1.00  0.00    -0.237 OA
ATOM     70  O   UNL A   1      43.234  19.044  24.794  1.00  0.00    -0.744 OA
ENDBRANCH  66  67
ENDBRANCH  47  61
BRANCH  48  71
ATOM     71  C   UNL A   1      46.716  33.023  28.839  1.00  0.00    -0.014 A 
ATOM     72  C   UNL A   1      46.550  34.133  27.994  1.00  0.00     0.010 A 
ATOM     73  C   UNL A   1      47.086  33.234  30.181  1.00  0.00     0.010 A 
ATOM     74  C   UNL A   1      46.762  35.429  28.478  1.00  0.00     0.020 A 
ATOM     75  C   UNL A   1      47.273  34.526  30.675  1.00  0.00     0.020 A 
ATOM     76  C   UNL A   1      47.119  35.617  29.816  1.00  0.00     0.054 A 
BRANCH  76  77
ATOM     77  S   UNL A   1      47.332  37.308  30.439  1.00  0.00     0.124 S 
ATOM     78  O   UNL A   1      46.387  37.344  31.550  1.00  0.00    -0.237 OA
ATOM     79  O   UNL A   1      48.746  37.333  30.808  1.00  0.00    -0.237 OA
ATOM     80  O   UNL A   1      46.983  38.140  29.290  1.00  0.00    -0.744 OA
ENDBRANCH  76  77
ENDBRANCH  48  71
BRANCH  60  81
ATOM     81  C   UNL A   1      50.894  28.299  25.838  1.00  0.00    -0.014 A 
ATOM     82  C   UNL A   1      51.278  28.709  24.550  1.00  0.00     0.010 A 
ATOM     83  C   UNL A   1      51.889  27.985  26.783  1.00  0.00     0.010 A 
ATOM     84  C   UNL A   1      52.631  28.790  24.209  1.00  0.00     0.020 A 
ATOM     85  C   UNL A   1      53.243  28.087  26.453  1.00  0.00     0.020 A 
ATOM     86  C   UNL A   1      53.605  28.480  25.163  1.00  0.00     0.054 A 
BRANCH  86  87
ATOM     87  S   UNL A   1      55.355  28.654  24.716  1.00  0.00     0.124 S 
ATOM     88  O   UNL A   1      56.007  27.807  25.710  1.00  0.00    -0.237 OA
ATOM     89  O   UNL A   1      55.389  28.153  23.344  1.00  0.00    -0.237 OA
ATOM     90  O   UNL A   1      55.608  30.087  24.855  1.00  0.00    -0.744 OA
ENDBRANCH  86  87
ENDBRANCH  60  81
ENDBRANCH  34  35
ENDBRANCH  27  29
ENDBRANCH  26  27
ENDBRANCH  25  26
ENDBRANCH  24  25
ENDBRANCH  23  24
ENDBRANCH   1  23
TORSDOF 21
ENDMDL
MODEL 2
REMARK VINA RESULT:      -9.2      3.828     10.996
REMARK SMILES C=CCc1cccc(-c2ccc([C@@H](C)C(=O)OCCOCCOC(=O)c3ccc(-c4c5nc(c(-c6ccc(S(=O)(=O)[O-])cc6)c6ccc([nH]6)c(-c6ccc(S(=O)(=O)[O-])cc6)c6nc(c(-c7ccc(S(=O)(=O)[O-])cc7)c7ccc4[nH]7)C=C6)C=C5)cc3)cc2)c1
REMARK SMILES IDX 19 1 18 2 17 3 15 4 16 5 13 6 14 7 12 8 9 9 10 10 87 11
REMARK SMILES IDX 11 12 86 13 8 14 4 15 5 16 88 17 6 18 7 19 3 20 2 21 1 22
REMARK SMILES IDX 20 23 21 24 22 25 23 26 24 27 25 28 26 29 27 30 85 31 28 32
REMARK SMILES IDX 84 33 29 34 30 35 31 36 78 37 32 38 83 39 77 40 79 41 33 42
REMARK SMILES IDX 82 43 76 44 75 45 34 47 64 48 45 49 63 50 46 51 49 52 62 53
REMARK SMILES IDX 80 54 47 55 48 56 61 58 81 59 50 60 35 61 36 62 44 63 37 64
REMARK SMILES IDX 43 65 38 66 39 67 40 68 41 69 42 70 65 71 66 72 74 73 67 74
REMARK SMILES IDX 73 75 68 76 69 77 70 78 71 79 72 80 51 81 52 82 60 83 53 84
REMARK SMILES IDX 59 85 54 86 55 87 56 88 57 89 58 90
REMARK H PARENT 79 46 49 57
REMARK Flexibility Score: inf
ROOT
ATOM      1  C   UNL A   1      39.572  31.178  35.792  1.00  0.00     0.202 C 
ENDROOT
BRANCH   1   2
ATOM      2  C   UNL A   1      40.693  30.222  35.376  1.00  0.00     0.261 C 
BRANCH   2   3
ATOM      3  O   UNL A   1      40.523  28.925  35.977  1.00  0.00    -0.463 OA
BRANCH   3   4
ATOM      4  C   UNL A   1      41.643  28.164  36.086  1.00  0.00     0.313 C 
ATOM      5  O   UNL A   1      42.627  28.467  36.755  1.00  0.00    -0.252 OA
BRANCH   4   6
ATOM      6  C   UNL A   1      41.601  26.889  35.258  1.00  0.00     0.126 C 
ATOM      7  C   UNL A   1      41.270  25.706  36.164  1.00  0.00     0.025 C 
BRANCH   6   8
ATOM      8  C   UNL A   1      42.786  26.604  34.341  1.00  0.00    -0.034 A 
ATOM      9  C   UNL A   1      45.133  26.133  32.792  1.00  0.00    -0.018 A 
ATOM     10  C   UNL A   1      44.221  27.140  32.442  1.00  0.00     0.009 A 
ATOM     11  C   UNL A   1      44.832  25.341  33.908  1.00  0.00     0.009 A 
ATOM     12  C   UNL A   1      43.066  27.373  33.202  1.00  0.00     0.005 A 
ATOM     13  C   UNL A   1      43.679  25.571  34.669  1.00  0.00     0.005 A 
BRANCH   9  14
ATOM     14  C   UNL A   1      46.395  25.943  32.054  1.00  0.00    -0.018 A 
ATOM     15  C   UNL A   1      48.814  25.531  32.023  1.00  0.00    -0.044 A 
ATOM     16  C   UNL A   1      48.817  25.692  30.632  1.00  0.00     0.004 A 
ATOM     17  C   UNL A   1      47.599  25.654  32.721  1.00  0.00     0.012 A 
ATOM     18  C   UNL A   1      47.634  25.969  29.952  1.00  0.00     0.001 A 
ATOM     19  C   UNL A   1      46.435  26.093  30.657  1.00  0.00     0.009 A 
BRANCH  15  20
ATOM     20  C   UNL A   1      50.103  25.232  32.755  1.00  0.00     0.062 C 
BRANCH  20  21
ATOM     21  C   UNL A   1      50.305  23.765  33.003  1.00  0.00    -0.030 C 
ATOM     22  C   UNL A   1      51.476  23.126  32.869  1.00  0.00     0.004 C 
ENDBRANCH  20  21
ENDBRANCH  15  20
ENDBRANCH   9  14
ENDBRANCH   6   8
ENDBRANCH   4   6
ENDBRANCH   3   4
ENDBRANCH   2   3
ENDBRANCH   1   2
BRANCH   1  23
ATOM     23  O   UNL A   1      38.304  30.966  35.168  1.00  0.00    -0.374 OA
BRANCH  23  24
ATOM     24  C   UNL A   1      37.657  32.110  34.610  1.00  0.00     0.202 C 
BRANCH  24  25
ATOM     25  C   UNL A   1      36.685  31.851  33.453  1.00  0.00     0.261 C 
BRANCH  25  26
ATOM     26  O   UNL A   1      36.855  30.543  32.879  1.00  0.00    -0.460 OA
BRANCH  26  27
ATOM     27  C   UNL A   1      36.890  30.511  31.528  1.00  0.00     0.338 C 
ATOM     28  O   UNL A   1      35.951  30.693  30.760  1.00  0.00    -0.246 OA
BRANCH  27  29
ATOM     29  C   UNL A   1      38.284  30.404  31.058  1.00  0.00     0.060 A 
ATOM     30  C   UNL A   1      38.518  30.572  29.686  1.00  0.00     0.016 A 
ATOM     31  C   UNL A   1      39.330  30.070  31.920  1.00  0.00     0.016 A 
ATOM     32  C   UNL A   1      39.790  30.353  29.162  1.00  0.00     0.010 A 
ATOM     33  C   UNL A   1      40.604  29.841  31.391  1.00  0.00     0.010 A 
ATOM     34  C   UNL A   1      40.831  29.944  30.006  1.00  0.00    -0.014 A 
BRANCH  34  35
ATOM     35  C   UNL A   1      42.106  29.465  29.416  1.00  0.00     0.031 A 
ATOM     36  C   UNL A   1      43.254  30.431  29.291  1.00  0.00     0.074 A 
ATOM     37  C   UNL A   1      42.253  28.187  29.024  1.00  0.00     0.049 A 
ATOM     38  N   UNL A   1      44.438  30.245  28.769  1.00  0.00    -0.248 NA
ATOM     39  C   UNL A   1      43.036  31.786  29.826  1.00  0.00     0.031 C 
ATOM     40  C   UNL A   1      41.238  27.142  29.146  1.00  0.00     0.029 A 
ATOM     41  N   UNL A   1      43.320  27.554  28.438  1.00  0.00    -0.354 N 
ATOM     42  C   UNL A   1      45.103  31.460  28.901  1.00  0.00     0.074 A 
ATOM     43  C   UNL A   1      44.183  32.380  29.533  1.00  0.00     0.031 C 
ATOM     44  C   UNL A   1      41.728  25.998  28.636  1.00  0.00     0.029 A 
ATOM     45  C   UNL A   1      43.076  26.239  28.124  1.00  0.00     0.049 A 
ATOM     46  H   UNL A   1      44.180  28.000  28.259  1.00  0.00     0.167 HD
ATOM     47  C   UNL A   1      46.366  31.780  28.532  1.00  0.00     0.031 A 
ATOM     48  C   UNL A   1      43.842  25.338  27.476  1.00  0.00     0.031 A 
ATOM     49  C   UNL A   1      47.276  30.868  27.893  1.00  0.00     0.049 A 
ATOM     50  C   UNL A   1      45.216  25.738  27.004  1.00  0.00     0.074 A 
ATOM     51  C   UNL A   1      48.578  31.095  27.486  1.00  0.00     0.029 A 
ATOM     52  N   UNL A   1      46.976  29.555  27.561  1.00  0.00    -0.354 N 
ATOM     53  N   UNL A   1      45.834  26.886  27.147  1.00  0.00    -0.248 NA
ATOM     54  C   UNL A   1      45.996  24.720  26.286  1.00  0.00     0.031 C 
ATOM     55  C   UNL A   1      49.050  29.936  26.862  1.00  0.00     0.029 A 
ATOM     56  C   UNL A   1      48.061  28.968  26.932  1.00  0.00     0.049 A 
ATOM     57  H   UNL A   1      46.119  29.107  27.745  1.00  0.00     0.167 HD
ATOM     58  C   UNL A   1      47.087  26.717  26.564  1.00  0.00     0.074 A 
ATOM     59  C   UNL A   1      47.141  25.357  26.072  1.00  0.00     0.031 C 
ATOM     60  C   UNL A   1      48.102  27.609  26.454  1.00  0.00     0.031 A 
BRANCH  47  61
ATOM     61  C   UNL A   1      46.823  33.193  28.777  1.00  0.00    -0.014 A 
ATOM     62  C   UNL A   1      47.446  33.559  29.984  1.00  0.00     0.010 A 
ATOM     63  C   UNL A   1      46.654  34.161  27.771  1.00  0.00     0.010 A 
ATOM     64  C   UNL A   1      47.855  34.878  30.194  1.00  0.00     0.020 A 
ATOM     65  C   UNL A   1      47.086  35.475  27.968  1.00  0.00     0.020 A 
ATOM     66  C   UNL A   1      47.668  35.830  29.186  1.00  0.00     0.054 A 
BRANCH  66  67
ATOM     67  S   UNL A   1      48.221  37.532  29.480  1.00  0.00     0.124 S 
ATOM     68  O   UNL A   1      47.582  37.840  30.757  1.00  0.00    -0.237 OA
ATOM     69  O   UNL A   1      49.674  37.395  29.523  1.00  0.00    -0.237 OA
ATOM     70  O   UNL A   1      47.701  38.269  28.330  1.00  0.00    -0.744 OA
ENDBRANCH  66  67
ENDBRANCH  47  61
BRANCH  48  71
ATOM     71  C   UNL A   1      43.316  23.971  27.213  1.00  0.00    -0.014 A 
ATOM     72  C   UNL A   1      43.412  22.963  28.187  1.00  0.00     0.010 A 
ATOM     73  C   UNL A   1      42.708  23.673  25.978  1.00  0.00     0.010 A 
ATOM     74  C   UNL A   1      42.921  21.679  27.928  1.00  0.00     0.020 A 
ATOM     75  C   UNL A   1      42.194  22.399  25.725  1.00  0.00     0.020 A 
ATOM     76  C   UNL A   1      42.313  21.406  26.700  1.00  0.00     0.054 A 
BRANCH  76  77
ATOM     77  S   UNL A   1      41.631  19.751  26.406  1.00  0.00     0.124 S 
ATOM     78  O   UNL A   1      41.921  19.075  27.666  1.00  0.00    -0.237 OA
ATOM     79  O   UNL A   1      40.220  20.032  26.148  1.00  0.00    -0.237 OA
ATOM     80  O   UNL A   1      42.383  19.273  25.248  1.00  0.00    -0.744 OA
ENDBRANCH  76  77
ENDBRANCH  48  71
BRANCH  60  81
ATOM     81  C   UNL A   1      49.381  27.139  25.812  1.00  0.00    -0.014 A 
ATOM     82  C   UNL A   1      49.695  27.466  24.482  1.00  0.00     0.010 A 
ATOM     83  C   UNL A   1      50.318  26.427  26.584  1.00  0.00     0.010 A 
ATOM     84  C   UNL A   1      50.917  27.075  23.929  1.00  0.00     0.020 A 
ATOM     85  C   UNL A   1      51.551  26.055  26.042  1.00  0.00     0.020 A 
ATOM     86  C   UNL A   1      51.838  26.373  24.713  1.00  0.00     0.054 A 
BRANCH  86  87
ATOM     87  S   UNL A   1      53.444  25.933  23.992  1.00  0.00     0.124 S 
ATOM     88  O   UNL A   1      54.290  27.037  24.439  1.00  0.00    -0.237 OA
ATOM     89  O   UNL A   1      53.728  24.637  24.606  1.00  0.00    -0.237 OA
ATOM     90  O   UNL A   1      53.181  25.891  22.556  1.00  0.00    -0.744 OA
ENDBRANCH  86  87
ENDBRANCH  60  81
ENDBRANCH  34  35
ENDBRANCH  27  29
ENDBRANCH  26  27
ENDBRANCH  25  26
ENDBRANCH  24  25
ENDBRANCH  23  24
ENDBRANCH   1  23
TORSDOF 21
ENDMDL
MODEL 3
REMARK VINA RESULT:      -9.1      6.247     13.176
REMARK SMILES C=CCc1cccc(-c2ccc([C@@H](C)C(=O)OCCOCCOC(=O)c3ccc(-c4c5nc(c(-c6ccc(S(=O)(=O)[O-])cc6)c6ccc([nH]6)c(-c6ccc(S(=O)(=O)[O-])cc6)c6nc(c(-c7ccc(S(=O)(=O)[O-])cc7)c7ccc4[nH]7)C=C6)C=C5)cc3)cc2)c1
REMARK SMILES IDX 19 1 18 2 17 3 15 4 16 5 13 6 14 7 12 8 9 9 10 10 87 11
REMARK SMILES IDX 11 12 86 13 8 14 4 15 5 16 88 17 6 18 7 19 3 20 2 21 1 22
REMARK SMILES IDX 20 23 21 24 22 25 23 26 24 27 25 28 26 29 27 30 85 31 28 32
REMARK SMILES IDX 84 33 29 34 30 35 31 36 78 37 32 38 83 39 77 40 79 41 33 42
REMARK SMILES IDX 82 43 76 44 75 45 34 47 64 48 45 49 63 50 46 51 49 52 62 53
REMARK SMILES IDX 80 54 47 55 48 56 61 58 81 59 50 60 35 61 36 62 44 63 37 64
REMARK SMILES IDX 43 65 38 66 39 67 40 68 41 69 42 70 65 71 66 72 74 73 67 74
REMARK SMILES IDX 73 75 68 76 69 77 70 78 71 79 72 80 51 81 52 82 60 83 53 84
REMARK SMILES IDX 59 85 54 86 55 87 56 88 57 89 58 90
REMARK H PARENT 79 46 49 57
REMARK Flexibility Score: inf
ROOT
ATOM      1  C   UNL A   1      45.655  40.579  28.642  1.00  0.00     0.202 C 
ENDROOT
BRANCH   1   2
ATOM      2  C   UNL A   1      45.886  41.404  27.374  1.00  0.00     0.261 C 
BRANCH   2   3
ATOM      3  O   UNL A   1      44.646  41.911  26.847  1.00  0.00    -0.463 OA
BRANCH   3   4
ATOM      4  C   UNL A   1      44.316  41.500  25.595  1.00  0.00     0.313 C 
ATOM      5  O   UNL A   1      45.019  40.782  24.890  1.00  0.00    -0.252 OA
BRANCH   4   6
ATOM      6  C   UNL A   1      42.986  42.048  25.101  1.00  0.00     0.126 C 
ATOM      7  C   UNL A   1      41.897  40.997  25.306  1.00  0.00     0.025 C 
BRANCH   6   8
ATOM      8  C   UNL A   1      42.948  42.659  23.705  1.00  0.00    -0.034 A 
ATOM      9  C   UNL A   1      43.005  43.633  21.025  1.00  0.00    -0.018 A 
ATOM     10  C   UNL A   1      43.603  44.350  22.073  1.00  0.00     0.009 A 
ATOM     11  C   UNL A   1      42.347  42.438  21.347  1.00  0.00     0.009 A 
ATOM     12  C   UNL A   1      43.575  43.873  23.391  1.00  0.00     0.005 A 
ATOM     13  C   UNL A   1      42.318  41.959  22.663  1.00  0.00     0.005 A 
BRANCH   9  14
ATOM     14  C   UNL A   1      43.110  44.080  19.624  1.00  0.00    -0.018 A 
ATOM     15  C   UNL A   1      44.111  45.520  17.907  1.00  0.00    -0.044 A 
ATOM     16  C   UNL A   1      43.218  45.001  16.961  1.00  0.00     0.004 A 
ATOM     17  C   UNL A   1      44.050  45.050  19.231  1.00  0.00     0.012 A 
ATOM     18  C   UNL A   1      42.286  44.034  17.329  1.00  0.00     0.001 A 
ATOM     19  C   UNL A   1      42.233  43.579  18.647  1.00  0.00     0.009 A 
BRANCH  15  20
ATOM     20  C   UNL A   1      45.119  46.571  17.502  1.00  0.00     0.062 C 
BRANCH  20  21
ATOM     21  C   UNL A   1      44.498  47.719  16.759  1.00  0.00    -0.030 C 
ATOM     22  C   UNL A   1      43.791  48.701  17.334  1.00  0.00     0.004 C 
ENDBRANCH  20  21
ENDBRANCH  15  20
ENDBRANCH   9  14
ENDBRANCH   6   8
ENDBRANCH   4   6
ENDBRANCH   3   4
ENDBRANCH   2   3
ENDBRANCH   1   2
BRANCH   1  23
ATOM     23  O   UNL A   1      44.459  39.797  28.672  1.00  0.00    -0.374 OA
BRANCH  23  24
ATOM     24  C   UNL A   1      44.531  38.525  29.315  1.00  0.00     0.202 C 
BRANCH  24  25
ATOM     25  C   UNL A   1      45.032  37.353  28.462  1.00  0.00     0.261 C 
BRANCH  25  26
ATOM     26  O   UNL A   1      46.468  37.311  28.381  1.00  0.00    -0.460 OA
BRANCH  26  27
ATOM     27  C   UNL A   1      47.077  36.624  29.372  1.00  0.00     0.338 C 
ATOM     28  O   UNL A   1      47.479  37.070  30.441  1.00  0.00    -0.246 OA
BRANCH  27  29
ATOM     29  C   UNL A   1      47.045  35.178  29.083  1.00  0.00     0.060 A 
ATOM     30  C   UNL A   1      46.871  34.789  27.747  1.00  0.00     0.016 A 
ATOM     31  C   UNL A   1      47.105  34.221  30.098  1.00  0.00     0.016 A 
ATOM     32  C   UNL A   1      46.700  33.444  27.428  1.00  0.00     0.010 A 
ATOM     33  C   UNL A   1      46.924  32.872  29.776  1.00  0.00     0.010 A 
ATOM     34  C   UNL A   1      46.683  32.481  28.445  1.00  0.00    -0.014 A 
BRANCH  34  35
ATOM     35  C   UNL A   1      46.249  31.096  28.137  1.00  0.00     0.031 A 
ATOM     36  C   UNL A   1      44.800  30.734  28.319  1.00  0.00     0.074 A 
ATOM     37  C   UNL A   1      47.121  30.182  27.676  1.00  0.00     0.049 A 
ATOM     38  N   UNL A   1      44.208  29.579  28.155  1.00  0.00    -0.248 NA
ATOM     39  C   UNL A   1      43.897  31.819  28.741  1.00  0.00     0.031 C 
ATOM     40  C   UNL A   1      48.537  30.424  27.403  1.00  0.00     0.029 A 
ATOM     41  N   UNL A   1      46.938  28.859  27.360  1.00  0.00    -0.354 N 
ATOM     42  C   UNL A   1      42.869  29.793  28.465  1.00  0.00     0.074 A 
ATOM     43  C   UNL A   1      42.740  31.183  28.846  1.00  0.00     0.031 C 
ATOM     44  C   UNL A   1      49.098  29.281  26.971  1.00  0.00     0.029 A 
ATOM     45  C   UNL A   1      48.091  28.221  26.970  1.00  0.00     0.049 A 
ATOM     46  H   UNL A   1      46.063  28.409  27.409  1.00  0.00     0.167 HD
ATOM     47  C   UNL A   1      41.840  28.914  28.432  1.00  0.00     0.031 A 
ATOM     48  C   UNL A   1      48.315  26.927  26.670  1.00  0.00     0.031 A 
ATOM     49  C   UNL A   1      41.972  27.530  28.063  1.00  0.00     0.049 A 
ATOM     50  C   UNL A   1      47.170  25.947  26.715  1.00  0.00     0.074 A 
ATOM     51  C   UNL A   1      40.987  26.561  27.993  1.00  0.00     0.029 A 
ATOM     52  N   UNL A   1      43.164  26.917  27.710  1.00  0.00    -0.354 N 
ATOM     53  N   UNL A   1      45.908  26.168  26.999  1.00  0.00    -0.248 NA
ATOM     54  C   UNL A   1      47.479  24.546  26.397  1.00  0.00     0.031 C 
ATOM     55  C   UNL A   1      41.591  25.349  27.646  1.00  0.00     0.029 A 
ATOM     56  C   UNL A   1      42.944  25.576  27.444  1.00  0.00     0.049 A 
ATOM     57  H   UNL A   1      44.037  27.367  27.655  1.00  0.00     0.167 HD
ATOM     58  C   UNL A   1      45.269  24.939  26.863  1.00  0.00     0.074 A 
ATOM     59  C   UNL A   1      46.280  23.981  26.467  1.00  0.00     0.031 C 
ATOM     60  C   UNL A   1      43.960  24.636  27.044  1.00  0.00     0.031 A 
BRANCH  47  61
ATOM     61  C   UNL A   1      40.484  29.419  28.845  1.00  0.00    -0.014 A 
ATOM     62  C   UNL A   1      40.173  29.655  30.196  1.00  0.00     0.010 A 
ATOM     63  C   UNL A   1      39.516  29.692  27.861  1.00  0.00     0.010 A 
ATOM     64  C   UNL A   1      38.904  30.116  30.558  1.00  0.00     0.020 A 
ATOM     65  C   UNL A   1      38.255  30.178  28.217  1.00  0.00     0.020 A 
ATOM     66  C   UNL A   1      37.952  30.370  29.566  1.00  0.00     0.054 A 
BRANCH  66  67
ATOM     67  S   UNL A   1      36.318  30.981  30.063  1.00  0.00     0.124 S 
ATOM     68  O   UNL A   1      36.638  32.309  30.581  1.00  0.00    -0.237 OA
ATOM     69  O   UNL A   1      35.571  30.959  28.809  1.00  0.00    -0.237 OA
ATOM     70  O   UNL A   1      35.875  30.014  31.065  1.00  0.00    -0.744 OA
ENDBRANCH  66  67
ENDBRANCH  47  61
BRANCH  48  71
ATOM     71  C   UNL A   1      49.689  26.473  26.321  1.00  0.00    -0.014 A 
ATOM     72  C   UNL A   1      50.166  26.571  25.003  1.00  0.00     0.010 A 
ATOM     73  C   UNL A   1      50.532  25.942  27.316  1.00  0.00     0.010 A 
ATOM     74  C   UNL A   1      51.457  26.135  24.684  1.00  0.00     0.020 A 
ATOM     75  C   UNL A   1      51.830  25.531  27.007  1.00  0.00     0.020 A 
ATOM     76  C   UNL A   1      52.282  25.621  25.688  1.00  0.00     0.054 A 
BRANCH  76  77
ATOM     77  S   UNL A   1      53.972  25.116  25.264  1.00  0.00     0.124 S 
ATOM     78  O   UNL A   1      53.762  23.778  24.722  1.00  0.00    -0.237 OA
ATOM     79  O   UNL A   1      54.372  26.136  24.298  1.00  0.00    -0.237 OA
ATOM     80  O   UNL A   1      54.675  25.173  26.544  1.00  0.00    -0.744 OA
ENDBRANCH  76  77
ENDBRANCH  48  71
BRANCH  60  81
ATOM     81  C   UNL A   1      43.526  23.218  26.777  1.00  0.00    -0.014 A 
ATOM     82  C   UNL A   1      44.004  22.504  25.666  1.00  0.00     0.010 A 
ATOM     83  C   UNL A   1      42.689  22.568  27.704  1.00  0.00     0.010 A 
ATOM     84  C   UNL A   1      43.639  21.169  25.475  1.00  0.00     0.020 A 
ATOM     85  C   UNL A   1      42.341  21.226  27.529  1.00  0.00     0.020 A 
ATOM     86  C   UNL A   1      42.812  20.537  26.409  1.00  0.00     0.054 A 
BRANCH  86  87
ATOM     87  S   UNL A   1      42.405  18.785  26.174  1.00  0.00     0.124 S 
ATOM     88  O   UNL A   1      40.983  18.845  25.847  1.00  0.00    -0.237 OA
ATOM     89  O   UNL A   1      43.286  18.393  25.077  1.00  0.00    -0.237 OA
ATOM     90  O   UNL A   1      42.721  18.179  27.466  1.00  0.00    -0.744 OA
ENDBRANCH  86  87
ENDBRANCH  60  81
ENDBRANCH  34  35
ENDBRANCH  27  29
ENDBRANCH  26  27
ENDBRANCH  25  26
ENDBRANCH  24  25
ENDBRANCH  23  24
ENDBRANCH   1  23
TORSDOF 21
ENDMDL
