MODEL 1
REMARK VINA RESULT:     -11.6      0.000      0.000
REMARK SMILES Cc1cccc(-c2cccnc2C(=O)OCCOCCOC(=O)c2ccc(-c3c4nc(c(-c5ccc(S(=O)(=O)[O-])cc5)c5ccc([nH]5)c(-c5ccc(S(=O)(=O)[O-])cc5)c5nc(c(-c6ccc(S(=O)(=O)[O-])cc6)c6ccc3[nH]6)C=C5)C=C4)cc2)c1
REMARK SMILES IDX 19 1 18 2 17 3 16 4 15 5 13 6 14 7 12 8 7 9 8 10 9 11 11 12
REMARK SMILES IDX 10 13 6 14 1 15 2 16 3 17 84 18 4 19 5 20 20 21 21 22 22 23
REMARK SMILES IDX 23 24 24 25 25 26 83 27 26 28 82 29 27 30 28 31 29 32 76 33
REMARK SMILES IDX 30 34 81 35 75 36 77 37 31 38 80 39 74 40 73 41 32 43 62 44
REMARK SMILES IDX 43 45 61 46 44 47 47 48 60 49 78 50 45 51 46 52 59 54 79 55
REMARK SMILES IDX 48 56 33 57 34 58 42 59 35 60 41 61 36 62 37 63 38 64 39 65
REMARK SMILES IDX 40 66 63 67 64 68 72 69 65 70 71 71 66 72 67 73 68 74 69 75
REMARK SMILES IDX 70 76 49 77 50 78 58 79 51 80 57 81 52 82 53 83 54 84 55 85
REMARK SMILES IDX 56 86
REMARK H PARENT 77 42 47 53
REMARK Flexibility Score: inf
ROOT
ATOM      1  C   UNL A   1      33.152  31.101  27.087  1.00  0.00     0.202 C 
ENDROOT
BRANCH   1   2
ATOM      2  O   UNL A   1      32.381  30.018  27.551  1.00  0.00    -0.374 OA
BRANCH   2   3
ATOM      3  C   UNL A   1      31.987  29.049  26.583  1.00  0.00     0.202 C 
BRANCH   3   4
ATOM      4  C   UNL A   1      32.203  29.710  25.253  1.00  0.00     0.261 C 
BRANCH   4   5
ATOM      5  O   UNL A   1      32.068  28.753  24.198  1.00  0.00    -0.458 OA
BRANCH   5   6
ATOM      6  C   UNL A   1      31.307  28.996  23.104  1.00  0.00     0.357 C 
ATOM      7  O   UNL A   1      31.630  29.608  22.114  1.00  0.00    -0.244 OA
BRANCH   6   8
ATOM      8  C   UNL A   1      30.011  28.227  23.273  1.00  0.00     0.156 A 
ATOM      9  C   UNL A   1      28.725  28.793  23.110  1.00  0.00     0.015 A 
ATOM     10  C   UNL A   1      27.632  27.991  23.474  1.00  0.00     0.013 A 
ATOM     11  C   UNL A   1      27.828  26.691  23.932  1.00  0.00     0.021 A 
ATOM     12  N   UNL A   1      30.205  26.945  23.710  1.00  0.00    -0.249 NA
ATOM     13  C   UNL A   1      29.121  26.212  24.016  1.00  0.00     0.112 A 
BRANCH   9  14
ATOM     14  C   UNL A   1      28.466  30.139  22.568  1.00  0.00    -0.016 A 
ATOM     15  C   UNL A   1      29.207  33.802  23.405  1.00  0.00     0.044 C 
ATOM     16  C   UNL A   1      28.737  32.567  22.692  1.00  0.00    -0.051 A 
ATOM     17  C   UNL A   1      28.322  32.667  21.360  1.00  0.00     0.003 A 
ATOM     18  C   UNL A   1      28.806  31.300  23.290  1.00  0.00     0.012 A 
ATOM     19  C   UNL A   1      27.955  31.532  20.644  1.00  0.00     0.001 A 
ATOM     20  C   UNL A   1      28.013  30.278  21.245  1.00  0.00     0.009 A 
ENDBRANCH   9  14
ENDBRANCH   6   8
ENDBRANCH   5   6
ENDBRANCH   4   5
ENDBRANCH   3   4
ENDBRANCH   2   3
ENDBRANCH   1   2
BRANCH   1  21
ATOM     21  C   UNL A   1      34.447  31.310  27.879  1.00  0.00     0.261 C 
BRANCH  21  22
ATOM     22  O   UNL A   1      34.981  30.044  28.317  1.00  0.00    -0.460 OA
BRANCH  22  23
ATOM     23  C   UNL A   1      35.818  29.427  27.433  1.00  0.00     0.338 C 
ATOM     24  O   UNL A   1      35.457  28.964  26.366  1.00  0.00    -0.246 OA
BRANCH  23  25
ATOM     25  C   UNL A   1      37.202  29.371  27.987  1.00  0.00     0.060 A 
ATOM     26  C   UNL A   1      38.328  29.477  27.151  1.00  0.00     0.016 A 
ATOM     27  C   UNL A   1      37.367  28.994  29.317  1.00  0.00     0.016 A 
ATOM     28  C   UNL A   1      39.598  29.086  27.615  1.00  0.00     0.010 A 
ATOM     29  C   UNL A   1      38.586  28.503  29.726  1.00  0.00     0.010 A 
ATOM     30  C   UNL A   1      39.713  28.527  28.883  1.00  0.00    -0.014 A 
BRANCH  30  31
ATOM     31  C   UNL A   1      40.890  27.883  29.480  1.00  0.00     0.031 A 
ATOM     32  C   UNL A   1      41.216  26.514  29.001  1.00  0.00     0.074 A 
ATOM     33  C   UNL A   1      41.854  28.615  30.097  1.00  0.00     0.049 A 
ATOM     34  N   UNL A   1      42.244  25.836  29.372  1.00  0.00    -0.248 NA
ATOM     35  C   UNL A   1      40.367  25.768  28.069  1.00  0.00     0.031 C 
ATOM     36  C   UNL A   1      43.297  28.372  30.072  1.00  0.00     0.029 A 
ATOM     37  N   UNL A   1      41.735  29.713  30.957  1.00  0.00    -0.354 N 
ATOM     38  C   UNL A   1      42.383  24.776  28.506  1.00  0.00     0.074 A 
ATOM     39  C   UNL A   1      41.137  24.714  27.787  1.00  0.00     0.031 C 
ATOM     40  C   UNL A   1      43.891  29.113  31.021  1.00  0.00     0.029 A 
ATOM     41  C   UNL A   1      42.836  29.697  31.831  1.00  0.00     0.049 A 
ATOM     42  H   UNL A   1      41.009  30.377  30.951  1.00  0.00     0.167 HD
ATOM     43  C   UNL A   1      43.591  24.152  28.432  1.00  0.00     0.031 A 
ATOM     44  C   UNL A   1      42.667  29.574  33.180  1.00  0.00     0.031 A 
ATOM     45  C   UNL A   1      44.526  24.681  29.435  1.00  0.00     0.049 A 
ATOM     46  C   UNL A   1      43.333  28.329  33.707  1.00  0.00     0.074 A 
ATOM     47  C   UNL A   1      45.650  25.489  29.400  1.00  0.00     0.029 A 
ATOM     48  N   UNL A   1      44.149  24.624  30.768  1.00  0.00    -0.354 N 
ATOM     49  N   UNL A   1      43.937  27.467  32.936  1.00  0.00    -0.248 NA
ATOM     50  C   UNL A   1      43.332  27.905  35.102  1.00  0.00     0.031 C 
ATOM     51  C   UNL A   1      45.946  25.892  30.740  1.00  0.00     0.029 A 
ATOM     52  C   UNL A   1      45.026  25.300  31.590  1.00  0.00     0.049 A 
ATOM     53  H   UNL A   1      43.347  24.155  31.092  1.00  0.00     0.167 HD
ATOM     54  C   UNL A   1      44.287  26.362  33.643  1.00  0.00     0.074 A 
ATOM     55  C   UNL A   1      43.903  26.687  35.009  1.00  0.00     0.031 C 
ATOM     56  C   UNL A   1      44.804  25.258  33.031  1.00  0.00     0.031 A 
BRANCH  43  57
ATOM     57  C   UNL A   1      44.000  23.147  27.374  1.00  0.00    -0.014 A 
ATOM     58  C   UNL A   1      43.053  22.205  26.921  1.00  0.00     0.010 A 
ATOM     59  C   UNL A   1      45.282  23.048  26.799  1.00  0.00     0.010 A 
ATOM     60  C   UNL A   1      43.371  21.215  25.976  1.00  0.00     0.020 A 
ATOM     61  C   UNL A   1      45.619  22.063  25.856  1.00  0.00     0.020 A 
ATOM     62  C   UNL A   1      44.658  21.148  25.451  1.00  0.00     0.054 A 
BRANCH  62  63
ATOM     63  S   UNL A   1      45.057  19.867  24.234  1.00  0.00     0.124 S 
ATOM     64  O   UNL A   1      44.595  20.465  22.984  1.00  0.00    -0.237 OA
ATOM     65  O   UNL A   1      46.504  19.736  24.376  1.00  0.00    -0.237 OA
ATOM     66  O   UNL A   1      44.285  18.707  24.682  1.00  0.00    -0.744 OA
ENDBRANCH  62  63
ENDBRANCH  43  57
BRANCH  44  67
ATOM     67  C   UNL A   1      41.405  30.223  33.679  1.00  0.00    -0.014 A 
ATOM     68  C   UNL A   1      41.324  31.630  33.592  1.00  0.00     0.010 A 
ATOM     69  C   UNL A   1      40.202  29.490  33.638  1.00  0.00     0.010 A 
ATOM     70  C   UNL A   1      40.129  32.253  33.201  1.00  0.00     0.020 A 
ATOM     71  C   UNL A   1      39.009  30.112  33.235  1.00  0.00     0.020 A 
ATOM     72  C   UNL A   1      39.007  31.474  32.929  1.00  0.00     0.054 A 
BRANCH  72  73
ATOM     73  S   UNL A   1      37.647  32.207  31.958  1.00  0.00     0.124 S 
ATOM     74  O   UNL A   1      36.713  31.093  31.832  1.00  0.00    -0.237 OA
ATOM     75  O   UNL A   1      37.194  33.302  32.815  1.00  0.00    -0.237 OA
ATOM     76  O   UNL A   1      38.295  32.630  30.720  1.00  0.00    -0.744 OA
ENDBRANCH  72  73
ENDBRANCH  44  67
BRANCH  56  77
ATOM     77  C   UNL A   1      45.042  23.978  33.771  1.00  0.00    -0.014 A 
ATOM     78  C   UNL A   1      44.006  23.094  34.095  1.00  0.00     0.010 A 
ATOM     79  C   UNL A   1      46.347  23.644  34.199  1.00  0.00     0.010 A 
ATOM     80  C   UNL A   1      44.282  21.864  34.698  1.00  0.00     0.020 A 
ATOM     81  C   UNL A   1      46.630  22.438  34.828  1.00  0.00     0.020 A 
ATOM     82  C   UNL A   1      45.598  21.535  35.034  1.00  0.00     0.054 A 
BRANCH  82  83
ATOM     83  S   UNL A   1      45.945  19.916  35.754  1.00  0.00     0.124 S 
ATOM     84  O   UNL A   1      44.981  19.053  35.076  1.00  0.00    -0.237 OA
ATOM     85  O   UNL A   1      47.342  19.717  35.375  1.00  0.00    -0.237 OA
ATOM     86  O   UNL A   1      45.707  20.110  37.182  1.00  0.00    -0.744 OA
ENDBRANCH  82  83
ENDBRANCH  56  77
ENDBRANCH  30  31
ENDBRANCH  23  25
ENDBRANCH  22  23
ENDBRANCH  21  22
ENDBRANCH   1  21
TORSDOF 18
ENDMDL
MODEL 2
REMARK VINA RESULT:     -11.5      5.007     10.822
REMARK SMILES Cc1cccc(-c2cccnc2C(=O)OCCOCCOC(=O)c2ccc(-c3c4nc(c(-c5ccc(S(=O)(=O)[O-])cc5)c5ccc([nH]5)c(-c5ccc(S(=O)(=O)[O-])cc5)c5nc(c(-c6ccc(S(=O)(=O)[O-])cc6)c6ccc3[nH]6)C=C5)C=C4)cc2)c1
REMARK SMILES IDX 19 1 18 2 17 3 16 4 15 5 13 6 14 7 12 8 7 9 8 10 9 11 11 12
REMARK SMILES IDX 10 13 6 14 1 15 2 16 3 17 84 18 4 19 5 20 20 21 21 22 22 23
REMARK SMILES IDX 23 24 24 25 25 26 83 27 26 28 82 29 27 30 28 31 29 32 76 33
REMARK SMILES IDX 30 34 81 35 75 36 77 37 31 38 80 39 74 40 73 41 32 43 62 44
REMARK SMILES IDX 43 45 61 46 44 47 47 48 60 49 78 50 45 51 46 52 59 54 79 55
REMARK SMILES IDX 48 56 33 57 34 58 42 59 35 60 41 61 36 62 37 63 38 64 39 65
REMARK SMILES IDX 40 66 63 67 64 68 72 69 65 70 71 71 66 72 67 73 68 74 69 75
REMARK SMILES IDX 70 76 49 77 50 78 58 79 51 80 57 81 52 82 53 83 54 84 55 85
REMARK SMILES IDX 56 86
REMARK H PARENT 77 42 47 53
REMARK Flexibility Score: inf
ROOT
ATOM      1  C   UNL A   1      35.374  23.380  23.855  1.00  0.00     0.202 C 
ENDROOT
BRANCH   1   2
ATOM      2  O   UNL A   1      34.800  24.126  22.807  1.00  0.00    -0.374 OA
BRANCH   2   3
ATOM      3  C   UNL A   1      33.409  24.415  22.912  1.00  0.00     0.202 C 
BRANCH   3   4
ATOM      4  C   UNL A   1      33.203  25.661  22.098  1.00  0.00     0.261 C 
BRANCH   4   5
ATOM      5  O   UNL A   1      32.966  26.779  22.958  1.00  0.00    -0.458 OA
BRANCH   5   6
ATOM      6  C   UNL A   1      31.719  27.120  23.362  1.00  0.00     0.357 C 
ATOM      7  O   UNL A   1      30.677  26.845  22.817  1.00  0.00    -0.244 OA
BRANCH   6   8
ATOM      8  C   UNL A   1      31.848  27.785  24.718  1.00  0.00     0.156 A 
ATOM      9  C   UNL A   1      31.786  27.095  25.951  1.00  0.00     0.015 A 
ATOM     10  C   UNL A   1      31.746  27.881  27.113  1.00  0.00     0.013 A 
ATOM     11  C   UNL A   1      31.809  29.270  27.033  1.00  0.00     0.021 A 
ATOM     12  N   UNL A   1      31.922  29.150  24.638  1.00  0.00    -0.249 NA
ATOM     13  C   UNL A   1      31.912  29.850  25.784  1.00  0.00     0.112 A 
BRANCH   9  14
ATOM     14  C   UNL A   1      31.785  25.627  26.089  1.00  0.00    -0.016 A 
ATOM     15  C   UNL A   1      34.158  22.803  27.117  1.00  0.00     0.044 C 
ATOM     16  C   UNL A   1      32.926  23.550  26.695  1.00  0.00    -0.051 A 
ATOM     17  C   UNL A   1      31.690  22.897  26.726  1.00  0.00     0.003 A 
ATOM     18  C   UNL A   1      32.967  24.915  26.374  1.00  0.00     0.012 A 
ATOM     19  C   UNL A   1      30.518  23.580  26.417  1.00  0.00     0.001 A 
ATOM     20  C   UNL A   1      30.564  24.932  26.087  1.00  0.00     0.009 A 
ENDBRANCH   9  14
ENDBRANCH   6   8
ENDBRANCH   5   6
ENDBRANCH   4   5
ENDBRANCH   3   4
ENDBRANCH   2   3
ENDBRANCH   1   2
BRANCH   1  21
ATOM     21  C   UNL A   1      36.899  23.505  23.928  1.00  0.00     0.261 C 
BRANCH  21  22
ATOM     22  O   UNL A   1      37.307  23.960  25.234  1.00  0.00    -0.460 OA
BRANCH  22  23
ATOM     23  C   UNL A   1      38.323  23.251  25.807  1.00  0.00     0.338 C 
ATOM     24  O   UNL A   1      38.481  22.052  25.660  1.00  0.00    -0.246 OA
BRANCH  23  25
ATOM     25  C   UNL A   1      39.161  24.146  26.657  1.00  0.00     0.060 A 
ATOM     26  C   UNL A   1      38.886  24.320  28.025  1.00  0.00     0.016 A 
ATOM     27  C   UNL A   1      40.087  24.975  26.031  1.00  0.00     0.016 A 
ATOM     28  C   UNL A   1      39.445  25.402  28.731  1.00  0.00     0.010 A 
ATOM     29  C   UNL A   1      40.535  26.095  26.694  1.00  0.00     0.010 A 
ATOM     30  C   UNL A   1      40.214  26.334  28.043  1.00  0.00    -0.014 A 
BRANCH  30  31
ATOM     31  C   UNL A   1      40.722  27.621  28.535  1.00  0.00     0.031 A 
ATOM     32  C   UNL A   1      39.730  28.719  28.681  1.00  0.00     0.074 A 
ATOM     33  C   UNL A   1      41.900  27.699  29.207  1.00  0.00     0.049 A 
ATOM     34  N   UNL A   1      39.996  29.884  29.157  1.00  0.00    -0.248 NA
ATOM     35  C   UNL A   1      38.333  28.597  28.259  1.00  0.00     0.031 C 
ATOM     36  C   UNL A   1      42.212  28.573  30.340  1.00  0.00     0.029 A 
ATOM     37  N   UNL A   1      43.117  27.051  28.966  1.00  0.00    -0.354 N 
ATOM     38  C   UNL A   1      38.801  30.509  29.428  1.00  0.00     0.074 A 
ATOM     39  C   UNL A   1      37.803  29.718  28.753  1.00  0.00     0.031 C 
ATOM     40  C   UNL A   1      43.540  28.583  30.543  1.00  0.00     0.029 A 
ATOM     41  C   UNL A   1      44.149  27.889  29.422  1.00  0.00     0.049 A 
ATOM     42  H   UNL A   1      43.229  26.167  28.550  1.00  0.00     0.167 HD
ATOM     43  C   UNL A   1      38.800  31.563  30.290  1.00  0.00     0.031 A 
ATOM     44  C   UNL A   1      45.097  28.374  28.567  1.00  0.00     0.031 A 
ATOM     45  C   UNL A   1      40.167  31.924  30.689  1.00  0.00     0.049 A 
ATOM     46  C   UNL A   1      45.073  29.880  28.516  1.00  0.00     0.074 A 
ATOM     47  C   UNL A   1      40.920  31.793  31.844  1.00  0.00     0.029 A 
ATOM     48  N   UNL A   1      41.070  32.252  29.690  1.00  0.00    -0.354 N 
ATOM     49  N   UNL A   1      44.205  30.598  29.173  1.00  0.00    -0.248 NA
ATOM     50  C   UNL A   1      45.953  30.705  27.696  1.00  0.00     0.031 C 
ATOM     51  C   UNL A   1      42.284  32.070  31.515  1.00  0.00     0.029 A 
ATOM     52  C   UNL A   1      42.353  32.405  30.173  1.00  0.00     0.049 A 
ATOM     53  H   UNL A   1      40.825  32.362  28.743  1.00  0.00     0.167 HD
ATOM     54  C   UNL A   1      44.296  31.903  28.809  1.00  0.00     0.074 A 
ATOM     55  C   UNL A   1      45.423  31.929  27.889  1.00  0.00     0.031 C 
ATOM     56  C   UNL A   1      43.399  32.831  29.249  1.00  0.00     0.031 A 
BRANCH  43  57
ATOM     57  C   UNL A   1      37.567  32.205  30.894  1.00  0.00    -0.014 A 
ATOM     58  C   UNL A   1      37.000  33.330  30.260  1.00  0.00     0.010 A 
ATOM     59  C   UNL A   1      36.929  31.786  32.078  1.00  0.00     0.010 A 
ATOM     60  C   UNL A   1      35.885  34.005  30.785  1.00  0.00     0.020 A 
ATOM     61  C   UNL A   1      35.816  32.450  32.619  1.00  0.00     0.020 A 
ATOM     62  C   UNL A   1      35.301  33.562  31.968  1.00  0.00     0.054 A 
BRANCH  62  63
ATOM     63  S   UNL A   1      33.865  34.441  32.635  1.00  0.00     0.124 S 
ATOM     64  O   UNL A   1      33.257  35.009  31.434  1.00  0.00    -0.237 OA
ATOM     65  O   UNL A   1      33.110  33.370  33.279  1.00  0.00    -0.237 OA
ATOM     66  O   UNL A   1      34.450  35.421  33.550  1.00  0.00    -0.744 OA
ENDBRANCH  62  63
ENDBRANCH  43  57
BRANCH  44  67
ATOM     67  C   UNL A   1      45.430  27.421  27.452  1.00  0.00    -0.014 A 
ATOM     68  C   UNL A   1      44.848  27.673  26.191  1.00  0.00     0.010 A 
ATOM     69  C   UNL A   1      46.665  26.743  27.484  1.00  0.00     0.010 A 
ATOM     70  C   UNL A   1      45.595  27.509  25.015  1.00  0.00     0.020 A 
ATOM     71  C   UNL A   1      47.418  26.589  26.308  1.00  0.00     0.020 A 
ATOM     72  C   UNL A   1      46.912  27.062  25.096  1.00  0.00     0.054 A 
BRANCH  72  73
ATOM     73  S   UNL A   1      48.016  27.327  23.668  1.00  0.00     0.124 S 
ATOM     74  O   UNL A   1      47.207  28.174  22.797  1.00  0.00    -0.237 OA
ATOM     75  O   UNL A   1      49.173  27.987  24.274  1.00  0.00    -0.237 OA
ATOM     76  O   UNL A   1      48.273  25.978  23.174  1.00  0.00    -0.744 OA
ENDBRANCH  72  73
ENDBRANCH  44  67
BRANCH  56  77
ATOM     77  C   UNL A   1      43.388  34.235  28.730  1.00  0.00    -0.014 A 
ATOM     78  C   UNL A   1      42.903  34.562  27.458  1.00  0.00     0.010 A 
ATOM     79  C   UNL A   1      43.914  35.282  29.520  1.00  0.00     0.010 A 
ATOM     80  C   UNL A   1      42.819  35.896  27.049  1.00  0.00     0.020 A 
ATOM     81  C   UNL A   1      43.865  36.610  29.111  1.00  0.00     0.020 A 
ATOM     82  C   UNL A   1      43.276  36.912  27.893  1.00  0.00     0.054 A 
BRANCH  82  83
ATOM     83  S   UNL A   1      43.102  38.632  27.376  1.00  0.00     0.124 S 
ATOM     84  O   UNL A   1      42.960  39.334  28.649  1.00  0.00    -0.237 OA
ATOM     85  O   UNL A   1      44.362  38.860  26.672  1.00  0.00    -0.237 OA
ATOM     86  O   UNL A   1      41.909  38.626  26.534  1.00  0.00    -0.744 OA
ENDBRANCH  82  83
ENDBRANCH  56  77
ENDBRANCH  30  31
ENDBRANCH  23  25
ENDBRANCH  22  23
ENDBRANCH  21  22
ENDBRANCH   1  21
TORSDOF 18
ENDMDL
MODEL 3
REMARK VINA RESULT:     -11.4      2.964      4.824
REMARK SMILES Cc1cccc(-c2cccnc2C(=O)OCCOCCOC(=O)c2ccc(-c3c4nc(c(-c5ccc(S(=O)(=O)[O-])cc5)c5ccc([nH]5)c(-c5ccc(S(=O)(=O)[O-])cc5)c5nc(c(-c6ccc(S(=O)(=O)[O-])cc6)c6ccc3[nH]6)C=C5)C=C4)cc2)c1
REMARK SMILES IDX 19 1 18 2 17 3 16 4 15 5 13 6 14 7 12 8 7 9 8 10 9 11 11 12
REMARK SMILES IDX 10 13 6 14 1 15 2 16 3 17 84 18 4 19 5 20 20 21 21 22 22 23
REMARK SMILES IDX 23 24 24 25 25 26 83 27 26 28 82 29 27 30 28 31 29 32 76 33
REMARK SMILES IDX 30 34 81 35 75 36 77 37 31 38 80 39 74 40 73 41 32 43 62 44
REMARK SMILES IDX 43 45 61 46 44 47 47 48 60 49 78 50 45 51 46 52 59 54 79 55
REMARK SMILES IDX 48 56 33 57 34 58 42 59 35 60 41 61 36 62 37 63 38 64 39 65
REMARK SMILES IDX 40 66 63 67 64 68 72 69 65 70 71 71 66 72 67 73 68 74 69 75
REMARK SMILES IDX 70 76 49 77 50 78 58 79 51 80 57 81 52 82 53 83 54 84 55 85
REMARK SMILES IDX 56 86
REMARK H PARENT 77 42 47 53
REMARK Flexibility Score: inf
ROOT
ATOM      1  C   UNL A   1      32.504  28.273  25.432  1.00  0.00     0.202 C 
ENDROOT
BRANCH   1   2
ATOM      2  O   UNL A   1      32.783  27.223  24.535  1.00  0.00    -0.374 OA
BRANCH   2   3
ATOM      3  C   UNL A   1      33.641  27.526  23.439  1.00  0.00     0.202 C 
BRANCH   3   4
ATOM      4  C   UNL A   1      33.343  26.478  22.404  1.00  0.00     0.261 C 
BRANCH   4   5
ATOM      5  O   UNL A   1      34.056  25.274  22.702  1.00  0.00    -0.458 OA
BRANCH   5   6
ATOM      6  C   UNL A   1      33.496  24.052  22.541  1.00  0.00     0.357 C 
ATOM      7  O   UNL A   1      33.620  23.315  21.593  1.00  0.00    -0.244 OA
BRANCH   6   8
ATOM      8  C   UNL A   1      32.798  23.697  23.840  1.00  0.00     0.156 A 
ATOM      9  C   UNL A   1      33.387  22.934  24.875  1.00  0.00     0.015 A 
ATOM     10  C   UNL A   1      32.545  22.549  25.930  1.00  0.00     0.013 A 
ATOM     11  C   UNL A   1      31.212  22.946  25.956  1.00  0.00     0.021 A 
ATOM     12  N   UNL A   1      31.490  24.100  23.869  1.00  0.00    -0.249 NA
ATOM     13  C   UNL A   1      30.740  23.728  24.920  1.00  0.00     0.112 A 
BRANCH   9  14
ATOM     14  C   UNL A   1      34.808  22.547  24.924  1.00  0.00    -0.016 A 
ATOM     15  C   UNL A   1      38.157  23.934  26.159  1.00  0.00     0.044 C 
ATOM     16  C   UNL A   1      37.116  23.017  25.585  1.00  0.00    -0.051 A 
ATOM     17  C   UNL A   1      37.435  21.671  25.376  1.00  0.00     0.003 A 
ATOM     18  C   UNL A   1      35.801  23.449  25.357  1.00  0.00     0.012 A 
ATOM     19  C   UNL A   1      36.472  20.777  24.920  1.00  0.00     0.001 A 
ATOM     20  C   UNL A   1      35.171  21.212  24.682  1.00  0.00     0.009 A 
ENDBRANCH   9  14
ENDBRANCH   6   8
ENDBRANCH   5   6
ENDBRANCH   4   5
ENDBRANCH   3   4
ENDBRANCH   2   3
ENDBRANCH   1   2
BRANCH   1  21
ATOM     21  C   UNL A   1      33.098  28.056  26.827  1.00  0.00     0.261 C 
BRANCH  21  22
ATOM     22  O   UNL A   1      34.437  28.589  26.894  1.00  0.00    -0.460 OA
BRANCH  22  23
ATOM     23  C   UNL A   1      34.562  29.769  27.569  1.00  0.00     0.338 C 
ATOM     24  O   UNL A   1      33.666  30.588  27.674  1.00  0.00    -0.246 OA
BRANCH  23  25
ATOM     25  C   UNL A   1      35.947  29.913  28.103  1.00  0.00     0.060 A 
ATOM     26  C   UNL A   1      37.043  30.116  27.245  1.00  0.00     0.016 A 
ATOM     27  C   UNL A   1      36.169  29.628  29.447  1.00  0.00     0.016 A 
ATOM     28  C   UNL A   1      38.355  29.909  27.708  1.00  0.00     0.010 A 
ATOM     29  C   UNL A   1      37.444  29.314  29.860  1.00  0.00     0.010 A 
ATOM     30  C   UNL A   1      38.552  29.435  29.000  1.00  0.00    -0.014 A 
BRANCH  30  31
ATOM     31  C   UNL A   1      39.806  28.974  29.609  1.00  0.00     0.031 A 
ATOM     32  C   UNL A   1      40.302  27.639  29.184  1.00  0.00     0.074 A 
ATOM     33  C   UNL A   1      40.670  29.849  30.185  1.00  0.00     0.049 A 
ATOM     34  N   UNL A   1      41.412  27.115  29.571  1.00  0.00    -0.248 NA
ATOM     35  C   UNL A   1      39.551  26.751  28.293  1.00  0.00     0.031 C 
ATOM     36  C   UNL A   1      42.133  29.793  30.153  1.00  0.00     0.029 A 
ATOM     37  N   UNL A   1      40.416  30.958  31.000  1.00  0.00    -0.354 N 
ATOM     38  C   UNL A   1      41.681  26.047  28.748  1.00  0.00     0.074 A 
ATOM     39  C   UNL A   1      40.449  25.794  28.046  1.00  0.00     0.031 C 
ATOM     40  C   UNL A   1      42.632  30.644  31.065  1.00  0.00     0.029 A 
ATOM     41  C   UNL A   1      41.515  31.121  31.862  1.00  0.00     0.049 A 
ATOM     42  H   UNL A   1      39.610  31.522  30.975  1.00  0.00     0.167 HD
ATOM     43  C   UNL A   1      42.959  25.580  28.686  1.00  0.00     0.031 A 
ATOM     44  C   UNL A   1      41.371  31.035  33.216  1.00  0.00     0.031 A 
ATOM     45  C   UNL A   1      43.823  26.267  29.656  1.00  0.00     0.049 A 
ATOM     46  C   UNL A   1      42.196  29.909  33.787  1.00  0.00     0.074 A 
ATOM     47  C   UNL A   1      44.834  27.211  29.574  1.00  0.00     0.029 A 
ATOM     48  N   UNL A   1      43.465  26.219  30.994  1.00  0.00    -0.354 N 
ATOM     49  N   UNL A   1      42.901  29.100  33.045  1.00  0.00    -0.248 NA
ATOM     50  C   UNL A   1      42.258  29.548  35.198  1.00  0.00     0.031 C 
ATOM     51  C   UNL A   1      45.083  27.705  30.893  1.00  0.00     0.029 A 
ATOM     52  C   UNL A   1      44.253  27.036  31.777  1.00  0.00     0.049 A 
ATOM     53  H   UNL A   1      42.732  25.664  31.346  1.00  0.00     0.167 HD
ATOM     54  C   UNL A   1      43.395  28.081  33.793  1.00  0.00     0.074 A 
ATOM     55  C   UNL A   1      42.981  28.411  35.148  1.00  0.00     0.031 C 
ATOM     56  C   UNL A   1      44.046  27.027  33.221  1.00  0.00     0.031 A 
BRANCH  43  57
ATOM     57  C   UNL A   1      43.488  24.592  27.666  1.00  0.00    -0.014 A 
ATOM     58  C   UNL A   1      43.439  24.928  26.297  1.00  0.00     0.010 A 
ATOM     59  C   UNL A   1      44.020  23.322  27.964  1.00  0.00     0.010 A 
ATOM     60  C   UNL A   1      43.869  24.046  25.291  1.00  0.00     0.020 A 
ATOM     61  C   UNL A   1      44.452  22.426  26.972  1.00  0.00     0.020 A 
ATOM     62  C   UNL A   1      44.370  22.794  25.637  1.00  0.00     0.054 A 
BRANCH  62  63
ATOM     63  S   UNL A   1      44.920  21.665  24.332  1.00  0.00     0.124 S 
ATOM     64  O   UNL A   1      46.363  21.604  24.555  1.00  0.00    -0.237 OA
ATOM     65  O   UNL A   1      44.181  20.444  24.638  1.00  0.00    -0.237 OA
ATOM     66  O   UNL A   1      44.518  22.337  23.096  1.00  0.00    -0.744 OA
ENDBRANCH  62  63
ENDBRANCH  43  57
BRANCH  44  67
ATOM     67  C   UNL A   1      40.039  31.537  33.702  1.00  0.00    -0.014 A 
ATOM     68  C   UNL A   1      39.093  30.571  34.109  1.00  0.00     0.010 A 
ATOM     69  C   UNL A   1      39.969  32.816  34.290  1.00  0.00     0.010 A 
ATOM     70  C   UNL A   1      38.299  30.784  35.246  1.00  0.00     0.020 A 
ATOM     71  C   UNL A   1      39.183  33.025  35.435  1.00  0.00     0.020 A 
ATOM     72  C   UNL A   1      38.427  31.975  35.958  1.00  0.00     0.054 A 
BRANCH  72  73
ATOM     73  S   UNL A   1      37.796  32.044  37.668  1.00  0.00     0.124 S 
ATOM     74  O   UNL A   1      38.974  32.458  38.423  1.00  0.00    -0.237 OA
ATOM     75  O   UNL A   1      36.733  33.047  37.579  1.00  0.00    -0.237 OA
ATOM     76  O   UNL A   1      37.330  30.684  37.920  1.00  0.00    -0.744 OA
ENDBRANCH  72  73
ENDBRANCH  44  67
BRANCH  56  77
ATOM     77  C   UNL A   1      44.452  25.821  34.011  1.00  0.00    -0.014 A 
ATOM     78  C   UNL A   1      43.811  24.584  33.874  1.00  0.00     0.010 A 
ATOM     79  C   UNL A   1      45.494  25.919  34.960  1.00  0.00     0.010 A 
ATOM     80  C   UNL A   1      44.283  23.459  34.556  1.00  0.00     0.020 A 
ATOM     81  C   UNL A   1      45.952  24.813  35.667  1.00  0.00     0.020 A 
ATOM     82  C   UNL A   1      45.369  23.578  35.426  1.00  0.00     0.054 A 
BRANCH  82  83
ATOM     83  S   UNL A   1      46.006  22.104  36.249  1.00  0.00     0.124 S 
ATOM     84  O   UNL A   1      47.432  22.155  35.935  1.00  0.00    -0.237 OA
ATOM     85  O   UNL A   1      45.661  22.370  37.644  1.00  0.00    -0.237 OA
ATOM     86  O   UNL A   1      45.272  21.008  35.623  1.00  0.00    -0.744 OA
ENDBRANCH  82  83
ENDBRANCH  56  77
ENDBRANCH  30  31
ENDBRANCH  23  25
ENDBRANCH  22  23
ENDBRANCH  21  22
ENDBRANCH   1  21
TORSDOF 18
ENDMDL
