MODEL 1
REMARK VINA RESULT:      -9.5      0.000      0.000
REMARK SMILES Cc1cc(N(C)C(C)C)cc(C(=O)OCCOCCOC(=O)c2ccc(-c3c4nc(c(-c5ccc(S(=O)(=O)[O-])cc5)c5ccc([nH]5)c(-c5ccc(S(=O)(=O)[O-])cc5)c5nc(c(-c6ccc(S(=O)(=O)[O-])cc6)c6ccc3[nH]6)C=C5)C=C4)cc2)c1N
REMARK SMILES IDX 18 1 17 2 16 3 15 4 14 5 12 6 13 7 11 8 1 9 2 10 3 11 83 12
REMARK SMILES IDX 4 13 10 14 84 15 5 18 6 19 7 20 8 21 9 22 19 23 20 24 21 25
REMARK SMILES IDX 22 26 23 27 24 28 82 29 25 30 81 31 26 32 27 33 28 34 75 35
REMARK SMILES IDX 29 36 80 37 74 38 76 39 30 40 79 41 73 42 72 43 31 45 61 46
REMARK SMILES IDX 42 47 60 48 43 49 46 50 59 51 77 52 44 53 45 54 58 56 78 57
REMARK SMILES IDX 47 58 32 59 33 60 41 61 34 62 40 63 35 64 36 65 37 66 38 67
REMARK SMILES IDX 39 68 62 69 63 70 71 71 64 72 70 73 65 74 66 75 67 76 68 77
REMARK SMILES IDX 69 78 48 79 49 80 57 81 50 82 56 83 51 84 52 85 53 86 54 87
REMARK SMILES IDX 55 88
REMARK H PARENT 84 16 84 17 76 44 46 55
REMARK Flexibility Score: inf
ROOT
ATOM      1  C   UNL A   1      35.203  23.082  23.973  1.00  0.00     0.202 C 
ENDROOT
BRANCH   1   2
ATOM      2  O   UNL A   1      34.634  22.149  24.895  1.00  0.00    -0.374 OA
BRANCH   2   3
ATOM      3  C   UNL A   1      33.804  22.693  25.923  1.00  0.00     0.202 C 
BRANCH   3   4
ATOM      4  C   UNL A   1      32.579  23.480  25.450  1.00  0.00     0.261 C 
BRANCH   4   5
ATOM      5  O   UNL A   1      32.350  24.632  26.279  1.00  0.00    -0.460 OA
BRANCH   5   6
ATOM      6  C   UNL A   1      31.084  25.118  26.236  1.00  0.00     0.340 C 
ATOM      7  O   UNL A   1      30.096  24.607  26.746  1.00  0.00    -0.246 OA
BRANCH   6   8
ATOM      8  C   UNL A   1      31.065  26.477  25.635  1.00  0.00     0.085 A 
ATOM      9  C   UNL A   1      29.548  28.254  22.633  1.00  0.00     0.047 C 
ATOM     10  C   UNL A   1      30.323  27.947  23.885  1.00  0.00    -0.025 A 
ATOM     11  C   UNL A   1      31.070  28.980  24.490  1.00  0.00     0.031 A 
ATOM     12  C   UNL A   1      30.307  26.674  24.464  1.00  0.00     0.049 A 
ATOM     13  C   UNL A   1      31.816  28.826  25.670  1.00  0.00     0.038 A 
ATOM     14  C   UNL A   1      31.799  27.531  26.219  1.00  0.00     0.043 A 
BRANCH  12  15
ATOM     15  N   UNL A   1      29.419  25.701  23.996  1.00  0.00    -0.398 N 
ATOM     16  H   UNL A   1      29.763  24.852  23.635  1.00  0.00     0.156 HD
ATOM     17  H   UNL A   1      28.448  25.864  24.027  1.00  0.00     0.156 HD
ENDBRANCH  12  15
BRANCH  13  18
ATOM     18  N   UNL A   1      32.502  29.883  26.259  1.00  0.00    -0.372 N 
ATOM     19  C   UNL A   1      31.753  31.044  26.756  1.00  0.00     0.144 C 
BRANCH  18  20
ATOM     20  C   UNL A   1      33.950  29.900  26.586  1.00  0.00     0.075 C 
ATOM     21  C   UNL A   1      34.322  30.960  27.621  1.00  0.00     0.030 C 
ATOM     22  C   UNL A   1      34.500  28.507  26.893  1.00  0.00     0.030 C 
ENDBRANCH  18  20
ENDBRANCH  13  18
ENDBRANCH   6   8
ENDBRANCH   5   6
ENDBRANCH   4   5
ENDBRANCH   3   4
ENDBRANCH   2   3
ENDBRANCH   1   2
BRANCH   1  23
ATOM     23  C   UNL A   1      36.722  23.275  24.062  1.00  0.00     0.261 C 
BRANCH  23  24
ATOM     24  O   UNL A   1      37.112  23.896  25.302  1.00  0.00    -0.460 OA
BRANCH  24  25
ATOM     25  C   UNL A   1      38.186  23.339  25.907  1.00  0.00     0.338 C 
ATOM     26  O   UNL A   1      38.608  22.199  25.761  1.00  0.00    -0.246 OA
BRANCH  25  27
ATOM     27  C   UNL A   1      38.928  24.369  26.661  1.00  0.00     0.060 A 
ATOM     28  C   UNL A   1      38.639  24.504  28.025  1.00  0.00     0.016 A 
ATOM     29  C   UNL A   1      39.849  25.219  26.045  1.00  0.00     0.016 A 
ATOM     30  C   UNL A   1      39.230  25.525  28.767  1.00  0.00     0.010 A 
ATOM     31  C   UNL A   1      40.435  26.249  26.790  1.00  0.00     0.010 A 
ATOM     32  C   UNL A   1      40.101  26.427  28.146  1.00  0.00    -0.014 A 
BRANCH  32  33
ATOM     33  C   UNL A   1      40.545  27.639  28.877  1.00  0.00     0.031 A 
ATOM     34  C   UNL A   1      41.920  27.658  29.489  1.00  0.00     0.074 A 
ATOM     35  C   UNL A   1      39.748  28.720  28.968  1.00  0.00     0.049 A 
ATOM     36  N   UNL A   1      42.501  28.599  30.187  1.00  0.00    -0.248 NA
ATOM     37  C   UNL A   1      42.749  26.458  29.286  1.00  0.00     0.031 C 
ATOM     38  C   UNL A   1      38.413  28.839  28.383  1.00  0.00     0.029 A 
ATOM     39  N   UNL A   1      39.950  29.923  29.595  1.00  0.00    -0.354 N 
ATOM     40  C   UNL A   1      43.760  28.105  30.511  1.00  0.00     0.074 A 
ATOM     41  C   UNL A   1      43.847  26.771  29.958  1.00  0.00     0.031 C 
ATOM     42  C   UNL A   1      37.911  30.048  28.686  1.00  0.00     0.029 A 
ATOM     43  C   UNL A   1      38.874  30.775  29.512  1.00  0.00     0.049 A 
ATOM     44  H   UNL A   1      40.786  30.155  30.060  1.00  0.00     0.167 HD
ATOM     45  C   UNL A   1      44.758  28.711  31.198  1.00  0.00     0.031 A 
ATOM     46  C   UNL A   1      38.681  31.992  30.056  1.00  0.00     0.031 A 
ATOM     47  C   UNL A   1      44.665  30.032  31.761  1.00  0.00     0.049 A 
ATOM     48  C   UNL A   1      39.777  32.617  30.878  1.00  0.00     0.074 A 
ATOM     49  C   UNL A   1      45.623  30.735  32.470  1.00  0.00     0.029 A 
ATOM     50  N   UNL A   1      43.547  30.849  31.680  1.00  0.00    -0.354 N 
ATOM     51  N   UNL A   1      40.968  32.144  31.160  1.00  0.00    -0.248 NA
ATOM     52  C   UNL A   1      39.506  33.945  31.450  1.00  0.00     0.031 C 
ATOM     53  C   UNL A   1      45.066  31.956  32.864  1.00  0.00     0.029 A 
ATOM     54  C   UNL A   1      43.783  32.038  32.349  1.00  0.00     0.049 A 
ATOM     55  H   UNL A   1      42.710  30.617  31.218  1.00  0.00     0.167 HD
ATOM     56  C   UNL A   1      41.597  33.127  31.919  1.00  0.00     0.074 A 
ATOM     57  C   UNL A   1      40.660  34.225  32.040  1.00  0.00     0.031 C 
ATOM     58  C   UNL A   1      42.840  33.122  32.463  1.00  0.00     0.031 A 
BRANCH  45  59
ATOM     59  C   UNL A   1      46.028  27.931  31.408  1.00  0.00    -0.014 A 
ATOM     60  C   UNL A   1      47.114  28.059  30.524  1.00  0.00     0.010 A 
ATOM     61  C   UNL A   1      46.153  27.088  32.527  1.00  0.00     0.010 A 
ATOM     62  C   UNL A   1      48.288  27.330  30.734  1.00  0.00     0.020 A 
ATOM     63  C   UNL A   1      47.334  26.376  32.755  1.00  0.00     0.020 A 
ATOM     64  C   UNL A   1      48.389  26.490  31.848  1.00  0.00     0.054 A 
BRANCH  64  65
ATOM     65  S   UNL A   1      49.932  25.573  32.110  1.00  0.00     0.124 S 
ATOM     66  O   UNL A   1      50.182  25.019  30.782  1.00  0.00    -0.237 OA
ATOM     67  O   UNL A   1      50.857  26.618  32.539  1.00  0.00    -0.237 OA
ATOM     68  O   UNL A   1      49.583  24.594  33.137  1.00  0.00    -0.744 OA
ENDBRANCH  64  65
ENDBRANCH  45  59
BRANCH  46  69
ATOM     69  C   UNL A   1      37.382  32.695  29.862  1.00  0.00    -0.014 A 
ATOM     70  C   UNL A   1      36.323  32.519  30.768  1.00  0.00     0.010 A 
ATOM     71  C   UNL A   1      37.202  33.548  28.756  1.00  0.00     0.010 A 
ATOM     72  C   UNL A   1      35.102  33.170  30.565  1.00  0.00     0.020 A 
ATOM     73  C   UNL A   1      35.993  34.221  28.565  1.00  0.00     0.020 A 
ATOM     74  C   UNL A   1      34.946  34.018  29.465  1.00  0.00     0.054 A 
BRANCH  74  75
ATOM     75  S   UNL A   1      33.370  34.893  29.247  1.00  0.00     0.124 S 
ATOM     76  O   UNL A   1      32.700  34.066  28.250  1.00  0.00    -0.237 OA
ATOM     77  O   UNL A   1      32.799  34.854  30.591  1.00  0.00    -0.237 OA
ATOM     78  O   UNL A   1      33.779  36.220  28.790  1.00  0.00    -0.744 OA
ENDBRANCH  74  75
ENDBRANCH  46  69
BRANCH  58  79
ATOM     79  C   UNL A   1      43.275  34.352  33.214  1.00  0.00    -0.014 A 
ATOM     80  C   UNL A   1      43.670  35.519  32.537  1.00  0.00     0.010 A 
ATOM     81  C   UNL A   1      43.233  34.357  34.621  1.00  0.00     0.010 A 
ATOM     82  C   UNL A   1      44.043  36.660  33.254  1.00  0.00     0.020 A 
ATOM     83  C   UNL A   1      43.578  35.503  35.340  1.00  0.00     0.020 A 
ATOM     84  C   UNL A   1      43.995  36.644  34.652  1.00  0.00     0.054 A 
BRANCH  84  85
ATOM     85  S   UNL A   1      44.443  38.151  35.559  1.00  0.00     0.124 S 
ATOM     86  O   UNL A   1      45.896  38.036  35.641  1.00  0.00    -0.237 OA
ATOM     87  O   UNL A   1      43.942  39.210  34.687  1.00  0.00    -0.237 OA
ATOM     88  O   UNL A   1      43.734  38.012  36.830  1.00  0.00    -0.744 OA
ENDBRANCH  84  85
ENDBRANCH  58  79
ENDBRANCH  32  33
ENDBRANCH  25  27
ENDBRANCH  24  25
ENDBRANCH  23  24
ENDBRANCH   1  23
TORSDOF 20
ENDMDL
MODEL 2
REMARK VINA RESULT:      -9.3      3.083      9.729
REMARK SMILES Cc1cc(N(C)C(C)C)cc(C(=O)OCCOCCOC(=O)c2ccc(-c3c4nc(c(-c5ccc(S(=O)(=O)[O-])cc5)c5ccc([nH]5)c(-c5ccc(S(=O)(=O)[O-])cc5)c5nc(c(-c6ccc(S(=O)(=O)[O-])cc6)c6ccc3[nH]6)C=C5)C=C4)cc2)c1N
REMARK SMILES IDX 18 1 17 2 16 3 15 4 14 5 12 6 13 7 11 8 1 9 2 10 3 11 83 12
REMARK SMILES IDX 4 13 10 14 84 15 5 18 6 19 7 20 8 21 9 22 19 23 20 24 21 25
REMARK SMILES IDX 22 26 23 27 24 28 82 29 25 30 81 31 26 32 27 33 28 34 75 35
REMARK SMILES IDX 29 36 80 37 74 38 76 39 30 40 79 41 73 42 72 43 31 45 61 46
REMARK SMILES IDX 42 47 60 48 43 49 46 50 59 51 77 52 44 53 45 54 58 56 78 57
REMARK SMILES IDX 47 58 32 59 33 60 41 61 34 62 40 63 35 64 36 65 37 66 38 67
REMARK SMILES IDX 39 68 62 69 63 70 71 71 64 72 70 73 65 74 66 75 67 76 68 77
REMARK SMILES IDX 69 78 48 79 49 80 57 81 50 82 56 83 51 84 52 85 53 86 54 87
REMARK SMILES IDX 55 88
REMARK H PARENT 84 16 84 17 76 44 46 55
REMARK Flexibility Score: inf
ROOT
ATOM      1  C   UNL A   1      33.463  28.355  25.940  1.00  0.00     0.202 C 
ENDROOT
BRANCH   1   2
ATOM      2  O   UNL A   1      33.125  28.027  24.590  1.00  0.00    -0.374 OA
BRANCH   2   3
ATOM      3  C   UNL A   1      33.646  26.797  24.082  1.00  0.00     0.202 C 
BRANCH   3   4
ATOM      4  C   UNL A   1      32.642  25.650  23.944  1.00  0.00     0.261 C 
BRANCH   4   5
ATOM      5  O   UNL A   1      33.215  24.404  24.376  1.00  0.00    -0.460 OA
BRANCH   5   6
ATOM      6  C   UNL A   1      33.678  23.616  23.374  1.00  0.00     0.340 C 
ATOM      7  O   UNL A   1      33.704  23.901  22.184  1.00  0.00    -0.246 OA
BRANCH   6   8
ATOM      8  C   UNL A   1      34.338  22.403  23.923  1.00  0.00     0.085 A 
ATOM      9  C   UNL A   1      37.721  21.378  25.330  1.00  0.00     0.047 C 
ATOM     10  C   UNL A   1      36.298  21.360  24.843  1.00  0.00    -0.025 A 
ATOM     11  C   UNL A   1      35.580  20.146  24.891  1.00  0.00     0.031 A 
ATOM     12  C   UNL A   1      35.673  22.515  24.360  1.00  0.00     0.049 A 
ATOM     13  C   UNL A   1      34.243  20.004  24.487  1.00  0.00     0.038 A 
ATOM     14  C   UNL A   1      33.646  21.175  23.987  1.00  0.00     0.043 A 
BRANCH  12  15
ATOM     15  N   UNL A   1      36.297  23.759  24.492  1.00  0.00    -0.398 N 
ATOM     16  H   UNL A   1      36.924  23.919  25.234  1.00  0.00     0.156 HD
ATOM     17  H   UNL A   1      36.110  24.475  23.842  1.00  0.00     0.156 HD
ENDBRANCH  12  15
BRANCH  13  18
ATOM     18  N   UNL A   1      33.558  18.798  24.595  1.00  0.00    -0.372 N 
ATOM     19  C   UNL A   1      32.708  18.551  25.766  1.00  0.00     0.144 C 
BRANCH  18  20
ATOM     20  C   UNL A   1      33.472  17.755  23.543  1.00  0.00     0.075 C 
ATOM     21  C   UNL A   1      33.328  16.342  24.104  1.00  0.00     0.030 C 
ATOM     22  C   UNL A   1      32.457  18.100  22.452  1.00  0.00     0.030 C 
ENDBRANCH  18  20
ENDBRANCH  13  18
ENDBRANCH   6   8
ENDBRANCH   5   6
ENDBRANCH   4   5
ENDBRANCH   3   4
ENDBRANCH   2   3
ENDBRANCH   1   2
BRANCH   1  23
ATOM     23  C   UNL A   1      33.417  29.844  26.303  1.00  0.00     0.261 C 
BRANCH  23  24
ATOM     24  O   UNL A   1      33.581  30.057  27.718  1.00  0.00    -0.460 OA
BRANCH  24  25
ATOM     25  C   UNL A   1      34.514  30.976  28.055  1.00  0.00     0.338 C 
ATOM     26  O   UNL A   1      34.325  32.151  28.340  1.00  0.00    -0.246 OA
BRANCH  25  27
ATOM     27  C   UNL A   1      35.828  30.322  28.222  1.00  0.00     0.060 A 
ATOM     28  C   UNL A   1      36.132  29.798  29.485  1.00  0.00     0.016 A 
ATOM     29  C   UNL A   1      36.764  30.265  27.187  1.00  0.00     0.016 A 
ATOM     30  C   UNL A   1      37.394  29.261  29.734  1.00  0.00     0.010 A 
ATOM     31  C   UNL A   1      38.034  29.734  27.442  1.00  0.00     0.010 A 
ATOM     32  C   UNL A   1      38.365  29.262  28.726  1.00  0.00    -0.014 A 
BRANCH  32  33
ATOM     33  C   UNL A   1      39.766  28.904  29.058  1.00  0.00     0.031 A 
ATOM     34  C   UNL A   1      40.632  29.920  29.753  1.00  0.00     0.074 A 
ATOM     35  C   UNL A   1      40.251  27.682  28.774  1.00  0.00     0.049 A 
ATOM     36  N   UNL A   1      41.885  29.828  30.116  1.00  0.00    -0.248 NA
ATOM     37  C   UNL A   1      40.000  31.208  30.084  1.00  0.00     0.031 C 
ATOM     38  C   UNL A   1      39.500  26.598  28.141  1.00  0.00     0.029 A 
ATOM     39  N   UNL A   1      41.499  27.150  28.981  1.00  0.00    -0.354 N 
ATOM     40  C   UNL A   1      42.194  31.046  30.714  1.00  0.00     0.074 A 
ATOM     41  C   UNL A   1      41.007  31.869  30.637  1.00  0.00     0.031 C 
ATOM     42  C   UNL A   1      40.306  25.532  28.003  1.00  0.00     0.029 A 
ATOM     43  C   UNL A   1      41.636  25.867  28.508  1.00  0.00     0.049 A 
ATOM     44  H   UNL A   1      42.227  27.641  29.426  1.00  0.00     0.167 HD
ATOM     45  C   UNL A   1      43.359  31.440  31.281  1.00  0.00     0.031 A 
ATOM     46  C   UNL A   1      42.717  25.062  28.468  1.00  0.00     0.031 A 
ATOM     47  C   UNL A   1      44.544  30.626  31.343  1.00  0.00     0.049 A 
ATOM     48  C   UNL A   1      44.022  25.548  29.042  1.00  0.00     0.074 A 
ATOM     49  C   UNL A   1      45.772  30.934  31.903  1.00  0.00     0.029 A 
ATOM     50  N   UNL A   1      44.650  29.344  30.825  1.00  0.00    -0.354 N 
ATOM     51  N   UNL A   1      44.293  26.695  29.618  1.00  0.00    -0.248 NA
ATOM     52  C   UNL A   1      45.166  24.627  28.966  1.00  0.00     0.031 C 
ATOM     53  C   UNL A   1      46.637  29.858  31.675  1.00  0.00     0.029 A 
ATOM     54  C   UNL A   1      45.931  28.858  31.028  1.00  0.00     0.049 A 
ATOM     55  H   UNL A   1      43.924  28.853  30.377  1.00  0.00     0.167 HD
ATOM     56  C   UNL A   1      45.630  26.623  29.997  1.00  0.00     0.074 A 
ATOM     57  C   UNL A   1      46.109  25.316  29.596  1.00  0.00     0.031 C 
ATOM     58  C   UNL A   1      46.393  27.554  30.623  1.00  0.00     0.031 A 
BRANCH  45  59
ATOM     59  C   UNL A   1      43.416  32.830  31.855  1.00  0.00    -0.014 A 
ATOM     60  C   UNL A   1      43.816  33.925  31.069  1.00  0.00     0.010 A 
ATOM     61  C   UNL A   1      43.025  33.051  33.189  1.00  0.00     0.010 A 
ATOM     62  C   UNL A   1      43.861  35.211  31.617  1.00  0.00     0.020 A 
ATOM     63  C   UNL A   1      43.045  34.339  33.733  1.00  0.00     0.020 A 
ATOM     64  C   UNL A   1      43.477  35.409  32.947  1.00  0.00     0.054 A 
BRANCH  64  65
ATOM     65  S   UNL A   1      43.522  37.090  33.626  1.00  0.00     0.124 S 
ATOM     66  O   UNL A   1      44.675  37.022  34.521  1.00  0.00    -0.237 OA
ATOM     67  O   UNL A   1      43.702  37.913  32.433  1.00  0.00    -0.237 OA
ATOM     68  O   UNL A   1      42.228  37.231  34.288  1.00  0.00    -0.744 OA
ENDBRANCH  64  65
ENDBRANCH  45  59
BRANCH  46  69
ATOM     69  C   UNL A   1      42.617  23.716  27.840  1.00  0.00    -0.014 A 
ATOM     70  C   UNL A   1      42.530  23.575  26.444  1.00  0.00     0.010 A 
ATOM     71  C   UNL A   1      42.608  22.562  28.646  1.00  0.00     0.010 A 
ATOM     72  C   UNL A   1      42.419  22.306  25.867  1.00  0.00     0.020 A 
ATOM     73  C   UNL A   1      42.524  21.291  28.071  1.00  0.00     0.020 A 
ATOM     74  C   UNL A   1      42.417  21.173  26.684  1.00  0.00     0.054 A 
BRANCH  74  75
ATOM     75  S   UNL A   1      42.323  19.533  25.911  1.00  0.00     0.124 S 
ATOM     76  O   UNL A   1      43.431  19.581  24.963  1.00  0.00    -0.237 OA
ATOM     77  O   UNL A   1      42.502  18.636  27.050  1.00  0.00    -0.237 OA
ATOM     78  O   UNL A   1      40.989  19.514  25.316  1.00  0.00    -0.744 OA
ENDBRANCH  74  75
ENDBRANCH  46  69
BRANCH  58  79
ATOM     79  C   UNL A   1      47.817  27.185  30.944  1.00  0.00    -0.014 A 
ATOM     80  C   UNL A   1      48.133  26.408  32.072  1.00  0.00     0.010 A 
ATOM     81  C   UNL A   1      48.848  27.575  30.070  1.00  0.00     0.010 A 
ATOM     82  C   UNL A   1      49.459  26.053  32.336  1.00  0.00     0.020 A 
ATOM     83  C   UNL A   1      50.171  27.199  30.315  1.00  0.00     0.020 A 
ATOM     84  C   UNL A   1      50.470  26.452  31.455  1.00  0.00     0.054 A 
BRANCH  84  85
ATOM     85  S   UNL A   1      52.178  25.941  31.796  1.00  0.00     0.124 S 
ATOM     86  O   UNL A   1      51.990  24.603  32.349  1.00  0.00    -0.237 OA
ATOM     87  O   UNL A   1      52.799  25.995  30.476  1.00  0.00    -0.237 OA
ATOM     88  O   UNL A   1      52.656  26.946  32.744  1.00  0.00    -0.744 OA
ENDBRANCH  84  85
ENDBRANCH  58  79
ENDBRANCH  32  33
ENDBRANCH  25  27
ENDBRANCH  24  25
ENDBRANCH  23  24
ENDBRANCH   1  23
TORSDOF 20
ENDMDL
MODEL 3
REMARK VINA RESULT:      -9.2      3.204      3.870
REMARK SMILES Cc1cc(N(C)C(C)C)cc(C(=O)OCCOCCOC(=O)c2ccc(-c3c4nc(c(-c5ccc(S(=O)(=O)[O-])cc5)c5ccc([nH]5)c(-c5ccc(S(=O)(=O)[O-])cc5)c5nc(c(-c6ccc(S(=O)(=O)[O-])cc6)c6ccc3[nH]6)C=C5)C=C4)cc2)c1N
REMARK SMILES IDX 18 1 17 2 16 3 15 4 14 5 12 6 13 7 11 8 1 9 2 10 3 11 83 12
REMARK SMILES IDX 4 13 10 14 84 15 5 18 6 19 7 20 8 21 9 22 19 23 20 24 21 25
REMARK SMILES IDX 22 26 23 27 24 28 82 29 25 30 81 31 26 32 27 33 28 34 75 35
REMARK SMILES IDX 29 36 80 37 74 38 76 39 30 40 79 41 73 42 72 43 31 45 61 46
REMARK SMILES IDX 42 47 60 48 43 49 46 50 59 51 77 52 44 53 45 54 58 56 78 57
REMARK SMILES IDX 47 58 32 59 33 60 41 61 34 62 40 63 35 64 36 65 37 66 38 67
REMARK SMILES IDX 39 68 62 69 63 70 71 71 64 72 70 73 65 74 66 75 67 76 68 77
REMARK SMILES IDX 69 78 48 79 49 80 57 81 50 82 56 83 51 84 52 85 53 86 54 87
REMARK SMILES IDX 55 88
REMARK H PARENT 84 16 84 17 76 44 46 55
REMARK Flexibility Score: inf
ROOT
ATOM      1  C   UNL A   1      37.444  22.843  25.453  1.00  0.00     0.202 C 
ENDROOT
BRANCH   1   2
ATOM      2  O   UNL A   1      36.864  21.558  25.695  1.00  0.00    -0.374 OA
BRANCH   2   3
ATOM      3  C   UNL A   1      35.452  21.525  25.908  1.00  0.00     0.202 C 
BRANCH   3   4
ATOM      4  C   UNL A   1      34.783  22.876  26.177  1.00  0.00     0.261 C 
BRANCH   4   5
ATOM      5  O   UNL A   1      33.394  22.851  25.808  1.00  0.00    -0.460 OA
BRANCH   5   6
ATOM      6  C   UNL A   1      32.560  23.446  26.697  1.00  0.00     0.340 C 
ATOM      7  O   UNL A   1      32.398  23.120  27.865  1.00  0.00    -0.246 OA
BRANCH   6   8
ATOM      8  C   UNL A   1      31.984  24.689  26.124  1.00  0.00     0.085 A 
ATOM      9  C   UNL A   1      29.351  25.710  23.574  1.00  0.00     0.047 C 
ATOM     10  C   UNL A   1      30.446  25.740  24.605  1.00  0.00    -0.025 A 
ATOM     11  C   UNL A   1      30.951  26.990  25.021  1.00  0.00     0.031 A 
ATOM     12  C   UNL A   1      30.958  24.566  25.166  1.00  0.00     0.049 A 
ATOM     13  C   UNL A   1      31.954  27.152  25.990  1.00  0.00     0.038 A 
ATOM     14  C   UNL A   1      32.466  25.955  26.522  1.00  0.00     0.043 A 
BRANCH  12  15
ATOM     15  N   UNL A   1      30.335  23.339  24.917  1.00  0.00    -0.398 N 
ATOM     16  H   UNL A   1      29.471  23.311  24.446  1.00  0.00     0.156 HD
ATOM     17  H   UNL A   1      30.762  22.501  25.212  1.00  0.00     0.156 HD
ENDBRANCH  12  15
BRANCH  13  18
ATOM     18  N   UNL A   1      32.392  28.406  26.405  1.00  0.00    -0.372 N 
ATOM     19  C   UNL A   1      31.726  29.068  27.534  1.00  0.00     0.144 C 
BRANCH  18  20
ATOM     20  C   UNL A   1      33.600  29.109  25.907  1.00  0.00     0.075 C 
ATOM     21  C   UNL A   1      34.735  29.156  26.928  1.00  0.00     0.030 C 
ATOM     22  C   UNL A   1      34.029  28.631  24.519  1.00  0.00     0.030 C 
ENDBRANCH  18  20
ENDBRANCH  13  18
ENDBRANCH   6   8
ENDBRANCH   5   6
ENDBRANCH   4   5
ENDBRANCH   3   4
ENDBRANCH   2   3
ENDBRANCH   1   2
BRANCH   1  23
ATOM     23  C   UNL A   1      38.740  23.152  26.213  1.00  0.00     0.261 C 
BRANCH  23  24
ATOM     24  O   UNL A   1      38.868  24.556  26.505  1.00  0.00    -0.460 OA
BRANCH  24  25
ATOM     25  C   UNL A   1      40.140  25.013  26.570  1.00  0.00     0.338 C 
ATOM     26  O   UNL A   1      41.015  24.885  25.724  1.00  0.00    -0.246 OA
BRANCH  25  27
ATOM     27  C   UNL A   1      40.304  25.878  27.755  1.00  0.00     0.060 A 
ATOM     28  C   UNL A   1      39.325  25.796  28.754  1.00  0.00     0.016 A 
ATOM     29  C   UNL A   1      41.359  26.786  27.870  1.00  0.00     0.016 A 
ATOM     30  C   UNL A   1      39.369  26.660  29.848  1.00  0.00     0.010 A 
ATOM     31  C   UNL A   1      41.396  27.658  28.964  1.00  0.00     0.010 A 
ATOM     32  C   UNL A   1      40.382  27.622  29.939  1.00  0.00    -0.014 A 
BRANCH  32  33
ATOM     33  C   UNL A   1      40.295  28.680  30.975  1.00  0.00     0.031 A 
ATOM     34  C   UNL A   1      41.202  28.604  32.173  1.00  0.00     0.074 A 
ATOM     35  C   UNL A   1      39.442  29.713  30.836  1.00  0.00     0.049 A 
ATOM     36  N   UNL A   1      41.279  29.405  33.204  1.00  0.00    -0.248 NA
ATOM     37  C   UNL A   1      42.148  27.477  32.212  1.00  0.00     0.031 C 
ATOM     38  C   UNL A   1      38.542  29.920  29.702  1.00  0.00     0.029 A 
ATOM     39  N   UNL A   1      39.194  30.779  31.662  1.00  0.00    -0.354 N 
ATOM     40  C   UNL A   1      42.277  28.878  34.016  1.00  0.00     0.074 A 
ATOM     41  C   UNL A   1      42.755  27.673  33.374  1.00  0.00     0.031 C 
ATOM     42  C   UNL A   1      37.833  31.043  29.909  1.00  0.00     0.029 A 
ATOM     43  C   UNL A   1      38.205  31.615  31.201  1.00  0.00     0.049 A 
ATOM     44  H   UNL A   1      39.680  30.931  32.506  1.00  0.00     0.167 HD
ATOM     45  C   UNL A   1      42.758  29.358  35.188  1.00  0.00     0.031 A 
ATOM     46  C   UNL A   1      37.650  32.705  31.767  1.00  0.00     0.031 A 
ATOM     47  C   UNL A   1      42.272  30.548  35.835  1.00  0.00     0.049 A 
ATOM     48  C   UNL A   1      38.152  33.180  33.105  1.00  0.00     0.074 A 
ATOM     49  C   UNL A   1      42.698  31.119  37.021  1.00  0.00     0.029 A 
ATOM     50  N   UNL A   1      41.248  31.348  35.350  1.00  0.00    -0.354 N 
ATOM     51  N   UNL A   1      39.108  32.681  33.852  1.00  0.00    -0.248 NA
ATOM     52  C   UNL A   1      37.504  34.372  33.673  1.00  0.00     0.031 C 
ATOM     53  C   UNL A   1      41.896  32.235  37.281  1.00  0.00     0.029 A 
ATOM     54  C   UNL A   1      41.012  32.394  36.227  1.00  0.00     0.049 A 
ATOM     55  H   UNL A   1      40.761  31.195  34.509  1.00  0.00     0.167 HD
ATOM     56  C   UNL A   1      39.193  33.512  34.965  1.00  0.00     0.074 A 
ATOM     57  C   UNL A   1      38.202  34.553  34.787  1.00  0.00     0.031 C 
ATOM     58  C   UNL A   1      40.021  33.422  36.037  1.00  0.00     0.031 A 
BRANCH  45  59
ATOM     59  C   UNL A   1      43.850  28.572  35.864  1.00  0.00    -0.014 A 
ATOM     60  C   UNL A   1      45.203  28.911  35.692  1.00  0.00     0.010 A 
ATOM     61  C   UNL A   1      43.515  27.502  36.714  1.00  0.00     0.010 A 
ATOM     62  C   UNL A   1      46.205  28.172  36.328  1.00  0.00     0.020 A 
ATOM     63  C   UNL A   1      44.512  26.776  37.372  1.00  0.00     0.020 A 
ATOM     64  C   UNL A   1      45.853  27.107  37.163  1.00  0.00     0.054 A 
BRANCH  64  65
ATOM     65  S   UNL A   1      47.170  26.179  37.995  1.00  0.00     0.124 S 
ATOM     66  O   UNL A   1      48.022  25.794  36.872  1.00  0.00    -0.237 OA
ATOM     67  O   UNL A   1      47.739  27.173  38.902  1.00  0.00    -0.237 OA
ATOM     68  O   UNL A   1      46.463  25.080  38.646  1.00  0.00    -0.744 OA
ENDBRANCH  64  65
ENDBRANCH  45  59
BRANCH  46  69
ATOM     69  C   UNL A   1      36.535  33.412  31.078  1.00  0.00    -0.014 A 
ATOM     70  C   UNL A   1      36.713  33.968  29.800  1.00  0.00     0.010 A 
ATOM     71  C   UNL A   1      35.282  33.532  31.709  1.00  0.00     0.010 A 
ATOM     72  C   UNL A   1      35.663  34.646  29.171  1.00  0.00     0.020 A 
ATOM     73  C   UNL A   1      34.224  34.185  31.072  1.00  0.00     0.020 A 
ATOM     74  C   UNL A   1      34.425  34.748  29.811  1.00  0.00     0.054 A 
BRANCH  74  75
ATOM     75  S   UNL A   1      33.061  35.587  28.955  1.00  0.00     0.124 S 
ATOM     76  O   UNL A   1      32.475  34.499  28.181  1.00  0.00    -0.237 OA
ATOM     77  O   UNL A   1      32.252  36.085  30.064  1.00  0.00    -0.237 OA
ATOM     78  O   UNL A   1      33.736  36.621  28.173  1.00  0.00    -0.744 OA
ENDBRANCH  74  75
ENDBRANCH  46  69
BRANCH  58  79
ATOM     79  C   UNL A   1      39.915  34.495  37.088  1.00  0.00    -0.014 A 
ATOM     80  C   UNL A   1      40.631  35.700  36.976  1.00  0.00     0.010 A 
ATOM     81  C   UNL A   1      39.040  34.317  38.175  1.00  0.00     0.010 A 
ATOM     82  C   UNL A   1      40.496  36.695  37.949  1.00  0.00     0.020 A 
ATOM     83  C   UNL A   1      38.882  35.320  39.135  1.00  0.00     0.020 A 
ATOM     84  C   UNL A   1      39.622  36.497  39.023  1.00  0.00     0.054 A 
BRANCH  84  85
ATOM     85  S   UNL A   1      39.432  37.821  40.249  1.00  0.00     0.124 S 
ATOM     86  O   UNL A   1      40.729  38.488  40.181  1.00  0.00    -0.237 OA
ATOM     87  O   UNL A   1      38.303  38.585  39.725  1.00  0.00    -0.237 OA
ATOM     88  O   UNL A   1      39.164  37.103  41.494  1.00  0.00    -0.744 OA
ENDBRANCH  84  85
ENDBRANCH  58  79
ENDBRANCH  32  33
ENDBRANCH  25  27
ENDBRANCH  24  25
ENDBRANCH  23  24
ENDBRANCH   1  23
TORSDOF 20
ENDMDL
