MODEL 1
REMARK VINA RESULT:     -12.0      0.000      0.000
REMARK SMILES O=C(OCCOCCOC(=O)c1ccc(-c2c3nc(c(-c4ccc(S(=O)(=O)[O-])cc4)c4ccc([nH]4)c(-c4ccc(S(=O)(=O)[O-])cc4)c4nc(c(-c5ccc(S(=O)(=O)[O-])cc5)c5ccc2[nH]5)C=C4)C=C3)cc1)C1=Cc2c(Cl)ccc(Cl)c2O[C@@H]1C(F)(F)F
REMARK SMILES IDX 7 1 6 2 5 3 4 4 3 5 2 6 1 7 72 8 73 9 83 10 74 11 82 12
REMARK SMILES IDX 75 13 81 14 76 15 77 16 79 17 78 18 80 19 84 20 85 21 86 22
REMARK SMILES IDX 87 23 8 24 9 25 10 26 11 27 12 28 13 29 71 30 14 31 70 32
REMARK SMILES IDX 15 33 16 34 17 35 64 36 18 37 69 38 63 39 65 40 19 41 68 42
REMARK SMILES IDX 62 43 61 44 20 46 50 47 31 48 49 49 32 50 35 51 48 52 66 53
REMARK SMILES IDX 33 54 34 55 47 57 67 58 36 59 21 60 22 61 30 62 23 63 29 64
REMARK SMILES IDX 24 65 25 66 26 67 27 68 28 69 51 70 52 71 60 72 53 73 59 74
REMARK SMILES IDX 54 75 55 76 56 77 57 78 58 79 37 80 38 81 46 82 39 83 45 84
REMARK SMILES IDX 40 85 41 86 42 87 43 88 44 89
REMARK H PARENT 65 45 35 56
REMARK Flexibility Score: inf
ROOT
ATOM      1  C   UNL A   1      39.467  21.515  26.133  1.00  0.00     0.202 C 
ENDROOT
BRANCH   1   2
ATOM      2  O   UNL A   1      38.190  22.082  25.820  1.00  0.00    -0.374 OA
BRANCH   2   3
ATOM      3  C   UNL A   1      37.175  21.947  24.606  1.00  0.00     0.202 C 
BRANCH   3   4
ATOM      4  C   UNL A   1      35.863  23.345  23.596  1.00  0.00     0.261 C 
BRANCH   4   5
ATOM      5  O   UNL A   1      35.083  24.514  24.254  1.00  0.00    -0.460 OA
BRANCH   5   6
ATOM      6  C   UNL A   1      34.097  24.982  23.485  1.00  0.00     0.338 C 
ATOM      7  O   UNL A   1      34.126  25.448  22.375  1.00  0.00    -0.246 OA
BRANCH   6   8
ATOM      8  C   UNL A   1      33.128  25.060  24.549  1.00  0.00     0.087 C 
ATOM      9  C   UNL A   1      33.458  26.184  25.481  1.00  0.00     0.029 C 
ATOM     10  C   UNL A   1      31.543  24.990  23.432  1.00  0.00     0.316 C 
ATOM     11  C   UNL A   1      32.506  27.748  25.564  1.00  0.00     0.037 A 
ATOM     12  O   UNL A   1      30.568  26.643  23.465  1.00  0.00    -0.474 OA
ATOM     13  C   UNL A   1      32.964  28.825  26.286  1.00  0.00     0.052 A 
ATOM     14  C   UNL A   1      31.145  28.014  24.515  1.00  0.00     0.148 A 
ATOM     15  Cl  UNL A   1      34.275  28.733  27.384  1.00  0.00    -0.084 Cl
ATOM     16  C   UNL A   1      32.321  30.054  26.039  1.00  0.00     0.023 A 
ATOM     17  C   UNL A   1      30.697  29.274  24.228  1.00  0.00     0.083 A 
ATOM     18  C   UNL A   1      31.287  30.273  25.037  1.00  0.00     0.026 A 
ATOM     19  Cl  UNL A   1      29.818  29.656  22.822  1.00  0.00    -0.080 Cl
BRANCH  10  20
ATOM     20  C   UNL A   1      31.041  23.525  23.700  1.00  0.00     0.430 C 
ATOM     21  F   UNL A   1      30.653  23.275  24.964  1.00  0.00    -0.167 F 
ATOM     22  F   UNL A   1      29.919  23.338  22.943  1.00  0.00    -0.167 F 
ATOM     23  F   UNL A   1      31.892  22.556  23.300  1.00  0.00    -0.167 F 
ENDBRANCH  10  20
ENDBRANCH   6   8
ENDBRANCH   5   6
ENDBRANCH   4   5
ENDBRANCH   3   4
ENDBRANCH   2   3
ENDBRANCH   1   2
BRANCH   1  24
ATOM     24  C   UNL A   1      40.632  22.497  26.193  1.00  0.00     0.261 C 
BRANCH  24  25
ATOM     25  O   UNL A   1      40.248  23.773  26.678  1.00  0.00    -0.460 OA
BRANCH  25  26
ATOM     26  C   UNL A   1      41.177  24.740  26.503  1.00  0.00     0.338 C 
ATOM     27  O   UNL A   1      42.033  24.807  25.640  1.00  0.00    -0.246 OA
BRANCH  26  28
ATOM     28  C   UNL A   1      40.971  25.760  27.545  1.00  0.00     0.060 A 
ATOM     29  C   UNL A   1      41.847  26.849  27.583  1.00  0.00     0.016 A 
ATOM     30  C   UNL A   1      39.893  25.671  28.439  1.00  0.00     0.016 A 
ATOM     31  C   UNL A   1      41.617  27.879  28.488  1.00  0.00     0.010 A 
ATOM     32  C   UNL A   1      39.661  26.704  29.337  1.00  0.00     0.010 A 
ATOM     33  C   UNL A   1      40.525  27.808  29.364  1.00  0.00    -0.014 A 
BRANCH  33  34
ATOM     34  C   UNL A   1      40.388  28.797  30.447  1.00  0.00     0.031 A 
ATOM     35  C   UNL A   1      41.286  28.643  31.634  1.00  0.00     0.074 A 
ATOM     36  C   UNL A   1      39.484  29.790  30.370  1.00  0.00     0.049 A 
ATOM     37  N   UNL A   1      41.367  29.382  32.704  1.00  0.00    -0.248 NA
ATOM     38  C   UNL A   1      42.218  27.500  31.611  1.00  0.00     0.031 C 
ATOM     39  C   UNL A   1      38.570  30.023  29.253  1.00  0.00     0.029 A 
ATOM     40  N   UNL A   1      39.182  30.785  31.262  1.00  0.00    -0.354 N 
ATOM     41  C   UNL A   1      42.363  28.804  33.477  1.00  0.00     0.074 A 
ATOM     42  C   UNL A   1      42.830  27.630  32.777  1.00  0.00     0.031 C 
ATOM     43  C   UNL A   1      37.806  31.095  29.528  1.00  0.00     0.029 A 
ATOM     44  C   UNL A   1      38.154  31.601  30.852  1.00  0.00     0.049 A 
ATOM     45  H   UNL A   1      39.655  30.905  32.117  1.00  0.00     0.167 HD
ATOM     46  C   UNL A   1      42.851  29.225  34.664  1.00  0.00     0.031 A 
ATOM     47  C   UNL A   1      37.555  32.627  31.490  1.00  0.00     0.031 A 
ATOM     48  C   UNL A   1      42.345  30.369  35.368  1.00  0.00     0.049 A 
ATOM     49  C   UNL A   1      38.062  33.020  32.855  1.00  0.00     0.074 A 
ATOM     50  C   UNL A   1      42.772  30.891  36.575  1.00  0.00     0.029 A 
ATOM     51  N   UNL A   1      41.286  31.155  34.939  1.00  0.00    -0.354 N 
ATOM     52  N   UNL A   1      39.057  32.509  33.545  1.00  0.00    -0.248 NA
ATOM     53  C   UNL A   1      37.379  34.136  33.523  1.00  0.00     0.031 C 
ATOM     54  C   UNL A   1      41.924  31.948  36.911  1.00  0.00     0.029 A 
ATOM     55  C   UNL A   1      41.021  32.137  35.875  1.00  0.00     0.049 A 
ATOM     56  H   UNL A   1      40.796  31.032  34.094  1.00  0.00     0.167 HD
ATOM     57  C   UNL A   1      39.139  33.266  34.710  1.00  0.00     0.074 A 
ATOM     58  C   UNL A   1      38.108  34.279  34.621  1.00  0.00     0.031 C 
ATOM     59  C   UNL A   1      39.990  33.139  35.759  1.00  0.00     0.031 A 
BRANCH  46  60
ATOM     60  C   UNL A   1      43.958  28.419  35.283  1.00  0.00    -0.014 A 
ATOM     61  C   UNL A   1      43.677  27.344  36.146  1.00  0.00     0.010 A 
ATOM     62  C   UNL A   1      45.294  28.716  34.964  1.00  0.00     0.010 A 
ATOM     63  C   UNL A   1      44.718  26.592  36.695  1.00  0.00     0.020 A 
ATOM     64  C   UNL A   1      46.335  27.948  35.487  1.00  0.00     0.020 A 
ATOM     65  C   UNL A   1      46.040  26.895  36.356  1.00  0.00     0.054 A 
BRANCH  65  66
ATOM     66  S   UNL A   1      47.366  25.863  37.036  1.00  0.00     0.124 S 
ATOM     67  O   UNL A   1      48.471  26.152  36.125  1.00  0.00    -0.237 OA
ATOM     68  O   UNL A   1      47.513  26.389  38.390  1.00  0.00    -0.237 OA
ATOM     69  O   UNL A   1      46.830  24.507  36.952  1.00  0.00    -0.744 OA
ENDBRANCH  65  66
ENDBRANCH  46  60
BRANCH  47  70
ATOM     70  C   UNL A   1      36.408  33.346  30.867  1.00  0.00    -0.014 A 
ATOM     71  C   UNL A   1      36.446  33.733  29.515  1.00  0.00     0.010 A 
ATOM     72  C   UNL A   1      35.280  33.685  31.638  1.00  0.00     0.010 A 
ATOM     73  C   UNL A   1      35.400  34.478  28.959  1.00  0.00     0.020 A 
ATOM     74  C   UNL A   1      34.217  34.399  31.077  1.00  0.00     0.020 A 
ATOM     75  C   UNL A   1      34.293  34.806  29.744  1.00  0.00     0.054 A 
BRANCH  75  76
ATOM     76  S   UNL A   1      32.942  35.759  28.995  1.00  0.00     0.124 S 
ATOM     77  O   UNL A   1      32.123  36.090  30.157  1.00  0.00    -0.237 OA
ATOM     78  O   UNL A   1      33.653  36.878  28.382  1.00  0.00    -0.237 OA
ATOM     79  O   UNL A   1      32.341  34.819  28.053  1.00  0.00    -0.744 OA
ENDBRANCH  75  76
ENDBRANCH  47  70
BRANCH  59  80
ATOM     80  C   UNL A   1      39.877  34.146  36.874  1.00  0.00    -0.014 A 
ATOM     81  C   UNL A   1      40.454  35.423  36.771  1.00  0.00     0.010 A 
ATOM     82  C   UNL A   1      39.116  33.826  38.014  1.00  0.00     0.010 A 
ATOM     83  C   UNL A   1      40.302  36.350  37.805  1.00  0.00     0.020 A 
ATOM     84  C   UNL A   1      38.930  34.761  39.032  1.00  0.00     0.020 A 
ATOM     85  C   UNL A   1      39.537  36.014  38.928  1.00  0.00     0.054 A 
BRANCH  85  86
ATOM     86  S   UNL A   1      39.314  37.253  40.231  1.00  0.00     0.124 S 
ATOM     87  O   UNL A   1      40.695  37.593  40.568  1.00  0.00    -0.237 OA
ATOM     88  O   UNL A   1      38.558  38.300  39.549  1.00  0.00    -0.237 OA
ATOM     89  O   UNL A   1      38.578  36.536  41.271  1.00  0.00    -0.744 OA
ENDBRANCH  85  86
ENDBRANCH  59  80
ENDBRANCH  33  34
ENDBRANCH  26  28
ENDBRANCH  25  26
ENDBRANCH  24  25
ENDBRANCH   1  24
TORSDOF 18
ENDMDL
MODEL 2
REMARK VINA RESULT:     -12.0      1.443      2.194
REMARK SMILES O=C(OCCOCCOC(=O)c1ccc(-c2c3nc(c(-c4ccc(S(=O)(=O)[O-])cc4)c4ccc([nH]4)c(-c4ccc(S(=O)(=O)[O-])cc4)c4nc(c(-c5ccc(S(=O)(=O)[O-])cc5)c5ccc2[nH]5)C=C4)C=C3)cc1)C1=Cc2c(Cl)ccc(Cl)c2O[C@@H]1C(F)(F)F
REMARK SMILES IDX 7 1 6 2 5 3 4 4 3 5 2 6 1 7 72 8 73 9 83 10 74 11 82 12
REMARK SMILES IDX 75 13 81 14 76 15 77 16 79 17 78 18 80 19 84 20 85 21 86 22
REMARK SMILES IDX 87 23 8 24 9 25 10 26 11 27 12 28 13 29 71 30 14 31 70 32
REMARK SMILES IDX 15 33 16 34 17 35 64 36 18 37 69 38 63 39 65 40 19 41 68 42
REMARK SMILES IDX 62 43 61 44 20 46 50 47 31 48 49 49 32 50 35 51 48 52 66 53
REMARK SMILES IDX 33 54 34 55 47 57 67 58 36 59 21 60 22 61 30 62 23 63 29 64
REMARK SMILES IDX 24 65 25 66 26 67 27 68 28 69 51 70 52 71 60 72 53 73 59 74
REMARK SMILES IDX 54 75 55 76 56 77 57 78 58 79 37 80 38 81 46 82 39 83 45 84
REMARK SMILES IDX 40 85 41 86 42 87 43 88 44 89
REMARK H PARENT 65 45 35 56
REMARK Flexibility Score: inf
ROOT
ATOM      1  C   UNL A   1      42.313  21.857  26.463  1.00  0.00     0.202 C 
ENDROOT
BRANCH   1   2
ATOM      2  O   UNL A   1      41.257  21.095  25.867  1.00  0.00    -0.374 OA
BRANCH   2   3
ATOM      3  C   UNL A   1      39.672  21.112  25.968  1.00  0.00     0.202 C 
BRANCH   3   4
ATOM      4  C   UNL A   1      38.198  22.700  26.024  1.00  0.00     0.261 C 
BRANCH   4   5
ATOM      5  O   UNL A   1      36.665  22.539  25.846  1.00  0.00    -0.460 OA
BRANCH   5   6
ATOM      6  C   UNL A   1      36.230  22.962  24.657  1.00  0.00     0.338 C 
ATOM      7  O   UNL A   1      36.841  23.316  23.682  1.00  0.00    -0.246 OA
BRANCH   6   8
ATOM      8  C   UNL A   1      34.870  23.176  25.085  1.00  0.00     0.087 C 
ATOM      9  C   UNL A   1      34.641  24.619  25.411  1.00  0.00     0.029 C 
ATOM     10  C   UNL A   1      34.010  22.231  23.624  1.00  0.00     0.316 C 
ATOM     11  C   UNL A   1      33.657  25.754  24.362  1.00  0.00     0.037 A 
ATOM     12  O   UNL A   1      33.023  23.419  22.485  1.00  0.00    -0.474 OA
ATOM     13  C   UNL A   1      33.643  27.109  24.594  1.00  0.00     0.052 A 
ATOM     14  C   UNL A   1      32.938  25.193  22.881  1.00  0.00     0.148 A 
ATOM     15  Cl  UNL A   1      34.283  27.828  26.012  1.00  0.00    -0.084 Cl
ATOM     16  C   UNL A   1      33.108  27.909  23.564  1.00  0.00     0.023 A 
ATOM     17  C   UNL A   1      32.592  26.059  21.880  1.00  0.00     0.083 A 
ATOM     18  C   UNL A   1      32.658  27.416  22.269  1.00  0.00     0.026 A 
ATOM     19  Cl  UNL A   1      32.458  25.595  20.248  1.00  0.00    -0.080 Cl
BRANCH  10  20
ATOM     20  C   UNL A   1      33.545  20.913  24.342  1.00  0.00     0.430 C 
ATOM     21  F   UNL A   1      34.516  20.232  24.977  1.00  0.00    -0.167 F 
ATOM     22  F   UNL A   1      32.669  21.277  25.326  1.00  0.00    -0.167 F 
ATOM     23  F   UNL A   1      32.849  20.061  23.559  1.00  0.00    -0.167 F 
ENDBRANCH  10  20
ENDBRANCH   6   8
ENDBRANCH   5   6
ENDBRANCH   4   5
ENDBRANCH   3   4
ENDBRANCH   2   3
ENDBRANCH   1   2
BRANCH   1  24
ATOM     24  C   UNL A   1      42.439  23.300  25.986  1.00  0.00     0.261 C 
BRANCH  24  25
ATOM     25  O   UNL A   1      41.526  24.172  26.632  1.00  0.00    -0.460 OA
BRANCH  25  26
ATOM     26  C   UNL A   1      41.532  25.438  26.158  1.00  0.00     0.338 C 
ATOM     27  O   UNL A   1      41.648  25.803  25.002  1.00  0.00    -0.246 OA
BRANCH  26  28
ATOM     28  C   UNL A   1      41.343  26.350  27.299  1.00  0.00     0.060 A 
ATOM     29  C   UNL A   1      40.339  26.048  28.224  1.00  0.00     0.016 A 
ATOM     30  C   UNL A   1      42.184  27.458  27.484  1.00  0.00     0.016 A 
ATOM     31  C   UNL A   1      40.204  26.830  29.365  1.00  0.00     0.010 A 
ATOM     32  C   UNL A   1      42.052  28.234  28.627  1.00  0.00     0.010 A 
ATOM     33  C   UNL A   1      41.060  27.922  29.568  1.00  0.00    -0.014 A 
BRANCH  33  34
ATOM     34  C   UNL A   1      40.801  28.862  30.672  1.00  0.00     0.031 A 
ATOM     35  C   UNL A   1      41.625  28.706  31.912  1.00  0.00     0.074 A 
ATOM     36  C   UNL A   1      39.856  29.812  30.568  1.00  0.00     0.049 A 
ATOM     37  N   UNL A   1      41.597  29.408  33.011  1.00  0.00    -0.248 NA
ATOM     38  C   UNL A   1      42.613  27.611  31.914  1.00  0.00     0.031 C 
ATOM     39  C   UNL A   1      39.008  30.044  29.400  1.00  0.00     0.029 A 
ATOM     40  N   UNL A   1      39.445  30.758  31.471  1.00  0.00    -0.354 N 
ATOM     41  C   UNL A   1      42.567  28.848  33.829  1.00  0.00     0.074 A 
ATOM     42  C   UNL A   1      43.138  27.725  33.123  1.00  0.00     0.031 C 
ATOM     43  C   UNL A   1      38.174  31.067  29.658  1.00  0.00     0.029 A 
ATOM     44  C   UNL A   1      38.407  31.539  31.020  1.00  0.00     0.049 A 
ATOM     45  H   UNL A   1      39.854  30.868  32.360  1.00  0.00     0.167 HD
ATOM     46  C   UNL A   1      42.953  29.247  35.060  1.00  0.00     0.031 A 
ATOM     47  C   UNL A   1      37.716  32.510  31.651  1.00  0.00     0.031 A 
ATOM     48  C   UNL A   1      42.344  30.338  35.767  1.00  0.00     0.049 A 
ATOM     49  C   UNL A   1      38.111  32.874  33.060  1.00  0.00     0.074 A 
ATOM     50  C   UNL A   1      42.663  30.834  37.018  1.00  0.00     0.029 A 
ATOM     51  N   UNL A   1      41.278  31.088  35.294  1.00  0.00    -0.354 N 
ATOM     52  N   UNL A   1      39.081  32.386  33.798  1.00  0.00    -0.248 NA
ATOM     53  C   UNL A   1      37.329  33.931  33.718  1.00  0.00     0.031 C 
ATOM     54  C   UNL A   1      41.742  31.836  37.332  1.00  0.00     0.029 A 
ATOM     55  C   UNL A   1      40.902  32.021  36.243  1.00  0.00     0.049 A 
ATOM     56  H   UNL A   1      40.852  30.974  34.414  1.00  0.00     0.167 HD
ATOM     57  C   UNL A   1      39.048  33.102  34.991  1.00  0.00     0.074 A 
ATOM     58  C   UNL A   1      37.975  34.067  34.868  1.00  0.00     0.031 C 
ATOM     59  C   UNL A   1      39.832  32.976  36.091  1.00  0.00     0.031 A 
BRANCH  46  60
ATOM     60  C   UNL A   1      44.055  28.472  35.725  1.00  0.00    -0.014 A 
ATOM     61  C   UNL A   1      45.401  28.854  35.578  1.00  0.00     0.010 A 
ATOM     62  C   UNL A   1      43.736  27.373  36.540  1.00  0.00     0.010 A 
ATOM     63  C   UNL A   1      46.411  28.136  36.222  1.00  0.00     0.020 A 
ATOM     64  C   UNL A   1      44.740  26.671  37.210  1.00  0.00     0.020 A 
ATOM     65  C   UNL A   1      46.072  27.053  37.039  1.00  0.00     0.054 A 
BRANCH  65  66
ATOM     66  S   UNL A   1      47.400  26.178  37.909  1.00  0.00     0.124 S 
ATOM     67  O   UNL A   1      48.591  26.856  37.402  1.00  0.00    -0.237 OA
ATOM     68  O   UNL A   1      47.081  26.432  39.311  1.00  0.00    -0.237 OA
ATOM     69  O   UNL A   1      47.244  24.791  37.478  1.00  0.00    -0.744 OA
ENDBRANCH  65  66
ENDBRANCH  46  60
BRANCH  47  70
ATOM     70  C   UNL A   1      36.578  33.196  30.976  1.00  0.00    -0.014 A 
ATOM     71  C   UNL A   1      36.768  33.894  29.769  1.00  0.00     0.010 A 
ATOM     72  C   UNL A   1      35.298  33.189  31.561  1.00  0.00     0.010 A 
ATOM     73  C   UNL A   1      35.714  34.603  29.184  1.00  0.00     0.020 A 
ATOM     74  C   UNL A   1      34.232  33.867  30.961  1.00  0.00     0.020 A 
ATOM     75  C   UNL A   1      34.453  34.585  29.785  1.00  0.00     0.054 A 
BRANCH  75  76
ATOM     76  S   UNL A   1      33.097  35.499  28.997  1.00  0.00     0.124 S 
ATOM     77  O   UNL A   1      32.521  34.489  28.115  1.00  0.00    -0.237 OA
ATOM     78  O   UNL A   1      32.275  35.883  30.142  1.00  0.00    -0.237 OA
ATOM     79  O   UNL A   1      33.774  36.605  28.326  1.00  0.00    -0.744 OA
ENDBRANCH  75  76
ENDBRANCH  47  70
BRANCH  59  80
ATOM     80  C   UNL A   1      39.594  33.933  37.230  1.00  0.00    -0.014 A 
ATOM     81  C   UNL A   1      38.906  33.538  38.389  1.00  0.00     0.010 A 
ATOM     82  C   UNL A   1      40.135  35.231  37.161  1.00  0.00     0.010 A 
ATOM     83  C   UNL A   1      38.732  34.436  39.445  1.00  0.00     0.020 A 
ATOM     84  C   UNL A   1      39.996  36.118  38.229  1.00  0.00     0.020 A 
ATOM     85  C   UNL A   1      39.282  35.720  39.360  1.00  0.00     0.054 A 
BRANCH  85  86
ATOM     86  S   UNL A   1      39.084  36.846  40.766  1.00  0.00     0.124 S 
ATOM     87  O   UNL A   1      38.159  36.107  41.621  1.00  0.00    -0.237 OA
ATOM     88  O   UNL A   1      40.449  36.966  41.272  1.00  0.00    -0.237 OA
ATOM     89  O   UNL A   1      38.539  38.061  40.163  1.00  0.00    -0.744 OA
ENDBRANCH  85  86
ENDBRANCH  59  80
ENDBRANCH  33  34
ENDBRANCH  26  28
ENDBRANCH  25  26
ENDBRANCH  24  25
ENDBRANCH   1  24
TORSDOF 18
ENDMDL
MODEL 3
REMARK VINA RESULT:     -11.9      5.444     12.344
REMARK SMILES O=C(OCCOCCOC(=O)c1ccc(-c2c3nc(c(-c4ccc(S(=O)(=O)[O-])cc4)c4ccc([nH]4)c(-c4ccc(S(=O)(=O)[O-])cc4)c4nc(c(-c5ccc(S(=O)(=O)[O-])cc5)c5ccc2[nH]5)C=C4)C=C3)cc1)C1=Cc2c(Cl)ccc(Cl)c2O[C@@H]1C(F)(F)F
REMARK SMILES IDX 7 1 6 2 5 3 4 4 3 5 2 6 1 7 72 8 73 9 83 10 74 11 82 12
REMARK SMILES IDX 75 13 81 14 76 15 77 16 79 17 78 18 80 19 84 20 85 21 86 22
REMARK SMILES IDX 87 23 8 24 9 25 10 26 11 27 12 28 13 29 71 30 14 31 70 32
REMARK SMILES IDX 15 33 16 34 17 35 64 36 18 37 69 38 63 39 65 40 19 41 68 42
REMARK SMILES IDX 62 43 61 44 20 46 50 47 31 48 49 49 32 50 35 51 48 52 66 53
REMARK SMILES IDX 33 54 34 55 47 57 67 58 36 59 21 60 22 61 30 62 23 63 29 64
REMARK SMILES IDX 24 65 25 66 26 67 27 68 28 69 51 70 52 71 60 72 53 73 59 74
REMARK SMILES IDX 54 75 55 76 56 77 57 78 58 79 37 80 38 81 46 82 39 83 45 84
REMARK SMILES IDX 40 85 41 86 42 87 43 88 44 89
REMARK H PARENT 65 45 35 56
REMARK Flexibility Score: inf
ROOT
ATOM      1  C   UNL A   1      33.633  34.141  29.145  1.00  0.00     0.202 C 
ENDROOT
BRANCH   1   2
ATOM      2  O   UNL A   1      33.966  33.849  30.507  1.00  0.00    -0.374 OA
BRANCH   2   3
ATOM      3  C   UNL A   1      35.238  34.099  31.424  1.00  0.00     0.202 C 
BRANCH   3   4
ATOM      4  C   UNL A   1      36.226  32.927  32.956  1.00  0.00     0.261 C 
BRANCH   4   5
ATOM      5  O   UNL A   1      37.656  32.328  32.876  1.00  0.00    -0.460 OA
BRANCH   5   6
ATOM      6  C   UNL A   1      38.471  32.794  33.827  1.00  0.00     0.338 C 
ATOM      7  O   UNL A   1      39.299  33.666  33.786  1.00  0.00    -0.246 OA
BRANCH   6   8
ATOM      8  C   UNL A   1      38.260  31.692  34.731  1.00  0.00     0.087 C 
ATOM      9  C   UNL A   1      38.587  30.392  34.063  1.00  0.00     0.029 C 
ATOM     10  C   UNL A   1      39.237  32.429  36.236  1.00  0.00     0.316 C 
ATOM     11  C   UNL A   1      40.076  29.398  34.450  1.00  0.00     0.037 A 
ATOM     12  O   UNL A   1      40.831  31.429  36.615  1.00  0.00    -0.474 OA
ATOM     13  C   UNL A   1      40.438  28.322  33.675  1.00  0.00     0.052 A 
ATOM     14  C   UNL A   1      41.225  29.947  35.635  1.00  0.00     0.148 A 
ATOM     15  Cl  UNL A   1      39.418  27.638  32.481  1.00  0.00    -0.084 Cl
ATOM     16  C   UNL A   1      41.741  27.824  33.876  1.00  0.00     0.023 A 
ATOM     17  C   UNL A   1      42.518  29.499  35.641  1.00  0.00     0.083 A 
ATOM     18  C   UNL A   1      42.734  28.408  34.768  1.00  0.00     0.026 A 
ATOM     19  Cl  UNL A   1      43.807  30.372  36.327  1.00  0.00    -0.080 Cl
BRANCH  10  20
ATOM     20  C   UNL A   1      38.062  32.843  37.194  1.00  0.00     0.430 C 
ATOM     21  F   UNL A   1      37.477  31.828  37.855  1.00  0.00    -0.167 F 
ATOM     22  F   UNL A   1      38.597  33.637  38.169  1.00  0.00    -0.167 F 
ATOM     23  F   UNL A   1      37.106  33.602  36.617  1.00  0.00    -0.167 F 
ENDBRANCH  10  20
ENDBRANCH   6   8
ENDBRANCH   5   6
ENDBRANCH   4   5
ENDBRANCH   3   4
ENDBRANCH   2   3
ENDBRANCH   1   2
BRANCH   1  24
ATOM     24  C   UNL A   1      34.048  33.090  28.121  1.00  0.00     0.261 C 
BRANCH  24  25
ATOM     25  O   UNL A   1      34.252  31.812  28.699  1.00  0.00    -0.460 OA
BRANCH  25  26
ATOM     26  C   UNL A   1      34.567  30.841  27.813  1.00  0.00     0.338 C 
ATOM     27  O   UNL A   1      33.912  30.456  26.862  1.00  0.00    -0.246 OA
BRANCH  26  28
ATOM     28  C   UNL A   1      35.893  30.312  28.173  1.00  0.00     0.060 A 
ATOM     29  C   UNL A   1      36.058  29.759  29.447  1.00  0.00     0.016 A 
ATOM     30  C   UNL A   1      36.946  30.309  27.245  1.00  0.00     0.016 A 
ATOM     31  C   UNL A   1      37.268  29.159  29.780  1.00  0.00     0.010 A 
ATOM     32  C   UNL A   1      38.150  29.704  27.576  1.00  0.00     0.010 A 
ATOM     33  C   UNL A   1      38.313  29.130  28.846  1.00  0.00    -0.014 A 
BRANCH  33  34
ATOM     34  C   UNL A   1      39.650  28.668  29.256  1.00  0.00     0.031 A 
ATOM     35  C   UNL A   1      40.494  29.625  30.040  1.00  0.00     0.074 A 
ATOM     36  C   UNL A   1      40.093  27.442  28.928  1.00  0.00     0.049 A 
ATOM     37  N   UNL A   1      41.693  29.456  30.523  1.00  0.00    -0.248 NA
ATOM     38  C   UNL A   1      39.907  30.948  30.317  1.00  0.00     0.031 C 
ATOM     39  C   UNL A   1      39.341  26.442  28.171  1.00  0.00     0.029 A 
ATOM     40  N   UNL A   1      41.294  26.834  29.184  1.00  0.00    -0.354 N 
ATOM     41  C   UNL A   1      42.000  30.644  31.169  1.00  0.00     0.074 A 
ATOM     42  C   UNL A   1      40.883  31.542  30.983  1.00  0.00     0.031 C 
ATOM     43  C   UNL A   1      40.101  25.342  28.023  1.00  0.00     0.029 A 
ATOM     44  C   UNL A   1      41.402  25.574  28.644  1.00  0.00     0.049 A 
ATOM     45  H   UNL A   1      42.012  27.259  29.707  1.00  0.00     0.167 HD
ATOM     46  C   UNL A   1      43.115  30.953  31.865  1.00  0.00     0.031 A 
ATOM     47  C   UNL A   1      42.445  24.720  28.641  1.00  0.00     0.031 A 
ATOM     48  C   UNL A   1      44.235  30.065  32.003  1.00  0.00     0.049 A 
ATOM     49  C   UNL A   1      43.712  25.128  29.351  1.00  0.00     0.074 A 
ATOM     50  C   UNL A   1      45.414  30.273  32.695  1.00  0.00     0.029 A 
ATOM     51  N   UNL A   1      44.324  28.810  31.420  1.00  0.00    -0.354 N 
ATOM     52  N   UNL A   1      43.964  26.228  30.022  1.00  0.00    -0.248 NA
ATOM     53  C   UNL A   1      44.830  24.175  29.318  1.00  0.00     0.031 C 
ATOM     54  C   UNL A   1      46.245  29.174  32.470  1.00  0.00     0.029 A 
ATOM     55  C   UNL A   1      45.552  28.245  31.706  1.00  0.00     0.049 A 
ATOM     56  H   UNL A   1      43.617  28.385  30.883  1.00  0.00     0.167 HD
ATOM     57  C   UNL A   1      45.255  26.082  30.520  1.00  0.00     0.074 A 
ATOM     58  C   UNL A   1      45.722  24.781  30.090  1.00  0.00     0.031 C 
ATOM     59  C   UNL A   1      45.990  26.943  31.269  1.00  0.00     0.031 A 
BRANCH  46  60
ATOM     60  C   UNL A   1      43.185  32.317  32.491  1.00  0.00    -0.014 A 
ATOM     61  C   UNL A   1      42.694  32.545  33.790  1.00  0.00     0.010 A 
ATOM     62  C   UNL A   1      43.786  33.374  31.786  1.00  0.00     0.010 A 
ATOM     63  C   UNL A   1      42.788  33.814  34.365  1.00  0.00     0.020 A 
ATOM     64  C   UNL A   1      43.908  34.636  32.370  1.00  0.00     0.020 A 
ATOM     65  C   UNL A   1      43.400  34.849  33.653  1.00  0.00     0.054 A 
BRANCH  65  66
ATOM     66  S   UNL A   1      43.561  36.469  34.450  1.00  0.00     0.124 S 
ATOM     67  O   UNL A   1      42.275  37.089  34.136  1.00  0.00    -0.237 OA
ATOM     68  O   UNL A   1      43.760  36.114  35.852  1.00  0.00    -0.237 OA
ATOM     69  O   UNL A   1      44.717  37.069  33.790  1.00  0.00    -0.744 OA
ENDBRANCH  65  66
ENDBRANCH  46  60
BRANCH  47  70
ATOM     70  C   UNL A   1      42.354  23.410  27.937  1.00  0.00    -0.014 A 
ATOM     71  C   UNL A   1      41.500  22.395  28.408  1.00  0.00     0.010 A 
ATOM     72  C   UNL A   1      43.155  23.152  26.809  1.00  0.00     0.010 A 
ATOM     73  C   UNL A   1      41.480  21.139  27.790  1.00  0.00     0.020 A 
ATOM     74  C   UNL A   1      43.113  21.911  26.167  1.00  0.00     0.020 A 
ATOM     75  C   UNL A   1      42.287  20.906  26.674  1.00  0.00     0.054 A 
BRANCH  75  76
ATOM     76  S   UNL A   1      42.231  19.275  25.881  1.00  0.00     0.124 S 
ATOM     77  O   UNL A   1      43.027  19.494  24.678  1.00  0.00    -0.237 OA
ATOM     78  O   UNL A   1      42.837  18.415  26.894  1.00  0.00    -0.237 OA
ATOM     79  O   UNL A   1      40.805  19.052  25.657  1.00  0.00    -0.744 OA
ENDBRANCH  75  76
ENDBRANCH  47  70
BRANCH  59  80
ATOM     80  C   UNL A   1      47.357  26.489  31.710  1.00  0.00    -0.014 A 
ATOM     81  C   UNL A   1      47.556  25.854  32.947  1.00  0.00     0.010 A 
ATOM     82  C   UNL A   1      48.448  26.641  30.833  1.00  0.00     0.010 A 
ATOM     83  C   UNL A   1      48.829  25.411  33.315  1.00  0.00     0.020 A 
ATOM     84  C   UNL A   1      49.713  26.167  31.181  1.00  0.00     0.020 A 
ATOM     85  C   UNL A   1      49.899  25.566  32.427  1.00  0.00     0.054 A 
BRANCH  85  86
ATOM     86  S   UNL A   1      51.529  24.937  32.909  1.00  0.00     0.124 S 
ATOM     87  O   UNL A   1      51.412  24.873  34.364  1.00  0.00    -0.237 OA
ATOM     88  O   UNL A   1      51.586  23.647  32.227  1.00  0.00    -0.237 OA
ATOM     89  O   UNL A   1      52.455  25.947  32.402  1.00  0.00    -0.744 OA
ENDBRANCH  85  86
ENDBRANCH  59  80
ENDBRANCH  33  34
ENDBRANCH  26  28
ENDBRANCH  25  26
ENDBRANCH  24  25
ENDBRANCH   1  24
TORSDOF 18
ENDMDL
