MODEL 1
REMARK VINA RESULT:     -10.6      0.000      0.000
REMARK SMILES O=C(C[C@H]1C[C@H]2CC[C@@H](C1)[N@H+]2C[C@@H]1CNC(=O)O1)OCCOCCOC(=O)c1ccc(-c2c3nc(c(-c4ccc(S(=O)(=O)[O-])cc4)c4ccc([nH]4)c(-c4ccc(S(=O)(=O)[O-])cc4)c4nc(c(-c5ccc(S(=O)(=O)[O-])cc5)c5ccc2[nH]5)C=C4)C=C3)cc1
REMARK SMILES IDX 22 1 21 2 20 3 19 4 2 5 1 6 3 7 4 8 5 9 10 10 6 11 9 12 7 13
REMARK SMILES IDX 11 14 8 15 12 17 13 18 14 19 18 20 15 21 16 22 17 24 23 25
REMARK SMILES IDX 24 26 25 27 26 28 27 29 28 30 29 31 87 32 30 33 86 34 31 35
REMARK SMILES IDX 32 36 33 37 80 38 34 39 85 40 79 41 81 42 35 43 84 44 78 45
REMARK SMILES IDX 77 46 36 48 66 49 47 50 65 51 48 52 51 53 64 54 82 55 49 56
REMARK SMILES IDX 50 57 63 59 83 60 52 61 37 62 38 63 46 64 39 65 45 66 40 67
REMARK SMILES IDX 41 68 42 69 43 70 44 71 67 72 68 73 76 74 69 75 75 76 70 77
REMARK SMILES IDX 71 78 72 79 73 80 74 81 53 82 54 83 62 84 55 85 61 86 56 87
REMARK SMILES IDX 57 88 58 89 59 90 60 91
REMARK H PARENT 11 16 15 23 81 47 51 58
REMARK Flexibility Score: inf
ROOT
ATOM      1  O   UNL A   1      36.522  22.809  25.788  1.00  0.00    -0.374 OA
ENDROOT
BRANCH   1   2
ATOM      2  C   UNL A   1      35.196  22.943  26.312  1.00  0.00     0.202 C 
BRANCH   2   3
ATOM      3  C   UNL A   1      34.098  23.054  25.238  1.00  0.00     0.261 C 
BRANCH   3   4
ATOM      4  O   UNL A   1      34.448  23.980  24.201  1.00  0.00    -0.463 OA
BRANCH   4   5
ATOM      5  C   UNL A   1      33.401  24.390  23.443  1.00  0.00     0.306 C 
ATOM      6  O   UNL A   1      32.412  23.701  23.214  1.00  0.00    -0.252 OA
BRANCH   5   7
ATOM      7  C   UNL A   1      33.669  25.711  22.741  1.00  0.00     0.126 C 
BRANCH   7   8
ATOM      8  C   UNL A   1      32.675  26.865  22.966  1.00  0.00     0.012 C 
ATOM      9  C   UNL A   1      31.276  26.676  22.337  1.00  0.00     0.069 C 
ATOM     10  C   UNL A   1      32.674  27.283  24.457  1.00  0.00     0.069 C 
ATOM     11  C   UNL A   1      30.080  27.093  23.176  1.00  0.00     0.184 C 
ATOM     12  C   UNL A   1      31.310  27.685  25.034  1.00  0.00     0.184 C 
ATOM     13  C   UNL A   1      29.786  25.983  24.197  1.00  0.00     0.071 C 
ATOM     14  N   UNL A   1      30.399  28.205  24.036  1.00  0.00    -0.327 N 
ATOM     15  C   UNL A   1      30.538  26.417  25.453  1.00  0.00     0.071 C 
ATOM     16  H   UNL A   1      29.569  28.584  24.491  1.00  0.00     0.348 HD
BRANCH  14  17
ATOM     17  C   UNL A   1      30.381  29.584  23.588  1.00  0.00     0.310 C 
BRANCH  17  18
ATOM     18  C   UNL A   1      29.180  30.399  23.049  1.00  0.00     0.252 C 
ATOM     19  C   UNL A   1      29.090  30.654  21.559  1.00  0.00     0.170 C 
ATOM     20  O   UNL A   1      29.021  31.678  23.683  1.00  0.00    -0.438 OA
ATOM     21  N   UNL A   1      28.792  32.042  21.488  1.00  0.00    -0.318 N 
ATOM     22  C   UNL A   1      28.752  32.611  22.725  1.00  0.00     0.407 C 
ATOM     23  H   UNL A   1      28.633  32.532  20.649  1.00  0.00     0.167 HD
ATOM     24  O   UNL A   1      28.552  33.795  22.946  1.00  0.00    -0.225 OA
ENDBRANCH  17  18
ENDBRANCH  14  17
ENDBRANCH   7   8
ENDBRANCH   5   7
ENDBRANCH   4   5
ENDBRANCH   3   4
ENDBRANCH   2   3
ENDBRANCH   1   2
BRANCH   1  25
ATOM     25  C   UNL A   1      37.375  23.935  25.993  1.00  0.00     0.202 C 
BRANCH  25  26
ATOM     26  C   UNL A   1      38.800  23.500  26.348  1.00  0.00     0.261 C 
BRANCH  26  27
ATOM     27  O   UNL A   1      39.299  24.315  27.414  1.00  0.00    -0.460 OA
BRANCH  27  28
ATOM     28  C   UNL A   1      39.971  25.427  27.011  1.00  0.00     0.338 C 
ATOM     29  O   UNL A   1      40.486  25.619  25.924  1.00  0.00    -0.246 OA
BRANCH  28  30
ATOM     30  C   UNL A   1      39.837  26.471  28.058  1.00  0.00     0.060 A 
ATOM     31  C   UNL A   1      40.422  27.725  27.827  1.00  0.00     0.016 A 
ATOM     32  C   UNL A   1      39.104  26.244  29.229  1.00  0.00     0.016 A 
ATOM     33  C   UNL A   1      40.325  28.732  28.789  1.00  0.00     0.010 A 
ATOM     34  C   UNL A   1      38.993  27.252  30.181  1.00  0.00     0.010 A 
ATOM     35  C   UNL A   1      39.643  28.481  29.986  1.00  0.00    -0.014 A 
BRANCH  35  36
ATOM     36  C   UNL A   1      39.799  29.377  31.151  1.00  0.00     0.031 A 
ATOM     37  C   UNL A   1      40.957  29.114  32.074  1.00  0.00     0.074 A 
ATOM     38  C   UNL A   1      38.910  30.350  31.417  1.00  0.00     0.049 A 
ATOM     39  N   UNL A   1      41.239  29.654  33.229  1.00  0.00    -0.248 NA
ATOM     40  C   UNL A   1      41.915  28.080  31.640  1.00  0.00     0.031 C 
ATOM     41  C   UNL A   1      37.765  30.709  30.582  1.00  0.00     0.029 A 
ATOM     42  N   UNL A   1      38.826  31.199  32.491  1.00  0.00    -0.354 N 
ATOM     43  C   UNL A   1      42.392  29.014  33.667  1.00  0.00     0.074 A 
ATOM     44  C   UNL A   1      42.740  28.024  32.673  1.00  0.00     0.031 C 
ATOM     45  C   UNL A   1      37.081  31.699  31.184  1.00  0.00     0.029 A 
ATOM     46  C   UNL A   1      37.721  32.016  32.461  1.00  0.00     0.049 A 
ATOM     47  H   UNL A   1      39.493  31.222  33.214  1.00  0.00     0.167 HD
ATOM     48  C   UNL A   1      43.103  29.233  34.797  1.00  0.00     0.031 A 
ATOM     49  C   UNL A   1      37.269  32.898  33.374  1.00  0.00     0.031 A 
ATOM     50  C   UNL A   1      42.739  30.207  35.789  1.00  0.00     0.049 A 
ATOM     51  C   UNL A   1      38.047  33.091  34.652  1.00  0.00     0.074 A 
ATOM     52  C   UNL A   1      43.393  30.525  36.964  1.00  0.00     0.029 A 
ATOM     53  N   UNL A   1      41.615  31.016  35.720  1.00  0.00    -0.354 N 
ATOM     54  N   UNL A   1      39.153  32.500  35.043  1.00  0.00    -0.248 NA
ATOM     55  C   UNL A   1      37.519  34.075  35.609  1.00  0.00     0.031 C 
ATOM     56  C   UNL A   1      42.637  31.494  37.631  1.00  0.00     0.029 A 
ATOM     57  C   UNL A   1      41.545  31.821  36.842  1.00  0.00     0.049 A 
ATOM     58  H   UNL A   1      40.965  31.019  34.981  1.00  0.00     0.167 HD
ATOM     59  C   UNL A   1      39.469  33.063  36.275  1.00  0.00     0.074 A 
ATOM     60  C   UNL A   1      38.443  34.046  36.560  1.00  0.00     0.031 C 
ATOM     61  C   UNL A   1      40.514  32.796  37.098  1.00  0.00     0.031 A 
BRANCH  48  62
ATOM     62  C   UNL A   1      44.318  28.376  35.024  1.00  0.00    -0.014 A 
ATOM     63  C   UNL A   1      44.227  27.152  35.713  1.00  0.00     0.010 A 
ATOM     64  C   UNL A   1      45.569  28.798  34.540  1.00  0.00     0.010 A 
ATOM     65  C   UNL A   1      45.372  26.390  35.955  1.00  0.00     0.020 A 
ATOM     66  C   UNL A   1      46.712  28.023  34.754  1.00  0.00     0.020 A 
ATOM     67  C   UNL A   1      46.608  26.833  35.478  1.00  0.00     0.054 A 
BRANCH  67  68
ATOM     68  S   UNL A   1      48.078  25.818  35.795  1.00  0.00     0.124 S 
ATOM     69  O   UNL A   1      47.900  24.726  34.841  1.00  0.00    -0.237 OA
ATOM     70  O   UNL A   1      49.172  26.739  35.500  1.00  0.00    -0.237 OA
ATOM     71  O   UNL A   1      47.943  25.444  37.201  1.00  0.00    -0.744 OA
ENDBRANCH  67  68
ENDBRANCH  48  62
BRANCH  49  72
ATOM     72  C   UNL A   1      36.017  33.661  33.120  1.00  0.00    -0.014 A 
ATOM     73  C   UNL A   1      36.063  34.928  32.510  1.00  0.00     0.010 A 
ATOM     74  C   UNL A   1      34.767  33.123  33.480  1.00  0.00     0.010 A 
ATOM     75  C   UNL A   1      34.887  35.647  32.278  1.00  0.00     0.020 A 
ATOM     76  C   UNL A   1      33.587  33.829  33.226  1.00  0.00     0.020 A 
ATOM     77  C   UNL A   1      33.655  35.091  32.633  1.00  0.00     0.054 A 
BRANCH  77  78
ATOM     78  S   UNL A   1      32.138  36.016  32.264  1.00  0.00     0.124 S 
ATOM     79  O   UNL A   1      31.104  35.024  32.534  1.00  0.00    -0.237 OA
ATOM     80  O   UNL A   1      32.212  37.130  33.207  1.00  0.00    -0.237 OA
ATOM     81  O   UNL A   1      32.300  36.389  30.860  1.00  0.00    -0.744 OA
ENDBRANCH  77  78
ENDBRANCH  49  72
BRANCH  61  82
ATOM     82  C   UNL A   1      40.630  33.605  38.362  1.00  0.00    -0.014 A 
ATOM     83  C   UNL A   1      41.406  34.776  38.412  1.00  0.00     0.010 A 
ATOM     84  C   UNL A   1      39.887  33.223  39.494  1.00  0.00     0.010 A 
ATOM     85  C   UNL A   1      41.459  35.535  39.585  1.00  0.00     0.020 A 
ATOM     86  C   UNL A   1      39.915  33.994  40.658  1.00  0.00     0.020 A 
ATOM     87  C   UNL A   1      40.713  35.139  40.700  1.00  0.00     0.054 A 
BRANCH  87  88
ATOM     88  S   UNL A   1      40.759  36.168  42.193  1.00  0.00     0.124 S 
ATOM     89  O   UNL A   1      39.597  37.032  42.002  1.00  0.00    -0.237 OA
ATOM     90  O   UNL A   1      40.642  35.184  43.265  1.00  0.00    -0.237 OA
ATOM     91  O   UNL A   1      42.054  36.839  42.111  1.00  0.00    -0.744 OA
ENDBRANCH  87  88
ENDBRANCH  61  82
ENDBRANCH  35  36
ENDBRANCH  28  30
ENDBRANCH  27  28
ENDBRANCH  26  27
ENDBRANCH  25  26
ENDBRANCH   1  25
TORSDOF 20
ENDMDL
MODEL 2
REMARK VINA RESULT:     -10.4      4.697      7.388
REMARK SMILES O=C(C[C@H]1C[C@H]2CC[C@@H](C1)[N@H+]2C[C@@H]1CNC(=O)O1)OCCOCCOC(=O)c1ccc(-c2c3nc(c(-c4ccc(S(=O)(=O)[O-])cc4)c4ccc([nH]4)c(-c4ccc(S(=O)(=O)[O-])cc4)c4nc(c(-c5ccc(S(=O)(=O)[O-])cc5)c5ccc2[nH]5)C=C4)C=C3)cc1
REMARK SMILES IDX 22 1 21 2 20 3 19 4 2 5 1 6 3 7 4 8 5 9 10 10 6 11 9 12 7 13
REMARK SMILES IDX 11 14 8 15 12 17 13 18 14 19 18 20 15 21 16 22 17 24 23 25
REMARK SMILES IDX 24 26 25 27 26 28 27 29 28 30 29 31 87 32 30 33 86 34 31 35
REMARK SMILES IDX 32 36 33 37 80 38 34 39 85 40 79 41 81 42 35 43 84 44 78 45
REMARK SMILES IDX 77 46 36 48 66 49 47 50 65 51 48 52 51 53 64 54 82 55 49 56
REMARK SMILES IDX 50 57 63 59 83 60 52 61 37 62 38 63 46 64 39 65 45 66 40 67
REMARK SMILES IDX 41 68 42 69 43 70 44 71 67 72 68 73 76 74 69 75 75 76 70 77
REMARK SMILES IDX 71 78 72 79 73 80 74 81 53 82 54 83 62 84 55 85 61 86 56 87
REMARK SMILES IDX 57 88 58 89 59 90 60 91
REMARK H PARENT 11 16 15 23 81 47 51 58
REMARK Flexibility Score: inf
ROOT
ATOM      1  O   UNL A   1      40.319  21.230  26.076  1.00  0.00    -0.374 OA
ENDROOT
BRANCH   1   2
ATOM      2  C   UNL A   1      41.256  20.433  26.810  1.00  0.00     0.202 C 
BRANCH   2   3
ATOM      3  C   UNL A   1      41.823  19.236  26.022  1.00  0.00     0.261 C 
BRANCH   3   4
ATOM      4  O   UNL A   1      42.710  19.650  24.975  1.00  0.00    -0.463 OA
BRANCH   4   5
ATOM      5  C   UNL A   1      43.935  19.072  25.021  1.00  0.00     0.306 C 
ATOM      6  O   UNL A   1      44.276  18.260  25.877  1.00  0.00    -0.252 OA
BRANCH   5   7
ATOM      7  C   UNL A   1      44.909  19.684  24.028  1.00  0.00     0.126 C 
BRANCH   7   8
ATOM      8  C   UNL A   1      45.371  21.133  24.266  1.00  0.00     0.012 C 
ATOM      9  C   UNL A   1      44.480  22.232  23.642  1.00  0.00     0.069 C 
ATOM     10  C   UNL A   1      45.720  21.341  25.761  1.00  0.00     0.069 C 
ATOM     11  C   UNL A   1      44.205  23.462  24.489  1.00  0.00     0.184 C 
ATOM     12  C   UNL A   1      45.346  22.709  26.347  1.00  0.00     0.184 C 
ATOM     13  C   UNL A   1      43.102  23.123  25.502  1.00  0.00     0.071 C 
ATOM     14  N   UNL A   1      45.317  23.765  25.357  1.00  0.00    -0.327 N 
ATOM     15  C   UNL A   1      43.860  22.700  26.759  1.00  0.00     0.071 C 
ATOM     16  H   UNL A   1      45.203  24.668  25.818  1.00  0.00     0.348 HD
BRANCH  14  17
ATOM     17  C   UNL A   1      46.484  24.506  24.920  1.00  0.00     0.310 C 
BRANCH  17  18
ATOM     18  C   UNL A   1      46.803  26.005  25.140  1.00  0.00     0.252 C 
ATOM     19  C   UNL A   1      45.711  26.907  25.675  1.00  0.00     0.170 C 
ATOM     20  O   UNL A   1      47.324  26.660  23.973  1.00  0.00    -0.438 OA
ATOM     21  N   UNL A   1      45.778  28.037  24.817  1.00  0.00    -0.318 N 
ATOM     22  C   UNL A   1      46.719  27.876  23.845  1.00  0.00     0.407 C 
ATOM     23  H   UNL A   1      45.214  28.839  24.912  1.00  0.00     0.167 HD
ATOM     24  O   UNL A   1      46.956  28.679  22.958  1.00  0.00    -0.225 OA
ENDBRANCH  17  18
ENDBRANCH  14  17
ENDBRANCH   7   8
ENDBRANCH   5   7
ENDBRANCH   4   5
ENDBRANCH   3   4
ENDBRANCH   2   3
ENDBRANCH   1   2
BRANCH   1  25
ATOM     25  C   UNL A   1      39.489  22.078  26.870  1.00  0.00     0.202 C 
BRANCH  25  26
ATOM     26  C   UNL A   1      39.318  23.456  26.225  1.00  0.00     0.261 C 
BRANCH  26  27
ATOM     27  O   UNL A   1      39.372  24.469  27.234  1.00  0.00    -0.460 OA
BRANCH  27  28
ATOM     28  C   UNL A   1      40.090  25.573  26.893  1.00  0.00     0.338 C 
ATOM     29  O   UNL A   1      40.658  25.780  25.835  1.00  0.00    -0.246 OA
BRANCH  28  30
ATOM     30  C   UNL A   1      39.938  26.590  27.962  1.00  0.00     0.060 A 
ATOM     31  C   UNL A   1      40.462  27.873  27.740  1.00  0.00     0.016 A 
ATOM     32  C   UNL A   1      39.246  26.310  29.147  1.00  0.00     0.016 A 
ATOM     33  C   UNL A   1      40.346  28.857  28.724  1.00  0.00     0.010 A 
ATOM     34  C   UNL A   1      39.116  27.295  30.121  1.00  0.00     0.010 A 
ATOM     35  C   UNL A   1      39.707  28.555  29.933  1.00  0.00    -0.014 A 
BRANCH  35  36
ATOM     36  C   UNL A   1      39.854  29.436  31.110  1.00  0.00     0.031 A 
ATOM     37  C   UNL A   1      41.009  29.165  32.035  1.00  0.00     0.074 A 
ATOM     38  C   UNL A   1      38.960  30.401  31.386  1.00  0.00     0.049 A 
ATOM     39  N   UNL A   1      41.283  29.690  33.198  1.00  0.00    -0.248 NA
ATOM     40  C   UNL A   1      41.973  28.141  31.591  1.00  0.00     0.031 C 
ATOM     41  C   UNL A   1      37.817  30.767  30.550  1.00  0.00     0.029 A 
ATOM     42  N   UNL A   1      38.867  31.236  32.470  1.00  0.00    -0.354 N 
ATOM     43  C   UNL A   1      42.437  29.049  33.633  1.00  0.00     0.074 A 
ATOM     44  C   UNL A   1      42.793  28.074  32.628  1.00  0.00     0.031 C 
ATOM     45  C   UNL A   1      37.127  31.746  31.162  1.00  0.00     0.029 A 
ATOM     46  C   UNL A   1      37.759  32.048  32.446  1.00  0.00     0.049 A 
ATOM     47  H   UNL A   1      39.531  31.251  33.196  1.00  0.00     0.167 HD
ATOM     48  C   UNL A   1      43.141  29.256  34.769  1.00  0.00     0.031 A 
ATOM     49  C   UNL A   1      37.300  32.916  33.369  1.00  0.00     0.031 A 
ATOM     50  C   UNL A   1      42.770  30.215  35.772  1.00  0.00     0.049 A 
ATOM     51  C   UNL A   1      38.071  33.095  34.653  1.00  0.00     0.074 A 
ATOM     52  C   UNL A   1      43.417  30.520  36.954  1.00  0.00     0.029 A 
ATOM     53  N   UNL A   1      41.643  31.021  35.709  1.00  0.00    -0.354 N 
ATOM     54  N   UNL A   1      39.177  32.504  35.041  1.00  0.00    -0.248 NA
ATOM     55  C   UNL A   1      37.535  34.064  35.620  1.00  0.00     0.031 C 
ATOM     56  C   UNL A   1      42.654  31.477  37.632  1.00  0.00     0.029 A 
ATOM     57  C   UNL A   1      41.564  31.811  36.841  1.00  0.00     0.049 A 
ATOM     58  H   UNL A   1      40.995  31.031  34.968  1.00  0.00     0.167 HD
ATOM     59  C   UNL A   1      39.485  33.051  36.282  1.00  0.00     0.074 A 
ATOM     60  C   UNL A   1      38.454  34.026  36.575  1.00  0.00     0.031 C 
ATOM     61  C   UNL A   1      40.528  32.777  37.106  1.00  0.00     0.031 A 
BRANCH  48  62
ATOM     62  C   UNL A   1      44.359  28.401  34.990  1.00  0.00    -0.014 A 
ATOM     63  C   UNL A   1      45.627  28.806  34.534  1.00  0.00     0.010 A 
ATOM     64  C   UNL A   1      44.234  27.173  35.666  1.00  0.00     0.010 A 
ATOM     65  C   UNL A   1      46.739  27.979  34.708  1.00  0.00     0.020 A 
ATOM     66  C   UNL A   1      45.351  26.357  35.868  1.00  0.00     0.020 A 
ATOM     67  C   UNL A   1      46.592  26.757  35.369  1.00  0.00     0.054 A 
BRANCH  67  68
ATOM     68  S   UNL A   1      48.055  25.708  35.591  1.00  0.00     0.124 S 
ATOM     69  O   UNL A   1      49.051  26.407  34.783  1.00  0.00    -0.237 OA
ATOM     70  O   UNL A   1      48.269  25.758  37.035  1.00  0.00    -0.237 OA
ATOM     71  O   UNL A   1      47.633  24.410  35.071  1.00  0.00    -0.744 OA
ENDBRANCH  67  68
ENDBRANCH  48  62
BRANCH  49  72
ATOM     72  C   UNL A   1      36.045  33.678  33.119  1.00  0.00    -0.014 A 
ATOM     73  C   UNL A   1      36.088  34.946  32.512  1.00  0.00     0.010 A 
ATOM     74  C   UNL A   1      34.798  33.137  33.481  1.00  0.00     0.010 A 
ATOM     75  C   UNL A   1      34.910  35.663  32.284  1.00  0.00     0.020 A 
ATOM     76  C   UNL A   1      33.615  33.841  33.231  1.00  0.00     0.020 A 
ATOM     77  C   UNL A   1      33.680  35.105  32.641  1.00  0.00     0.054 A 
BRANCH  77  78
ATOM     78  S   UNL A   1      32.161  36.028  32.277  1.00  0.00     0.124 S 
ATOM     79  O   UNL A   1      32.372  36.426  30.890  1.00  0.00    -0.237 OA
ATOM     80  O   UNL A   1      31.123  35.022  32.498  1.00  0.00    -0.237 OA
ATOM     81  O   UNL A   1      32.179  37.115  33.253  1.00  0.00    -0.744 OA
ENDBRANCH  77  78
ENDBRANCH  49  72
BRANCH  61  82
ATOM     82  C   UNL A   1      40.635  33.570  38.381  1.00  0.00    -0.014 A 
ATOM     83  C   UNL A   1      41.307  34.804  38.421  1.00  0.00     0.010 A 
ATOM     84  C   UNL A   1      39.985  33.102  39.539  1.00  0.00     0.010 A 
ATOM     85  C   UNL A   1      41.351  35.543  39.607  1.00  0.00     0.020 A 
ATOM     86  C   UNL A   1      40.003  33.851  40.717  1.00  0.00     0.020 A 
ATOM     87  C   UNL A   1      40.699  35.062  40.747  1.00  0.00     0.054 A 
BRANCH  87  88
ATOM     88  S   UNL A   1      40.728  36.063  42.259  1.00  0.00     0.124 S 
ATOM     89  O   UNL A   1      39.464  36.789  42.167  1.00  0.00    -0.237 OA
ATOM     90  O   UNL A   1      40.799  35.053  43.312  1.00  0.00    -0.237 OA
ATOM     91  O   UNL A   1      41.929  36.881  42.109  1.00  0.00    -0.744 OA
ENDBRANCH  87  88
ENDBRANCH  61  82
ENDBRANCH  35  36
ENDBRANCH  28  30
ENDBRANCH  27  28
ENDBRANCH  26  27
ENDBRANCH  25  26
ENDBRANCH   1  25
TORSDOF 20
ENDMDL
MODEL 3
REMARK VINA RESULT:     -10.4      4.978     10.950
REMARK SMILES O=C(C[C@H]1C[C@H]2CC[C@@H](C1)[N@H+]2C[C@@H]1CNC(=O)O1)OCCOCCOC(=O)c1ccc(-c2c3nc(c(-c4ccc(S(=O)(=O)[O-])cc4)c4ccc([nH]4)c(-c4ccc(S(=O)(=O)[O-])cc4)c4nc(c(-c5ccc(S(=O)(=O)[O-])cc5)c5ccc2[nH]5)C=C4)C=C3)cc1
REMARK SMILES IDX 22 1 21 2 20 3 19 4 2 5 1 6 3 7 4 8 5 9 10 10 6 11 9 12 7 13
REMARK SMILES IDX 11 14 8 15 12 17 13 18 14 19 18 20 15 21 16 22 17 24 23 25
REMARK SMILES IDX 24 26 25 27 26 28 27 29 28 30 29 31 87 32 30 33 86 34 31 35
REMARK SMILES IDX 32 36 33 37 80 38 34 39 85 40 79 41 81 42 35 43 84 44 78 45
REMARK SMILES IDX 77 46 36 48 66 49 47 50 65 51 48 52 51 53 64 54 82 55 49 56
REMARK SMILES IDX 50 57 63 59 83 60 52 61 37 62 38 63 46 64 39 65 45 66 40 67
REMARK SMILES IDX 41 68 42 69 43 70 44 71 67 72 68 73 76 74 69 75 75 76 70 77
REMARK SMILES IDX 71 78 72 79 73 80 74 81 53 82 54 83 62 84 55 85 61 86 56 87
REMARK SMILES IDX 57 88 58 89 59 90 60 91
REMARK H PARENT 11 16 15 23 81 47 51 58
REMARK Flexibility Score: inf
ROOT
ATOM      1  O   UNL A   1      31.283  28.186  25.014  1.00  0.00    -0.374 OA
ENDROOT
BRANCH   1   2
ATOM      2  C   UNL A   1      31.319  27.650  23.686  1.00  0.00     0.202 C 
BRANCH   2   3
ATOM      3  C   UNL A   1      32.729  27.275  23.192  1.00  0.00     0.261 C 
BRANCH   3   4
ATOM      4  O   UNL A   1      32.905  25.857  23.086  1.00  0.00    -0.463 OA
BRANCH   4   5
ATOM      5  C   UNL A   1      33.787  25.336  23.974  1.00  0.00     0.306 C 
ATOM      6  O   UNL A   1      34.133  25.904  25.005  1.00  0.00    -0.252 OA
BRANCH   5   7
ATOM      7  C   UNL A   1      34.455  24.072  23.462  1.00  0.00     0.126 C 
BRANCH   7   8
ATOM      8  C   UNL A   1      34.077  22.733  24.123  1.00  0.00     0.012 C 
ATOM      9  C   UNL A   1      34.939  22.320  25.338  1.00  0.00     0.069 C 
ATOM     10  C   UNL A   1      32.547  22.667  24.350  1.00  0.00     0.069 C 
ATOM     11  C   UNL A   1      34.210  21.727  26.532  1.00  0.00     0.184 C 
ATOM     12  C   UNL A   1      32.096  21.977  25.645  1.00  0.00     0.184 C 
ATOM     13  C   UNL A   1      33.589  22.873  27.345  1.00  0.00     0.071 C 
ATOM     14  N   UNL A   1      33.040  20.989  26.124  1.00  0.00    -0.327 N 
ATOM     15  C   UNL A   1      32.162  22.985  26.811  1.00  0.00     0.071 C 
ATOM     16  H   UNL A   1      32.631  20.468  26.899  1.00  0.00     0.348 HD
BRANCH  14  17
ATOM     17  C   UNL A   1      33.091  19.617  25.659  1.00  0.00     0.310 C 
BRANCH  17  18
ATOM     18  C   UNL A   1      33.391  19.101  24.230  1.00  0.00     0.252 C 
ATOM     19  C   UNL A   1      32.226  18.812  23.306  1.00  0.00     0.170 C 
ATOM     20  O   UNL A   1      34.221  17.930  24.204  1.00  0.00    -0.438 OA
ATOM     21  N   UNL A   1      32.553  17.539  22.765  1.00  0.00    -0.318 N 
ATOM     22  C   UNL A   1      33.710  17.051  23.293  1.00  0.00     0.407 C 
ATOM     23  H   UNL A   1      32.011  17.068  22.092  1.00  0.00     0.167 HD
ATOM     24  O   UNL A   1      34.197  15.964  23.028  1.00  0.00    -0.225 OA
ENDBRANCH  17  18
ENDBRANCH  14  17
ENDBRANCH   7   8
ENDBRANCH   5   7
ENDBRANCH   4   5
ENDBRANCH   3   4
ENDBRANCH   2   3
ENDBRANCH   1   2
BRANCH   1  25
ATOM     25  C   UNL A   1      32.491  28.809  25.452  1.00  0.00     0.202 C 
BRANCH  25  26
ATOM     26  C   UNL A   1      32.662  28.694  26.969  1.00  0.00     0.261 C 
BRANCH  26  27
ATOM     27  O   UNL A   1      34.053  28.738  27.300  1.00  0.00    -0.460 OA
BRANCH  27  28
ATOM     28  C   UNL A   1      34.493  29.946  27.743  1.00  0.00     0.338 C 
ATOM     29  O   UNL A   1      33.836  30.964  27.871  1.00  0.00    -0.246 OA
BRANCH  28  30
ATOM     30  C   UNL A   1      35.891  29.800  28.220  1.00  0.00     0.060 A 
ATOM     31  C   UNL A   1      36.933  29.996  27.302  1.00  0.00     0.016 A 
ATOM     32  C   UNL A   1      36.181  29.526  29.562  1.00  0.00     0.016 A 
ATOM     33  C   UNL A   1      38.261  29.861  27.709  1.00  0.00     0.010 A 
ATOM     34  C   UNL A   1      37.505  29.407  29.973  1.00  0.00     0.010 A 
ATOM     35  C   UNL A   1      38.547  29.527  29.038  1.00  0.00    -0.014 A 
BRANCH  35  36
ATOM     36  C   UNL A   1      39.889  29.050  29.430  1.00  0.00     0.031 A 
ATOM     37  C   UNL A   1      40.790  30.028  30.136  1.00  0.00     0.074 A 
ATOM     38  C   UNL A   1      40.320  27.817  29.116  1.00  0.00     0.049 A 
ATOM     39  N   UNL A   1      42.049  29.913  30.459  1.00  0.00    -0.248 NA
ATOM     40  C   UNL A   1      40.185  31.322  30.505  1.00  0.00     0.031 C 
ATOM     41  C   UNL A   1      39.528  26.781  28.456  1.00  0.00     0.029 A 
ATOM     42  N   UNL A   1      41.551  27.239  29.295  1.00  0.00    -0.354 N 
ATOM     43  C   UNL A   1      42.393  31.123  31.051  1.00  0.00     0.074 A 
ATOM     44  C   UNL A   1      41.222  31.969  31.013  1.00  0.00     0.031 C 
ATOM     45  C   UNL A   1      40.300  25.695  28.271  1.00  0.00     0.029 A 
ATOM     46  C   UNL A   1      41.647  25.974  28.767  1.00  0.00     0.049 A 
ATOM     47  H   UNL A   1      42.295  27.688  29.758  1.00  0.00     0.167 HD
ATOM     48  C   UNL A   1      43.580  31.497  31.583  1.00  0.00     0.031 A 
ATOM     49  C   UNL A   1      42.710  25.150  28.676  1.00  0.00     0.031 A 
ATOM     50  C   UNL A   1      44.744  30.656  31.600  1.00  0.00     0.049 A 
ATOM     51  C   UNL A   1      44.038  25.606  29.228  1.00  0.00     0.074 A 
ATOM     52  C   UNL A   1      45.993  30.924  32.125  1.00  0.00     0.029 A 
ATOM     53  N   UNL A   1      44.799  29.380  31.058  1.00  0.00    -0.354 N 
ATOM     54  N   UNL A   1      44.344  26.741  29.811  1.00  0.00    -0.248 NA
ATOM     55  C   UNL A   1      45.162  24.664  29.116  1.00  0.00     0.031 C 
ATOM     56  C   UNL A   1      46.820  29.829  31.857  1.00  0.00     0.029 A 
ATOM     57  C   UNL A   1      46.068  28.855  31.219  1.00  0.00     0.049 A 
ATOM     58  H   UNL A   1      44.047  28.917  30.624  1.00  0.00     0.167 HD
ATOM     59  C   UNL A   1      45.686  26.639  30.162  1.00  0.00     0.074 A 
ATOM     60  C   UNL A   1      46.130  25.327  29.734  1.00  0.00     0.031 C 
ATOM     61  C   UNL A   1      46.482  27.543  30.787  1.00  0.00     0.031 A 
BRANCH  48  62
ATOM     62  C   UNL A   1      43.672  32.886  32.152  1.00  0.00    -0.014 A 
ATOM     63  C   UNL A   1      44.029  33.982  31.345  1.00  0.00     0.010 A 
ATOM     64  C   UNL A   1      43.397  33.100  33.515  1.00  0.00     0.010 A 
ATOM     65  C   UNL A   1      44.154  35.258  31.899  1.00  0.00     0.020 A 
ATOM     66  C   UNL A   1      43.492  34.381  34.067  1.00  0.00     0.020 A 
ATOM     67  C   UNL A   1      43.889  35.448  33.258  1.00  0.00     0.054 A 
BRANCH  67  68
ATOM     68  S   UNL A   1      44.048  37.117  33.950  1.00  0.00     0.124 S 
ATOM     69  O   UNL A   1      42.677  37.612  33.857  1.00  0.00    -0.237 OA
ATOM     70  O   UNL A   1      44.532  36.858  35.303  1.00  0.00    -0.237 OA
ATOM     71  O   UNL A   1      45.007  37.770  33.062  1.00  0.00    -0.744 OA
ENDBRANCH  67  68
ENDBRANCH  48  62
BRANCH  49  72
ATOM     72  C   UNL A   1      42.568  23.816  28.031  1.00  0.00    -0.014 A 
ATOM     73  C   UNL A   1      42.823  23.656  26.657  1.00  0.00     0.010 A 
ATOM     74  C   UNL A   1      42.181  22.695  28.788  1.00  0.00     0.010 A 
ATOM     75  C   UNL A   1      42.682  22.404  26.051  1.00  0.00     0.020 A 
ATOM     76  C   UNL A   1      42.064  21.436  28.190  1.00  0.00     0.020 A 
ATOM     77  C   UNL A   1      42.307  21.300  26.822  1.00  0.00     0.054 A 
BRANCH  77  78
ATOM     78  S   UNL A   1      42.193  19.674  26.025  1.00  0.00     0.124 S 
ATOM     79  O   UNL A   1      43.101  19.826  24.893  1.00  0.00    -0.237 OA
ATOM     80  O   UNL A   1      42.645  18.774  27.085  1.00  0.00    -0.237 OA
ATOM     81  O   UNL A   1      40.777  19.559  25.684  1.00  0.00    -0.744 OA
ENDBRANCH  77  78
ENDBRANCH  49  72
BRANCH  61  82
ATOM     82  C   UNL A   1      47.899  27.135  31.085  1.00  0.00    -0.014 A 
ATOM     83  C   UNL A   1      48.225  26.425  32.254  1.00  0.00     0.010 A 
ATOM     84  C   UNL A   1      48.907  27.404  30.140  1.00  0.00     0.010 A 
ATOM     85  C   UNL A   1      49.542  26.016  32.485  1.00  0.00     0.020 A 
ATOM     86  C   UNL A   1      50.217  26.972  30.354  1.00  0.00     0.020 A 
ATOM     87  C   UNL A   1      50.529  26.292  31.533  1.00  0.00     0.054 A 
BRANCH  87  88
ATOM     88  S   UNL A   1      52.220  25.707  31.832  1.00  0.00     0.124 S 
ATOM     89  O   UNL A   1      52.874  26.009  30.562  1.00  0.00    -0.237 OA
ATOM     90  O   UNL A   1      52.645  26.522  32.968  1.00  0.00    -0.237 OA
ATOM     91  O   UNL A   1      52.049  24.286  32.123  1.00  0.00    -0.744 OA
ENDBRANCH  87  88
ENDBRANCH  61  82
ENDBRANCH  35  36
ENDBRANCH  28  30
ENDBRANCH  27  28
ENDBRANCH  26  27
ENDBRANCH  25  26
ENDBRANCH   1  25
TORSDOF 20
ENDMDL
