MODEL 1
REMARK VINA RESULT:     -11.6      0.000      0.000
REMARK SMILES Cc1c(C(=O)Nc2ccc(C(=O)Nc3ccccc3C(=O)OCCOCCOC(=O)c3ccc(-c4c5nc(c(-c6ccc(S(=O)(=O)[O-])cc6)c6ccc([nH]6)c(-c6ccc(S(=O)(=O)[O-])cc6)c6nc(c(-c7ccc(S(=O)(=O)[O-])cc7)c7ccc4[nH]7)C=C6)C=C5)cc3)cc2)cccc1[N+](=O)[O-]
REMARK SMILES IDX 24 1 23 2 22 3 20 4 21 5 19 6 14 7 15 8 16 9 18 10 17 11
REMARK SMILES IDX 13 12 11 13 12 14 10 16 7 17 8 18 92 19 9 20 91 21 6 22 4 23
REMARK SMILES IDX 5 24 3 26 1 27 2 28 96 29 93 30 95 31 94 32 97 33 98 34
REMARK SMILES IDX 99 35 25 36 26 37 27 38 28 39 29 40 30 41 31 42 32 43 90 44
REMARK SMILES IDX 33 45 89 46 34 47 35 48 36 49 83 50 37 51 88 52 82 53 84 54
REMARK SMILES IDX 38 55 87 56 81 57 80 58 39 60 69 61 50 62 68 63 51 64 54 65
REMARK SMILES IDX 67 66 85 67 52 68 53 69 66 71 86 72 55 73 40 74 41 75 49 76
REMARK SMILES IDX 42 77 48 78 43 79 44 80 45 81 46 82 47 83 70 84 71 85 79 86
REMARK SMILES IDX 72 87 78 88 73 89 74 90 75 91 76 92 77 93 56 94 57 95 65 96
REMARK SMILES IDX 58 97 64 98 59 99 60 100 61 101 62 102 63 103
REMARK H PARENT 13 15 6 25 84 59 54 70
REMARK Flexibility Score: inf
ROOT
ATOM      1  C   UNL A   1      36.799  23.352  24.780  1.00  0.00     0.202 C 
ENDROOT
BRANCH   1   2
ATOM      2  C   UNL A   1      35.291  23.508  24.621  1.00  0.00     0.261 C 
BRANCH   2   3
ATOM      3  O   UNL A   1      34.682  24.808  24.467  1.00  0.00    -0.460 OA
BRANCH   3   4
ATOM      4  C   UNL A   1      33.559  25.271  25.082  1.00  0.00     0.340 C 
ATOM      5  O   UNL A   1      33.065  24.979  26.126  1.00  0.00    -0.246 OA
BRANCH   4   6
ATOM      6  C   UNL A   1      33.152  26.443  24.249  1.00  0.00     0.083 A 
ATOM      7  C   UNL A   1      32.344  27.473  24.766  1.00  0.00     0.056 A 
ATOM      8  C   UNL A   1      32.119  28.620  23.991  1.00  0.00     0.027 A 
ATOM      9  C   UNL A   1      32.750  28.786  22.757  1.00  0.00     0.002 A 
ATOM     10  C   UNL A   1      33.710  26.586  22.962  1.00  0.00     0.018 A 
ATOM     11  C   UNL A   1      33.536  27.764  22.236  1.00  0.00     0.001 A 
BRANCH   7  12
ATOM     12  N   UNL A   1      31.785  27.522  26.050  1.00  0.00    -0.321 N 
ATOM     13  C   UNL A   1      32.112  28.256  27.170  1.00  0.00     0.255 C 
ATOM     14  O   UNL A   1      31.369  28.151  28.150  1.00  0.00    -0.269 OA
ATOM     15  H   UNL A   1      31.015  26.921  26.175  1.00  0.00     0.170 HD
BRANCH  13  16
ATOM     16  C   UNL A   1      33.258  29.213  27.265  1.00  0.00     0.040 A 
ATOM     17  C   UNL A   1      35.257  31.148  27.748  1.00  0.00     0.041 A 
ATOM     18  C   UNL A   1      35.566  29.792  27.729  1.00  0.00     0.027 A 
ATOM     19  C   UNL A   1      33.943  31.545  27.520  1.00  0.00     0.027 A 
ATOM     20  C   UNL A   1      34.595  28.851  27.392  1.00  0.00     0.016 A 
ATOM     21  C   UNL A   1      32.953  30.585  27.273  1.00  0.00     0.016 A 
BRANCH  17  22
ATOM     22  N   UNL A   1      36.245  32.136  27.881  1.00  0.00    -0.322 N 
ATOM     23  C   UNL A   1      36.428  33.021  28.931  1.00  0.00     0.256 C 
ATOM     24  O   UNL A   1      37.309  33.876  28.896  1.00  0.00    -0.269 OA
ATOM     25  H   UNL A   1      36.886  32.209  27.137  1.00  0.00     0.170 HD
BRANCH  23  26
ATOM     26  C   UNL A   1      35.585  32.910  30.162  1.00  0.00     0.049 A 
ATOM     27  C   UNL A   1      33.958  34.734  29.461  1.00  0.00     0.053 C 
ATOM     28  C   UNL A   1      34.585  33.853  30.512  1.00  0.00     0.039 A 
ATOM     29  C   UNL A   1      34.227  33.919  31.876  1.00  0.00     0.273 A 
ATOM     30  C   UNL A   1      35.938  31.879  31.047  1.00  0.00     0.014 A 
ATOM     31  C   UNL A   1      34.602  32.895  32.765  1.00  0.00     0.086 A 
ATOM     32  C   UNL A   1      35.401  31.841  32.329  1.00  0.00     0.008 A 
BRANCH  29  33
ATOM     33  N   UNL A   1      33.605  35.124  32.471  1.00  0.00     0.063 N 
ATOM     34  O   UNL A   1      32.373  35.236  32.363  1.00  0.00    -0.258 OA
ATOM     35  O   UNL A   1      34.318  35.946  33.057  1.00  0.00    -0.258 OA
ENDBRANCH  29  33
ENDBRANCH  23  26
ENDBRANCH  17  22
ENDBRANCH  13  16
ENDBRANCH   7  12
ENDBRANCH   4   6
ENDBRANCH   3   4
ENDBRANCH   2   3
ENDBRANCH   1   2
BRANCH   1  36
ATOM     36  O   UNL A   1      37.217  22.004  24.803  1.00  0.00    -0.374 OA
BRANCH  36  37
ATOM     37  C   UNL A   1      38.365  21.764  25.589  1.00  0.00     0.202 C 
BRANCH  37  38
ATOM     38  C   UNL A   1      38.933  22.948  26.389  1.00  0.00     0.261 C 
BRANCH  38  39
ATOM     39  O   UNL A   1      40.358  23.168  26.598  1.00  0.00    -0.460 OA
BRANCH  39  40
ATOM     40  C   UNL A   1      41.162  24.221  26.309  1.00  0.00     0.338 C 
ATOM     41  O   UNL A   1      42.144  24.123  25.586  1.00  0.00    -0.246 OA
BRANCH  40  42
ATOM     42  C   UNL A   1      40.800  25.502  26.907  1.00  0.00     0.060 A 
ATOM     43  C   UNL A   1      41.153  26.699  26.282  1.00  0.00     0.016 A 
ATOM     44  C   UNL A   1      40.301  25.488  28.193  1.00  0.00     0.016 A 
ATOM     45  C   UNL A   1      41.288  27.850  27.064  1.00  0.00     0.010 A 
ATOM     46  C   UNL A   1      40.490  26.623  28.959  1.00  0.00     0.010 A 
ATOM     47  C   UNL A   1      41.139  27.763  28.451  1.00  0.00    -0.014 A 
BRANCH  47  48
ATOM     48  C   UNL A   1      41.809  28.695  29.398  1.00  0.00     0.031 A 
ATOM     49  C   UNL A   1      40.996  29.530  30.302  1.00  0.00     0.074 A 
ATOM     50  C   UNL A   1      43.146  28.862  29.521  1.00  0.00     0.049 A 
ATOM     51  N   UNL A   1      40.868  30.820  30.203  1.00  0.00    -0.248 NA
ATOM     52  C   UNL A   1      40.135  28.914  31.317  1.00  0.00     0.031 C 
ATOM     53  C   UNL A   1      43.841  29.642  30.546  1.00  0.00     0.029 A 
ATOM     54  N   UNL A   1      44.183  28.394  28.736  1.00  0.00    -0.354 N 
ATOM     55  C   UNL A   1      40.082  31.150  31.288  1.00  0.00     0.074 A 
ATOM     56  C   UNL A   1      39.334  29.949  31.551  1.00  0.00     0.031 C 
ATOM     57  C   UNL A   1      45.138  29.752  30.207  1.00  0.00     0.029 A 
ATOM     58  C   UNL A   1      45.306  29.197  28.872  1.00  0.00     0.049 A 
ATOM     59  H   UNL A   1      44.131  27.598  28.158  1.00  0.00     0.167 HD
ATOM     60  C   UNL A   1      40.446  32.105  32.202  1.00  0.00     0.031 A 
ATOM     61  C   UNL A   1      45.948  29.811  27.833  1.00  0.00     0.031 A 
ATOM     62  C   UNL A   1      41.764  32.683  31.900  1.00  0.00     0.049 A 
ATOM     63  C   UNL A   1      45.725  31.314  27.891  1.00  0.00     0.074 A 
ATOM     64  C   UNL A   1      42.979  32.638  32.567  1.00  0.00     0.029 A 
ATOM     65  N   UNL A   1      42.043  33.190  30.635  1.00  0.00    -0.354 N 
ATOM     66  N   UNL A   1      45.009  31.888  28.818  1.00  0.00    -0.248 NA
ATOM     67  C   UNL A   1      46.224  32.287  26.920  1.00  0.00     0.031 C 
ATOM     68  C   UNL A   1      43.998  33.062  31.669  1.00  0.00     0.029 A 
ATOM     69  C   UNL A   1      43.402  33.403  30.468  1.00  0.00     0.049 A 
ATOM     70  H   UNL A   1      41.363  33.376  29.947  1.00  0.00     0.167 HD
ATOM     71  C   UNL A   1      44.804  33.199  28.517  1.00  0.00     0.074 A 
ATOM     72  C   UNL A   1      45.645  33.424  27.355  1.00  0.00     0.031 C 
ATOM     73  C   UNL A   1      43.905  33.955  29.213  1.00  0.00     0.031 A 
BRANCH  60  74
ATOM     74  C   UNL A   1      39.757  32.262  33.566  1.00  0.00    -0.014 A 
ATOM     75  C   UNL A   1      38.464  32.812  33.663  1.00  0.00     0.010 A 
ATOM     76  C   UNL A   1      40.315  31.859  34.800  1.00  0.00     0.010 A 
ATOM     77  C   UNL A   1      37.806  32.974  34.903  1.00  0.00     0.020 A 
ATOM     78  C   UNL A   1      39.701  32.049  36.042  1.00  0.00     0.020 A 
ATOM     79  C   UNL A   1      38.435  32.594  36.088  1.00  0.00     0.054 A 
BRANCH  79  80
ATOM     80  S   UNL A   1      37.583  32.735  37.678  1.00  0.00     0.124 S 
ATOM     81  O   UNL A   1      37.433  31.338  38.079  1.00  0.00    -0.237 OA
ATOM     82  O   UNL A   1      38.523  33.526  38.467  1.00  0.00    -0.237 OA
ATOM     83  O   UNL A   1      36.332  33.416  37.346  1.00  0.00    -0.744 OA
ENDBRANCH  79  80
ENDBRANCH  60  74
BRANCH  61  84
ATOM     84  C   UNL A   1      46.101  28.976  26.606  1.00  0.00    -0.014 A 
ATOM     85  C   UNL A   1      47.390  28.465  26.335  1.00  0.00     0.010 A 
ATOM     86  C   UNL A   1      44.991  28.334  26.031  1.00  0.00     0.010 A 
ATOM     87  C   UNL A   1      47.551  27.234  25.683  1.00  0.00     0.020 A 
ATOM     88  C   UNL A   1      45.147  27.086  25.402  1.00  0.00     0.020 A 
ATOM     89  C   UNL A   1      46.420  26.517  25.289  1.00  0.00     0.054 A 
BRANCH  89  90
ATOM     90  S   UNL A   1      46.598  24.731  24.951  1.00  0.00     0.124 S 
ATOM     91  O   UNL A   1      45.229  24.330  24.655  1.00  0.00    -0.237 OA
ATOM     92  O   UNL A   1      47.519  24.715  23.814  1.00  0.00    -0.237 OA
ATOM     93  O   UNL A   1      47.165  24.221  26.195  1.00  0.00    -0.744 OA
ENDBRANCH  89  90
ENDBRANCH  61  84
BRANCH  73  94
ATOM     94  C   UNL A   1      43.421  35.312  28.786  1.00  0.00    -0.014 A 
ATOM     95  C   UNL A   1      43.809  36.507  29.411  1.00  0.00     0.010 A 
ATOM     96  C   UNL A   1      42.649  35.417  27.606  1.00  0.00     0.010 A 
ATOM     97  C   UNL A   1      43.379  37.747  28.926  1.00  0.00     0.020 A 
ATOM     98  C   UNL A   1      42.257  36.651  27.084  1.00  0.00     0.020 A 
ATOM     99  C   UNL A   1      42.596  37.810  27.772  1.00  0.00     0.054 A 
BRANCH  99 100
ATOM    100  S   UNL A   1      42.053  39.419  27.152  1.00  0.00     0.124 S 
ATOM    101  O   UNL A   1      41.063  39.031  26.151  1.00  0.00    -0.237 OA
ATOM    102  O   UNL A   1      41.514  40.066  28.347  1.00  0.00    -0.237 OA
ATOM    103  O   UNL A   1      43.277  40.017  26.626  1.00  0.00    -0.744 OA
ENDBRANCH  99 100
ENDBRANCH  73  94
ENDBRANCH  47  48
ENDBRANCH  40  42
ENDBRANCH  39  40
ENDBRANCH  38  39
ENDBRANCH  37  38
ENDBRANCH  36  37
ENDBRANCH   1  36
TORSDOF 22
ENDMDL
MODEL 2
REMARK VINA RESULT:     -11.0      3.647     10.581
REMARK SMILES Cc1c(C(=O)Nc2ccc(C(=O)Nc3ccccc3C(=O)OCCOCCOC(=O)c3ccc(-c4c5nc(c(-c6ccc(S(=O)(=O)[O-])cc6)c6ccc([nH]6)c(-c6ccc(S(=O)(=O)[O-])cc6)c6nc(c(-c7ccc(S(=O)(=O)[O-])cc7)c7ccc4[nH]7)C=C6)C=C5)cc3)cc2)cccc1[N+](=O)[O-]
REMARK SMILES IDX 24 1 23 2 22 3 20 4 21 5 19 6 14 7 15 8 16 9 18 10 17 11
REMARK SMILES IDX 13 12 11 13 12 14 10 16 7 17 8 18 92 19 9 20 91 21 6 22 4 23
REMARK SMILES IDX 5 24 3 26 1 27 2 28 96 29 93 30 95 31 94 32 97 33 98 34
REMARK SMILES IDX 99 35 25 36 26 37 27 38 28 39 29 40 30 41 31 42 32 43 90 44
REMARK SMILES IDX 33 45 89 46 34 47 35 48 36 49 83 50 37 51 88 52 82 53 84 54
REMARK SMILES IDX 38 55 87 56 81 57 80 58 39 60 69 61 50 62 68 63 51 64 54 65
REMARK SMILES IDX 67 66 85 67 52 68 53 69 66 71 86 72 55 73 40 74 41 75 49 76
REMARK SMILES IDX 42 77 48 78 43 79 44 80 45 81 46 82 47 83 70 84 71 85 79 86
REMARK SMILES IDX 72 87 78 88 73 89 74 90 75 91 76 92 77 93 56 94 57 95 65 96
REMARK SMILES IDX 58 97 64 98 59 99 60 100 61 101 62 102 63 103
REMARK H PARENT 13 15 6 25 84 59 54 70
REMARK Flexibility Score: inf
ROOT
ATOM      1  C   UNL A   1      34.762  34.533  28.970  1.00  0.00     0.202 C 
ENDROOT
BRANCH   1   2
ATOM      2  C   UNL A   1      33.412  34.026  28.474  1.00  0.00     0.261 C 
BRANCH   2   3
ATOM      3  O   UNL A   1      33.303  32.812  27.702  1.00  0.00    -0.460 OA
BRANCH   3   4
ATOM      4  C   UNL A   1      32.203  32.345  27.047  1.00  0.00     0.340 C 
ATOM      5  O   UNL A   1      31.279  32.924  26.566  1.00  0.00    -0.246 OA
BRANCH   4   6
ATOM      6  C   UNL A   1      32.497  30.895  26.842  1.00  0.00     0.083 A 
ATOM      7  C   UNL A   1      31.808  30.130  25.883  1.00  0.00     0.056 A 
ATOM      8  C   UNL A   1      32.226  28.815  25.626  1.00  0.00     0.027 A 
ATOM      9  C   UNL A   1      33.361  28.292  26.247  1.00  0.00     0.002 A 
ATOM     10  C   UNL A   1      33.587  30.320  27.527  1.00  0.00     0.018 A 
ATOM     11  C   UNL A   1      34.035  29.039  27.207  1.00  0.00     0.001 A 
BRANCH   7  12
ATOM     12  N   UNL A   1      30.762  30.575  25.062  1.00  0.00    -0.321 N 
ATOM     13  C   UNL A   1      30.210  30.057  23.911  1.00  0.00     0.255 C 
ATOM     14  O   UNL A   1      29.221  30.634  23.450  1.00  0.00    -0.269 OA
ATOM     15  H   UNL A   1      30.345  31.414  25.365  1.00  0.00     0.170 HD
BRANCH  13  16
ATOM     16  C   UNL A   1      30.679  28.818  23.216  1.00  0.00     0.040 A 
ATOM     17  C   UNL A   1      31.856  26.493  22.127  1.00  0.00     0.041 A 
ATOM     18  C   UNL A   1      30.603  26.444  22.728  1.00  0.00     0.027 A 
ATOM     19  C   UNL A   1      32.528  27.711  22.062  1.00  0.00     0.027 A 
ATOM     20  C   UNL A   1      29.987  27.612  23.173  1.00  0.00     0.016 A 
ATOM     21  C   UNL A   1      31.940  28.865  22.596  1.00  0.00     0.016 A 
BRANCH  17  22
ATOM     22  N   UNL A   1      32.418  25.379  21.485  1.00  0.00    -0.322 N 
ATOM     23  C   UNL A   1      33.129  24.336  22.058  1.00  0.00     0.256 C 
ATOM     24  O   UNL A   1      33.614  23.443  21.368  1.00  0.00    -0.269 OA
ATOM     25  H   UNL A   1      32.295  25.333  20.510  1.00  0.00     0.170 HD
BRANCH  23  26
ATOM     26  C   UNL A   1      33.266  24.249  23.545  1.00  0.00     0.049 A 
ATOM     27  C   UNL A   1      31.074  23.004  23.879  1.00  0.00     0.053 C 
ATOM     28  C   UNL A   1      32.213  23.841  24.403  1.00  0.00     0.039 A 
ATOM     29  C   UNL A   1      32.293  24.265  25.747  1.00  0.00     0.273 A 
ATOM     30  C   UNL A   1      34.471  24.739  24.072  1.00  0.00     0.014 A 
ATOM     31  C   UNL A   1      33.496  24.776  26.267  1.00  0.00     0.086 A 
ATOM     32  C   UNL A   1      34.604  24.948  25.440  1.00  0.00     0.008 A 
BRANCH  29  33
ATOM     33  N   UNL A   1      31.098  24.358  26.618  1.00  0.00     0.063 N 
ATOM     34  O   UNL A   1      30.379  25.362  26.488  1.00  0.00    -0.258 OA
ATOM     35  O   UNL A   1      30.857  23.443  27.413  1.00  0.00    -0.258 OA
ENDBRANCH  29  33
ENDBRANCH  23  26
ENDBRANCH  17  22
ENDBRANCH  13  16
ENDBRANCH   7  12
ENDBRANCH   4   6
ENDBRANCH   3   4
ENDBRANCH   2   3
ENDBRANCH   1   2
BRANCH   1  36
ATOM     36  O   UNL A   1      34.991  34.249  30.334  1.00  0.00    -0.374 OA
BRANCH  36  37
ATOM     37  C   UNL A   1      34.864  32.885  30.674  1.00  0.00     0.202 C 
BRANCH  37  38
ATOM     38  C   UNL A   1      35.914  31.915  30.107  1.00  0.00     0.261 C 
BRANCH  38  39
ATOM     39  O   UNL A   1      36.008  30.514  30.495  1.00  0.00    -0.460 OA
BRANCH  39  40
ATOM     40  C   UNL A   1      36.938  29.835  31.212  1.00  0.00     0.338 C 
ATOM     41  O   UNL A   1      37.182  30.087  32.384  1.00  0.00    -0.246 OA
BRANCH  40  42
ATOM     42  C   UNL A   1      37.647  28.767  30.514  1.00  0.00     0.060 A 
ATOM     43  C   UNL A   1      38.460  27.879  31.221  1.00  0.00     0.016 A 
ATOM     44  C   UNL A   1      37.659  28.803  29.136  1.00  0.00     0.016 A 
ATOM     45  C   UNL A   1      39.505  27.243  30.545  1.00  0.00     0.010 A 
ATOM     46  C   UNL A   1      38.728  28.206  28.495  1.00  0.00     0.010 A 
ATOM     47  C   UNL A   1      39.756  27.561  29.206  1.00  0.00    -0.014 A 
BRANCH  47  48
ATOM     48  C   UNL A   1      41.102  27.441  28.583  1.00  0.00     0.031 A 
ATOM     49  C   UNL A   1      41.683  26.106  28.345  1.00  0.00     0.074 A 
ATOM     50  C   UNL A   1      41.881  28.476  28.196  1.00  0.00     0.049 A 
ATOM     51  N   UNL A   1      42.698  25.615  28.992  1.00  0.00    -0.248 NA
ATOM     52  C   UNL A   1      41.034  25.160  27.431  1.00  0.00     0.031 C 
ATOM     53  C   UNL A   1      43.130  28.396  27.435  1.00  0.00     0.029 A 
ATOM     54  N   UNL A   1      41.746  29.834  28.421  1.00  0.00    -0.354 N 
ATOM     55  C   UNL A   1      42.908  24.395  28.383  1.00  0.00     0.074 A 
ATOM     56  C   UNL A   1      41.614  24.044  27.858  1.00  0.00     0.031 C 
ATOM     57  C   UNL A   1      43.721  29.604  27.438  1.00  0.00     0.029 A 
ATOM     58  C   UNL A   1      42.974  30.473  28.336  1.00  0.00     0.049 A 
ATOM     59  H   UNL A   1      40.892  30.285  28.614  1.00  0.00     0.167 HD
ATOM     60  C   UNL A   1      44.126  24.021  27.877  1.00  0.00     0.031 A 
ATOM     61  C   UNL A   1      43.515  31.241  29.328  1.00  0.00     0.031 A 
ATOM     62  C   UNL A   1      45.136  25.078  28.033  1.00  0.00     0.049 A 
ATOM     63  C   UNL A   1      44.711  30.536  29.949  1.00  0.00     0.074 A 
ATOM     64  C   UNL A   1      45.823  25.857  27.114  1.00  0.00     0.029 A 
ATOM     65  N   UNL A   1      45.363  25.664  29.275  1.00  0.00    -0.354 N 
ATOM     66  N   UNL A   1      45.119  29.360  29.559  1.00  0.00    -0.248 NA
ATOM     67  C   UNL A   1      45.511  31.038  31.065  1.00  0.00     0.031 C 
ATOM     68  C   UNL A   1      46.410  26.952  27.807  1.00  0.00     0.029 A 
ATOM     69  C   UNL A   1      46.115  26.822  29.152  1.00  0.00     0.049 A 
ATOM     70  H   UNL A   1      45.033  25.304  30.129  1.00  0.00     0.167 HD
ATOM     71  C   UNL A   1      46.064  28.878  30.410  1.00  0.00     0.074 A 
ATOM     72  C   UNL A   1      46.332  29.995  31.299  1.00  0.00     0.031 C 
ATOM     73  C   UNL A   1      46.484  27.581  30.344  1.00  0.00     0.031 A 
BRANCH  60  74
ATOM     74  C   UNL A   1      44.306  22.826  26.928  1.00  0.00    -0.014 A 
ATOM     75  C   UNL A   1      43.235  21.953  26.656  1.00  0.00     0.010 A 
ATOM     76  C   UNL A   1      45.501  22.518  26.241  1.00  0.00     0.010 A 
ATOM     77  C   UNL A   1      43.371  20.843  25.792  1.00  0.00     0.020 A 
ATOM     78  C   UNL A   1      45.671  21.402  25.416  1.00  0.00     0.020 A 
ATOM     79  C   UNL A   1      44.594  20.572  25.180  1.00  0.00     0.054 A 
BRANCH  79  80
ATOM     80  S   UNL A   1      44.769  19.194  24.021  1.00  0.00     0.124 S 
ATOM     81  O   UNL A   1      44.457  19.820  22.738  1.00  0.00    -0.237 OA
ATOM     82  O   UNL A   1      46.161  18.799  24.214  1.00  0.00    -0.237 OA
ATOM     83  O   UNL A   1      43.783  18.219  24.485  1.00  0.00    -0.744 OA
ENDBRANCH  79  80
ENDBRANCH  60  74
BRANCH  61  84
ATOM     84  C   UNL A   1      42.551  32.145  30.021  1.00  0.00    -0.014 A 
ATOM     85  C   UNL A   1      41.467  31.534  30.689  1.00  0.00     0.010 A 
ATOM     86  C   UNL A   1      42.932  33.441  30.409  1.00  0.00     0.010 A 
ATOM     87  C   UNL A   1      40.917  32.113  31.842  1.00  0.00     0.020 A 
ATOM     88  C   UNL A   1      42.403  34.011  31.580  1.00  0.00     0.020 A 
ATOM     89  C   UNL A   1      41.444  33.313  32.322  1.00  0.00     0.054 A 
BRANCH  89  90
ATOM     90  S   UNL A   1      41.119  33.772  34.060  1.00  0.00     0.124 S 
ATOM     91  O   UNL A   1      41.052  32.475  34.719  1.00  0.00    -0.237 OA
ATOM     92  O   UNL A   1      42.286  34.590  34.393  1.00  0.00    -0.237 OA
ATOM     93  O   UNL A   1      39.867  34.515  33.970  1.00  0.00    -0.744 OA
ENDBRANCH  89  90
ENDBRANCH  61  84
BRANCH  73  94
ATOM     94  C   UNL A   1      47.310  26.897  31.398  1.00  0.00    -0.014 A 
ATOM     95  C   UNL A   1      48.672  26.599  31.244  1.00  0.00     0.010 A 
ATOM     96  C   UNL A   1      46.734  26.668  32.669  1.00  0.00     0.010 A 
ATOM     97  C   UNL A   1      49.406  26.022  32.287  1.00  0.00     0.020 A 
ATOM     98  C   UNL A   1      47.469  26.142  33.731  1.00  0.00     0.020 A 
ATOM     99  C   UNL A   1      48.796  25.787  33.520  1.00  0.00     0.054 A 
BRANCH  99 100
ATOM    100  S   UNL A   1      49.758  25.048  34.861  1.00  0.00     0.124 S 
ATOM    101  O   UNL A   1      50.783  24.317  34.122  1.00  0.00    -0.237 OA
ATOM    102  O   UNL A   1      50.234  26.214  35.604  1.00  0.00    -0.237 OA
ATOM    103  O   UNL A   1      48.784  24.222  35.569  1.00  0.00    -0.744 OA
ENDBRANCH  99 100
ENDBRANCH  73  94
ENDBRANCH  47  48
ENDBRANCH  40  42
ENDBRANCH  39  40
ENDBRANCH  38  39
ENDBRANCH  37  38
ENDBRANCH  36  37
ENDBRANCH   1  36
TORSDOF 22
ENDMDL
MODEL 3
REMARK VINA RESULT:     -10.9      3.600     10.513
REMARK SMILES Cc1c(C(=O)Nc2ccc(C(=O)Nc3ccccc3C(=O)OCCOCCOC(=O)c3ccc(-c4c5nc(c(-c6ccc(S(=O)(=O)[O-])cc6)c6ccc([nH]6)c(-c6ccc(S(=O)(=O)[O-])cc6)c6nc(c(-c7ccc(S(=O)(=O)[O-])cc7)c7ccc4[nH]7)C=C6)C=C5)cc3)cc2)cccc1[N+](=O)[O-]
REMARK SMILES IDX 24 1 23 2 22 3 20 4 21 5 19 6 14 7 15 8 16 9 18 10 17 11
REMARK SMILES IDX 13 12 11 13 12 14 10 16 7 17 8 18 92 19 9 20 91 21 6 22 4 23
REMARK SMILES IDX 5 24 3 26 1 27 2 28 96 29 93 30 95 31 94 32 97 33 98 34
REMARK SMILES IDX 99 35 25 36 26 37 27 38 28 39 29 40 30 41 31 42 32 43 90 44
REMARK SMILES IDX 33 45 89 46 34 47 35 48 36 49 83 50 37 51 88 52 82 53 84 54
REMARK SMILES IDX 38 55 87 56 81 57 80 58 39 60 69 61 50 62 68 63 51 64 54 65
REMARK SMILES IDX 67 66 85 67 52 68 53 69 66 71 86 72 55 73 40 74 41 75 49 76
REMARK SMILES IDX 42 77 48 78 43 79 44 80 45 81 46 82 47 83 70 84 71 85 79 86
REMARK SMILES IDX 72 87 78 88 73 89 74 90 75 91 76 92 77 93 56 94 57 95 65 96
REMARK SMILES IDX 58 97 64 98 59 99 60 100 61 101 62 102 63 103
REMARK H PARENT 13 15 6 25 84 59 54 70
REMARK Flexibility Score: inf
ROOT
ATOM      1  C   UNL A   1      36.054  33.172  31.376  1.00  0.00     0.202 C 
ENDROOT
BRANCH   1   2
ATOM      2  C   UNL A   1      34.792  33.637  30.660  1.00  0.00     0.261 C 
BRANCH   2   3
ATOM      3  O   UNL A   1      34.125  32.801  29.690  1.00  0.00    -0.460 OA
BRANCH   3   4
ATOM      4  C   UNL A   1      34.351  32.753  28.348  1.00  0.00     0.340 C 
ATOM      5  O   UNL A   1      34.563  33.622  27.561  1.00  0.00    -0.246 OA
BRANCH   4   6
ATOM      6  C   UNL A   1      34.509  31.294  28.063  1.00  0.00     0.083 A 
ATOM      7  C   UNL A   1      33.557  30.580  27.313  1.00  0.00     0.056 A 
ATOM      8  C   UNL A   1      33.829  29.253  26.947  1.00  0.00     0.027 A 
ATOM      9  C   UNL A   1      35.058  28.666  27.247  1.00  0.00     0.002 A 
ATOM     10  C   UNL A   1      35.710  30.657  28.437  1.00  0.00     0.018 A 
ATOM     11  C   UNL A   1      35.995  29.363  28.003  1.00  0.00     0.001 A 
BRANCH   7  12
ATOM     12  N   UNL A   1      32.357  31.089  26.796  1.00  0.00    -0.321 N 
ATOM     13  C   UNL A   1      31.600  30.731  25.701  1.00  0.00     0.255 C 
ATOM     14  O   UNL A   1      30.524  31.315  25.544  1.00  0.00    -0.269 OA
ATOM     15  H   UNL A   1      31.987  31.842  27.311  1.00  0.00     0.170 HD
BRANCH  13  16
ATOM     16  C   UNL A   1      31.953  29.650  24.730  1.00  0.00     0.040 A 
ATOM     17  C   UNL A   1      32.351  27.745  22.683  1.00  0.00     0.041 A 
ATOM     18  C   UNL A   1      33.368  28.618  23.053  1.00  0.00     0.027 A 
ATOM     19  C   UNL A   1      31.126  27.817  23.340  1.00  0.00     0.027 A 
ATOM     20  C   UNL A   1      33.197  29.487  24.129  1.00  0.00     0.016 A 
ATOM     21  C   UNL A   1      30.932  28.757  24.360  1.00  0.00     0.016 A 
BRANCH  17  22
ATOM     22  N   UNL A   1      32.552  26.721  21.745  1.00  0.00    -0.322 N 
ATOM     23  C   UNL A   1      32.947  25.414  21.983  1.00  0.00     0.256 C 
ATOM     24  O   UNL A   1      33.136  24.628  21.059  1.00  0.00    -0.269 OA
ATOM     25  H   UNL A   1      32.395  26.960  20.803  1.00  0.00     0.170 HD
BRANCH  23  26
ATOM     26  C   UNL A   1      33.093  24.918  23.388  1.00  0.00     0.049 A 
ATOM     27  C   UNL A   1      30.741  23.960  23.510  1.00  0.00     0.053 C 
ATOM     28  C   UNL A   1      32.004  24.456  24.169  1.00  0.00     0.039 A 
ATOM     29  C   UNL A   1      32.169  24.493  25.570  1.00  0.00     0.273 A 
ATOM     30  C   UNL A   1      34.367  25.073  23.955  1.00  0.00     0.014 A 
ATOM     31  C   UNL A   1      33.445  24.670  26.136  1.00  0.00     0.086 A 
ATOM     32  C   UNL A   1      34.553  24.892  25.321  1.00  0.00     0.008 A 
BRANCH  29  33
ATOM     33  N   UNL A   1      31.017  24.524  26.500  1.00  0.00     0.063 N 
ATOM     34  O   UNL A   1      30.201  25.449  26.360  1.00  0.00    -0.258 OA
ATOM     35  O   UNL A   1      30.905  23.636  27.352  1.00  0.00    -0.258 OA
ENDBRANCH  29  33
ENDBRANCH  23  26
ENDBRANCH  17  22
ENDBRANCH  13  16
ENDBRANCH   7  12
ENDBRANCH   4   6
ENDBRANCH   3   4
ENDBRANCH   2   3
ENDBRANCH   1   2
BRANCH   1  36
ATOM     36  O   UNL A   1      35.823  32.101  32.266  1.00  0.00    -0.374 OA
BRANCH  36  37
ATOM     37  C   UNL A   1      36.454  30.893  31.898  1.00  0.00     0.202 C 
BRANCH  37  38
ATOM     38  C   UNL A   1      37.957  30.949  31.581  1.00  0.00     0.261 C 
BRANCH  38  39
ATOM     39  O   UNL A   1      38.776  29.766  31.351  1.00  0.00    -0.460 OA
BRANCH  39  40
ATOM     40  C   UNL A   1      38.915  28.958  30.270  1.00  0.00     0.338 C 
ATOM     41  O   UNL A   1      38.263  27.933  30.124  1.00  0.00    -0.246 OA
BRANCH  40  42
ATOM     42  C   UNL A   1      39.891  29.372  29.268  1.00  0.00     0.060 A 
ATOM     43  C   UNL A   1      39.777  28.936  27.947  1.00  0.00     0.016 A 
ATOM     44  C   UNL A   1      41.028  30.015  29.711  1.00  0.00     0.016 A 
ATOM     45  C   UNL A   1      40.928  28.878  27.157  1.00  0.00     0.010 A 
ATOM     46  C   UNL A   1      42.165  29.901  28.933  1.00  0.00     0.010 A 
ATOM     47  C   UNL A   1      42.169  29.185  27.722  1.00  0.00    -0.014 A 
BRANCH  47  48
ATOM     48  C   UNL A   1      43.451  28.618  27.223  1.00  0.00     0.031 A 
ATOM     49  C   UNL A   1      43.632  27.154  27.168  1.00  0.00     0.074 A 
ATOM     50  C   UNL A   1      44.513  29.337  26.794  1.00  0.00     0.049 A 
ATOM     51  N   UNL A   1      44.431  26.479  27.939  1.00  0.00    -0.248 NA
ATOM     52  C   UNL A   1      42.780  26.327  26.307  1.00  0.00     0.031 C 
ATOM     53  C   UNL A   1      45.719  28.818  26.146  1.00  0.00     0.029 A 
ATOM     54  N   UNL A   1      44.765  30.694  26.868  1.00  0.00    -0.354 N 
ATOM     55  C   UNL A   1      44.307  25.185  27.476  1.00  0.00     0.074 A 
ATOM     56  C   UNL A   1      42.993  25.152  26.889  1.00  0.00     0.031 C 
ATOM     57  C   UNL A   1      46.633  29.801  26.073  1.00  0.00     0.029 A 
ATOM     58  C   UNL A   1      46.128  30.946  26.816  1.00  0.00     0.049 A 
ATOM     59  H   UNL A   1      44.070  31.388  26.947  1.00  0.00     0.167 HD
ATOM     60  C   UNL A   1      45.387  24.424  27.108  1.00  0.00     0.031 A 
ATOM     61  C   UNL A   1      46.822  31.645  27.763  1.00  0.00     0.031 A 
ATOM     62  C   UNL A   1      46.651  25.166  27.235  1.00  0.00     0.049 A 
ATOM     63  C   UNL A   1      47.733  30.711  28.545  1.00  0.00     0.074 A 
ATOM     64  C   UNL A   1      47.576  25.603  26.298  1.00  0.00     0.029 A 
ATOM     65  N   UNL A   1      46.980  25.809  28.424  1.00  0.00    -0.354 N 
ATOM     66  N   UNL A   1      47.802  29.429  28.310  1.00  0.00    -0.248 NA
ATOM     67  C   UNL A   1      48.591  31.097  29.664  1.00  0.00     0.031 C 
ATOM     68  C   UNL A   1      48.421  26.564  26.919  1.00  0.00     0.029 A 
ATOM     69  C   UNL A   1      48.040  26.684  28.244  1.00  0.00     0.049 A 
ATOM     70  H   UNL A   1      46.521  25.661  29.282  1.00  0.00     0.167 HD
ATOM     71  C   UNL A   1      48.527  28.807  29.278  1.00  0.00     0.074 A 
ATOM     72  C   UNL A   1      49.064  29.901  30.066  1.00  0.00     0.031 C 
ATOM     73  C   UNL A   1      48.557  27.446  29.378  1.00  0.00     0.031 A 
BRANCH  60  74
ATOM     74  C   UNL A   1      45.258  23.123  26.302  1.00  0.00    -0.014 A 
ATOM     75  C   UNL A   1      44.092  22.338  26.381  1.00  0.00     0.010 A 
ATOM     76  C   UNL A   1      46.241  22.623  25.419  1.00  0.00     0.010 A 
ATOM     77  C   UNL A   1      43.945  21.134  25.656  1.00  0.00     0.020 A 
ATOM     78  C   UNL A   1      46.136  21.413  24.727  1.00  0.00     0.020 A 
ATOM     79  C   UNL A   1      44.975  20.676  24.835  1.00  0.00     0.054 A 
BRANCH  79  80
ATOM     80  S   UNL A   1      44.779  19.171  23.851  1.00  0.00     0.124 S 
ATOM     81  O   UNL A   1      43.913  18.353  24.695  1.00  0.00    -0.237 OA
ATOM     82  O   UNL A   1      44.175  19.678  22.622  1.00  0.00    -0.237 OA
ATOM     83  O   UNL A   1      46.146  18.670  23.703  1.00  0.00    -0.744 OA
ENDBRANCH  79  80
ENDBRANCH  60  74
BRANCH  61  84
ATOM     84  C   UNL A   1      46.129  32.860  28.283  1.00  0.00    -0.014 A 
ATOM     85  C   UNL A   1      46.235  34.038  27.511  1.00  0.00     0.010 A 
ATOM     86  C   UNL A   1      45.058  32.746  29.186  1.00  0.00     0.010 A 
ATOM     87  C   UNL A   1      45.195  34.978  27.490  1.00  0.00     0.020 A 
ATOM     88  C   UNL A   1      44.001  33.671  29.147  1.00  0.00     0.020 A 
ATOM     89  C   UNL A   1      44.050  34.747  28.254  1.00  0.00     0.054 A 
BRANCH  89  90
ATOM     90  S   UNL A   1      42.522  35.650  27.824  1.00  0.00     0.124 S 
ATOM     91  O   UNL A   1      42.818  37.001  28.278  1.00  0.00    -0.237 OA
ATOM     92  O   UNL A   1      42.449  35.474  26.373  1.00  0.00    -0.237 OA
ATOM     93  O   UNL A   1      41.498  34.928  28.571  1.00  0.00    -0.744 OA
ENDBRANCH  89  90
ENDBRANCH  61  84
BRANCH  73  94
ATOM     94  C   UNL A   1      49.100  26.689  30.557  1.00  0.00    -0.014 A 
ATOM     95  C   UNL A   1      48.367  26.445  31.728  1.00  0.00     0.010 A 
ATOM     96  C   UNL A   1      50.361  26.060  30.438  1.00  0.00     0.010 A 
ATOM     97  C   UNL A   1      48.901  25.674  32.766  1.00  0.00     0.020 A 
ATOM     98  C   UNL A   1      50.882  25.248  31.446  1.00  0.00     0.020 A 
ATOM     99  C   UNL A   1      50.161  25.091  32.622  1.00  0.00     0.054 A 
BRANCH  99 100
ATOM    100  S   UNL A   1      50.837  24.091  33.969  1.00  0.00     0.124 S 
ATOM    101  O   UNL A   1      52.045  24.837  34.313  1.00  0.00    -0.237 OA
ATOM    102  O   UNL A   1      49.773  24.128  34.971  1.00  0.00    -0.237 OA
ATOM    103  O   UNL A   1      51.060  22.787  33.352  1.00  0.00    -0.744 OA
ENDBRANCH  99 100
ENDBRANCH  73  94
ENDBRANCH  47  48
ENDBRANCH  40  42
ENDBRANCH  39  40
ENDBRANCH  38  39
ENDBRANCH  37  38
ENDBRANCH  36  37
ENDBRANCH   1  36
TORSDOF 22
ENDMDL
