MODEL 1
REMARK VINA RESULT:      -8.0      0.000      0.000
REMARK SMILES [NH3+][C@](CCC[P@TB4](=O)([O-])[O-])(Cc1ccccc1)C(=O)OCCOCCOC(=O)c1ccc(-c2c3nc(c(-c4ccc(S(=O)(=O)[O-])cc4)c4ccc([nH]4)c(-c4ccc(S(=O)(=O)[O-])cc4)c4nc(c(-c5ccc(S(=O)(=O)[O-])cc5)c5ccc2[nH]5)C=C4)C=C3)cc1
REMARK SMILES IDX 21 1 20 2 19 3 17 4 18 5 2 6 1 7 10 11 11 12 12 13 16 14
REMARK SMILES IDX 13 15 15 16 14 17 3 18 4 19 5 20 6 21 7 22 8 23 9 24 22 25
REMARK SMILES IDX 23 26 24 27 25 28 26 29 27 30 28 31 29 32 87 33 30 34 86 35
REMARK SMILES IDX 31 36 32 37 33 38 80 39 34 40 85 41 79 42 81 43 35 44 84 45
REMARK SMILES IDX 78 46 77 47 36 49 66 50 47 51 65 52 48 53 51 54 64 55 82 56
REMARK SMILES IDX 49 57 50 58 63 60 83 61 52 62 37 63 38 64 46 65 39 66 45 67
REMARK SMILES IDX 40 68 41 69 42 70 43 71 44 72 67 73 68 74 76 75 69 76 75 77
REMARK SMILES IDX 70 78 71 79 72 80 73 81 74 82 53 83 54 84 62 85 55 86 61 87
REMARK SMILES IDX 56 88 57 89 58 90 59 91 60 92
REMARK H PARENT 1 8 1 9 1 10 81 48 51 59
REMARK Flexibility Score: inf
ROOT
ATOM      1  C   UNL A   1      39.316  25.439  27.710  1.00  0.00       nan C 
ENDROOT
BRANCH   1   2
ATOM      2  C   UNL A   1      38.999  24.071  27.078  1.00  0.00       nan C 
BRANCH   2   3
ATOM      3  O   UNL A   1      37.673  23.896  26.537  1.00  0.00       nan OA
BRANCH   3   4
ATOM      4  C   UNL A   1      37.579  22.807  25.730  1.00  0.00       nan C 
ATOM      5  O   UNL A   1      38.413  21.897  25.752  1.00  0.00       nan OA
BRANCH   4   6
ATOM      6  C   UNL A   1      36.426  22.838  24.667  1.00  0.00       nan C 
BRANCH   6   7
ATOM      7  N   UNL A   1      37.122  23.455  23.499  1.00  0.00       nan N 
ATOM      8  H   UNL A   1      36.692  24.355  23.285  1.00  0.00       nan HD
ATOM      9  H   UNL A   1      37.042  22.840  22.690  1.00  0.00       nan HD
ATOM     10  H   UNL A   1      38.107  23.594  23.725  1.00  0.00       nan HD
ENDBRANCH   6   7
BRANCH   6  11
ATOM     11  C   UNL A   1      35.158  23.726  24.939  1.00  0.00       nan C 
BRANCH  11  12
ATOM     12  C   UNL A   1      34.322  24.239  23.776  1.00  0.00       nan A 
ATOM     13  C   UNL A   1      34.060  25.597  23.650  1.00  0.00       nan A 
ATOM     14  C   UNL A   1      33.828  23.403  22.765  1.00  0.00       nan A 
ATOM     15  C   UNL A   1      33.214  26.094  22.653  1.00  0.00       nan A 
ATOM     16  C   UNL A   1      32.929  23.873  21.802  1.00  0.00       nan A 
ATOM     17  C   UNL A   1      32.605  25.222  21.758  1.00  0.00       nan A 
ENDBRANCH  11  12
ENDBRANCH   6  11
BRANCH   6  18
ATOM     18  C   UNL A   1      36.088  21.324  24.463  1.00  0.00       nan C 
BRANCH  18  19
ATOM     19  C   UNL A   1      35.210  20.568  25.449  1.00  0.00       nan C 
BRANCH  19  20
ATOM     20  C   UNL A   1      33.753  20.397  25.091  1.00  0.00       nan C 
BRANCH  20  21
ATOM     21  P   UNL A   1      33.271  18.872  24.202  1.00  0.00       nan P 
ATOM     22  O   UNL A   1      34.554  18.151  24.585  1.00  0.00       nan OA
ATOM     23  O   UNL A   1      32.099  18.499  25.269  1.00  0.00       nan OA
ATOM     24  O   UNL A   1      32.815  17.430  23.362  1.00  0.00       nan OA
ENDBRANCH  20  21
ENDBRANCH  19  20
ENDBRANCH  18  19
ENDBRANCH   6  18
ENDBRANCH   4   6
ENDBRANCH   3   4
ENDBRANCH   2   3
ENDBRANCH   1   2
BRANCH   1  25
ATOM     25  O   UNL A   1      40.579  26.048  27.450  1.00  0.00       nan OA
BRANCH  25  26
ATOM     26  C   UNL A   1      40.867  26.476  26.119  1.00  0.00       nan C 
BRANCH  26  27
ATOM     27  C   UNL A   1      42.140  25.921  25.472  1.00  0.00       nan C 
BRANCH  27  28
ATOM     28  O   UNL A   1      42.959  25.287  26.465  1.00  0.00       inf OA
BRANCH  28  29
ATOM     29  C   UNL A   1      44.174  25.825  26.675  1.00  0.00     0.338 C 
ATOM     30  O   UNL A   1      45.155  25.728  25.954  1.00  0.00    -0.246 OA
BRANCH  29  31
ATOM     31  C   UNL A   1      44.117  26.589  27.934  1.00  0.00     0.060 A 
ATOM     32  C   UNL A   1      43.551  25.982  29.059  1.00  0.00     0.016 A 
ATOM     33  C   UNL A   1      44.536  27.921  27.980  1.00  0.00     0.016 A 
ATOM     34  C   UNL A   1      43.336  26.730  30.218  1.00  0.00     0.010 A 
ATOM     35  C   UNL A   1      44.339  28.664  29.151  1.00  0.00     0.010 A 
ATOM     36  C   UNL A   1      43.690  28.088  30.258  1.00  0.00    -0.014 A 
BRANCH  36  37
ATOM     37  C   UNL A   1      43.230  28.928  31.395  1.00  0.00     0.031 A 
ATOM     38  C   UNL A   1      41.934  29.688  31.266  1.00  0.00     0.074 A 
ATOM     39  C   UNL A   1      43.921  28.977  32.549  1.00  0.00     0.049 A 
ATOM     40  N   UNL A   1      41.321  30.433  32.151  1.00  0.00    -0.248 NA
ATOM     41  C   UNL A   1      41.235  29.592  29.973  1.00  0.00     0.031 C 
ATOM     42  C   UNL A   1      45.174  28.274  32.817  1.00  0.00     0.029 A 
ATOM     43  N   UNL A   1      43.656  29.650  33.717  1.00  0.00    -0.354 N 
ATOM     44  C   UNL A   1      40.167  30.893  31.525  1.00  0.00     0.074 A 
ATOM     45  C   UNL A   1      40.182  30.372  30.176  1.00  0.00     0.031 C 
ATOM     46  C   UNL A   1      45.566  28.546  34.074  1.00  0.00     0.029 A 
ATOM     47  C   UNL A   1      44.606  29.460  34.692  1.00  0.00     0.049 A 
ATOM     48  H   UNL A   1      42.859  30.215  33.844  1.00  0.00     0.167 HD
ATOM     49  C   UNL A   1      39.177  31.669  32.026  1.00  0.00     0.031 A 
ATOM     50  C   UNL A   1      44.697  29.969  35.937  1.00  0.00     0.031 A 
ATOM     51  C   UNL A   1      39.158  32.201  33.362  1.00  0.00     0.049 A 
ATOM     52  C   UNL A   1      43.616  30.881  36.453  1.00  0.00     0.074 A 
ATOM     53  C   UNL A   1      38.185  32.979  33.964  1.00  0.00     0.029 A 
ATOM     54  N   UNL A   1      40.161  32.019  34.301  1.00  0.00    -0.354 N 
ATOM     55  N   UNL A   1      42.512  31.269  35.861  1.00  0.00    -0.248 NA
ATOM     56  C   UNL A   1      43.788  31.415  37.814  1.00  0.00     0.031 C 
ATOM     57  C   UNL A   1      38.622  33.309  35.251  1.00  0.00     0.029 A 
ATOM     58  C   UNL A   1      39.844  32.693  35.469  1.00  0.00     0.049 A 
ATOM     59  H   UNL A   1      40.978  31.488  34.159  1.00  0.00     0.167 HD
ATOM     60  C   UNL A   1      41.850  32.075  36.782  1.00  0.00     0.074 A 
ATOM     61  C   UNL A   1      42.669  32.109  37.975  1.00  0.00     0.031 C 
ATOM     62  C   UNL A   1      40.666  32.724  36.650  1.00  0.00     0.031 A 
BRANCH  49  63
ATOM     63  C   UNL A   1      38.034  32.010  31.109  1.00  0.00    -0.014 A 
ATOM     64  C   UNL A   1      36.873  31.217  31.071  1.00  0.00     0.010 A 
ATOM     65  C   UNL A   1      38.107  33.159  30.301  1.00  0.00     0.010 A 
ATOM     66  C   UNL A   1      35.821  31.546  30.213  1.00  0.00     0.020 A 
ATOM     67  C   UNL A   1      37.048  33.503  29.458  1.00  0.00     0.020 A 
ATOM     68  C   UNL A   1      35.918  32.686  29.407  1.00  0.00     0.054 A 
BRANCH  68  69
ATOM     69  S   UNL A   1      34.532  33.100  28.312  1.00  0.00     0.124 S 
ATOM     70  O   UNL A   1      35.167  33.999  27.352  1.00  0.00    -0.237 OA
ATOM     71  O   UNL A   1      34.137  31.797  27.784  1.00  0.00    -0.237 OA
ATOM     72  O   UNL A   1      33.561  33.727  29.205  1.00  0.00    -0.744 OA
ENDBRANCH  68  69
ENDBRANCH  49  63
BRANCH  50  73
ATOM     73  C   UNL A   1      45.871  29.632  36.788  1.00  0.00    -0.014 A 
ATOM     74  C   UNL A   1      47.028  30.427  36.765  1.00  0.00     0.010 A 
ATOM     75  C   UNL A   1      45.829  28.506  37.633  1.00  0.00     0.010 A 
ATOM     76  C   UNL A   1      48.129  30.098  37.563  1.00  0.00     0.020 A 
ATOM     77  C   UNL A   1      46.917  28.188  38.449  1.00  0.00     0.020 A 
ATOM     78  C   UNL A   1      48.066  28.982  38.402  1.00  0.00     0.054 A 
BRANCH  78  79
ATOM     79  S   UNL A   1      49.480  28.605  39.473  1.00  0.00     0.124 S 
ATOM     80  O   UNL A   1      49.361  29.628  40.506  1.00  0.00    -0.237 OA
ATOM     81  O   UNL A   1      49.199  27.236  39.900  1.00  0.00    -0.237 OA
ATOM     82  O   UNL A   1      50.630  28.745  38.581  1.00  0.00    -0.744 OA
ENDBRANCH  78  79
ENDBRANCH  50  73
BRANCH  62  83
ATOM     83  C   UNL A   1      40.165  33.512  37.832  1.00  0.00    -0.014 A 
ATOM     84  C   UNL A   1      39.314  32.927  38.786  1.00  0.00     0.010 A 
ATOM     85  C   UNL A   1      40.606  34.834  38.024  1.00  0.00     0.010 A 
ATOM     86  C   UNL A   1      38.895  33.659  39.901  1.00  0.00     0.020 A 
ATOM     87  C   UNL A   1      40.208  35.561  39.149  1.00  0.00     0.020 A 
ATOM     88  C   UNL A   1      39.345  34.972  40.076  1.00  0.00     0.054 A 
BRANCH  88  89
ATOM     89  S   UNL A   1      38.832  35.884  41.559  1.00  0.00     0.124 S 
ATOM     90  O   UNL A   1      39.891  35.545  42.506  1.00  0.00    -0.237 OA
ATOM     91  O   UNL A   1      38.820  37.270  41.097  1.00  0.00    -0.237 OA
ATOM     92  O   UNL A   1      37.516  35.327  41.869  1.00  0.00    -0.744 OA
ENDBRANCH  88  89
ENDBRANCH  62  83
ENDBRANCH  36  37
ENDBRANCH  29  31
ENDBRANCH  28  29
ENDBRANCH  27  28
ENDBRANCH  26  27
ENDBRANCH  25  26
ENDBRANCH   1  25
TORSDOF 24
ENDMDL
MODEL 2
REMARK VINA RESULT:      -7.6     10.323     14.338
REMARK SMILES [NH3+][C@](CCC[P@TB4](=O)([O-])[O-])(Cc1ccccc1)C(=O)OCCOCCOC(=O)c1ccc(-c2c3nc(c(-c4ccc(S(=O)(=O)[O-])cc4)c4ccc([nH]4)c(-c4ccc(S(=O)(=O)[O-])cc4)c4nc(c(-c5ccc(S(=O)(=O)[O-])cc5)c5ccc2[nH]5)C=C4)C=C3)cc1
REMARK SMILES IDX 21 1 20 2 19 3 17 4 18 5 2 6 1 7 10 11 11 12 12 13 16 14
REMARK SMILES IDX 13 15 15 16 14 17 3 18 4 19 5 20 6 21 7 22 8 23 9 24 22 25
REMARK SMILES IDX 23 26 24 27 25 28 26 29 27 30 28 31 29 32 87 33 30 34 86 35
REMARK SMILES IDX 31 36 32 37 33 38 80 39 34 40 85 41 79 42 81 43 35 44 84 45
REMARK SMILES IDX 78 46 77 47 36 49 66 50 47 51 65 52 48 53 51 54 64 55 82 56
REMARK SMILES IDX 49 57 50 58 63 60 83 61 52 62 37 63 38 64 46 65 39 66 45 67
REMARK SMILES IDX 40 68 41 69 42 70 43 71 44 72 67 73 68 74 76 75 69 76 75 77
REMARK SMILES IDX 70 78 71 79 72 80 73 81 74 82 53 83 54 84 62 85 55 86 61 87
REMARK SMILES IDX 56 88 57 89 58 90 59 91 60 92
REMARK H PARENT 1 8 1 9 1 10 81 48 51 59
REMARK Flexibility Score: inf
ROOT
ATOM      1  C   UNL A   1      46.389  44.306  23.139  1.00  0.00       nan C 
ENDROOT
BRANCH   1   2
ATOM      2  C   UNL A   1      47.144  45.543  22.619  1.00  0.00       nan C 
BRANCH   2   3
ATOM      3  O   UNL A   1      47.354  45.627  21.194  1.00  0.00       nan OA
BRANCH   3   4
ATOM      4  C   UNL A   1      46.383  46.341  20.566  1.00  0.00       nan C 
ATOM      5  O   UNL A   1      45.845  47.323  21.086  1.00  0.00       nan OA
BRANCH   4   6
ATOM      6  C   UNL A   1      45.884  45.763  19.194  1.00  0.00       nan C 
BRANCH   6   7
ATOM      7  N   UNL A   1      47.004  44.839  18.843  1.00  0.00       nan N 
ATOM      8  H   UNL A   1      47.778  44.983  19.492  1.00  0.00       nan HD
ATOM      9  H   UNL A   1      47.318  45.032  17.892  1.00  0.00       nan HD
ATOM     10  H   UNL A   1      46.681  43.874  18.906  1.00  0.00       nan HD
ENDBRANCH   6   7
BRANCH   6  11
ATOM     11  C   UNL A   1      45.718  46.734  17.970  1.00  0.00       nan C 
BRANCH  11  12
ATOM     12  C   UNL A   1      44.333  47.204  17.551  1.00  0.00       nan A 
ATOM     13  C   UNL A   1      43.881  48.464  17.921  1.00  0.00       nan A 
ATOM     14  C   UNL A   1      43.478  46.437  16.747  1.00  0.00       nan A 
ATOM     15  C   UNL A   1      42.579  48.890  17.642  1.00  0.00       nan A 
ATOM     16  C   UNL A   1      42.153  46.820  16.515  1.00  0.00       nan A 
ATOM     17  C   UNL A   1      41.696  48.044  16.982  1.00  0.00       nan A 
ENDBRANCH  11  12
ENDBRANCH   6  11
BRANCH   6  18
ATOM     18  C   UNL A   1      44.562  45.021  19.580  1.00  0.00       nan C 
BRANCH  18  19
ATOM     19  C   UNL A   1      44.575  43.581  20.071  1.00  0.00       nan C 
BRANCH  19  20
ATOM     20  C   UNL A   1      43.258  42.841  20.086  1.00  0.00       nan C 
BRANCH  20  21
ATOM     21  P   UNL A   1      42.179  43.060  21.547  1.00  0.00       nan P 
ATOM     22  O   UNL A   1      40.942  43.295  20.694  1.00  0.00       nan OA
ATOM     23  O   UNL A   1      42.258  41.489  21.967  1.00  0.00       nan OA
ATOM     24  O   UNL A   1      41.158  43.266  22.929  1.00  0.00       nan OA
ENDBRANCH  20  21
ENDBRANCH  19  20
ENDBRANCH  18  19
ENDBRANCH   6  18
ENDBRANCH   4   6
ENDBRANCH   3   4
ENDBRANCH   2   3
ENDBRANCH   1   2
BRANCH   1  25
ATOM     25  O   UNL A   1      47.096  43.329  23.899  1.00  0.00       nan OA
BRANCH  25  26
ATOM     26  C   UNL A   1      46.514  42.035  24.054  1.00  0.00       nan C 
BRANCH  26  27
ATOM     27  C   UNL A   1      45.888  41.715  25.414  1.00  0.00       nan C 
BRANCH  27  28
ATOM     28  O   UNL A   1      45.218  40.447  25.360  1.00  0.00       inf OA
BRANCH  28  29
ATOM     29  C   UNL A   1      44.073  40.342  26.060  1.00  0.00     0.338 C 
ATOM     30  O   UNL A   1      43.061  41.009  25.916  1.00  0.00    -0.246 OA
BRANCH  29  31
ATOM     31  C   UNL A   1      44.240  39.248  27.033  1.00  0.00     0.060 A 
ATOM     32  C   UNL A   1      44.571  37.975  26.557  1.00  0.00     0.016 A 
ATOM     33  C   UNL A   1      43.984  39.454  28.390  1.00  0.00     0.016 A 
ATOM     34  C   UNL A   1      44.578  36.887  27.431  1.00  0.00     0.010 A 
ATOM     35  C   UNL A   1      44.013  38.365  29.270  1.00  0.00     0.010 A 
ATOM     36  C   UNL A   1      44.258  37.067  28.786  1.00  0.00    -0.014 A 
BRANCH  36  37
ATOM     37  C   UNL A   1      44.023  35.876  29.644  1.00  0.00     0.031 A 
ATOM     38  C   UNL A   1      42.636  35.290  29.721  1.00  0.00     0.074 A 
ATOM     39  C   UNL A   1      45.034  35.285  30.307  1.00  0.00     0.049 A 
ATOM     40  N   UNL A   1      42.221  34.226  30.360  1.00  0.00    -0.248 NA
ATOM     41  C   UNL A   1      41.578  35.992  28.975  1.00  0.00     0.031 C 
ATOM     42  C   UNL A   1      46.426  35.732  30.302  1.00  0.00     0.029 A 
ATOM     43  N   UNL A   1      45.041  34.171  31.112  1.00  0.00    -0.354 N 
ATOM     44  C   UNL A   1      40.860  34.130  30.095  1.00  0.00     0.074 A 
ATOM     45  C   UNL A   1      40.511  35.262  29.264  1.00  0.00     0.031 C 
ATOM     46  C   UNL A   1      47.155  34.894  31.061  1.00  0.00     0.029 A 
ATOM     47  C   UNL A   1      46.279  33.868  31.625  1.00  0.00     0.049 A 
ATOM     48  H   UNL A   1      44.234  33.640  31.302  1.00  0.00     0.167 HD
ATOM     49  C   UNL A   1      39.978  33.182  30.493  1.00  0.00     0.031 A 
ATOM     50  C   UNL A   1      46.664  32.881  32.459  1.00  0.00     0.031 A 
ATOM     51  C   UNL A   1      40.313  32.060  31.328  1.00  0.00     0.049 A 
ATOM     52  C   UNL A   1      45.654  31.874  32.942  1.00  0.00     0.074 A 
ATOM     53  C   UNL A   1      39.489  31.037  31.765  1.00  0.00     0.029 A 
ATOM     54  N   UNL A   1      41.569  31.816  31.860  1.00  0.00    -0.354 N 
ATOM     55  N   UNL A   1      44.380  31.776  32.645  1.00  0.00    -0.248 NA
ATOM     56  C   UNL A   1      46.138  30.835  33.865  1.00  0.00     0.031 C 
ATOM     57  C   UNL A   1      40.235  30.201  32.601  1.00  0.00     0.029 A 
ATOM     58  C   UNL A   1      41.537  30.674  32.644  1.00  0.00     0.049 A 
ATOM     59  H   UNL A   1      42.367  32.371  31.703  1.00  0.00     0.167 HD
ATOM     60  C   UNL A   1      43.916  30.656  33.327  1.00  0.00     0.074 A 
ATOM     61  C   UNL A   1      45.046  30.101  34.042  1.00  0.00     0.031 C 
ATOM     62  C   UNL A   1      42.665  30.131  33.354  1.00  0.00     0.031 A 
BRANCH  49  63
ATOM     63  C   UNL A   1      38.550  33.335  30.046  1.00  0.00    -0.014 A 
ATOM     64  C   UNL A   1      38.092  32.730  28.861  1.00  0.00     0.010 A 
ATOM     65  C   UNL A   1      37.644  34.062  30.840  1.00  0.00     0.010 A 
ATOM     66  C   UNL A   1      36.763  32.882  28.459  1.00  0.00     0.020 A 
ATOM     67  C   UNL A   1      36.309  34.197  30.452  1.00  0.00     0.020 A 
ATOM     68  C   UNL A   1      35.880  33.620  29.255  1.00  0.00     0.054 A 
BRANCH  68  69
ATOM     69  S   UNL A   1      34.156  33.790  28.718  1.00  0.00     0.124 S 
ATOM     70  O   UNL A   1      33.870  32.454  28.201  1.00  0.00    -0.237 OA
ATOM     71  O   UNL A   1      33.466  34.144  29.956  1.00  0.00    -0.237 OA
ATOM     72  O   UNL A   1      34.209  34.849  27.714  1.00  0.00    -0.744 OA
ENDBRANCH  68  69
ENDBRANCH  49  63
BRANCH  50  73
ATOM     73  C   UNL A   1      48.082  32.801  32.904  1.00  0.00    -0.014 A 
ATOM     74  C   UNL A   1      49.017  32.032  32.192  1.00  0.00     0.010 A 
ATOM     75  C   UNL A   1      48.503  33.503  34.049  1.00  0.00     0.010 A 
ATOM     76  C   UNL A   1      50.346  31.957  32.622  1.00  0.00     0.020 A 
ATOM     77  C   UNL A   1      49.835  33.450  34.468  1.00  0.00     0.020 A 
ATOM     78  C   UNL A   1      50.747  32.668  33.756  1.00  0.00     0.054 A 
BRANCH  78  79
ATOM     79  S   UNL A   1      52.487  32.605  34.264  1.00  0.00     0.124 S 
ATOM     80  O   UNL A   1      53.154  32.229  33.021  1.00  0.00    -0.237 OA
ATOM     81  O   UNL A   1      52.732  33.969  34.728  1.00  0.00    -0.237 OA
ATOM     82  O   UNL A   1      52.499  31.589  35.314  1.00  0.00    -0.744 OA
ENDBRANCH  78  79
ENDBRANCH  50  73
BRANCH  62  83
ATOM     83  C   UNL A   1      42.448  28.880  34.163  1.00  0.00    -0.014 A 
ATOM     84  C   UNL A   1      42.755  27.613  33.636  1.00  0.00     0.010 A 
ATOM     85  C   UNL A   1      41.994  28.979  35.490  1.00  0.00     0.010 A 
ATOM     86  C   UNL A   1      42.591  26.465  34.417  1.00  0.00     0.020 A 
ATOM     87  C   UNL A   1      41.850  27.837  36.282  1.00  0.00     0.020 A 
ATOM     88  C   UNL A   1      42.139  26.584  35.736  1.00  0.00     0.054 A 
BRANCH  88  89
ATOM     89  S   UNL A   1      41.985  25.086  36.748  1.00  0.00     0.124 S 
ATOM     90  O   UNL A   1      43.270  25.054  37.442  1.00  0.00    -0.237 OA
ATOM     91  O   UNL A   1      40.825  25.380  37.585  1.00  0.00    -0.237 OA
ATOM     92  O   UNL A   1      41.781  24.024  35.765  1.00  0.00    -0.744 OA
ENDBRANCH  88  89
ENDBRANCH  62  83
ENDBRANCH  36  37
ENDBRANCH  29  31
ENDBRANCH  28  29
ENDBRANCH  27  28
ENDBRANCH  26  27
ENDBRANCH  25  26
ENDBRANCH   1  25
TORSDOF 24
ENDMDL
MODEL 3
REMARK VINA RESULT:      -7.5      5.141     12.399
REMARK SMILES [NH3+][C@](CCC[P@TB4](=O)([O-])[O-])(Cc1ccccc1)C(=O)OCCOCCOC(=O)c1ccc(-c2c3nc(c(-c4ccc(S(=O)(=O)[O-])cc4)c4ccc([nH]4)c(-c4ccc(S(=O)(=O)[O-])cc4)c4nc(c(-c5ccc(S(=O)(=O)[O-])cc5)c5ccc2[nH]5)C=C4)C=C3)cc1
REMARK SMILES IDX 21 1 20 2 19 3 17 4 18 5 2 6 1 7 10 11 11 12 12 13 16 14
REMARK SMILES IDX 13 15 15 16 14 17 3 18 4 19 5 20 6 21 7 22 8 23 9 24 22 25
REMARK SMILES IDX 23 26 24 27 25 28 26 29 27 30 28 31 29 32 87 33 30 34 86 35
REMARK SMILES IDX 31 36 32 37 33 38 80 39 34 40 85 41 79 42 81 43 35 44 84 45
REMARK SMILES IDX 78 46 77 47 36 49 66 50 47 51 65 52 48 53 51 54 64 55 82 56
REMARK SMILES IDX 49 57 50 58 63 60 83 61 52 62 37 63 38 64 46 65 39 66 45 67
REMARK SMILES IDX 40 68 41 69 42 70 43 71 44 72 67 73 68 74 76 75 69 76 75 77
REMARK SMILES IDX 70 78 71 79 72 80 73 81 74 82 53 83 54 84 62 85 55 86 61 87
REMARK SMILES IDX 56 88 57 89 58 90 59 91 60 92
REMARK H PARENT 1 8 1 9 1 10 81 48 51 59
REMARK Flexibility Score: inf
ROOT
ATOM      1  C   UNL A   1      51.437  21.243  35.164  1.00  0.00       nan C 
ENDROOT
BRANCH   1   2
ATOM      2  C   UNL A   1      50.150  20.516  35.596  1.00  0.00       nan C 
BRANCH   2   3
ATOM      3  O   UNL A   1      49.033  21.344  35.982  1.00  0.00       nan OA
BRANCH   3   4
ATOM      4  C   UNL A   1      47.838  20.727  35.790  1.00  0.00       nan C 
ATOM      5  O   UNL A   1      47.588  20.073  34.774  1.00  0.00       nan OA
BRANCH   4   6
ATOM      6  C   UNL A   1      46.738  21.010  36.874  1.00  0.00       nan C 
BRANCH   6   7
ATOM      7  N   UNL A   1      45.665  20.059  36.456  1.00  0.00       nan N 
ATOM      8  H   UNL A   1      45.085  19.827  37.262  1.00  0.00       nan HD
ATOM      9  H   UNL A   1      46.089  19.208  36.087  1.00  0.00       nan HD
ATOM     10  H   UNL A   1      45.089  20.493  35.735  1.00  0.00       nan HD
ENDBRANCH   6   7
BRANCH   6  11
ATOM     11  C   UNL A   1      46.066  22.430  36.928  1.00  0.00       nan C 
BRANCH  11  12
ATOM     12  C   UNL A   1      45.256  22.936  35.744  1.00  0.00       nan A 
ATOM     13  C   UNL A   1      44.123  23.712  35.954  1.00  0.00       nan A 
ATOM     14  C   UNL A   1      45.624  22.702  34.413  1.00  0.00       nan A 
ATOM     15  C   UNL A   1      43.298  24.110  34.897  1.00  0.00       nan A 
ATOM     16  C   UNL A   1      44.779  23.036  33.350  1.00  0.00       nan A 
ATOM     17  C   UNL A   1      43.600  23.726  33.595  1.00  0.00       nan A 
ENDBRANCH  11  12
ENDBRANCH   6  11
BRANCH   6  18
ATOM     18  C   UNL A   1      47.443  20.607  38.211  1.00  0.00       nan C 
BRANCH  18  19
ATOM     19  C   UNL A   1      47.909  19.180  38.463  1.00  0.00       nan C 
BRANCH  19  20
ATOM     20  C   UNL A   1      47.133  18.365  39.470  1.00  0.00       nan C 
BRANCH  20  21
ATOM     21  P   UNL A   1      46.376  19.255  40.879  1.00  0.00       nan P 
ATOM     22  O   UNL A   1      45.102  18.428  40.816  1.00  0.00       nan OA
ATOM     23  O   UNL A   1      47.394  18.602  41.969  1.00  0.00       nan OA
ATOM     24  O   UNL A   1      45.661  20.095  42.212  1.00  0.00       nan OA
ENDBRANCH  20  21
ENDBRANCH  19  20
ENDBRANCH  18  19
ENDBRANCH   6  18
ENDBRANCH   4   6
ENDBRANCH   3   4
ENDBRANCH   2   3
ENDBRANCH   1   2
BRANCH   1  25
ATOM     25  O   UNL A   1      51.897  22.354  35.929  1.00  0.00       nan OA
BRANCH  25  26
ATOM     26  C   UNL A   1      51.596  23.670  35.465  1.00  0.00       nan C 
BRANCH  26  27
ATOM     27  C   UNL A   1      51.995  24.835  36.375  1.00  0.00       nan C 
BRANCH  27  28
ATOM     28  O   UNL A   1      50.828  25.400  36.990  1.00  0.00       inf OA
BRANCH  28  29
ATOM     29  C   UNL A   1      50.586  26.700  36.739  1.00  0.00     0.338 C 
ATOM     30  O   UNL A   1      51.238  27.656  37.127  1.00  0.00    -0.246 OA
BRANCH  29  31
ATOM     31  C   UNL A   1      49.393  26.778  35.878  1.00  0.00     0.060 A 
ATOM     32  C   UNL A   1      49.401  27.674  34.805  1.00  0.00     0.016 A 
ATOM     33  C   UNL A   1      48.246  26.039  36.178  1.00  0.00     0.016 A 
ATOM     34  C   UNL A   1      48.234  27.888  34.070  1.00  0.00     0.010 A 
ATOM     35  C   UNL A   1      47.082  26.239  35.426  1.00  0.00     0.010 A 
ATOM     36  C   UNL A   1      47.054  27.203  34.401  1.00  0.00    -0.014 A 
BRANCH  36  37
ATOM     37  C   UNL A   1      45.769  27.621  33.783  1.00  0.00     0.031 A 
ATOM     38  C   UNL A   1      44.993  28.757  34.402  1.00  0.00     0.074 A 
ATOM     39  C   UNL A   1      45.318  27.042  32.655  1.00  0.00     0.049 A 
ATOM     40  N   UNL A   1      43.882  29.317  33.996  1.00  0.00    -0.248 NA
ATOM     41  C   UNL A   1      45.543  29.338  35.638  1.00  0.00     0.031 C 
ATOM     42  C   UNL A   1      45.980  25.953  31.939  1.00  0.00     0.029 A 
ATOM     43  N   UNL A   1      44.192  27.300  31.910  1.00  0.00    -0.354 N 
ATOM     44  C   UNL A   1      43.601  30.316  34.922  1.00  0.00     0.074 A 
ATOM     45  C   UNL A   1      44.638  30.262  35.929  1.00  0.00     0.031 C 
ATOM     46  C   UNL A   1      45.251  25.640  30.853  1.00  0.00     0.029 A 
ATOM     47  C   UNL A   1      44.061  26.489  30.809  1.00  0.00     0.049 A 
ATOM     48  H   UNL A   1      43.541  28.000  32.145  1.00  0.00     0.167 HD
ATOM     49  C   UNL A   1      42.581  31.207  34.932  1.00  0.00     0.031 A 
ATOM     50  C   UNL A   1      43.091  26.430  29.874  1.00  0.00     0.031 A 
ATOM     51  C   UNL A   1      41.539  31.261  33.942  1.00  0.00     0.049 A 
ATOM     52  C   UNL A   1      41.931  27.389  29.940  1.00  0.00     0.074 A 
ATOM     53  C   UNL A   1      40.476  32.144  33.860  1.00  0.00     0.029 A 
ATOM     54  N   UNL A   1      41.422  30.393  32.868  1.00  0.00    -0.354 N 
ATOM     55  N   UNL A   1      41.706  28.354  30.799  1.00  0.00    -0.248 NA
ATOM     56  C   UNL A   1      40.899  27.258  28.899  1.00  0.00     0.031 C 
ATOM     57  C   UNL A   1      39.688  31.779  32.763  1.00  0.00     0.029 A 
ATOM     58  C   UNL A   1      40.289  30.701  32.133  1.00  0.00     0.049 A 
ATOM     59  H   UNL A   1      42.051  29.666  32.658  1.00  0.00     0.167 HD
ATOM     60  C   UNL A   1      40.520  28.956  30.392  1.00  0.00     0.074 A 
ATOM     61  C   UNL A   1      40.080  28.257  29.204  1.00  0.00     0.031 C 
ATOM     62  C   UNL A   1      39.857  29.999  30.952  1.00  0.00     0.031 A 
BRANCH  49  63
ATOM     63  C   UNL A   1      42.530  32.187  36.072  1.00  0.00    -0.014 A 
ATOM     64  C   UNL A   1      43.177  33.433  35.987  1.00  0.00     0.010 A 
ATOM     65  C   UNL A   1      41.795  31.874  37.230  1.00  0.00     0.010 A 
ATOM     66  C   UNL A   1      43.122  34.332  37.054  1.00  0.00     0.020 A 
ATOM     67  C   UNL A   1      41.719  32.780  38.290  1.00  0.00     0.020 A 
ATOM     68  C   UNL A   1      42.397  33.997  38.203  1.00  0.00     0.054 A 
BRANCH  68  69
ATOM     69  S   UNL A   1      42.328  35.188  39.570  1.00  0.00     0.124 S 
ATOM     70  O   UNL A   1      40.922  35.116  39.960  1.00  0.00    -0.237 OA
ATOM     71  O   UNL A   1      43.275  34.630  40.532  1.00  0.00    -0.237 OA
ATOM     72  O   UNL A   1      42.740  36.446  38.953  1.00  0.00    -0.744 OA
ENDBRANCH  68  69
ENDBRANCH  49  63
BRANCH  50  73
ATOM     73  C   UNL A   1      43.169  25.413  28.791  1.00  0.00    -0.014 A 
ATOM     74  C   UNL A   1      42.649  24.121  28.978  1.00  0.00     0.010 A 
ATOM     75  C   UNL A   1      43.766  25.739  27.559  1.00  0.00     0.010 A 
ATOM     76  C   UNL A   1      42.734  23.170  27.956  1.00  0.00     0.020 A 
ATOM     77  C   UNL A   1      43.832  24.799  26.527  1.00  0.00     0.020 A 
ATOM     78  C   UNL A   1      43.323  23.515  26.737  1.00  0.00     0.054 A 
BRANCH  78  79
ATOM     79  S   UNL A   1      43.371  22.285  25.404  1.00  0.00     0.124 S 
ATOM     80  O   UNL A   1      42.055  21.664  25.516  1.00  0.00    -0.237 OA
ATOM     81  O   UNL A   1      43.583  23.112  24.218  1.00  0.00    -0.237 OA
ATOM     82  O   UNL A   1      44.500  21.432  25.768  1.00  0.00    -0.744 OA
ENDBRANCH  78  79
ENDBRANCH  50  73
BRANCH  62  83
ATOM     83  C   UNL A   1      38.597  30.470  30.278  1.00  0.00    -0.014 A 
ATOM     84  C   UNL A   1      37.416  29.709  30.332  1.00  0.00     0.010 A 
ATOM     85  C   UNL A   1      38.576  31.724  29.640  1.00  0.00     0.010 A 
ATOM     86  C   UNL A   1      36.242  30.183  29.739  1.00  0.00     0.020 A 
ATOM     87  C   UNL A   1      37.399  32.212  29.066  1.00  0.00     0.020 A 
ATOM     88  C   UNL A   1      36.241  31.433  29.110  1.00  0.00     0.054 A 
BRANCH  88  89
ATOM     89  S   UNL A   1      34.692  32.053  28.395  1.00  0.00     0.124 S 
ATOM     90  O   UNL A   1      35.178  32.955  27.355  1.00  0.00    -0.237 OA
ATOM     91  O   UNL A   1      34.046  30.832  27.918  1.00  0.00    -0.237 OA
ATOM     92  O   UNL A   1      34.026  32.702  29.523  1.00  0.00    -0.744 OA
ENDBRANCH  88  89
ENDBRANCH  62  83
ENDBRANCH  36  37
ENDBRANCH  29  31
ENDBRANCH  28  29
ENDBRANCH  27  28
ENDBRANCH  26  27
ENDBRANCH  25  26
ENDBRANCH   1  25
TORSDOF 24
ENDMDL
