MODEL 1
REMARK VINA RESULT:     -10.6      0.000      0.000
REMARK SMILES O=C(OCCOCCOC(=O)c1ccc2c(c1)[C@@H](C1CCOCC1)C(=O)N2)c1ccc(-c2c3nc(c(-c4ccc(S(=O)(=O)[O-])cc4)c4ccc([nH]4)c(-c4ccc(S(=O)(=O)[O-])cc4)c4nc(c(-c5ccc(S(=O)(=O)[O-])cc5)c5ccc2[nH]5)C=C4)C=C3)cc1
REMARK SMILES IDX 5 1 4 2 3 3 2 4 1 5 28 6 29 7 87 8 30 9 86 10 31 11 32 12
REMARK SMILES IDX 33 13 80 14 34 15 85 16 79 17 81 18 35 19 84 20 78 21 77 22
REMARK SMILES IDX 36 24 66 25 47 26 65 27 48 28 51 29 64 30 82 31 49 32 50 33
REMARK SMILES IDX 63 35 83 36 52 37 37 38 38 39 46 40 39 41 45 42 40 43 41 44
REMARK SMILES IDX 42 45 43 46 44 47 67 48 68 49 76 50 69 51 75 52 70 53 71 54
REMARK SMILES IDX 72 55 73 56 74 57 53 58 54 59 62 60 55 61 61 62 56 63 57 64
REMARK SMILES IDX 58 65 59 66 60 67 6 68 7 69 8 70 9 71 10 72 11 73 12 74
REMARK SMILES IDX 13 75 17 76 14 77 16 78 15 79 18 80 27 81 25 82 26 84 19 85
REMARK SMILES IDX 20 86 24 87 21 88 23 89 22 90
REMARK H PARENT 81 23 51 34 27 83
REMARK Flexibility Score: inf
ROOT
ATOM      1  C   UNL A   1      31.805  28.739  25.702  1.00  0.00     0.202 C 
ENDROOT
BRANCH   1   2
ATOM      2  C   UNL A   1      32.154  29.487  26.990  1.00  0.00     0.261 C 
BRANCH   2   3
ATOM      3  O   UNL A   1      33.523  29.249  27.350  1.00  0.00    -0.460 OA
BRANCH   3   4
ATOM      4  C   UNL A   1      34.400  30.119  27.906  1.00  0.00     0.338 C 
ATOM      5  O   UNL A   1      33.991  31.227  28.250  1.00  0.00    -0.246 OA
BRANCH   4   6
ATOM      6  C   UNL A   1      35.843  29.804  28.128  1.00  0.00     0.060 A 
ATOM      7  C   UNL A   1      36.843  29.986  27.175  1.00  0.00     0.016 A 
ATOM      8  C   UNL A   1      36.231  29.388  29.412  1.00  0.00     0.016 A 
ATOM      9  C   UNL A   1      38.171  29.716  27.446  1.00  0.00     0.010 A 
ATOM     10  C   UNL A   1      37.579  29.161  29.716  1.00  0.00     0.010 A 
ATOM     11  C   UNL A   1      38.550  29.325  28.723  1.00  0.00    -0.014 A 
BRANCH  11  12
ATOM     12  C   UNL A   1      39.979  29.041  28.926  1.00  0.00     0.031 A 
ATOM     13  C   UNL A   1      40.812  30.055  29.643  1.00  0.00     0.074 A 
ATOM     14  C   UNL A   1      40.440  27.808  28.639  1.00  0.00     0.049 A 
ATOM     15  N   UNL A   1      42.074  30.001  29.964  1.00  0.00    -0.248 NA
ATOM     16  C   UNL A   1      40.127  31.285  30.082  1.00  0.00     0.031 C 
ATOM     17  C   UNL A   1      39.636  26.718  28.071  1.00  0.00     0.029 A 
ATOM     18  N   UNL A   1      41.669  27.242  28.836  1.00  0.00    -0.354 N 
ATOM     19  C   UNL A   1      42.342  31.194  30.622  1.00  0.00     0.074 A 
ATOM     20  C   UNL A   1      41.116  31.957  30.652  1.00  0.00     0.031 C 
ATOM     21  C   UNL A   1      40.386  25.607  28.001  1.00  0.00     0.029 A 
ATOM     22  C   UNL A   1      41.738  25.925  28.443  1.00  0.00     0.049 A 
ATOM     23  H   UNL A   1      42.432  27.729  29.222  1.00  0.00     0.167 HD
ATOM     24  C   UNL A   1      43.518  31.608  31.145  1.00  0.00     0.031 A 
ATOM     25  C   UNL A   1      42.791  25.088  28.412  1.00  0.00     0.031 A 
ATOM     26  C   UNL A   1      44.721  30.825  31.081  1.00  0.00     0.049 A 
ATOM     27  C   UNL A   1      44.114  25.623  28.890  1.00  0.00     0.074 A 
ATOM     28  C   UNL A   1      45.997  31.164  31.488  1.00  0.00     0.029 A 
ATOM     29  N   UNL A   1      44.788  29.533  30.573  1.00  0.00    -0.354 N 
ATOM     30  N   UNL A   1      44.381  26.790  29.431  1.00  0.00    -0.248 NA
ATOM     31  C   UNL A   1      45.278  24.744  28.740  1.00  0.00     0.031 C 
ATOM     32  C   UNL A   1      46.845  30.094  31.180  1.00  0.00     0.029 A 
ATOM     33  C   UNL A   1      46.087  29.066  30.640  1.00  0.00     0.049 A 
ATOM     34  H   UNL A   1      44.023  29.026  30.219  1.00  0.00     0.167 HD
ATOM     35  C   UNL A   1      45.743  26.782  29.697  1.00  0.00     0.074 A 
ATOM     36  C   UNL A   1      46.235  25.480  29.287  1.00  0.00     0.031 C 
ATOM     37  C   UNL A   1      46.526  27.759  30.218  1.00  0.00     0.031 A 
BRANCH  24  38
ATOM     38  C   UNL A   1      43.559  32.983  31.749  1.00  0.00    -0.014 A 
ATOM     39  C   UNL A   1      43.926  34.109  30.990  1.00  0.00     0.010 A 
ATOM     40  C   UNL A   1      43.224  33.150  33.105  1.00  0.00     0.010 A 
ATOM     41  C   UNL A   1      43.984  35.374  31.584  1.00  0.00     0.020 A 
ATOM     42  C   UNL A   1      43.259  34.415  33.697  1.00  0.00     0.020 A 
ATOM     43  C   UNL A   1      43.651  35.517  32.936  1.00  0.00     0.054 A 
BRANCH  43  44
ATOM     44  S   UNL A   1      43.708  37.173  33.675  1.00  0.00     0.124 S 
ATOM     45  O   UNL A   1      44.984  37.141  34.386  1.00  0.00    -0.237 OA
ATOM     46  O   UNL A   1      43.663  38.047  32.505  1.00  0.00    -0.237 OA
ATOM     47  O   UNL A   1      42.523  37.214  34.528  1.00  0.00    -0.744 OA
ENDBRANCH  43  44
ENDBRANCH  24  38
BRANCH  25  48
ATOM     48  C   UNL A   1      42.665  23.720  27.833  1.00  0.00    -0.014 A 
ATOM     49  C   UNL A   1      42.810  23.488  26.453  1.00  0.00     0.010 A 
ATOM     50  C   UNL A   1      42.354  22.629  28.670  1.00  0.00     0.010 A 
ATOM     51  C   UNL A   1      42.606  22.208  25.922  1.00  0.00     0.020 A 
ATOM     52  C   UNL A   1      42.186  21.345  28.150  1.00  0.00     0.020 A 
ATOM     53  C   UNL A   1      42.289  21.146  26.773  1.00  0.00     0.054 A 
BRANCH  53  54
ATOM     54  S   UNL A   1      42.022  19.496  26.067  1.00  0.00     0.124 S 
ATOM     55  O   UNL A   1      42.392  18.627  27.181  1.00  0.00    -0.237 OA
ATOM     56  O   UNL A   1      40.602  19.522  25.729  1.00  0.00    -0.237 OA
ATOM     57  O   UNL A   1      42.928  19.464  24.921  1.00  0.00    -0.744 OA
ENDBRANCH  53  54
ENDBRANCH  25  48
BRANCH  37  58
ATOM     58  C   UNL A   1      47.982  27.433  30.395  1.00  0.00    -0.014 A 
ATOM     59  C   UNL A   1      48.921  27.747  29.397  1.00  0.00     0.010 A 
ATOM     60  C   UNL A   1      48.415  26.841  31.594  1.00  0.00     0.010 A 
ATOM     61  C   UNL A   1      50.269  27.436  29.582  1.00  0.00     0.020 A 
ATOM     62  C   UNL A   1      49.766  26.559  31.794  1.00  0.00     0.020 A 
ATOM     63  C   UNL A   1      50.682  26.843  30.779  1.00  0.00     0.054 A 
BRANCH  63  64
ATOM     64  S   UNL A   1      52.442  26.481  31.010  1.00  0.00     0.124 S 
ATOM     65  O   UNL A   1      52.398  25.275  31.832  1.00  0.00    -0.237 OA
ATOM     66  O   UNL A   1      52.911  26.292  29.639  1.00  0.00    -0.237 OA
ATOM     67  O   UNL A   1      52.956  27.674  31.679  1.00  0.00    -0.744 OA
ENDBRANCH  63  64
ENDBRANCH  37  58
ENDBRANCH  11  12
ENDBRANCH   4   6
ENDBRANCH   3   4
ENDBRANCH   2   3
ENDBRANCH   1   2
BRANCH   1  68
ATOM     68  O   UNL A   1      32.133  29.439  24.504  1.00  0.00    -0.374 OA
BRANCH  68  69
ATOM     69  C   UNL A   1      31.794  28.794  23.274  1.00  0.00     0.202 C 
BRANCH  69  70
ATOM     70  C   UNL A   1      32.521  27.450  23.200  1.00  0.00     0.261 C 
BRANCH  70  71
ATOM     71  O   UNL A   1      31.779  26.588  22.321  1.00  0.00    -0.460 OA
BRANCH  71  72
ATOM     72  C   UNL A   1      32.453  25.495  21.882  1.00  0.00     0.338 C 
ATOM     73  O   UNL A   1      33.223  25.412  20.940  1.00  0.00    -0.246 OA
BRANCH  72  74
ATOM     74  C   UNL A   1      32.259  24.426  22.883  1.00  0.00     0.060 A 
ATOM     75  C   UNL A   1      31.091  24.416  23.672  1.00  0.00     0.018 A 
ATOM     76  C   UNL A   1      33.268  23.456  23.052  1.00  0.00     0.022 A 
ATOM     77  C   UNL A   1      30.889  23.404  24.607  1.00  0.00     0.027 A 
ATOM     78  C   UNL A   1      33.087  22.494  24.029  1.00  0.00    -0.011 A 
ATOM     79  C   UNL A   1      31.884  22.458  24.738  1.00  0.00     0.045 A 
ATOM     80  C   UNL A   1      33.956  21.328  24.462  1.00  0.00     0.114 C 
ATOM     81  N   UNL A   1      31.818  21.303  25.492  1.00  0.00    -0.325 N 
ATOM     82  C   UNL A   1      32.937  20.509  25.299  1.00  0.00     0.232 C 
ATOM     83  H   UNL A   1      31.070  21.073  26.091  1.00  0.00     0.169 HD
ATOM     84  O   UNL A   1      33.062  19.374  25.725  1.00  0.00    -0.274 OA
BRANCH  80  85
ATOM     85  C   UNL A   1      35.218  21.706  25.298  1.00  0.00     0.010 C 
ATOM     86  C   UNL A   1      35.318  23.234  25.509  1.00  0.00     0.033 C 
ATOM     87  C   UNL A   1      36.543  21.171  24.713  1.00  0.00     0.033 C 
ATOM     88  C   UNL A   1      36.627  23.668  26.156  1.00  0.00     0.160 C 
ATOM     89  C   UNL A   1      37.761  21.731  25.440  1.00  0.00     0.160 C 
ATOM     90  O   UNL A   1      37.742  23.154  25.430  1.00  0.00    -0.381 OA
ENDBRANCH  80  85
ENDBRANCH  72  74
ENDBRANCH  71  72
ENDBRANCH  70  71
ENDBRANCH  69  70
ENDBRANCH  68  69
ENDBRANCH   1  68
TORSDOF 18
ENDMDL
MODEL 2
REMARK VINA RESULT:     -10.5      4.302     10.402
REMARK SMILES O=C(OCCOCCOC(=O)c1ccc2c(c1)[C@@H](C1CCOCC1)C(=O)N2)c1ccc(-c2c3nc(c(-c4ccc(S(=O)(=O)[O-])cc4)c4ccc([nH]4)c(-c4ccc(S(=O)(=O)[O-])cc4)c4nc(c(-c5ccc(S(=O)(=O)[O-])cc5)c5ccc2[nH]5)C=C4)C=C3)cc1
REMARK SMILES IDX 5 1 4 2 3 3 2 4 1 5 28 6 29 7 87 8 30 9 86 10 31 11 32 12
REMARK SMILES IDX 33 13 80 14 34 15 85 16 79 17 81 18 35 19 84 20 78 21 77 22
REMARK SMILES IDX 36 24 66 25 47 26 65 27 48 28 51 29 64 30 82 31 49 32 50 33
REMARK SMILES IDX 63 35 83 36 52 37 37 38 38 39 46 40 39 41 45 42 40 43 41 44
REMARK SMILES IDX 42 45 43 46 44 47 67 48 68 49 76 50 69 51 75 52 70 53 71 54
REMARK SMILES IDX 72 55 73 56 74 57 53 58 54 59 62 60 55 61 61 62 56 63 57 64
REMARK SMILES IDX 58 65 59 66 60 67 6 68 7 69 8 70 9 71 10 72 11 73 12 74
REMARK SMILES IDX 13 75 17 76 14 77 16 78 15 79 18 80 27 81 25 82 26 84 19 85
REMARK SMILES IDX 20 86 24 87 21 88 23 89 22 90
REMARK H PARENT 81 23 51 34 27 83
REMARK Flexibility Score: inf
ROOT
ATOM      1  C   UNL A   1      43.320  21.832  25.705  1.00  0.00     0.202 C 
ENDROOT
BRANCH   1   2
ATOM      2  C   UNL A   1      43.120  23.253  25.173  1.00  0.00     0.261 C 
BRANCH   2   3
ATOM      3  O   UNL A   1      42.433  24.057  26.145  1.00  0.00    -0.460 OA
BRANCH   3   4
ATOM      4  C   UNL A   1      42.154  25.381  26.081  1.00  0.00     0.338 C 
ATOM      5  O   UNL A   1      42.111  25.920  24.976  1.00  0.00    -0.246 OA
BRANCH   4   6
ATOM      6  C   UNL A   1      41.890  26.226  27.284  1.00  0.00     0.060 A 
ATOM      7  C   UNL A   1      42.483  27.465  27.520  1.00  0.00     0.016 A 
ATOM      8  C   UNL A   1      40.910  25.787  28.189  1.00  0.00     0.016 A 
ATOM      9  C   UNL A   1      42.173  28.225  28.631  1.00  0.00     0.010 A 
ATOM     10  C   UNL A   1      40.548  26.571  29.291  1.00  0.00     0.010 A 
ATOM     11  C   UNL A   1      41.189  27.795  29.510  1.00  0.00    -0.014 A 
BRANCH  11  12
ATOM     12  C   UNL A   1      40.929  28.654  30.676  1.00  0.00     0.031 A 
ATOM     13  C   UNL A   1      41.887  28.605  31.824  1.00  0.00     0.074 A 
ATOM     14  C   UNL A   1      39.963  29.587  30.589  1.00  0.00     0.049 A 
ATOM     15  N   UNL A   1      41.878  29.295  32.929  1.00  0.00    -0.248 NA
ATOM     16  C   UNL A   1      43.024  27.674  31.699  1.00  0.00     0.031 C 
ATOM     17  C   UNL A   1      39.084  29.785  29.428  1.00  0.00     0.029 A 
ATOM     18  N   UNL A   1      39.591  30.578  31.455  1.00  0.00    -0.354 N 
ATOM     19  C   UNL A   1      42.990  28.869  33.643  1.00  0.00     0.074 A 
ATOM     20  C   UNL A   1      43.652  27.858  32.852  1.00  0.00     0.031 C 
ATOM     21  C   UNL A   1      38.302  30.856  29.644  1.00  0.00     0.029 A 
ATOM     22  C   UNL A   1      38.569  31.369  30.983  1.00  0.00     0.049 A 
ATOM     23  H   UNL A   1      40.014  30.713  32.334  1.00  0.00     0.167 HD
ATOM     24  C   UNL A   1      43.408  29.290  34.858  1.00  0.00     0.031 A 
ATOM     25  C   UNL A   1      37.903  32.370  31.586  1.00  0.00     0.031 A 
ATOM     26  C   UNL A   1      42.712  30.288  35.623  1.00  0.00     0.049 A 
ATOM     27  C   UNL A   1      38.316  32.729  32.987  1.00  0.00     0.074 A 
ATOM     28  C   UNL A   1      42.976  30.737  36.902  1.00  0.00     0.029 A 
ATOM     29  N   UNL A   1      41.608  30.996  35.164  1.00  0.00    -0.354 N 
ATOM     30  N   UNL A   1      39.318  32.258  33.695  1.00  0.00    -0.248 NA
ATOM     31  C   UNL A   1      37.507  33.738  33.680  1.00  0.00     0.031 C 
ATOM     32  C   UNL A   1      41.999  31.683  37.235  1.00  0.00     0.029 A 
ATOM     33  C   UNL A   1      41.166  31.867  36.141  1.00  0.00     0.049 A 
ATOM     34  H   UNL A   1      41.202  30.892  34.273  1.00  0.00     0.167 HD
ATOM     35  C   UNL A   1      39.267  32.921  34.913  1.00  0.00     0.074 A 
ATOM     36  C   UNL A   1      38.155  33.849  34.831  1.00  0.00     0.031 C 
ATOM     37  C   UNL A   1      40.052  32.773  36.009  1.00  0.00     0.031 A 
BRANCH  24  38
ATOM     38  C   UNL A   1      44.615  28.613  35.445  1.00  0.00    -0.014 A 
ATOM     39  C   UNL A   1      44.500  27.437  36.207  1.00  0.00     0.010 A 
ATOM     40  C   UNL A   1      45.889  29.169  35.231  1.00  0.00     0.010 A 
ATOM     41  C   UNL A   1      45.636  26.843  36.766  1.00  0.00     0.020 A 
ATOM     42  C   UNL A   1      47.029  28.567  35.769  1.00  0.00     0.020 A 
ATOM     43  C   UNL A   1      46.894  27.414  36.544  1.00  0.00     0.054 A 
BRANCH  43  44
ATOM     44  S   UNL A   1      48.354  26.609  37.259  1.00  0.00     0.124 S 
ATOM     45  O   UNL A   1      48.379  25.337  36.539  1.00  0.00    -0.237 OA
ATOM     46  O   UNL A   1      49.428  27.541  36.925  1.00  0.00    -0.237 OA
ATOM     47  O   UNL A   1      48.035  26.511  38.681  1.00  0.00    -0.744 OA
ENDBRANCH  43  44
ENDBRANCH  24  38
BRANCH  25  48
ATOM     48  C   UNL A   1      36.737  33.022  30.923  1.00  0.00    -0.014 A 
ATOM     49  C   UNL A   1      36.887  33.780  29.749  1.00  0.00     0.010 A 
ATOM     50  C   UNL A   1      35.455  32.919  31.500  1.00  0.00     0.010 A 
ATOM     51  C   UNL A   1      35.792  34.451  29.190  1.00  0.00     0.020 A 
ATOM     52  C   UNL A   1      34.352  33.557  30.927  1.00  0.00     0.020 A 
ATOM     53  C   UNL A   1      34.532  34.340  29.787  1.00  0.00     0.054 A 
BRANCH  53  54
ATOM     54  S   UNL A   1      33.125  35.221  29.055  1.00  0.00     0.124 S 
ATOM     55  O   UNL A   1      32.262  35.429  30.214  1.00  0.00    -0.237 OA
ATOM     56  O   UNL A   1      33.752  36.422  28.509  1.00  0.00    -0.237 OA
ATOM     57  O   UNL A   1      32.617  34.284  28.056  1.00  0.00    -0.744 OA
ENDBRANCH  53  54
ENDBRANCH  25  48
BRANCH  37  58
ATOM     58  C   UNL A   1      39.744  33.659  37.182  1.00  0.00    -0.014 A 
ATOM     59  C   UNL A   1      38.909  33.217  38.224  1.00  0.00     0.010 A 
ATOM     60  C   UNL A   1      40.332  34.933  37.258  1.00  0.00     0.010 A 
ATOM     61  C   UNL A   1      38.636  34.055  39.306  1.00  0.00     0.020 A 
ATOM     62  C   UNL A   1      40.087  35.760  38.353  1.00  0.00     0.020 A 
ATOM     63  C   UNL A   1      39.227  35.322  39.362  1.00  0.00     0.054 A 
BRANCH  63  64
ATOM     64  S   UNL A   1      38.884  36.379  40.793  1.00  0.00     0.124 S 
ATOM     65  O   UNL A   1      37.832  35.632  41.477  1.00  0.00    -0.237 OA
ATOM     66  O   UNL A   1      40.175  36.418  41.477  1.00  0.00    -0.237 OA
ATOM     67  O   UNL A   1      38.464  37.644  40.197  1.00  0.00    -0.744 OA
ENDBRANCH  63  64
ENDBRANCH  37  58
ENDBRANCH  11  12
ENDBRANCH   4   6
ENDBRANCH   3   4
ENDBRANCH   2   3
ENDBRANCH   1   2
BRANCH   1  68
ATOM     68  O   UNL A   1      42.364  21.425  26.679  1.00  0.00    -0.374 OA
BRANCH  68  69
ATOM     69  C   UNL A   1      41.113  20.939  26.185  1.00  0.00     0.202 C 
BRANCH  69  70
ATOM     70  C   UNL A   1      39.983  21.780  26.781  1.00  0.00     0.261 C 
BRANCH  70  71
ATOM     71  O   UNL A   1      38.910  21.828  25.825  1.00  0.00    -0.460 OA
BRANCH  71  72
ATOM     72  C   UNL A   1      38.104  22.916  25.918  1.00  0.00     0.338 C 
ATOM     73  O   UNL A   1      38.426  24.086  26.023  1.00  0.00    -0.246 OA
BRANCH  72  74
ATOM     74  C   UNL A   1      36.721  22.462  25.660  1.00  0.00     0.060 A 
ATOM     75  C   UNL A   1      36.487  21.127  25.277  1.00  0.00     0.018 A 
ATOM     76  C   UNL A   1      35.666  23.391  25.768  1.00  0.00     0.022 A 
ATOM     77  C   UNL A   1      35.187  20.683  25.047  1.00  0.00     0.027 A 
ATOM     78  C   UNL A   1      34.386  22.957  25.473  1.00  0.00    -0.011 A 
ATOM     79  C   UNL A   1      34.173  21.608  25.177  1.00  0.00     0.045 A 
ATOM     80  C   UNL A   1      33.053  23.680  25.490  1.00  0.00     0.114 C 
ATOM     81  N   UNL A   1      32.818  21.345  25.138  1.00  0.00    -0.325 N 
ATOM     82  C   UNL A   1      32.075  22.476  25.435  1.00  0.00     0.232 C 
ATOM     83  H   UNL A   1      32.429  20.465  24.927  1.00  0.00     0.169 HD
ATOM     84  O   UNL A   1      30.869  22.484  25.617  1.00  0.00    -0.274 OA
BRANCH  80  85
ATOM     85  C   UNL A   1      32.812  24.673  24.310  1.00  0.00     0.010 C 
ATOM     86  C   UNL A   1      32.946  23.965  22.942  1.00  0.00     0.033 C 
ATOM     87  C   UNL A   1      33.720  25.922  24.344  1.00  0.00     0.033 C 
ATOM     88  C   UNL A   1      32.906  24.927  21.761  1.00  0.00     0.160 C 
ATOM     89  C   UNL A   1      33.597  26.757  23.073  1.00  0.00     0.160 C 
ATOM     90  O   UNL A   1      33.870  25.964  21.923  1.00  0.00    -0.381 OA
ENDBRANCH  80  85
ENDBRANCH  72  74
ENDBRANCH  71  72
ENDBRANCH  70  71
ENDBRANCH  69  70
ENDBRANCH  68  69
ENDBRANCH   1  68
TORSDOF 18
ENDMDL
MODEL 3
REMARK VINA RESULT:     -10.4      0.817      8.242
REMARK SMILES O=C(OCCOCCOC(=O)c1ccc2c(c1)[C@@H](C1CCOCC1)C(=O)N2)c1ccc(-c2c3nc(c(-c4ccc(S(=O)(=O)[O-])cc4)c4ccc([nH]4)c(-c4ccc(S(=O)(=O)[O-])cc4)c4nc(c(-c5ccc(S(=O)(=O)[O-])cc5)c5ccc2[nH]5)C=C4)C=C3)cc1
REMARK SMILES IDX 5 1 4 2 3 3 2 4 1 5 28 6 29 7 87 8 30 9 86 10 31 11 32 12
REMARK SMILES IDX 33 13 80 14 34 15 85 16 79 17 81 18 35 19 84 20 78 21 77 22
REMARK SMILES IDX 36 24 66 25 47 26 65 27 48 28 51 29 64 30 82 31 49 32 50 33
REMARK SMILES IDX 63 35 83 36 52 37 37 38 38 39 46 40 39 41 45 42 40 43 41 44
REMARK SMILES IDX 42 45 43 46 44 47 67 48 68 49 76 50 69 51 75 52 70 53 71 54
REMARK SMILES IDX 72 55 73 56 74 57 53 58 54 59 62 60 55 61 61 62 56 63 57 64
REMARK SMILES IDX 58 65 59 66 60 67 6 68 7 69 8 70 9 71 10 72 11 73 12 74
REMARK SMILES IDX 13 75 17 76 14 77 16 78 15 79 18 80 27 81 25 82 26 84 19 85
REMARK SMILES IDX 20 86 24 87 21 88 23 89 22 90
REMARK H PARENT 81 23 51 34 27 83
REMARK Flexibility Score: inf
ROOT
ATOM      1  C   UNL A   1      32.656  27.683  25.764  1.00  0.00     0.202 C 
ENDROOT
BRANCH   1   2
ATOM      2  C   UNL A   1      33.982  28.107  26.400  1.00  0.00     0.261 C 
BRANCH   2   3
ATOM      3  O   UNL A   1      33.990  29.523  26.637  1.00  0.00    -0.460 OA
BRANCH   3   4
ATOM      4  C   UNL A   1      34.610  30.194  27.637  1.00  0.00     0.338 C 
ATOM      5  O   UNL A   1      33.994  31.087  28.217  1.00  0.00    -0.246 OA
BRANCH   4   6
ATOM      6  C   UNL A   1      36.007  29.905  28.079  1.00  0.00     0.060 A 
ATOM      7  C   UNL A   1      37.132  30.035  27.267  1.00  0.00     0.016 A 
ATOM      8  C   UNL A   1      36.210  29.573  29.428  1.00  0.00     0.016 A 
ATOM      9  C   UNL A   1      38.408  29.793  27.738  1.00  0.00     0.010 A 
ATOM     10  C   UNL A   1      37.502  29.377  29.933  1.00  0.00     0.010 A 
ATOM     11  C   UNL A   1      38.603  29.485  29.077  1.00  0.00    -0.014 A 
BRANCH  11  12
ATOM     12  C   UNL A   1      39.990  29.226  29.496  1.00  0.00     0.031 A 
ATOM     13  C   UNL A   1      40.618  27.925  29.113  1.00  0.00     0.074 A 
ATOM     14  C   UNL A   1      40.702  30.236  30.031  1.00  0.00     0.049 A 
ATOM     15  N   UNL A   1      41.829  27.501  29.340  1.00  0.00    -0.248 NA
ATOM     16  C   UNL A   1      39.780  26.983  28.347  1.00  0.00     0.031 C 
ATOM     17  C   UNL A   1      40.185  31.585  30.296  1.00  0.00     0.029 A 
ATOM     18  N   UNL A   1      42.019  30.312  30.394  1.00  0.00    -0.354 N 
ATOM     19  C   UNL A   1      41.896  26.238  28.767  1.00  0.00     0.074 A 
ATOM     20  C   UNL A   1      40.603  25.958  28.185  1.00  0.00     0.031 C 
ATOM     21  C   UNL A   1      41.185  32.361  30.744  1.00  0.00     0.029 A 
ATOM     22  C   UNL A   1      42.389  31.548  30.871  1.00  0.00     0.049 A 
ATOM     23  H   UNL A   1      42.643  29.554  30.320  1.00  0.00     0.167 HD
ATOM     24  C   UNL A   1      42.949  25.390  28.742  1.00  0.00     0.031 A 
ATOM     25  C   UNL A   1      43.561  31.958  31.388  1.00  0.00     0.031 A 
ATOM     26  C   UNL A   1      44.215  25.699  29.347  1.00  0.00     0.049 A 
ATOM     27  C   UNL A   1      44.676  30.950  31.457  1.00  0.00     0.074 A 
ATOM     28  C   UNL A   1      45.332  24.897  29.474  1.00  0.00     0.029 A 
ATOM     29  N   UNL A   1      44.528  26.923  29.926  1.00  0.00    -0.354 N 
ATOM     30  N   UNL A   1      44.703  29.721  30.991  1.00  0.00    -0.248 NA
ATOM     31  C   UNL A   1      45.910  31.370  32.130  1.00  0.00     0.031 C 
ATOM     32  C   UNL A   1      46.304  25.620  30.175  1.00  0.00     0.029 A 
ATOM     33  C   UNL A   1      45.814  26.893  30.429  1.00  0.00     0.049 A 
ATOM     34  H   UNL A   1      43.921  27.697  29.972  1.00  0.00     0.167 HD
ATOM     35  C   UNL A   1      45.960  29.224  31.307  1.00  0.00     0.074 A 
ATOM     36  C   UNL A   1      46.673  30.298  31.972  1.00  0.00     0.031 C 
ATOM     37  C   UNL A   1      46.480  27.991  31.083  1.00  0.00     0.031 A 
BRANCH  24  38
ATOM     38  C   UNL A   1      42.736  24.043  28.113  1.00  0.00    -0.014 A 
ATOM     39  C   UNL A   1      43.011  23.814  26.753  1.00  0.00     0.010 A 
ATOM     40  C   UNL A   1      42.248  22.984  28.901  1.00  0.00     0.010 A 
ATOM     41  C   UNL A   1      42.777  22.557  26.186  1.00  0.00     0.020 A 
ATOM     42  C   UNL A   1      42.034  21.721  28.344  1.00  0.00     0.020 A 
ATOM     43  C   UNL A   1      42.288  21.519  26.986  1.00  0.00     0.054 A 
BRANCH  43  44
ATOM     44  S   UNL A   1      42.018  19.892  26.232  1.00  0.00     0.124 S 
ATOM     45  O   UNL A   1      42.400  18.989  27.316  1.00  0.00    -0.237 OA
ATOM     46  O   UNL A   1      40.594  19.921  25.911  1.00  0.00    -0.237 OA
ATOM     47  O   UNL A   1      42.915  19.890  25.079  1.00  0.00    -0.744 OA
ENDBRANCH  43  44
ENDBRANCH  24  38
BRANCH  25  48
ATOM     48  C   UNL A   1      43.709  33.327  31.960  1.00  0.00    -0.014 A 
ATOM     49  C   UNL A   1      43.348  33.613  33.288  1.00  0.00     0.010 A 
ATOM     50  C   UNL A   1      44.184  34.378  31.149  1.00  0.00     0.010 A 
ATOM     51  C   UNL A   1      43.419  34.924  33.778  1.00  0.00     0.020 A 
ATOM     52  C   UNL A   1      44.291  35.679  31.644  1.00  0.00     0.020 A 
ATOM     53  C   UNL A   1      43.885  35.949  32.950  1.00  0.00     0.054 A 
BRANCH  53  54
ATOM     54  S   UNL A   1      43.964  37.642  33.598  1.00  0.00     0.124 S 
ATOM     55  O   UNL A   1      44.366  38.400  32.416  1.00  0.00    -0.237 OA
ATOM     56  O   UNL A   1      42.598  37.869  34.062  1.00  0.00    -0.237 OA
ATOM     57  O   UNL A   1      44.967  37.557  34.657  1.00  0.00    -0.744 OA
ENDBRANCH  53  54
ENDBRANCH  25  48
BRANCH  37  58
ATOM     58  C   UNL A   1      47.894  27.765  31.540  1.00  0.00    -0.014 A 
ATOM     59  C   UNL A   1      48.169  27.250  32.819  1.00  0.00     0.010 A 
ATOM     60  C   UNL A   1      48.955  28.036  30.659  1.00  0.00     0.010 A 
ATOM     61  C   UNL A   1      49.489  27.046  33.223  1.00  0.00     0.020 A 
ATOM     62  C   UNL A   1      50.273  27.802  31.048  1.00  0.00     0.020 A 
ATOM     63  C   UNL A   1      50.532  27.325  32.334  1.00  0.00     0.054 A 
BRANCH  63  64
ATOM     64  S   UNL A   1      52.235  27.019  32.870  1.00  0.00     0.124 S 
ATOM     65  O   UNL A   1      52.332  25.567  32.760  1.00  0.00    -0.237 OA
ATOM     66  O   UNL A   1      53.017  27.778  31.896  1.00  0.00    -0.237 OA
ATOM     67  O   UNL A   1      52.270  27.546  34.232  1.00  0.00    -0.744 OA
ENDBRANCH  63  64
ENDBRANCH  37  58
ENDBRANCH  11  12
ENDBRANCH   4   6
ENDBRANCH   3   4
ENDBRANCH   2   3
ENDBRANCH   1   2
BRANCH   1  68
ATOM     68  O   UNL A   1      32.762  27.235  24.416  1.00  0.00    -0.374 OA
BRANCH  68  69
ATOM     69  C   UNL A   1      33.840  27.773  23.645  1.00  0.00     0.202 C 
BRANCH  69  70
ATOM     70  C   UNL A   1      33.548  27.552  22.160  1.00  0.00     0.261 C 
BRANCH  70  71
ATOM     71  O   UNL A   1      32.408  26.683  22.053  1.00  0.00    -0.460 OA
BRANCH  71  72
ATOM     72  C   UNL A   1      32.653  25.480  21.474  1.00  0.00     0.338 C 
ATOM     73  O   UNL A   1      33.141  25.255  20.380  1.00  0.00    -0.246 OA
BRANCH  72  74
ATOM     74  C   UNL A   1      32.415  24.442  22.498  1.00  0.00     0.060 A 
ATOM     75  C   UNL A   1      31.210  24.449  23.229  1.00  0.00     0.018 A 
ATOM     76  C   UNL A   1      33.420  23.485  22.748  1.00  0.00     0.022 A 
ATOM     77  C   UNL A   1      30.966  23.467  24.185  1.00  0.00     0.027 A 
ATOM     78  C   UNL A   1      33.195  22.553  23.746  1.00  0.00    -0.011 A 
ATOM     79  C   UNL A   1      31.958  22.533  24.396  1.00  0.00     0.045 A 
ATOM     80  C   UNL A   1      34.047  21.408  24.258  1.00  0.00     0.114 C 
ATOM     81  N   UNL A   1      31.861  21.402  25.182  1.00  0.00    -0.325 N 
ATOM     82  C   UNL A   1      32.992  20.609  25.070  1.00  0.00     0.232 C 
ATOM     83  H   UNL A   1      31.086  21.186  25.751  1.00  0.00     0.169 HD
ATOM     84  O   UNL A   1      33.102  19.489  25.538  1.00  0.00    -0.274 OA
BRANCH  80  85
ATOM     85  C   UNL A   1      35.264  21.821  25.143  1.00  0.00     0.010 C 
ATOM     86  C   UNL A   1      35.276  23.343  25.412  1.00  0.00     0.033 C 
ATOM     87  C   UNL A   1      36.632  21.379  24.577  1.00  0.00     0.033 C 
ATOM     88  C   UNL A   1      36.543  23.821  26.111  1.00  0.00     0.160 C 
ATOM     89  C   UNL A   1      37.798  21.975  25.359  1.00  0.00     0.160 C 
ATOM     90  O   UNL A   1      37.702  23.395  25.399  1.00  0.00    -0.381 OA
ENDBRANCH  80  85
ENDBRANCH  72  74
ENDBRANCH  71  72
ENDBRANCH  70  71
ENDBRANCH  69  70
ENDBRANCH  68  69
ENDBRANCH   1  68
TORSDOF 18
ENDMDL
