MODEL 1
REMARK VINA RESULT:     -11.8      0.000      0.000
REMARK SMILES Cc1cccc(CC(=O)N2CCC3(CCC(=O)N([C@H](C)C(=O)OCCOCCOC(=O)c4ccc(-c5c6nc(c(-c7ccc(S(=O)(=O)[O-])cc7)c7ccc([nH]7)c(-c7ccc(S(=O)(=O)[O-])cc7)c7nc(c(-c8ccc(S(=O)(=O)[O-])cc8)c8ccc5[nH]8)C=C7)C=C6)cc4)C3)CC2)c1
REMARK SMILES IDX 26 1 25 2 24 3 23 4 21 5 22 6 19 7 20 8 18 9 8 10 9 11 10 12
REMARK SMILES IDX 11 13 94 14 12 15 93 16 13 17 14 18 92 19 15 20 16 21 17 22
REMARK SMILES IDX 7 23 6 24 1 25 2 26 3 27 95 28 4 29 5 30 27 31 28 32 29 33
REMARK SMILES IDX 30 34 31 35 32 36 33 37 91 38 34 39 90 40 35 41 36 42 37 43
REMARK SMILES IDX 84 44 38 45 89 46 83 47 85 48 39 49 88 50 82 51 81 52 40 54
REMARK SMILES IDX 70 55 51 56 69 57 52 58 55 59 68 60 86 61 53 62 54 63 67 65
REMARK SMILES IDX 87 66 56 67 41 68 42 69 50 70 43 71 49 72 44 73 45 74 46 75
REMARK SMILES IDX 47 76 48 77 71 78 72 79 80 80 73 81 79 82 74 83 75 84 76 85
REMARK SMILES IDX 77 86 78 87 57 88 58 89 66 90 59 91 65 92 60 93 61 94 62 95
REMARK SMILES IDX 63 96 64 97
REMARK H PARENT 85 53 55 64
REMARK Flexibility Score: inf
ROOT
ATOM      1  O   UNL A   1      34.169  31.998  28.861  1.00  0.00    -0.374 OA
ENDROOT
BRANCH   1   2
ATOM      2  C   UNL A   1      34.172  31.576  27.506  1.00  0.00     0.202 C 
BRANCH   2   3
ATOM      3  C   UNL A   1      33.170  30.458  27.396  1.00  0.00     0.261 C 
BRANCH   3   4
ATOM      4  O   UNL A   1      32.795  30.085  26.063  1.00  0.00    -0.462 OA
BRANCH   4   5
ATOM      5  C   UNL A   1      33.420  29.109  25.373  1.00  0.00     0.328 C 
ATOM      6  O   UNL A   1      34.175  28.251  25.809  1.00  0.00    -0.250 OA
BRANCH   5   7
ATOM      7  C   UNL A   1      33.018  29.207  23.915  1.00  0.00     0.192 C 
ATOM      8  C   UNL A   1      34.206  29.006  22.974  1.00  0.00     0.044 C 
BRANCH   7   9
ATOM      9  N   UNL A   1      31.875  28.328  23.617  1.00  0.00    -0.329 N 
ATOM     10  C   UNL A   1      31.546  22.783  26.338  1.00  0.00     0.226 C 
ATOM     11  O   UNL A   1      31.335  22.880  27.553  1.00  0.00    -0.275 OA
ATOM     12  N   UNL A   1      31.010  23.701  25.447  1.00  0.00    -0.342 N 
ATOM     13  C   UNL A   1      30.640  25.008  25.962  1.00  0.00     0.120 C 
ATOM     14  C   UNL A   1      30.798  23.552  24.005  1.00  0.00     0.120 C 
ATOM     15  C   UNL A   1      31.466  26.051  25.230  1.00  0.00     0.030 C 
ATOM     16  C   UNL A   1      31.628  24.560  23.215  1.00  0.00     0.030 C 
ATOM     17  C   UNL A   1      31.280  25.984  23.680  1.00  0.00    -0.008 C 
ATOM     18  C   UNL A   1      29.870  26.357  23.184  1.00  0.00     0.019 C 
ATOM     19  C   UNL A   1      32.192  27.027  23.042  1.00  0.00     0.127 C 
ATOM     20  C   UNL A   1      29.454  27.733  23.642  1.00  0.00     0.101 C 
ATOM     21  C   UNL A   1      30.558  28.757  23.784  1.00  0.00     0.223 C 
ATOM     22  O   UNL A   1      30.230  29.877  24.175  1.00  0.00    -0.275 OA
BRANCH  10  23
ATOM     23  C   UNL A   1      32.583  21.772  25.867  1.00  0.00     0.135 C 
BRANCH  23  24
ATOM     24  C   UNL A   1      33.931  22.305  25.474  1.00  0.00    -0.038 A 
ATOM     25  C   UNL A   1      37.330  20.842  24.571  1.00  0.00     0.044 C 
ATOM     26  C   UNL A   1      36.249  21.827  24.908  1.00  0.00    -0.051 A 
ATOM     27  C   UNL A   1      36.566  23.168  25.157  1.00  0.00     0.003 A 
ATOM     28  C   UNL A   1      34.922  21.409  25.037  1.00  0.00     0.007 A 
ATOM     29  C   UNL A   1      35.573  24.078  25.528  1.00  0.00     0.001 A 
ATOM     30  C   UNL A   1      34.255  23.652  25.679  1.00  0.00     0.004 A 
ENDBRANCH  23  24
ENDBRANCH  10  23
ENDBRANCH   7   9
ENDBRANCH   5   7
ENDBRANCH   4   5
ENDBRANCH   3   4
ENDBRANCH   2   3
ENDBRANCH   1   2
BRANCH   1  31
ATOM     31  C   UNL A   1      35.403  32.003  29.542  1.00  0.00     0.202 C 
BRANCH  31  32
ATOM     32  C   UNL A   1      36.606  32.144  28.607  1.00  0.00     0.261 C 
BRANCH  32  33
ATOM     33  O   UNL A   1      37.646  31.202  28.954  1.00  0.00    -0.460 OA
BRANCH  33  34
ATOM     34  C   UNL A   1      37.758  30.105  28.147  1.00  0.00     0.338 C 
ATOM     35  O   UNL A   1      36.861  29.710  27.416  1.00  0.00    -0.246 OA
BRANCH  34  36
ATOM     36  C   UNL A   1      39.114  29.495  28.271  1.00  0.00     0.060 A 
ATOM     37  C   UNL A   1      39.936  29.728  29.390  1.00  0.00     0.016 A 
ATOM     38  C   UNL A   1      39.643  28.855  27.157  1.00  0.00     0.016 A 
ATOM     39  C   UNL A   1      41.317  29.440  29.337  1.00  0.00     0.010 A 
ATOM     40  C   UNL A   1      41.007  28.696  27.064  1.00  0.00     0.010 A 
ATOM     41  C   UNL A   1      41.866  28.988  28.138  1.00  0.00    -0.014 A 
BRANCH  41  42
ATOM     42  C   UNL A   1      43.285  28.813  27.791  1.00  0.00     0.031 A 
ATOM     43  C   UNL A   1      44.017  30.009  27.297  1.00  0.00     0.074 A 
ATOM     44  C   UNL A   1      44.005  27.759  28.252  1.00  0.00     0.049 A 
ATOM     45  N   UNL A   1      45.261  30.011  26.968  1.00  0.00    -0.248 NA
ATOM     46  C   UNL A   1      43.394  31.320  27.104  1.00  0.00     0.031 C 
ATOM     47  C   UNL A   1      45.420  27.755  28.637  1.00  0.00     0.029 A 
ATOM     48  N   UNL A   1      43.630  26.434  28.428  1.00  0.00    -0.354 N 
ATOM     49  C   UNL A   1      45.673  31.320  26.885  1.00  0.00     0.074 A 
ATOM     50  C   UNL A   1      44.459  32.092  26.871  1.00  0.00     0.031 C 
ATOM     51  C   UNL A   1      45.846  26.493  28.801  1.00  0.00     0.029 A 
ATOM     52  C   UNL A   1      44.765  25.613  28.402  1.00  0.00     0.049 A 
ATOM     53  H   UNL A   1      42.705  26.119  28.552  1.00  0.00     0.167 HD
ATOM     54  C   UNL A   1      47.008  31.581  26.967  1.00  0.00     0.031 A 
ATOM     55  C   UNL A   1      44.845  24.562  27.540  1.00  0.00     0.031 A 
ATOM     56  C   UNL A   1      47.786  30.335  26.968  1.00  0.00     0.049 A 
ATOM     57  C   UNL A   1      45.924  24.849  26.527  1.00  0.00     0.074 A 
ATOM     58  C   UNL A   1      48.494  29.649  27.939  1.00  0.00     0.029 A 
ATOM     59  N   UNL A   1      47.637  29.455  25.897  1.00  0.00    -0.354 N 
ATOM     60  N   UNL A   1      46.387  26.055  26.334  1.00  0.00    -0.248 NA
ATOM     61  C   UNL A   1      46.638  23.856  25.732  1.00  0.00     0.031 C 
ATOM     62  C   UNL A   1      48.706  28.321  27.464  1.00  0.00     0.029 A 
ATOM     63  C   UNL A   1      48.163  28.213  26.192  1.00  0.00     0.049 A 
ATOM     64  H   UNL A   1      47.214  29.690  25.040  1.00  0.00     0.167 HD
ATOM     65  C   UNL A   1      47.450  26.022  25.489  1.00  0.00     0.074 A 
ATOM     66  C   UNL A   1      47.548  24.625  25.103  1.00  0.00     0.031 C 
ATOM     67  C   UNL A   1      48.159  27.148  25.191  1.00  0.00     0.031 A 
BRANCH  54  68
ATOM     68  C   UNL A   1      47.622  32.943  27.220  1.00  0.00    -0.014 A 
ATOM     69  C   UNL A   1      47.142  33.728  28.290  1.00  0.00     0.010 A 
ATOM     70  C   UNL A   1      48.632  33.534  26.436  1.00  0.00     0.010 A 
ATOM     71  C   UNL A   1      47.631  35.019  28.551  1.00  0.00     0.020 A 
ATOM     72  C   UNL A   1      49.135  34.820  26.686  1.00  0.00     0.020 A 
ATOM     73  C   UNL A   1      48.628  35.558  27.745  1.00  0.00     0.054 A 
BRANCH  73  74
ATOM     74  S   UNL A   1      49.258  37.219  28.098  1.00  0.00     0.124 S 
ATOM     75  O   UNL A   1      48.398  38.061  27.271  1.00  0.00    -0.237 OA
ATOM     76  O   UNL A   1      49.056  37.332  29.539  1.00  0.00    -0.237 OA
ATOM     77  O   UNL A   1      50.656  37.159  27.672  1.00  0.00    -0.744 OA
ENDBRANCH  73  74
ENDBRANCH  54  68
BRANCH  55  78
ATOM     78  C   UNL A   1      43.521  23.870  27.385  1.00  0.00    -0.014 A 
ATOM     79  C   UNL A   1      43.149  23.549  26.054  1.00  0.00     0.010 A 
ATOM     80  C   UNL A   1      43.019  23.062  28.421  1.00  0.00     0.010 A 
ATOM     81  C   UNL A   1      42.478  22.352  25.755  1.00  0.00     0.020 A 
ATOM     82  C   UNL A   1      42.352  21.857  28.121  1.00  0.00     0.020 A 
ATOM     83  C   UNL A   1      42.132  21.483  26.789  1.00  0.00     0.054 A 
BRANCH  83  84
ATOM     84  S   UNL A   1      41.640  19.765  26.389  1.00  0.00     0.124 S 
ATOM     85  O   UNL A   1      42.049  19.036  27.585  1.00  0.00    -0.237 OA
ATOM     86  O   UNL A   1      40.196  19.855  26.179  1.00  0.00    -0.237 OA
ATOM     87  O   UNL A   1      42.404  19.478  25.177  1.00  0.00    -0.744 OA
ENDBRANCH  83  84
ENDBRANCH  55  78
BRANCH  67  88
ATOM     88  C   UNL A   1      48.967  27.325  23.935  1.00  0.00    -0.014 A 
ATOM     89  C   UNL A   1      50.362  27.179  23.893  1.00  0.00     0.010 A 
ATOM     90  C   UNL A   1      48.296  27.473  22.698  1.00  0.00     0.010 A 
ATOM     91  C   UNL A   1      51.061  27.259  22.687  1.00  0.00     0.020 A 
ATOM     92  C   UNL A   1      48.979  27.489  21.482  1.00  0.00     0.020 A 
ATOM     93  C   UNL A   1      50.366  27.416  21.491  1.00  0.00     0.054 A 
BRANCH  93  94
ATOM     94  S   UNL A   1      51.296  27.490  19.945  1.00  0.00     0.124 S 
ATOM     95  O   UNL A   1      52.565  26.879  20.336  1.00  0.00    -0.237 OA
ATOM     96  O   UNL A   1      50.472  26.696  19.037  1.00  0.00    -0.237 OA
ATOM     97  O   UNL A   1      51.352  28.916  19.641  1.00  0.00    -0.744 OA
ENDBRANCH  93  94
ENDBRANCH  67  88
ENDBRANCH  41  42
ENDBRANCH  34  36
ENDBRANCH  33  34
ENDBRANCH  32  33
ENDBRANCH  31  32
ENDBRANCH   1  31
TORSDOF 20
ENDMDL
MODEL 2
REMARK VINA RESULT:     -11.5      4.762      9.774
REMARK SMILES Cc1cccc(CC(=O)N2CCC3(CCC(=O)N([C@H](C)C(=O)OCCOCCOC(=O)c4ccc(-c5c6nc(c(-c7ccc(S(=O)(=O)[O-])cc7)c7ccc([nH]7)c(-c7ccc(S(=O)(=O)[O-])cc7)c7nc(c(-c8ccc(S(=O)(=O)[O-])cc8)c8ccc5[nH]8)C=C7)C=C6)cc4)C3)CC2)c1
REMARK SMILES IDX 26 1 25 2 24 3 23 4 21 5 22 6 19 7 20 8 18 9 8 10 9 11 10 12
REMARK SMILES IDX 11 13 94 14 12 15 93 16 13 17 14 18 92 19 15 20 16 21 17 22
REMARK SMILES IDX 7 23 6 24 1 25 2 26 3 27 95 28 4 29 5 30 27 31 28 32 29 33
REMARK SMILES IDX 30 34 31 35 32 36 33 37 91 38 34 39 90 40 35 41 36 42 37 43
REMARK SMILES IDX 84 44 38 45 89 46 83 47 85 48 39 49 88 50 82 51 81 52 40 54
REMARK SMILES IDX 70 55 51 56 69 57 52 58 55 59 68 60 86 61 53 62 54 63 67 65
REMARK SMILES IDX 87 66 56 67 41 68 42 69 50 70 43 71 49 72 44 73 45 74 46 75
REMARK SMILES IDX 47 76 48 77 71 78 72 79 80 80 73 81 79 82 74 83 75 84 76 85
REMARK SMILES IDX 77 86 78 87 57 88 58 89 66 90 59 91 65 92 60 93 61 94 62 95
REMARK SMILES IDX 63 96 64 97
REMARK H PARENT 85 53 55 64
REMARK Flexibility Score: inf
ROOT
ATOM      1  O   UNL A   1      31.026  29.129  24.852  1.00  0.00    -0.374 OA
ENDROOT
BRANCH   1   2
ATOM      2  C   UNL A   1      30.653  29.377  23.504  1.00  0.00     0.202 C 
BRANCH   2   3
ATOM      3  C   UNL A   1      30.276  28.048  22.905  1.00  0.00     0.261 C 
BRANCH   3   4
ATOM      4  O   UNL A   1      31.146  26.953  23.219  1.00  0.00    -0.462 OA
BRANCH   4   5
ATOM      5  C   UNL A   1      31.850  26.286  22.282  1.00  0.00     0.328 C 
ATOM      6  O   UNL A   1      31.453  25.876  21.199  1.00  0.00    -0.250 OA
BRANCH   5   7
ATOM      7  C   UNL A   1      33.278  26.127  22.764  1.00  0.00     0.192 C 
ATOM      8  C   UNL A   1      33.660  27.189  23.795  1.00  0.00     0.044 C 
BRANCH   7   9
ATOM      9  N   UNL A   1      33.538  24.749  23.213  1.00  0.00    -0.329 N 
ATOM     10  C   UNL A   1      38.494  23.606  26.733  1.00  0.00     0.226 C 
ATOM     11  O   UNL A   1      38.380  24.102  27.861  1.00  0.00    -0.275 OA
ATOM     12  N   UNL A   1      37.386  23.125  26.052  1.00  0.00    -0.342 N 
ATOM     13  C   UNL A   1      36.081  23.641  26.430  1.00  0.00     0.120 C 
ATOM     14  C   UNL A   1      37.346  22.172  24.940  1.00  0.00     0.120 C 
ATOM     15  C   UNL A   1      35.478  24.323  25.215  1.00  0.00     0.030 C 
ATOM     16  C   UNL A   1      36.772  22.815  23.680  1.00  0.00     0.030 C 
ATOM     17  C   UNL A   1      35.370  23.369  23.983  1.00  0.00    -0.008 C 
ATOM     18  C   UNL A   1      34.381  22.201  24.157  1.00  0.00     0.019 C 
ATOM     19  C   UNL A   1      34.810  24.165  22.808  1.00  0.00     0.127 C 
ATOM     20  C   UNL A   1      32.991  22.682  24.495  1.00  0.00     0.101 C 
ATOM     21  C   UNL A   1      32.576  24.011  23.903  1.00  0.00     0.223 C 
ATOM     22  O   UNL A   1      31.452  24.418  24.189  1.00  0.00    -0.275 OA
BRANCH  10  23
ATOM     23  C   UNL A   1      39.834  23.740  26.022  1.00  0.00     0.135 C 
BRANCH  23  24
ATOM     24  C   UNL A   1      40.988  22.958  26.581  1.00  0.00    -0.038 A 
ATOM     25  C   UNL A   1      43.072  22.995  29.769  1.00  0.00     0.044 C 
ATOM     26  C   UNL A   1      42.590  22.658  28.388  1.00  0.00    -0.051 A 
ATOM     27  C   UNL A   1      43.376  21.873  27.535  1.00  0.00     0.003 A 
ATOM     28  C   UNL A   1      41.380  23.170  27.914  1.00  0.00     0.007 A 
ATOM     29  C   UNL A   1      42.959  21.604  26.229  1.00  0.00     0.001 A 
ATOM     30  C   UNL A   1      41.763  22.137  25.752  1.00  0.00     0.004 A 
ENDBRANCH  23  24
ENDBRANCH  10  23
ENDBRANCH   7   9
ENDBRANCH   5   7
ENDBRANCH   4   5
ENDBRANCH   3   4
ENDBRANCH   2   3
ENDBRANCH   1   2
BRANCH   1  31
ATOM     31  C   UNL A   1      32.165  29.798  25.344  1.00  0.00     0.202 C 
BRANCH  31  32
ATOM     32  C   UNL A   1      31.883  30.621  26.602  1.00  0.00     0.261 C 
BRANCH  32  33
ATOM     33  O   UNL A   1      32.924  30.436  27.587  1.00  0.00    -0.460 OA
BRANCH  33  34
ATOM     34  C   UNL A   1      33.788  31.482  27.752  1.00  0.00     0.338 C 
ATOM     35  O   UNL A   1      33.428  32.645  27.861  1.00  0.00    -0.246 OA
BRANCH  34  36
ATOM     36  C   UNL A   1      35.198  30.997  27.806  1.00  0.00     0.060 A 
ATOM     37  C   UNL A   1      35.514  29.625  27.816  1.00  0.00     0.016 A 
ATOM     38  C   UNL A   1      36.196  31.930  28.060  1.00  0.00     0.016 A 
ATOM     39  C   UNL A   1      36.798  29.189  28.212  1.00  0.00     0.010 A 
ATOM     40  C   UNL A   1      37.401  31.497  28.566  1.00  0.00     0.010 A 
ATOM     41  C   UNL A   1      37.722  30.131  28.659  1.00  0.00    -0.014 A 
BRANCH  41  42
ATOM     42  C   UNL A   1      39.028  29.900  29.296  1.00  0.00     0.031 A 
ATOM     43  C   UNL A   1      39.743  28.644  28.946  1.00  0.00     0.074 A 
ATOM     44  C   UNL A   1      39.739  30.915  29.850  1.00  0.00     0.049 A 
ATOM     45  N   UNL A   1      40.895  28.313  29.412  1.00  0.00    -0.248 NA
ATOM     46  C   UNL A   1      39.200  27.625  28.047  1.00  0.00     0.031 C 
ATOM     47  C   UNL A   1      41.196  31.073  29.860  1.00  0.00     0.029 A 
ATOM     48  N   UNL A   1      39.301  32.013  30.578  1.00  0.00    -0.354 N 
ATOM     49  C   UNL A   1      41.386  27.289  28.639  1.00  0.00     0.074 A 
ATOM     50  C   UNL A   1      40.257  26.826  27.875  1.00  0.00     0.031 C 
ATOM     51  C   UNL A   1      41.545  32.053  30.708  1.00  0.00     0.029 A 
ATOM     52  C   UNL A   1      40.341  32.490  31.387  1.00  0.00     0.049 A 
ATOM     53  H   UNL A   1      38.396  32.398  30.533  1.00  0.00     0.167 HD
ATOM     54  C   UNL A   1      42.728  27.052  28.658  1.00  0.00     0.031 A 
ATOM     55  C   UNL A   1      40.169  32.633  32.731  1.00  0.00     0.031 A 
ATOM     56  C   UNL A   1      43.391  27.880  29.676  1.00  0.00     0.049 A 
ATOM     57  C   UNL A   1      41.050  31.636  33.439  1.00  0.00     0.074 A 
ATOM     58  C   UNL A   1      44.217  28.989  29.619  1.00  0.00     0.029 A 
ATOM     59  N   UNL A   1      42.968  27.773  31.000  1.00  0.00    -0.354 N 
ATOM     60  N   UNL A   1      41.561  30.604  32.823  1.00  0.00    -0.248 NA
ATOM     61  C   UNL A   1      41.516  31.734  34.819  1.00  0.00     0.031 C 
ATOM     62  C   UNL A   1      44.227  29.588  30.912  1.00  0.00     0.029 A 
ATOM     63  C   UNL A   1      43.441  28.823  31.762  1.00  0.00     0.049 A 
ATOM     64  H   UNL A   1      42.406  27.044  31.347  1.00  0.00     0.167 HD
ATOM     65  C   UNL A   1      42.434  29.955  33.635  1.00  0.00     0.074 A 
ATOM     66  C   UNL A   1      42.345  30.675  34.894  1.00  0.00     0.031 C 
ATOM     67  C   UNL A   1      43.158  28.887  33.194  1.00  0.00     0.031 A 
BRANCH  54  68
ATOM     68  C   UNL A   1      43.485  26.208  27.653  1.00  0.00    -0.014 A 
ATOM     69  C   UNL A   1      44.717  25.629  28.027  1.00  0.00     0.010 A 
ATOM     70  C   UNL A   1      43.078  25.973  26.325  1.00  0.00     0.010 A 
ATOM     71  C   UNL A   1      45.494  24.878  27.130  1.00  0.00     0.020 A 
ATOM     72  C   UNL A   1      43.841  25.219  25.418  1.00  0.00     0.020 A 
ATOM     73  C   UNL A   1      45.049  24.676  25.828  1.00  0.00     0.054 A 
BRANCH  73  74
ATOM     74  S   UNL A   1      46.055  23.696  24.685  1.00  0.00     0.124 S 
ATOM     75  O   UNL A   1      46.494  22.586  25.527  1.00  0.00    -0.237 OA
ATOM     76  O   UNL A   1      45.097  23.353  23.638  1.00  0.00    -0.237 OA
ATOM     77  O   UNL A   1      47.115  24.616  24.276  1.00  0.00    -0.744 OA
ENDBRANCH  73  74
ENDBRANCH  54  68
BRANCH  55  78
ATOM     78  C   UNL A   1      38.790  33.125  33.063  1.00  0.00    -0.014 A 
ATOM     79  C   UNL A   1      38.443  34.389  32.521  1.00  0.00     0.010 A 
ATOM     80  C   UNL A   1      37.751  32.208  33.312  1.00  0.00     0.010 A 
ATOM     81  C   UNL A   1      37.144  34.648  32.052  1.00  0.00     0.020 A 
ATOM     82  C   UNL A   1      36.449  32.465  32.836  1.00  0.00     0.020 A 
ATOM     83  C   UNL A   1      36.166  33.660  32.163  1.00  0.00     0.054 A 
BRANCH  83  84
ATOM     84  S   UNL A   1      34.614  33.824  31.204  1.00  0.00     0.124 S 
ATOM     85  O   UNL A   1      35.069  34.478  29.982  1.00  0.00    -0.237 OA
ATOM     86  O   UNL A   1      34.158  32.445  31.039  1.00  0.00    -0.237 OA
ATOM     87  O   UNL A   1      33.770  34.632  32.080  1.00  0.00    -0.744 OA
ENDBRANCH  83  84
ENDBRANCH  55  78
BRANCH  67  88
ATOM     88  C   UNL A   1      43.719  27.822  34.096  1.00  0.00    -0.014 A 
ATOM     89  C   UNL A   1      44.715  28.071  35.052  1.00  0.00     0.010 A 
ATOM     90  C   UNL A   1      43.110  26.545  34.119  1.00  0.00     0.010 A 
ATOM     91  C   UNL A   1      45.139  27.074  35.932  1.00  0.00     0.020 A 
ATOM     92  C   UNL A   1      43.480  25.562  35.037  1.00  0.00     0.020 A 
ATOM     93  C   UNL A   1      44.521  25.826  35.917  1.00  0.00     0.054 A 
BRANCH  93  94
ATOM     94  S   UNL A   1      45.074  24.565  37.084  1.00  0.00     0.124 S 
ATOM     95  O   UNL A   1      44.254  24.870  38.255  1.00  0.00    -0.237 OA
ATOM     96  O   UNL A   1      44.742  23.321  36.394  1.00  0.00    -0.237 OA
ATOM     97  O   UNL A   1      46.502  24.828  37.231  1.00  0.00    -0.744 OA
ENDBRANCH  93  94
ENDBRANCH  67  88
ENDBRANCH  41  42
ENDBRANCH  34  36
ENDBRANCH  33  34
ENDBRANCH  32  33
ENDBRANCH  31  32
ENDBRANCH   1  31
TORSDOF 20
ENDMDL
MODEL 3
REMARK VINA RESULT:     -11.5      3.534      7.636
REMARK SMILES Cc1cccc(CC(=O)N2CCC3(CCC(=O)N([C@H](C)C(=O)OCCOCCOC(=O)c4ccc(-c5c6nc(c(-c7ccc(S(=O)(=O)[O-])cc7)c7ccc([nH]7)c(-c7ccc(S(=O)(=O)[O-])cc7)c7nc(c(-c8ccc(S(=O)(=O)[O-])cc8)c8ccc5[nH]8)C=C7)C=C6)cc4)C3)CC2)c1
REMARK SMILES IDX 26 1 25 2 24 3 23 4 21 5 22 6 19 7 20 8 18 9 8 10 9 11 10 12
REMARK SMILES IDX 11 13 94 14 12 15 93 16 13 17 14 18 92 19 15 20 16 21 17 22
REMARK SMILES IDX 7 23 6 24 1 25 2 26 3 27 95 28 4 29 5 30 27 31 28 32 29 33
REMARK SMILES IDX 30 34 31 35 32 36 33 37 91 38 34 39 90 40 35 41 36 42 37 43
REMARK SMILES IDX 84 44 38 45 89 46 83 47 85 48 39 49 88 50 82 51 81 52 40 54
REMARK SMILES IDX 70 55 51 56 69 57 52 58 55 59 68 60 86 61 53 62 54 63 67 65
REMARK SMILES IDX 87 66 56 67 41 68 42 69 50 70 43 71 49 72 44 73 45 74 46 75
REMARK SMILES IDX 47 76 48 77 71 78 72 79 80 80 73 81 79 82 74 83 75 84 76 85
REMARK SMILES IDX 77 86 78 87 57 88 58 89 66 90 59 91 65 92 60 93 61 94 62 95
REMARK SMILES IDX 63 96 64 97
REMARK H PARENT 85 53 55 64
REMARK Flexibility Score: inf
ROOT
ATOM      1  O   UNL A   1      35.128  32.109  27.385  1.00  0.00    -0.374 OA
ENDROOT
BRANCH   1   2
ATOM      2  C   UNL A   1      33.822  31.736  27.800  1.00  0.00     0.202 C 
BRANCH   2   3
ATOM      3  C   UNL A   1      33.604  30.322  27.332  1.00  0.00     0.261 C 
BRANCH   3   4
ATOM      4  O   UNL A   1      33.441  30.152  25.918  1.00  0.00    -0.462 OA
BRANCH   4   5
ATOM      5  C   UNL A   1      33.667  28.978  25.292  1.00  0.00     0.328 C 
ATOM      6  O   UNL A   1      34.172  27.967  25.759  1.00  0.00    -0.250 OA
BRANCH   5   7
ATOM      7  C   UNL A   1      33.161  29.080  23.866  1.00  0.00     0.192 C 
ATOM      8  C   UNL A   1      34.279  28.882  22.842  1.00  0.00     0.044 C 
BRANCH   7   9
ATOM      9  N   UNL A   1      32.001  28.200  23.649  1.00  0.00    -0.329 N 
ATOM     10  C   UNL A   1      31.796  22.718  26.507  1.00  0.00     0.226 C 
ATOM     11  O   UNL A   1      31.651  22.843  27.729  1.00  0.00    -0.275 OA
ATOM     12  N   UNL A   1      31.217  23.619  25.626  1.00  0.00    -0.342 N 
ATOM     13  C   UNL A   1      30.880  24.939  26.131  1.00  0.00     0.120 C 
ATOM     14  C   UNL A   1      30.928  23.439  24.200  1.00  0.00     0.120 C 
ATOM     15  C   UNL A   1      31.670  25.962  25.332  1.00  0.00     0.030 C 
ATOM     16  C   UNL A   1      31.719  24.426  23.345  1.00  0.00     0.030 C 
ATOM     17  C   UNL A   1      31.401  25.861  23.796  1.00  0.00    -0.008 C 
ATOM     18  C   UNL A   1      29.968  26.230  23.368  1.00  0.00     0.019 C 
ATOM     19  C   UNL A   1      32.282  26.885  23.087  1.00  0.00     0.127 C 
ATOM     20  C   UNL A   1      29.583  27.618  23.817  1.00  0.00     0.101 C 
ATOM     21  C   UNL A   1      30.697  28.640  23.877  1.00  0.00     0.223 C 
ATOM     22  O   UNL A   1      30.394  29.769  24.259  1.00  0.00    -0.275 OA
BRANCH  10  23
ATOM     23  C   UNL A   1      32.803  21.692  26.004  1.00  0.00     0.135 C 
BRANCH  23  24
ATOM     24  C   UNL A   1      34.160  22.199  25.608  1.00  0.00    -0.038 A 
ATOM     25  C   UNL A   1      37.571  20.681  24.855  1.00  0.00     0.044 C 
ATOM     26  C   UNL A   1      36.487  21.685  25.115  1.00  0.00    -0.051 A 
ATOM     27  C   UNL A   1      36.803  23.038  25.294  1.00  0.00     0.003 A 
ATOM     28  C   UNL A   1      35.157  21.278  25.242  1.00  0.00     0.007 A 
ATOM     29  C   UNL A   1      35.806  23.969  25.594  1.00  0.00     0.001 A 
ATOM     30  C   UNL A   1      34.484  23.555  25.743  1.00  0.00     0.004 A 
ENDBRANCH  23  24
ENDBRANCH  10  23
ENDBRANCH   7   9
ENDBRANCH   5   7
ENDBRANCH   4   5
ENDBRANCH   3   4
ENDBRANCH   2   3
ENDBRANCH   1   2
BRANCH   1  31
ATOM     31  C   UNL A   1      36.124  32.201  28.378  1.00  0.00     0.202 C 
BRANCH  31  32
ATOM     32  C   UNL A   1      35.899  31.240  29.547  1.00  0.00     0.261 C 
BRANCH  32  33
ATOM     33  O   UNL A   1      36.582  29.986  29.327  1.00  0.00    -0.460 OA
BRANCH  33  34
ATOM     34  C   UNL A   1      37.036  29.344  30.444  1.00  0.00     0.338 C 
ATOM     35  O   UNL A   1      36.417  29.301  31.497  1.00  0.00    -0.246 OA
BRANCH  34  36
ATOM     36  C   UNL A   1      38.354  28.696  30.181  1.00  0.00     0.060 A 
ATOM     37  C   UNL A   1      39.327  28.550  31.189  1.00  0.00     0.016 A 
ATOM     38  C   UNL A   1      38.694  28.425  28.861  1.00  0.00     0.016 A 
ATOM     39  C   UNL A   1      40.668  28.263  30.854  1.00  0.00     0.010 A 
ATOM     40  C   UNL A   1      40.021  28.273  28.531  1.00  0.00     0.010 A 
ATOM     41  C   UNL A   1      41.029  28.197  29.509  1.00  0.00    -0.014 A 
BRANCH  41  42
ATOM     42  C   UNL A   1      42.376  28.108  28.927  1.00  0.00     0.031 A 
ATOM     43  C   UNL A   1      42.936  26.748  28.711  1.00  0.00     0.074 A 
ATOM     44  C   UNL A   1      42.931  29.149  28.255  1.00  0.00     0.049 A 
ATOM     45  N   UNL A   1      44.093  26.514  28.199  1.00  0.00    -0.248 NA
ATOM     46  C   UNL A   1      42.239  25.515  29.081  1.00  0.00     0.031 C 
ATOM     47  C   UNL A   1      43.810  29.079  27.084  1.00  0.00     0.029 A 
ATOM     48  N   UNL A   1      42.865  30.511  28.515  1.00  0.00    -0.354 N 
ATOM     49  C   UNL A   1      44.139  25.187  27.846  1.00  0.00     0.074 A 
ATOM     50  C   UNL A   1      43.011  24.586  28.510  1.00  0.00     0.031 C 
ATOM     51  C   UNL A   1      44.359  30.282  26.852  1.00  0.00     0.029 A 
ATOM     52  C   UNL A   1      43.965  31.158  27.938  1.00  0.00     0.049 A 
ATOM     53  H   UNL A   1      42.151  30.956  29.028  1.00  0.00     0.167 HD
ATOM     54  C   UNL A   1      45.066  24.795  26.928  1.00  0.00     0.031 A 
ATOM     55  C   UNL A   1      44.785  31.943  28.690  1.00  0.00     0.031 A 
ATOM     56  C   UNL A   1      45.979  25.900  26.602  1.00  0.00     0.049 A 
ATOM     57  C   UNL A   1      46.139  31.285  28.776  1.00  0.00     0.074 A 
ATOM     58  C   UNL A   1      46.138  26.716  25.496  1.00  0.00     0.029 A 
ATOM     59  N   UNL A   1      46.699  26.496  27.636  1.00  0.00    -0.354 N 
ATOM     60  N   UNL A   1      46.313  30.022  28.490  1.00  0.00    -0.248 NA
ATOM     61  C   UNL A   1      47.399  31.956  29.078  1.00  0.00     0.031 C 
ATOM     62  C   UNL A   1      46.905  27.848  25.899  1.00  0.00     0.029 A 
ATOM     63  C   UNL A   1      47.244  27.700  27.237  1.00  0.00     0.049 A 
ATOM     64  H   UNL A   1      46.806  26.108  28.534  1.00  0.00     0.167 HD
ATOM     65  C   UNL A   1      47.636  29.716  28.496  1.00  0.00     0.074 A 
ATOM     66  C   UNL A   1      48.280  30.950  28.909  1.00  0.00     0.031 C 
ATOM     67  C   UNL A   1      48.082  28.474  28.151  1.00  0.00     0.031 A 
BRANCH  54  68
ATOM     68  C   UNL A   1      45.060  23.476  26.183  1.00  0.00    -0.014 A 
ATOM     69  C   UNL A   1      43.968  22.597  26.343  1.00  0.00     0.010 A 
ATOM     70  C   UNL A   1      46.099  23.013  25.349  1.00  0.00     0.010 A 
ATOM     71  C   UNL A   1      43.922  21.337  25.722  1.00  0.00     0.020 A 
ATOM     72  C   UNL A   1      46.065  21.760  24.718  1.00  0.00     0.020 A 
ATOM     73  C   UNL A   1      44.974  20.926  24.910  1.00  0.00     0.054 A 
BRANCH  73  74
ATOM     74  S   UNL A   1      44.898  19.306  24.106  1.00  0.00     0.124 S 
ATOM     75  O   UNL A   1      43.989  18.567  24.978  1.00  0.00    -0.237 OA
ATOM     76  O   UNL A   1      44.376  19.635  22.783  1.00  0.00    -0.237 OA
ATOM     77  O   UNL A   1      46.284  18.842  24.126  1.00  0.00    -0.744 OA
ENDBRANCH  73  74
ENDBRANCH  54  68
BRANCH  55  78
ATOM     78  C   UNL A   1      44.016  32.728  29.712  1.00  0.00    -0.014 A 
ATOM     79  C   UNL A   1      43.012  33.588  29.196  1.00  0.00     0.010 A 
ATOM     80  C   UNL A   1      43.841  32.219  31.012  1.00  0.00     0.010 A 
ATOM     81  C   UNL A   1      41.789  33.763  29.866  1.00  0.00     0.020 A 
ATOM     82  C   UNL A   1      42.611  32.388  31.681  1.00  0.00     0.020 A 
ATOM     83  C   UNL A   1      41.574  33.115  31.081  1.00  0.00     0.054 A 
BRANCH  83  84
ATOM     84  S   UNL A   1      39.872  33.001  31.747  1.00  0.00     0.124 S 
ATOM     85  O   UNL A   1      39.904  31.734  32.470  1.00  0.00    -0.237 OA
ATOM     86  O   UNL A   1      39.744  34.192  32.584  1.00  0.00    -0.237 OA
ATOM     87  O   UNL A   1      39.046  33.025  30.543  1.00  0.00    -0.744 OA
ENDBRANCH  83  84
ENDBRANCH  55  78
BRANCH  67  88
ATOM     88  C   UNL A   1      49.392  27.895  28.607  1.00  0.00    -0.014 A 
ATOM     89  C   UNL A   1      50.515  27.785  27.773  1.00  0.00     0.010 A 
ATOM     90  C   UNL A   1      49.577  27.601  29.979  1.00  0.00     0.010 A 
ATOM     91  C   UNL A   1      51.739  27.328  28.264  1.00  0.00     0.020 A 
ATOM     92  C   UNL A   1      50.812  27.206  30.493  1.00  0.00     0.020 A 
ATOM     93  C   UNL A   1      51.879  27.039  29.620  1.00  0.00     0.054 A 
BRANCH  93  94
ATOM     94  S   UNL A   1      53.481  26.475  30.230  1.00  0.00     0.124 S 
ATOM     95  O   UNL A   1      53.084  25.437  31.181  1.00  0.00    -0.237 OA
ATOM     96  O   UNL A   1      54.136  25.995  29.016  1.00  0.00    -0.237 OA
ATOM     97  O   UNL A   1      54.070  27.673  30.819  1.00  0.00    -0.744 OA
ENDBRANCH  93  94
ENDBRANCH  67  88
ENDBRANCH  41  42
ENDBRANCH  34  36
ENDBRANCH  33  34
ENDBRANCH  32  33
ENDBRANCH  31  32
ENDBRANCH   1  31
TORSDOF 20
ENDMDL
