MODEL 1
REMARK VINA RESULT:     -10.9      0.000      0.000
REMARK SMILES N#Cc1cnc2cc(C(=O)OCCOCCOC(=O)c3ccc(-c4c5nc(c(-c6ccc(S(=O)(=O)[O-])cc6)c6ccc([nH]6)c(-c6ccc(S(=O)(=O)[O-])cc6)c6nc(c(-c7ccc(S(=O)(=O)[O-])cc7)c7ccc4[nH]7)C=C6)C=C5)cc3)[nH]c2c1
REMARK SMILES IDX 15 1 14 2 13 3 12 4 11 5 9 6 10 7 8 8 3 9 4 10 82 11 5 12
REMARK SMILES IDX 81 13 6 14 80 15 7 16 2 18 1 19 16 20 17 21 18 22 19 23
REMARK SMILES IDX 20 24 21 25 79 26 22 27 78 28 23 29 24 30 25 31 72 32 26 33
REMARK SMILES IDX 77 34 71 35 73 36 27 37 76 38 70 39 69 40 28 42 58 43 39 44
REMARK SMILES IDX 57 45 40 46 43 47 56 48 74 49 41 50 42 51 55 53 75 54 44 55
REMARK SMILES IDX 29 56 30 57 38 58 31 59 37 60 32 61 33 62 34 63 35 64 36 65
REMARK SMILES IDX 59 66 60 67 68 68 61 69 67 70 62 71 63 72 64 73 65 74 66 75
REMARK SMILES IDX 45 76 46 77 54 78 47 79 53 80 48 81 49 82 50 83 51 84 52 85
REMARK H PARENT 80 17 73 41 43 52
REMARK Flexibility Score: inf
ROOT
ATOM      1  C   UNL A   1      37.625  21.598  25.002  1.00  0.00     0.202 C 
ENDROOT
BRANCH   1   2
ATOM      2  O   UNL A   1      37.275  22.850  24.423  1.00  0.00    -0.374 OA
BRANCH   2   3
ATOM      3  C   UNL A   1      36.160  23.592  24.912  1.00  0.00     0.202 C 
BRANCH   3   4
ATOM      4  C   UNL A   1      35.209  24.251  23.906  1.00  0.00     0.261 C 
BRANCH   4   5
ATOM      5  O   UNL A   1      34.219  23.355  23.379  1.00  0.00    -0.459 OA
BRANCH   5   6
ATOM      6  C   UNL A   1      33.204  23.058  24.232  1.00  0.00     0.354 C 
ATOM      7  O   UNL A   1      32.342  23.834  24.618  1.00  0.00    -0.244 OA
BRANCH   6   8
ATOM      8  C   UNL A   1      33.149  21.638  24.465  1.00  0.00     0.127 A 
ATOM      9  C   UNL A   1      34.188  17.226  25.033  1.00  0.00     0.072 A 
ATOM     10  C   UNL A   1      32.824  17.237  25.302  1.00  0.00     0.131 A 
ATOM     11  C   UNL A   1      34.824  18.421  24.692  1.00  0.00     0.049 A 
ATOM     12  N   UNL A   1      32.025  18.332  25.280  1.00  0.00    -0.253 NA
ATOM     13  C   UNL A   1      34.006  19.550  24.643  1.00  0.00     0.066 A 
ATOM     14  C   UNL A   1      32.651  19.487  24.954  1.00  0.00     0.089 A 
ATOM     15  N   UNL A   1      34.275  20.853  24.314  1.00  0.00    -0.348 N 
ATOM     16  C   UNL A   1      32.127  20.800  24.872  1.00  0.00     0.064 A 
ATOM     17  H   UNL A   1      35.151  21.184  24.012  1.00  0.00     0.167 HD
BRANCH   9  18
ATOM     18  C   UNL A   1      34.928  16.000  25.087  1.00  0.00     0.101 C 
ATOM     19  N   UNL A   1      35.514  15.004  25.103  1.00  0.00    -0.192 NA
ENDBRANCH   9  18
ENDBRANCH   6   8
ENDBRANCH   5   6
ENDBRANCH   4   5
ENDBRANCH   3   4
ENDBRANCH   2   3
ENDBRANCH   1   2
BRANCH   1  20
ATOM     20  C   UNL A   1      38.852  21.497  25.894  1.00  0.00     0.261 C 
BRANCH  20  21
ATOM     21  O   UNL A   1      39.053  22.673  26.654  1.00  0.00    -0.460 OA
BRANCH  21  22
ATOM     22  C   UNL A   1      40.233  22.711  27.314  1.00  0.00     0.338 C 
ATOM     23  O   UNL A   1      40.755  21.811  27.949  1.00  0.00    -0.246 OA
BRANCH  22  24
ATOM     24  C   UNL A   1      40.742  24.084  27.241  1.00  0.00     0.060 A 
ATOM     25  C   UNL A   1      41.868  24.371  28.009  1.00  0.00     0.016 A 
ATOM     26  C   UNL A   1      39.923  25.094  26.712  1.00  0.00     0.016 A 
ATOM     27  C   UNL A   1      41.964  25.638  28.534  1.00  0.00     0.010 A 
ATOM     28  C   UNL A   1      40.059  26.367  27.192  1.00  0.00     0.010 A 
ATOM     29  C   UNL A   1      40.964  26.570  28.222  1.00  0.00    -0.014 A 
BRANCH  29  30
ATOM     30  C   UNL A   1      40.919  27.833  28.923  1.00  0.00     0.031 A 
ATOM     31  C   UNL A   1      41.960  28.747  28.416  1.00  0.00     0.074 A 
ATOM     32  C   UNL A   1      39.992  28.144  29.855  1.00  0.00     0.049 A 
ATOM     33  N   UNL A   1      43.091  28.989  28.986  1.00  0.00    -0.248 NA
ATOM     34  C   UNL A   1      41.869  29.217  27.025  1.00  0.00     0.031 C 
ATOM     35  C   UNL A   1      38.813  27.408  30.320  1.00  0.00     0.029 A 
ATOM     36  N   UNL A   1      39.914  29.287  30.583  1.00  0.00    -0.354 N 
ATOM     37  C   UNL A   1      43.758  29.847  28.131  1.00  0.00     0.074 A 
ATOM     38  C   UNL A   1      43.066  29.782  26.867  1.00  0.00     0.031 C 
ATOM     39  C   UNL A   1      38.026  28.227  31.069  1.00  0.00     0.029 A 
ATOM     40  C   UNL A   1      38.718  29.490  31.267  1.00  0.00     0.049 A 
ATOM     41  H   UNL A   1      40.656  29.932  30.625  1.00  0.00     0.167 HD
ATOM     42  C   UNL A   1      44.659  30.743  28.611  1.00  0.00     0.031 A 
ATOM     43  C   UNL A   1      38.370  30.614  31.960  1.00  0.00     0.031 A 
ATOM     44  C   UNL A   1      45.044  30.431  29.966  1.00  0.00     0.049 A 
ATOM     45  C   UNL A   1      39.649  31.296  32.295  1.00  0.00     0.074 A 
ATOM     46  C   UNL A   1      45.711  29.383  30.565  1.00  0.00     0.029 A 
ATOM     47  N   UNL A   1      44.335  31.055  30.967  1.00  0.00    -0.354 N 
ATOM     48  N   UNL A   1      40.524  30.781  33.112  1.00  0.00    -0.248 NA
ATOM     49  C   UNL A   1      40.174  32.253  31.331  1.00  0.00     0.031 C 
ATOM     50  C   UNL A   1      45.001  29.140  31.779  1.00  0.00     0.029 A 
ATOM     51  C   UNL A   1      44.002  30.107  31.904  1.00  0.00     0.049 A 
ATOM     52  H   UNL A   1      44.107  32.012  31.006  1.00  0.00     0.167 HD
ATOM     53  C   UNL A   1      41.751  31.000  32.504  1.00  0.00     0.074 A 
ATOM     54  C   UNL A   1      41.475  31.956  31.427  1.00  0.00     0.031 C 
ATOM     55  C   UNL A   1      42.813  30.169  32.729  1.00  0.00     0.031 A 
BRANCH  42  56
ATOM     56  C   UNL A   1      44.835  32.109  28.015  1.00  0.00    -0.014 A 
ATOM     57  C   UNL A   1      46.085  32.452  27.470  1.00  0.00     0.010 A 
ATOM     58  C   UNL A   1      43.907  33.153  28.218  1.00  0.00     0.010 A 
ATOM     59  C   UNL A   1      46.407  33.785  27.191  1.00  0.00     0.020 A 
ATOM     60  C   UNL A   1      44.204  34.479  27.909  1.00  0.00     0.020 A 
ATOM     61  C   UNL A   1      45.465  34.790  27.422  1.00  0.00     0.054 A 
BRANCH  61  62
ATOM     62  S   UNL A   1      45.930  36.513  27.140  1.00  0.00     0.124 S 
ATOM     63  O   UNL A   1      46.562  36.868  28.407  1.00  0.00    -0.237 OA
ATOM     64  O   UNL A   1      46.828  36.403  25.992  1.00  0.00    -0.237 OA
ATOM     65  O   UNL A   1      44.656  37.173  26.868  1.00  0.00    -0.744 OA
ENDBRANCH  61  62
ENDBRANCH  42  56
BRANCH  43  66
ATOM     66  C   UNL A   1      37.088  31.383  31.927  1.00  0.00    -0.014 A 
ATOM     67  C   UNL A   1      36.472  31.813  33.125  1.00  0.00     0.010 A 
ATOM     68  C   UNL A   1      36.661  31.990  30.730  1.00  0.00     0.010 A 
ATOM     69  C   UNL A   1      35.529  32.860  33.132  1.00  0.00     0.020 A 
ATOM     70  C   UNL A   1      35.722  33.036  30.731  1.00  0.00     0.020 A 
ATOM     71  C   UNL A   1      35.181  33.487  31.935  1.00  0.00     0.054 A 
BRANCH  71  72
ATOM     72  S   UNL A   1      34.119  34.969  31.970  1.00  0.00     0.124 S 
ATOM     73  O   UNL A   1      33.926  35.253  30.552  1.00  0.00    -0.237 OA
ATOM     74  O   UNL A   1      32.937  34.498  32.685  1.00  0.00    -0.237 OA
ATOM     75  O   UNL A   1      34.925  35.953  32.693  1.00  0.00    -0.744 OA
ENDBRANCH  71  72
ENDBRANCH  43  66
BRANCH  55  76
ATOM     76  C   UNL A   1      42.682  29.128  33.822  1.00  0.00    -0.014 A 
ATOM     77  C   UNL A   1      42.232  27.804  33.622  1.00  0.00     0.010 A 
ATOM     78  C   UNL A   1      43.151  29.483  35.097  1.00  0.00     0.010 A 
ATOM     79  C   UNL A   1      42.213  26.882  34.685  1.00  0.00     0.020 A 
ATOM     80  C   UNL A   1      43.150  28.569  36.151  1.00  0.00     0.020 A 
ATOM     81  C   UNL A   1      42.666  27.277  35.948  1.00  0.00     0.054 A 
BRANCH  81  82
ATOM     82  S   UNL A   1      42.620  26.104  37.334  1.00  0.00     0.124 S 
ATOM     83  O   UNL A   1      42.971  24.840  36.693  1.00  0.00    -0.237 OA
ATOM     84  O   UNL A   1      43.623  26.644  38.250  1.00  0.00    -0.237 OA
ATOM     85  O   UNL A   1      41.242  26.188  37.817  1.00  0.00    -0.744 OA
ENDBRANCH  81  82
ENDBRANCH  55  76
ENDBRANCH  29  30
ENDBRANCH  22  24
ENDBRANCH  21  22
ENDBRANCH  20  21
ENDBRANCH   1  20
TORSDOF 18
ENDMDL
MODEL 2
REMARK VINA RESULT:     -10.8      3.018      9.415
REMARK SMILES N#Cc1cnc2cc(C(=O)OCCOCCOC(=O)c3ccc(-c4c5nc(c(-c6ccc(S(=O)(=O)[O-])cc6)c6ccc([nH]6)c(-c6ccc(S(=O)(=O)[O-])cc6)c6nc(c(-c7ccc(S(=O)(=O)[O-])cc7)c7ccc4[nH]7)C=C6)C=C5)cc3)[nH]c2c1
REMARK SMILES IDX 15 1 14 2 13 3 12 4 11 5 9 6 10 7 8 8 3 9 4 10 82 11 5 12
REMARK SMILES IDX 81 13 6 14 80 15 7 16 2 18 1 19 16 20 17 21 18 22 19 23
REMARK SMILES IDX 20 24 21 25 79 26 22 27 78 28 23 29 24 30 25 31 72 32 26 33
REMARK SMILES IDX 77 34 71 35 73 36 27 37 76 38 70 39 69 40 28 42 58 43 39 44
REMARK SMILES IDX 57 45 40 46 43 47 56 48 74 49 41 50 42 51 55 53 75 54 44 55
REMARK SMILES IDX 29 56 30 57 38 58 31 59 37 60 32 61 33 62 34 63 35 64 36 65
REMARK SMILES IDX 59 66 60 67 68 68 61 69 67 70 62 71 63 72 64 73 65 74 66 75
REMARK SMILES IDX 45 76 46 77 54 78 47 79 53 80 48 81 49 82 50 83 51 84 52 85
REMARK H PARENT 80 17 73 41 43 52
REMARK Flexibility Score: inf
ROOT
ATOM      1  C   UNL A   1      32.845  29.621  25.960  1.00  0.00     0.202 C 
ENDROOT
BRANCH   1   2
ATOM      2  O   UNL A   1      32.027  28.504  26.282  1.00  0.00    -0.374 OA
BRANCH   2   3
ATOM      3  C   UNL A   1      32.056  27.324  25.481  1.00  0.00     0.202 C 
BRANCH   3   4
ATOM      4  C   UNL A   1      32.478  27.436  24.011  1.00  0.00     0.261 C 
BRANCH   4   5
ATOM      5  O   UNL A   1      33.735  26.806  23.725  1.00  0.00    -0.459 OA
BRANCH   5   6
ATOM      6  C   UNL A   1      33.701  25.888  22.723  1.00  0.00     0.354 C 
ATOM      7  O   UNL A   1      33.694  26.134  21.526  1.00  0.00    -0.244 OA
BRANCH   6   8
ATOM      8  C   UNL A   1      33.886  24.563  23.257  1.00  0.00     0.127 A 
ATOM      9  C   UNL A   1      33.291  20.252  24.645  1.00  0.00     0.072 A 
ATOM     10  C   UNL A   1      34.650  20.441  24.868  1.00  0.00     0.131 A 
ATOM     11  C   UNL A   1      32.535  21.302  24.121  1.00  0.00     0.049 A 
ATOM     12  N   UNL A   1      35.342  21.575  24.603  1.00  0.00    -0.253 NA
ATOM     13  C   UNL A   1      33.233  22.483  23.867  1.00  0.00     0.066 A 
ATOM     14  C   UNL A   1      34.602  22.587  24.090  1.00  0.00     0.089 A 
ATOM     15  N   UNL A   1      32.817  23.702  23.400  1.00  0.00    -0.348 N 
ATOM     16  C   UNL A   1      35.012  23.878  23.677  1.00  0.00     0.064 A 
ATOM     17  H   UNL A   1      31.882  23.933  23.193  1.00  0.00     0.167 HD
BRANCH   9  18
ATOM     18  C   UNL A   1      32.669  19.002  24.967  1.00  0.00     0.101 C 
ATOM     19  N   UNL A   1      32.163  18.003  25.256  1.00  0.00    -0.192 NA
ENDBRANCH   9  18
ENDBRANCH   6   8
ENDBRANCH   5   6
ENDBRANCH   4   5
ENDBRANCH   3   4
ENDBRANCH   2   3
ENDBRANCH   1   2
BRANCH   1  20
ATOM     20  C   UNL A   1      33.335  30.541  27.067  1.00  0.00     0.261 C 
BRANCH  20  21
ATOM     21  O   UNL A   1      34.722  30.395  27.303  1.00  0.00    -0.460 OA
BRANCH  21  22
ATOM     22  C   UNL A   1      35.306  31.481  27.860  1.00  0.00     0.338 C 
ATOM     23  O   UNL A   1      35.109  32.651  27.582  1.00  0.00    -0.246 OA
BRANCH  22  24
ATOM     24  C   UNL A   1      36.330  31.006  28.795  1.00  0.00     0.060 A 
ATOM     25  C   UNL A   1      37.441  31.828  28.971  1.00  0.00     0.016 A 
ATOM     26  C   UNL A   1      36.330  29.659  29.190  1.00  0.00     0.016 A 
ATOM     27  C   UNL A   1      38.647  31.213  29.208  1.00  0.00     0.010 A 
ATOM     28  C   UNL A   1      37.525  29.062  29.485  1.00  0.00     0.010 A 
ATOM     29  C   UNL A   1      38.676  29.815  29.316  1.00  0.00    -0.014 A 
BRANCH  29  30
ATOM     30  C   UNL A   1      39.945  29.126  29.350  1.00  0.00     0.031 A 
ATOM     31  C   UNL A   1      40.371  28.888  30.742  1.00  0.00     0.074 A 
ATOM     32  C   UNL A   1      40.599  28.696  28.249  1.00  0.00     0.049 A 
ATOM     33  N   UNL A   1      41.245  29.581  31.390  1.00  0.00    -0.248 NA
ATOM     34  C   UNL A   1      39.564  27.990  31.582  1.00  0.00     0.031 C 
ATOM     35  C   UNL A   1      40.211  28.709  26.835  1.00  0.00     0.029 A 
ATOM     36  N   UNL A   1      41.810  28.085  28.201  1.00  0.00    -0.354 N 
ATOM     37  C   UNL A   1      41.274  29.038  32.663  1.00  0.00     0.074 A 
ATOM     38  C   UNL A   1      40.091  28.223  32.785  1.00  0.00     0.031 C 
ATOM     39  C   UNL A   1      41.061  27.925  26.118  1.00  0.00     0.029 A 
ATOM     40  C   UNL A   1      42.140  27.485  26.988  1.00  0.00     0.049 A 
ATOM     41  H   UNL A   1      42.417  28.066  28.976  1.00  0.00     0.167 HD
ATOM     42  C   UNL A   1      42.405  29.089  33.413  1.00  0.00     0.031 A 
ATOM     43  C   UNL A   1      43.242  26.718  26.745  1.00  0.00     0.031 A 
ATOM     44  C   UNL A   1      43.355  30.031  32.874  1.00  0.00     0.049 A 
ATOM     45  C   UNL A   1      44.236  27.092  27.788  1.00  0.00     0.074 A 
ATOM     46  C   UNL A   1      43.366  31.400  32.696  1.00  0.00     0.029 A 
ATOM     47  N   UNL A   1      44.303  29.527  32.013  1.00  0.00    -0.354 N 
ATOM     48  N   UNL A   1      44.782  28.274  27.841  1.00  0.00    -0.248 NA
ATOM     49  C   UNL A   1      44.202  26.356  29.044  1.00  0.00     0.031 C 
ATOM     50  C   UNL A   1      43.963  31.600  31.416  1.00  0.00     0.029 A 
ATOM     51  C   UNL A   1      44.369  30.359  30.921  1.00  0.00     0.049 A 
ATOM     52  H   UNL A   1      44.839  28.713  32.153  1.00  0.00     0.167 HD
ATOM     53  C   UNL A   1      44.768  28.613  29.186  1.00  0.00     0.074 A 
ATOM     54  C   UNL A   1      44.440  27.367  29.887  1.00  0.00     0.031 C 
ATOM     55  C   UNL A   1      44.726  29.918  29.589  1.00  0.00     0.031 A 
BRANCH  42  56
ATOM     56  C   UNL A   1      42.803  27.985  34.347  1.00  0.00    -0.014 A 
ATOM     57  C   UNL A   1      43.166  28.314  35.665  1.00  0.00     0.010 A 
ATOM     58  C   UNL A   1      43.097  26.678  33.900  1.00  0.00     0.010 A 
ATOM     59  C   UNL A   1      43.838  27.393  36.478  1.00  0.00     0.020 A 
ATOM     60  C   UNL A   1      43.732  25.742  34.713  1.00  0.00     0.020 A 
ATOM     61  C   UNL A   1      44.123  26.115  35.991  1.00  0.00     0.054 A 
BRANCH  61  62
ATOM     62  S   UNL A   1      45.069  24.972  37.022  1.00  0.00     0.124 S 
ATOM     63  O   UNL A   1      44.723  23.680  36.437  1.00  0.00    -0.237 OA
ATOM     64  O   UNL A   1      46.440  25.423  36.798  1.00  0.00    -0.237 OA
ATOM     65  O   UNL A   1      44.550  25.212  38.366  1.00  0.00    -0.744 OA
ENDBRANCH  61  62
ENDBRANCH  42  56
BRANCH  43  66
ATOM     66  C   UNL A   1      43.337  25.398  26.049  1.00  0.00    -0.014 A 
ATOM     67  C   UNL A   1      44.358  25.152  25.102  1.00  0.00     0.010 A 
ATOM     68  C   UNL A   1      42.653  24.279  26.562  1.00  0.00     0.010 A 
ATOM     69  C   UNL A   1      44.732  23.840  24.747  1.00  0.00     0.020 A 
ATOM     70  C   UNL A   1      43.022  22.968  26.213  1.00  0.00     0.020 A 
ATOM     71  C   UNL A   1      44.078  22.752  25.329  1.00  0.00     0.054 A 
BRANCH  71  72
ATOM     72  S   UNL A   1      44.695  21.063  25.025  1.00  0.00     0.124 S 
ATOM     73  O   UNL A   1      44.646  20.967  23.570  1.00  0.00    -0.237 OA
ATOM     74  O   UNL A   1      46.032  21.102  25.610  1.00  0.00    -0.237 OA
ATOM     75  O   UNL A   1      43.737  20.214  25.733  1.00  0.00    -0.744 OA
ENDBRANCH  71  72
ENDBRANCH  43  66
BRANCH  55  76
ATOM     76  C   UNL A   1      44.910  30.993  28.537  1.00  0.00    -0.014 A 
ATOM     77  C   UNL A   1      43.922  31.384  27.605  1.00  0.00     0.010 A 
ATOM     78  C   UNL A   1      46.110  31.720  28.576  1.00  0.00     0.010 A 
ATOM     79  C   UNL A   1      44.158  32.445  26.711  1.00  0.00     0.020 A 
ATOM     80  C   UNL A   1      46.343  32.784  27.703  1.00  0.00     0.020 A 
ATOM     81  C   UNL A   1      45.374  33.133  26.763  1.00  0.00     0.054 A 
BRANCH  81  82
ATOM     82  S   UNL A   1      45.698  34.486  25.595  1.00  0.00     0.124 S 
ATOM     83  O   UNL A   1      47.132  34.362  25.353  1.00  0.00    -0.237 OA
ATOM     84  O   UNL A   1      44.837  34.151  24.463  1.00  0.00    -0.237 OA
ATOM     85  O   UNL A   1      45.299  35.686  26.332  1.00  0.00    -0.744 OA
ENDBRANCH  81  82
ENDBRANCH  55  76
ENDBRANCH  29  30
ENDBRANCH  22  24
ENDBRANCH  21  22
ENDBRANCH  20  21
ENDBRANCH   1  20
TORSDOF 18
ENDMDL
MODEL 3
REMARK VINA RESULT:     -10.8      4.625      9.307
REMARK SMILES N#Cc1cnc2cc(C(=O)OCCOCCOC(=O)c3ccc(-c4c5nc(c(-c6ccc(S(=O)(=O)[O-])cc6)c6ccc([nH]6)c(-c6ccc(S(=O)(=O)[O-])cc6)c6nc(c(-c7ccc(S(=O)(=O)[O-])cc7)c7ccc4[nH]7)C=C6)C=C5)cc3)[nH]c2c1
REMARK SMILES IDX 15 1 14 2 13 3 12 4 11 5 9 6 10 7 8 8 3 9 4 10 82 11 5 12
REMARK SMILES IDX 81 13 6 14 80 15 7 16 2 18 1 19 16 20 17 21 18 22 19 23
REMARK SMILES IDX 20 24 21 25 79 26 22 27 78 28 23 29 24 30 25 31 72 32 26 33
REMARK SMILES IDX 77 34 71 35 73 36 27 37 76 38 70 39 69 40 28 42 58 43 39 44
REMARK SMILES IDX 57 45 40 46 43 47 56 48 74 49 41 50 42 51 55 53 75 54 44 55
REMARK SMILES IDX 29 56 30 57 38 58 31 59 37 60 32 61 33 62 34 63 35 64 36 65
REMARK SMILES IDX 59 66 60 67 68 68 61 69 67 70 62 71 63 72 64 73 65 74 66 75
REMARK SMILES IDX 45 76 46 77 54 78 47 79 53 80 48 81 49 82 50 83 51 84 52 85
REMARK H PARENT 80 17 73 41 43 52
REMARK Flexibility Score: inf
ROOT
ATOM      1  C   UNL A   1      32.183  29.640  25.773  1.00  0.00     0.202 C 
ENDROOT
BRANCH   1   2
ATOM      2  O   UNL A   1      31.687  28.380  26.208  1.00  0.00    -0.374 OA
BRANCH   2   3
ATOM      3  C   UNL A   1      32.538  27.237  26.246  1.00  0.00     0.202 C 
BRANCH   3   4
ATOM      4  C   UNL A   1      33.310  26.844  24.981  1.00  0.00     0.261 C 
BRANCH   4   5
ATOM      5  O   UNL A   1      32.574  25.977  24.105  1.00  0.00    -0.459 OA
BRANCH   5   6
ATOM      6  C   UNL A   1      32.410  26.446  22.839  1.00  0.00     0.354 C 
ATOM      7  O   UNL A   1      32.996  26.043  21.845  1.00  0.00    -0.244 OA
BRANCH   6   8
ATOM      8  C   UNL A   1      31.291  27.351  22.785  1.00  0.00     0.127 A 
ATOM      9  C   UNL A   1      28.513  30.872  21.917  1.00  0.00     0.072 A 
ATOM     10  C   UNL A   1      27.683  30.021  22.637  1.00  0.00     0.131 A 
ATOM     11  C   UNL A   1      29.833  30.488  21.672  1.00  0.00     0.049 A 
ATOM     12  N   UNL A   1      28.033  28.808  23.128  1.00  0.00    -0.253 NA
ATOM     13  C   UNL A   1      30.211  29.251  22.195  1.00  0.00     0.066 A 
ATOM     14  C   UNL A   1      29.312  28.441  22.882  1.00  0.00     0.089 A 
ATOM     15  N   UNL A   1      31.410  28.587  22.182  1.00  0.00    -0.348 N 
ATOM     16  C   UNL A   1      29.983  27.241  23.221  1.00  0.00     0.064 A 
ATOM     17  H   UNL A   1      32.243  28.943  21.797  1.00  0.00     0.167 HD
BRANCH   9  18
ATOM     18  C   UNL A   1      28.027  32.135  21.449  1.00  0.00     0.101 C 
ATOM     19  N   UNL A   1      27.664  33.165  21.070  1.00  0.00    -0.192 NA
ENDBRANCH   9  18
ENDBRANCH   6   8
ENDBRANCH   5   6
ENDBRANCH   4   5
ENDBRANCH   3   4
ENDBRANCH   2   3
ENDBRANCH   1   2
BRANCH   1  20
ATOM     20  C   UNL A   1      31.842  30.896  26.560  1.00  0.00     0.261 C 
BRANCH  20  21
ATOM     21  O   UNL A   1      32.954  31.384  27.286  1.00  0.00    -0.460 OA
BRANCH  21  22
ATOM     22  C   UNL A   1      32.834  32.671  27.684  1.00  0.00     0.338 C 
ATOM     23  O   UNL A   1      31.958  33.462  27.378  1.00  0.00    -0.246 OA
BRANCH  22  24
ATOM     24  C   UNL A   1      34.024  33.009  28.470  1.00  0.00     0.060 A 
ATOM     25  C   UNL A   1      34.958  33.841  27.857  1.00  0.00     0.016 A 
ATOM     26  C   UNL A   1      34.337  32.247  29.607  1.00  0.00     0.016 A 
ATOM     27  C   UNL A   1      36.282  33.636  28.166  1.00  0.00     0.010 A 
ATOM     28  C   UNL A   1      35.652  32.092  29.950  1.00  0.00     0.010 A 
ATOM     29  C   UNL A   1      36.604  32.651  29.112  1.00  0.00    -0.014 A 
BRANCH  29  30
ATOM     30  C   UNL A   1      37.982  32.264  29.301  1.00  0.00     0.031 A 
ATOM     31  C   UNL A   1      38.164  30.829  29.017  1.00  0.00     0.074 A 
ATOM     32  C   UNL A   1      38.971  33.129  29.617  1.00  0.00     0.049 A 
ATOM     33  N   UNL A   1      38.254  29.892  29.899  1.00  0.00    -0.248 NA
ATOM     34  C   UNL A   1      37.943  30.349  27.644  1.00  0.00     0.031 C 
ATOM     35  C   UNL A   1      38.963  34.589  29.754  1.00  0.00     0.029 A 
ATOM     36  N   UNL A   1      40.274  32.833  29.853  1.00  0.00    -0.354 N 
ATOM     37  C   UNL A   1      38.352  28.716  29.178  1.00  0.00     0.074 A 
ATOM     38  C   UNL A   1      37.946  29.028  27.830  1.00  0.00     0.031 C 
ATOM     39  C   UNL A   1      40.241  35.052  29.813  1.00  0.00     0.029 A 
ATOM     40  C   UNL A   1      41.148  33.917  29.878  1.00  0.00     0.049 A 
ATOM     41  H   UNL A   1      40.583  31.909  29.997  1.00  0.00     0.167 HD
ATOM     42  C   UNL A   1      39.017  27.645  29.685  1.00  0.00     0.031 A 
ATOM     43  C   UNL A   1      42.508  33.850  29.978  1.00  0.00     0.031 A 
ATOM     44  C   UNL A   1      39.255  27.792  31.100  1.00  0.00     0.049 A 
ATOM     45  C   UNL A   1      42.806  32.525  30.584  1.00  0.00     0.074 A 
ATOM     46  C   UNL A   1      38.445  27.864  32.215  1.00  0.00     0.029 A 
ATOM     47  N   UNL A   1      40.461  28.341  31.469  1.00  0.00    -0.354 N 
ATOM     48  N   UNL A   1      42.468  32.222  31.806  1.00  0.00    -0.248 NA
ATOM     49  C   UNL A   1      42.981  31.396  29.681  1.00  0.00     0.031 C 
ATOM     50  C   UNL A   1      39.034  28.874  33.034  1.00  0.00     0.029 A 
ATOM     51  C   UNL A   1      40.217  29.297  32.426  1.00  0.00     0.049 A 
ATOM     52  H   UNL A   1      41.345  28.094  31.111  1.00  0.00     0.167 HD
ATOM     53  C   UNL A   1      41.968  30.931  31.728  1.00  0.00     0.074 A 
ATOM     54  C   UNL A   1      42.354  30.455  30.395  1.00  0.00     0.031 C 
ATOM     55  C   UNL A   1      41.037  30.475  32.618  1.00  0.00     0.031 A 
BRANCH  42  56
ATOM     56  C   UNL A   1      39.813  26.709  28.825  1.00  0.00    -0.014 A 
ATOM     57  C   UNL A   1      39.347  25.395  28.645  1.00  0.00     0.010 A 
ATOM     58  C   UNL A   1      41.135  26.990  28.416  1.00  0.00     0.010 A 
ATOM     59  C   UNL A   1      40.183  24.399  28.128  1.00  0.00     0.020 A 
ATOM     60  C   UNL A   1      41.964  26.014  27.865  1.00  0.00     0.020 A 
ATOM     61  C   UNL A   1      41.490  24.715  27.750  1.00  0.00     0.054 A 
BRANCH  61  62
ATOM     62  S   UNL A   1      42.582  23.398  27.169  1.00  0.00     0.124 S 
ATOM     63  O   UNL A   1      41.784  22.789  26.109  1.00  0.00    -0.237 OA
ATOM     64  O   UNL A   1      43.756  24.147  26.729  1.00  0.00    -0.237 OA
ATOM     65  O   UNL A   1      42.784  22.571  28.356  1.00  0.00    -0.744 OA
ENDBRANCH  61  62
ENDBRANCH  42  56
BRANCH  43  66
ATOM     66  C   UNL A   1      43.548  34.568  29.179  1.00  0.00    -0.014 A 
ATOM     67  C   UNL A   1      44.801  34.893  29.748  1.00  0.00     0.010 A 
ATOM     68  C   UNL A   1      43.446  34.622  27.775  1.00  0.00     0.010 A 
ATOM     69  C   UNL A   1      45.923  35.177  28.944  1.00  0.00     0.020 A 
ATOM     70  C   UNL A   1      44.562  34.903  26.967  1.00  0.00     0.020 A 
ATOM     71  C   UNL A   1      45.803  35.152  27.553  1.00  0.00     0.054 A 
BRANCH  71  72
ATOM     72  S   UNL A   1      47.294  35.320  26.518  1.00  0.00     0.124 S 
ATOM     73  O   UNL A   1      47.103  34.275  25.517  1.00  0.00    -0.237 OA
ATOM     74  O   UNL A   1      47.189  36.691  26.026  1.00  0.00    -0.237 OA
ATOM     75  O   UNL A   1      48.393  35.085  27.455  1.00  0.00    -0.744 OA
ENDBRANCH  71  72
ENDBRANCH  43  66
BRANCH  55  76
ATOM     76  C   UNL A   1      40.722  31.340  33.822  1.00  0.00    -0.014 A 
ATOM     77  C   UNL A   1      41.392  31.266  35.064  1.00  0.00     0.010 A 
ATOM     78  C   UNL A   1      39.772  32.358  33.641  1.00  0.00     0.010 A 
ATOM     79  C   UNL A   1      41.080  32.161  36.104  1.00  0.00     0.020 A 
ATOM     80  C   UNL A   1      39.470  33.259  34.663  1.00  0.00     0.020 A 
ATOM     81  C   UNL A   1      40.111  33.148  35.896  1.00  0.00     0.054 A 
BRANCH  81  82
ATOM     82  S   UNL A   1      39.682  34.292  37.241  1.00  0.00     0.124 S 
ATOM     83  O   UNL A   1      40.717  34.019  38.234  1.00  0.00    -0.237 OA
ATOM     84  O   UNL A   1      39.760  35.599  36.592  1.00  0.00    -0.237 OA
ATOM     85  O   UNL A   1      38.332  33.883  37.629  1.00  0.00    -0.744 OA
ENDBRANCH  81  82
ENDBRANCH  55  76
ENDBRANCH  29  30
ENDBRANCH  22  24
ENDBRANCH  21  22
ENDBRANCH  20  21
ENDBRANCH   1  20
TORSDOF 18
ENDMDL
