MODEL 1
REMARK VINA RESULT:     -11.4      0.000      0.000
REMARK SMILES O=C(OCCOCCOC(=O)[C@@H](Cc1c[nH]c2ccccc12)NC(=O)c1ccc(F)cc1F)c1ccc(-c2c3nc(c(-c4ccc(S(=O)(=O)[O-])cc4)c4ccc([nH]4)c(-c4ccc(S(=O)(=O)[O-])cc4)c4nc(c(-c5ccc(S(=O)(=O)[O-])cc5)c5ccc2[nH]5)C=C4)C=C3)cc1
REMARK SMILES IDX 5 1 4 2 3 3 2 4 1 5 34 6 35 7 93 8 36 9 92 10 37 11 38 12
REMARK SMILES IDX 39 13 86 14 40 15 91 16 85 17 87 18 41 19 90 20 84 21 83 22
REMARK SMILES IDX 42 24 72 25 53 26 71 27 54 28 57 29 70 30 88 31 55 32 56 33
REMARK SMILES IDX 69 35 89 36 58 37 43 38 44 39 52 40 45 41 51 42 46 43 47 44
REMARK SMILES IDX 48 45 49 46 50 47 73 48 74 49 82 50 75 51 81 52 76 53 77 54
REMARK SMILES IDX 78 55 79 56 80 57 59 58 60 59 68 60 61 61 67 62 62 63 63 64
REMARK SMILES IDX 64 65 65 66 66 67 6 68 7 69 8 70 9 71 10 72 11 73 12 74
REMARK SMILES IDX 13 75 14 76 15 77 22 78 16 79 17 80 21 81 18 83 20 84 19 85
REMARK SMILES IDX 23 86 24 87 25 89 26 90 27 91 32 92 28 93 31 94 33 95 29 96
REMARK SMILES IDX 30 97
REMARK H PARENT 87 23 57 34 16 82 23 88
REMARK Flexibility Score: inf
ROOT
ATOM      1  C   UNL A   1      31.824  28.685  26.311  1.00  0.00     0.202 C 
ENDROOT
BRANCH   1   2
ATOM      2  C   UNL A   1      33.066  29.583  26.252  1.00  0.00     0.261 C 
BRANCH   2   3
ATOM      3  O   UNL A   1      33.552  29.890  27.572  1.00  0.00    -0.460 OA
BRANCH   3   4
ATOM      4  C   UNL A   1      34.565  30.711  27.938  1.00  0.00     0.338 C 
ATOM      5  O   UNL A   1      34.354  31.924  27.943  1.00  0.00    -0.246 OA
BRANCH   4   6
ATOM      6  C   UNL A   1      35.935  30.232  28.311  1.00  0.00     0.060 A 
ATOM      7  C   UNL A   1      36.297  29.773  29.575  1.00  0.00     0.016 A 
ATOM      8  C   UNL A   1      36.910  30.178  27.298  1.00  0.00     0.016 A 
ATOM      9  C   UNL A   1      37.566  29.313  29.855  1.00  0.00     0.010 A 
ATOM     10  C   UNL A   1      38.204  29.708  27.565  1.00  0.00     0.010 A 
ATOM     11  C   UNL A   1      38.530  29.291  28.857  1.00  0.00    -0.014 A 
BRANCH  11  12
ATOM     12  C   UNL A   1      39.891  28.982  29.313  1.00  0.00     0.031 A 
ATOM     13  C   UNL A   1      40.474  27.666  28.899  1.00  0.00     0.074 A 
ATOM     14  C   UNL A   1      40.646  29.976  29.815  1.00  0.00     0.049 A 
ATOM     15  N   UNL A   1      41.691  27.222  29.041  1.00  0.00    -0.248 NA
ATOM     16  C   UNL A   1      39.572  26.742  28.185  1.00  0.00     0.031 C 
ATOM     17  C   UNL A   1      40.181  31.347  30.052  1.00  0.00     0.029 A 
ATOM     18  N   UNL A   1      41.975  30.016  30.134  1.00  0.00    -0.354 N 
ATOM     19  C   UNL A   1      41.696  25.960  28.461  1.00  0.00     0.074 A 
ATOM     20  C   UNL A   1      40.368  25.712  27.949  1.00  0.00     0.031 C 
ATOM     21  C   UNL A   1      41.223  32.104  30.431  1.00  0.00     0.029 A 
ATOM     22  C   UNL A   1      42.408  31.260  30.526  1.00  0.00     0.049 A 
ATOM     23  H   UNL A   1      42.565  29.229  30.088  1.00  0.00     0.167 HD
ATOM     24  C   UNL A   1      42.720  25.080  28.390  1.00  0.00     0.031 A 
ATOM     25  C   UNL A   1      43.628  31.656  30.934  1.00  0.00     0.031 A 
ATOM     26  C   UNL A   1      44.017  25.352  28.938  1.00  0.00     0.049 A 
ATOM     27  C   UNL A   1      44.716  30.618  30.966  1.00  0.00     0.074 A 
ATOM     28  C   UNL A   1      45.108  24.513  29.048  1.00  0.00     0.029 A 
ATOM     29  N   UNL A   1      44.392  26.577  29.479  1.00  0.00    -0.354 N 
ATOM     30  N   UNL A   1      44.684  29.381  30.524  1.00  0.00    -0.248 NA
ATOM     31  C   UNL A   1      45.993  31.014  31.568  1.00  0.00     0.031 C 
ATOM     32  C   UNL A   1      46.128  25.218  29.699  1.00  0.00     0.029 A 
ATOM     33  C   UNL A   1      45.690  26.512  29.944  1.00  0.00     0.049 A 
ATOM     34  H   UNL A   1      43.816  27.374  29.523  1.00  0.00     0.167 HD
ATOM     35  C   UNL A   1      45.939  28.849  30.790  1.00  0.00     0.074 A 
ATOM     36  C   UNL A   1      46.713  29.911  31.409  1.00  0.00     0.031 C 
ATOM     37  C   UNL A   1      46.413  27.600  30.555  1.00  0.00     0.031 A 
BRANCH  24  38
ATOM     38  C   UNL A   1      42.408  23.725  27.817  1.00  0.00    -0.014 A 
ATOM     39  C   UNL A   1      41.886  22.686  28.606  1.00  0.00     0.010 A 
ATOM     40  C   UNL A   1      42.722  23.471  26.470  1.00  0.00     0.010 A 
ATOM     41  C   UNL A   1      41.731  21.403  28.071  1.00  0.00     0.020 A 
ATOM     42  C   UNL A   1      42.551  22.197  25.925  1.00  0.00     0.020 A 
ATOM     43  C   UNL A   1      42.079  21.164  26.737  1.00  0.00     0.054 A 
BRANCH  43  44
ATOM     44  S   UNL A   1      41.915  19.483  26.074  1.00  0.00     0.124 S 
ATOM     45  O   UNL A   1      42.770  19.542  24.890  1.00  0.00    -0.237 OA
ATOM     46  O   UNL A   1      42.416  18.654  27.168  1.00  0.00    -0.237 OA
ATOM     47  O   UNL A   1      40.485  19.355  25.803  1.00  0.00    -0.744 OA
ENDBRANCH  43  44
ENDBRANCH  24  38
BRANCH  25  48
ATOM     48  C   UNL A   1      43.857  33.051  31.406  1.00  0.00    -0.014 A 
ATOM     49  C   UNL A   1      44.364  34.042  30.548  1.00  0.00     0.010 A 
ATOM     50  C   UNL A   1      43.565  33.397  32.740  1.00  0.00     0.010 A 
ATOM     51  C   UNL A   1      44.589  35.342  31.017  1.00  0.00     0.020 A 
ATOM     52  C   UNL A   1      43.761  34.700  33.206  1.00  0.00     0.020 A 
ATOM     53  C   UNL A   1      44.287  35.662  32.345  1.00  0.00     0.054 A 
BRANCH  53  54
ATOM     54  S   UNL A   1      44.555  37.359  32.930  1.00  0.00     0.124 S 
ATOM     55  O   UNL A   1      45.987  37.532  32.713  1.00  0.00    -0.237 OA
ATOM     56  O   UNL A   1      43.682  38.138  32.056  1.00  0.00    -0.237 OA
ATOM     57  O   UNL A   1      44.136  37.307  34.330  1.00  0.00    -0.744 OA
ENDBRANCH  53  54
ENDBRANCH  25  48
BRANCH  37  58
ATOM     58  C   UNL A   1      47.836  27.335  30.949  1.00  0.00    -0.014 A 
ATOM     59  C   UNL A   1      48.148  26.780  32.201  1.00  0.00     0.010 A 
ATOM     60  C   UNL A   1      48.864  27.595  30.027  1.00  0.00     0.010 A 
ATOM     61  C   UNL A   1      49.477  26.515  32.536  1.00  0.00     0.020 A 
ATOM     62  C   UNL A   1      50.190  27.308  30.349  1.00  0.00     0.020 A 
ATOM     63  C   UNL A   1      50.489  26.782  31.608  1.00  0.00     0.054 A 
BRANCH  63  64
ATOM     64  S   UNL A   1      52.203  26.385  32.046  1.00  0.00     0.124 S 
ATOM     65  O   UNL A   1      52.777  27.712  32.250  1.00  0.00    -0.237 OA
ATOM     66  O   UNL A   1      52.048  25.574  33.250  1.00  0.00    -0.237 OA
ATOM     67  O   UNL A   1      52.697  25.662  30.875  1.00  0.00    -0.744 OA
ENDBRANCH  63  64
ENDBRANCH  37  58
ENDBRANCH  11  12
ENDBRANCH   4   6
ENDBRANCH   3   4
ENDBRANCH   2   3
ENDBRANCH   1   2
BRANCH   1  68
ATOM     68  O   UNL A   1      31.081  28.564  25.099  1.00  0.00    -0.374 OA
BRANCH  68  69
ATOM     69  C   UNL A   1      30.662  27.239  24.746  1.00  0.00     0.202 C 
BRANCH  69  70
ATOM     70  C   UNL A   1      30.750  26.335  25.968  1.00  0.00     0.261 C 
BRANCH  70  71
ATOM     71  O   UNL A   1      30.353  25.028  25.535  1.00  0.00    -0.462 OA
BRANCH  71  72
ATOM     72  C   UNL A   1      30.970  23.966  26.076  1.00  0.00     0.329 C 
ATOM     73  O   UNL A   1      30.865  23.613  27.249  1.00  0.00    -0.250 OA
BRANCH  72  74
ATOM     74  C   UNL A   1      31.904  23.265  25.084  1.00  0.00     0.197 C 
BRANCH  74  75
ATOM     75  C   UNL A   1      31.745  21.783  24.694  1.00  0.00     0.074 C 
BRANCH  75  76
ATOM     76  C   UNL A   1      32.854  20.770  24.748  1.00  0.00    -0.020 A 
ATOM     77  C   UNL A   1      33.936  20.914  25.606  1.00  0.00     0.087 A 
ATOM     78  C   UNL A   1      33.080  19.546  24.028  1.00  0.00     0.003 A 
ATOM     79  N   UNL A   1      34.746  19.821  25.490  1.00  0.00    -0.361 N 
ATOM     80  C   UNL A   1      34.230  18.953  24.563  1.00  0.00     0.046 A 
ATOM     81  C   UNL A   1      32.393  18.833  23.020  1.00  0.00     0.010 A 
ATOM     82  H   UNL A   1      35.577  19.678  25.998  1.00  0.00     0.166 HD
ATOM     83  C   UNL A   1      34.693  17.689  24.180  1.00  0.00     0.026 A 
ATOM     84  C   UNL A   1      32.821  17.550  22.652  1.00  0.00     0.001 A 
ATOM     85  C   UNL A   1      33.953  16.986  23.230  1.00  0.00     0.002 A 
ENDBRANCH  75  76
ENDBRANCH  74  75
BRANCH  74  86
ATOM     86  N   UNL A   1      32.173  24.111  23.918  1.00  0.00    -0.338 N 
ATOM     87  C   UNL A   1      33.378  24.506  23.396  1.00  0.00     0.254 C 
ATOM     88  H   UNL A   1      31.377  24.444  23.444  1.00  0.00     0.164 HD
ATOM     89  O   UNL A   1      33.399  25.271  22.432  1.00  0.00    -0.269 OA
BRANCH  87  90
ATOM     90  C   UNL A   1      34.646  23.996  23.947  1.00  0.00     0.075 A 
ATOM     91  C   UNL A   1      35.437  23.087  23.227  1.00  0.00     0.020 A 
ATOM     92  C   UNL A   1      35.097  24.487  25.174  1.00  0.00     0.138 A 
ATOM     93  C   UNL A   1      36.643  22.641  23.771  1.00  0.00     0.040 A 
ATOM     94  C   UNL A   1      36.308  24.058  25.708  1.00  0.00     0.079 A 
ATOM     95  F   UNL A   1      34.373  25.379  25.864  1.00  0.00    -0.206 F 
ATOM     96  C   UNL A   1      37.067  23.132  25.003  1.00  0.00     0.126 A 
ATOM     97  F   UNL A   1      38.237  22.716  25.506  1.00  0.00    -0.207 F 
ENDBRANCH  87  90
ENDBRANCH  74  86
ENDBRANCH  72  74
ENDBRANCH  71  72
ENDBRANCH  70  71
ENDBRANCH  69  70
ENDBRANCH  68  69
ENDBRANCH   1  68
TORSDOF 21
ENDMDL
MODEL 2
REMARK VINA RESULT:     -11.2      1.462      2.765
REMARK SMILES O=C(OCCOCCOC(=O)[C@@H](Cc1c[nH]c2ccccc12)NC(=O)c1ccc(F)cc1F)c1ccc(-c2c3nc(c(-c4ccc(S(=O)(=O)[O-])cc4)c4ccc([nH]4)c(-c4ccc(S(=O)(=O)[O-])cc4)c4nc(c(-c5ccc(S(=O)(=O)[O-])cc5)c5ccc2[nH]5)C=C4)C=C3)cc1
REMARK SMILES IDX 5 1 4 2 3 3 2 4 1 5 34 6 35 7 93 8 36 9 92 10 37 11 38 12
REMARK SMILES IDX 39 13 86 14 40 15 91 16 85 17 87 18 41 19 90 20 84 21 83 22
REMARK SMILES IDX 42 24 72 25 53 26 71 27 54 28 57 29 70 30 88 31 55 32 56 33
REMARK SMILES IDX 69 35 89 36 58 37 43 38 44 39 52 40 45 41 51 42 46 43 47 44
REMARK SMILES IDX 48 45 49 46 50 47 73 48 74 49 82 50 75 51 81 52 76 53 77 54
REMARK SMILES IDX 78 55 79 56 80 57 59 58 60 59 68 60 61 61 67 62 62 63 63 64
REMARK SMILES IDX 64 65 65 66 66 67 6 68 7 69 8 70 9 71 10 72 11 73 12 74
REMARK SMILES IDX 13 75 14 76 15 77 22 78 16 79 17 80 21 81 18 83 20 84 19 85
REMARK SMILES IDX 23 86 24 87 25 89 26 90 27 91 32 92 28 93 31 94 33 95 29 96
REMARK SMILES IDX 30 97
REMARK H PARENT 87 23 57 34 16 82 23 88
REMARK Flexibility Score: inf
ROOT
ATOM      1  C   UNL A   1      31.836  29.957  25.626  1.00  0.00     0.202 C 
ENDROOT
BRANCH   1   2
ATOM      2  C   UNL A   1      32.239  29.838  27.101  1.00  0.00     0.261 C 
BRANCH   2   3
ATOM      3  O   UNL A   1      33.667  29.727  27.245  1.00  0.00    -0.460 OA
BRANCH   3   4
ATOM      4  C   UNL A   1      34.506  30.462  28.014  1.00  0.00     0.338 C 
ATOM      5  O   UNL A   1      34.108  31.551  28.427  1.00  0.00    -0.246 OA
BRANCH   4   6
ATOM      6  C   UNL A   1      35.898  30.037  28.371  1.00  0.00     0.060 A 
ATOM      7  C   UNL A   1      36.294  29.594  29.630  1.00  0.00     0.016 A 
ATOM      8  C   UNL A   1      36.862  30.023  27.346  1.00  0.00     0.016 A 
ATOM      9  C   UNL A   1      37.584  29.185  29.895  1.00  0.00     0.010 A 
ATOM     10  C   UNL A   1      38.177  29.605  27.597  1.00  0.00     0.010 A 
ATOM     11  C   UNL A   1      38.535  29.202  28.885  1.00  0.00    -0.014 A 
BRANCH  11  12
ATOM     12  C   UNL A   1      39.913  28.948  29.324  1.00  0.00     0.031 A 
ATOM     13  C   UNL A   1      40.547  27.660  28.894  1.00  0.00     0.074 A 
ATOM     14  C   UNL A   1      40.631  29.970  29.824  1.00  0.00     0.049 A 
ATOM     15  N   UNL A   1      41.783  27.267  29.020  1.00  0.00    -0.248 NA
ATOM     16  C   UNL A   1      39.677  26.704  28.185  1.00  0.00     0.031 C 
ATOM     17  C   UNL A   1      40.111  31.318  30.075  1.00  0.00     0.029 A 
ATOM     18  N   UNL A   1      41.960  30.064  30.129  1.00  0.00    -0.354 N 
ATOM     19  C   UNL A   1      41.834  26.010  28.433  1.00  0.00     0.074 A 
ATOM     20  C   UNL A   1      40.512  25.710  27.933  1.00  0.00     0.031 C 
ATOM     21  C   UNL A   1      41.124  32.117  30.448  1.00  0.00     0.029 A 
ATOM     22  C   UNL A   1      42.345  31.323  30.525  1.00  0.00     0.049 A 
ATOM     23  H   UNL A   1      42.582  29.303  30.071  1.00  0.00     0.167 HD
ATOM     24  C   UNL A   1      42.894  25.175  28.344  1.00  0.00     0.031 A 
ATOM     25  C   UNL A   1      43.552  31.767  30.922  1.00  0.00     0.031 A 
ATOM     26  C   UNL A   1      44.185  25.499  28.880  1.00  0.00     0.049 A 
ATOM     27  C   UNL A   1      44.683  30.777  30.935  1.00  0.00     0.074 A 
ATOM     28  C   UNL A   1      45.311  24.706  28.972  1.00  0.00     0.029 A 
ATOM     29  N   UNL A   1      44.513  26.735  29.425  1.00  0.00    -0.354 N 
ATOM     30  N   UNL A   1      44.698  29.542  30.485  1.00  0.00    -0.248 NA
ATOM     31  C   UNL A   1      45.949  31.222  31.526  1.00  0.00     0.031 C 
ATOM     32  C   UNL A   1      46.308  25.449  29.618  1.00  0.00     0.029 A 
ATOM     33  C   UNL A   1      45.818  26.722  29.876  1.00  0.00     0.049 A 
ATOM     34  H   UNL A   1      43.904  27.507  29.480  1.00  0.00     0.167 HD
ATOM     35  C   UNL A   1      45.978  29.063  30.734  1.00  0.00     0.074 A 
ATOM     36  C   UNL A   1      46.713  30.152  31.352  1.00  0.00     0.031 C 
ATOM     37  C   UNL A   1      46.501  27.836  30.486  1.00  0.00     0.031 A 
BRANCH  24  38
ATOM     38  C   UNL A   1      42.634  23.812  27.765  1.00  0.00    -0.014 A 
ATOM     39  C   UNL A   1      42.265  22.720  28.571  1.00  0.00     0.010 A 
ATOM     40  C   UNL A   1      42.840  23.610  26.389  1.00  0.00     0.010 A 
ATOM     41  C   UNL A   1      42.159  21.440  28.017  1.00  0.00     0.020 A 
ATOM     42  C   UNL A   1      42.716  22.337  25.828  1.00  0.00     0.020 A 
ATOM     43  C   UNL A   1      42.400  21.255  26.651  1.00  0.00     0.054 A 
BRANCH  43  44
ATOM     44  S   UNL A   1      42.302  19.580  25.961  1.00  0.00     0.124 S 
ATOM     45  O   UNL A   1      43.349  19.613  24.942  1.00  0.00    -0.237 OA
ATOM     46  O   UNL A   1      42.583  18.736  27.120  1.00  0.00    -0.237 OA
ATOM     47  O   UNL A   1      40.936  19.495  25.448  1.00  0.00    -0.744 OA
ENDBRANCH  43  44
ENDBRANCH  24  38
BRANCH  25  48
ATOM     48  C   UNL A   1      43.726  33.169  31.401  1.00  0.00    -0.014 A 
ATOM     49  C   UNL A   1      44.090  34.203  30.523  1.00  0.00     0.010 A 
ATOM     50  C   UNL A   1      43.528  33.474  32.762  1.00  0.00     0.010 A 
ATOM     51  C   UNL A   1      44.268  35.509  30.997  1.00  0.00     0.020 A 
ATOM     52  C   UNL A   1      43.676  34.781  33.235  1.00  0.00     0.020 A 
ATOM     53  C   UNL A   1      44.061  35.789  32.353  1.00  0.00     0.054 A 
BRANCH  53  54
ATOM     54  S   UNL A   1      44.264  37.492  32.946  1.00  0.00     0.124 S 
ATOM     55  O   UNL A   1      45.584  37.441  33.566  1.00  0.00    -0.237 OA
ATOM     56  O   UNL A   1      44.170  38.272  31.715  1.00  0.00    -0.237 OA
ATOM     57  O   UNL A   1      43.145  37.666  33.871  1.00  0.00    -0.744 OA
ENDBRANCH  53  54
ENDBRANCH  25  48
BRANCH  37  58
ATOM     58  C   UNL A   1      47.939  27.629  30.863  1.00  0.00    -0.014 A 
ATOM     59  C   UNL A   1      48.971  27.895  29.946  1.00  0.00     0.010 A 
ATOM     60  C   UNL A   1      48.256  27.219  32.168  1.00  0.00     0.010 A 
ATOM     61  C   UNL A   1      50.302  27.725  30.326  1.00  0.00     0.020 A 
ATOM     62  C   UNL A   1      49.586  27.071  32.558  1.00  0.00     0.020 A 
ATOM     63  C   UNL A   1      50.601  27.312  31.629  1.00  0.00     0.054 A 
BRANCH  63  64
ATOM     64  S   UNL A   1      52.339  27.143  32.115  1.00  0.00     0.124 S 
ATOM     65  O   UNL A   1      52.539  25.700  32.023  1.00  0.00    -0.237 OA
ATOM     66  O   UNL A   1      53.035  27.941  31.108  1.00  0.00    -0.237 OA
ATOM     67  O   UNL A   1      52.372  27.695  33.468  1.00  0.00    -0.744 OA
ENDBRANCH  63  64
ENDBRANCH  37  58
ENDBRANCH  11  12
ENDBRANCH   4   6
ENDBRANCH   3   4
ENDBRANCH   2   3
ENDBRANCH   1   2
BRANCH   1  68
ATOM     68  O   UNL A   1      31.419  28.748  24.991  1.00  0.00    -0.374 OA
BRANCH  68  69
ATOM     69  C   UNL A   1      30.789  28.893  23.712  1.00  0.00     0.202 C 
BRANCH  69  70
ATOM     70  C   UNL A   1      31.711  28.355  22.626  1.00  0.00     0.261 C 
BRANCH  70  71
ATOM     71  O   UNL A   1      31.770  26.936  22.811  1.00  0.00    -0.462 OA
BRANCH  71  72
ATOM     72  C   UNL A   1      32.959  26.328  22.675  1.00  0.00     0.329 C 
ATOM     73  O   UNL A   1      33.650  26.352  21.658  1.00  0.00    -0.250 OA
BRANCH  72  74
ATOM     74  C   UNL A   1      33.345  25.514  23.915  1.00  0.00     0.197 C 
BRANCH  74  75
ATOM     75  C   UNL A   1      34.807  25.299  24.349  1.00  0.00     0.074 C 
BRANCH  75  76
ATOM     76  C   UNL A   1      35.479  23.956  24.424  1.00  0.00    -0.020 A 
ATOM     77  C   UNL A   1      35.027  22.869  23.688  1.00  0.00     0.087 A 
ATOM     78  C   UNL A   1      36.612  23.483  25.172  1.00  0.00     0.003 A 
ATOM     79  N   UNL A   1      35.860  21.809  23.899  1.00  0.00    -0.361 N 
ATOM     80  C   UNL A   1      36.857  22.165  24.770  1.00  0.00     0.046 A 
ATOM     81  C   UNL A   1      37.509  24.053  26.104  1.00  0.00     0.010 A 
ATOM     82  H   UNL A   1      35.760  20.921  23.486  1.00  0.00     0.166 HD
ATOM     83  C   UNL A   1      37.957  21.418  25.209  1.00  0.00     0.026 A 
ATOM     84  C   UNL A   1      38.635  23.333  26.524  1.00  0.00     0.001 A 
ATOM     85  C   UNL A   1      38.857  22.035  26.077  1.00  0.00     0.002 A 
ENDBRANCH  75  76
ENDBRANCH  74  75
BRANCH  74  86
ATOM     86  N   UNL A   1      32.479  25.836  25.052  1.00  0.00    -0.338 N 
ATOM     87  C   UNL A   1      31.951  24.999  26.002  1.00  0.00     0.254 C 
ATOM     88  H   UNL A   1      32.242  26.787  25.148  1.00  0.00     0.164 HD
ATOM     89  O   UNL A   1      31.193  25.454  26.857  1.00  0.00    -0.269 OA
BRANCH  87  90
ATOM     90  C   UNL A   1      32.310  23.570  26.035  1.00  0.00     0.075 A 
ATOM     91  C   UNL A   1      33.212  23.070  26.986  1.00  0.00     0.020 A 
ATOM     92  C   UNL A   1      31.681  22.693  25.149  1.00  0.00     0.138 A 
ATOM     93  C   UNL A   1      33.514  21.707  27.003  1.00  0.00     0.040 A 
ATOM     94  C   UNL A   1      31.965  21.331  25.176  1.00  0.00     0.079 A 
ATOM     95  F   UNL A   1      30.792  23.143  24.252  1.00  0.00    -0.206 F 
ATOM     96  C   UNL A   1      32.885  20.852  26.100  1.00  0.00     0.126 A 
ATOM     97  F   UNL A   1      33.162  19.542  26.139  1.00  0.00    -0.207 F 
ENDBRANCH  87  90
ENDBRANCH  74  86
ENDBRANCH  72  74
ENDBRANCH  71  72
ENDBRANCH  70  71
ENDBRANCH  69  70
ENDBRANCH  68  69
ENDBRANCH   1  68
TORSDOF 21
ENDMDL
MODEL 3
REMARK VINA RESULT:     -11.2      0.661      7.960
REMARK SMILES O=C(OCCOCCOC(=O)[C@@H](Cc1c[nH]c2ccccc12)NC(=O)c1ccc(F)cc1F)c1ccc(-c2c3nc(c(-c4ccc(S(=O)(=O)[O-])cc4)c4ccc([nH]4)c(-c4ccc(S(=O)(=O)[O-])cc4)c4nc(c(-c5ccc(S(=O)(=O)[O-])cc5)c5ccc2[nH]5)C=C4)C=C3)cc1
REMARK SMILES IDX 5 1 4 2 3 3 2 4 1 5 34 6 35 7 93 8 36 9 92 10 37 11 38 12
REMARK SMILES IDX 39 13 86 14 40 15 91 16 85 17 87 18 41 19 90 20 84 21 83 22
REMARK SMILES IDX 42 24 72 25 53 26 71 27 54 28 57 29 70 30 88 31 55 32 56 33
REMARK SMILES IDX 69 35 89 36 58 37 43 38 44 39 52 40 45 41 51 42 46 43 47 44
REMARK SMILES IDX 48 45 49 46 50 47 73 48 74 49 82 50 75 51 81 52 76 53 77 54
REMARK SMILES IDX 78 55 79 56 80 57 59 58 60 59 68 60 61 61 67 62 62 63 63 64
REMARK SMILES IDX 64 65 65 66 66 67 6 68 7 69 8 70 9 71 10 72 11 73 12 74
REMARK SMILES IDX 13 75 14 76 15 77 22 78 16 79 17 80 21 81 18 83 20 84 19 85
REMARK SMILES IDX 23 86 24 87 25 89 26 90 27 91 32 92 28 93 31 94 33 95 29 96
REMARK SMILES IDX 30 97
REMARK H PARENT 87 23 57 34 16 82 23 88
REMARK Flexibility Score: inf
ROOT
ATOM      1  C   UNL A   1      31.547  30.290  26.413  1.00  0.00     0.202 C 
ENDROOT
BRANCH   1   2
ATOM      2  C   UNL A   1      32.683  31.226  26.848  1.00  0.00     0.261 C 
BRANCH   2   3
ATOM      3  O   UNL A   1      33.698  30.510  27.577  1.00  0.00    -0.460 OA
BRANCH   3   4
ATOM      4  C   UNL A   1      34.605  30.986  28.463  1.00  0.00     0.338 C 
ATOM      5  O   UNL A   1      34.263  31.908  29.204  1.00  0.00    -0.246 OA
BRANCH   4   6
ATOM      6  C   UNL A   1      36.008  30.472  28.578  1.00  0.00     0.060 A 
ATOM      7  C   UNL A   1      36.573  29.960  29.743  1.00  0.00     0.016 A 
ATOM      8  C   UNL A   1      36.793  30.442  27.410  1.00  0.00     0.016 A 
ATOM      9  C   UNL A   1      37.861  29.470  29.784  1.00  0.00     0.010 A 
ATOM     10  C   UNL A   1      38.103  29.943  27.433  1.00  0.00     0.010 A 
ATOM     11  C   UNL A   1      38.638  29.472  28.634  1.00  0.00    -0.014 A 
BRANCH  11  12
ATOM     12  C   UNL A   1      40.050  29.126  28.837  1.00  0.00     0.031 A 
ATOM     13  C   UNL A   1      40.869  30.045  29.691  1.00  0.00     0.074 A 
ATOM     14  C   UNL A   1      40.466  27.888  28.511  1.00  0.00     0.049 A 
ATOM     15  N   UNL A   1      42.081  29.890  30.142  1.00  0.00    -0.248 NA
ATOM     16  C   UNL A   1      40.213  31.289  30.135  1.00  0.00     0.031 C 
ATOM     17  C   UNL A   1      39.639  26.870  27.854  1.00  0.00     0.029 A 
ATOM     18  N   UNL A   1      41.648  27.248  28.758  1.00  0.00    -0.354 N 
ATOM     19  C   UNL A   1      42.345  31.025  30.897  1.00  0.00     0.074 A 
ATOM     20  C   UNL A   1      41.163  31.854  30.861  1.00  0.00     0.031 C 
ATOM     21  C   UNL A   1      40.325  25.718  27.798  1.00  0.00     0.029 A 
ATOM     22  C   UNL A   1      41.656  25.935  28.352  1.00  0.00     0.049 A 
ATOM     23  H   UNL A   1      42.419  27.685  29.187  1.00  0.00     0.167 HD
ATOM     24  C   UNL A   1      43.489  31.350  31.542  1.00  0.00     0.031 A 
ATOM     25  C   UNL A   1      42.645  25.024  28.409  1.00  0.00     0.031 A 
ATOM     26  C   UNL A   1      44.652  30.511  31.528  1.00  0.00     0.049 A 
ATOM     27  C   UNL A   1      43.951  25.458  29.017  1.00  0.00     0.074 A 
ATOM     28  C   UNL A   1      45.913  30.767  32.030  1.00  0.00     0.029 A 
ATOM     29  N   UNL A   1      44.688  29.239  30.968  1.00  0.00    -0.354 N 
ATOM     30  N   UNL A   1      44.236  26.586  29.630  1.00  0.00    -0.248 NA
ATOM     31  C   UNL A   1      45.072  24.518  28.924  1.00  0.00     0.031 C 
ATOM     32  C   UNL A   1      46.725  29.665  31.731  1.00  0.00     0.029 A 
ATOM     33  C   UNL A   1      45.954  28.703  31.092  1.00  0.00     0.049 A 
ATOM     34  H   UNL A   1      43.923  28.787  30.546  1.00  0.00     0.167 HD
ATOM     35  C   UNL A   1      45.570  26.489  30.002  1.00  0.00     0.074 A 
ATOM     36  C   UNL A   1      46.026  25.181  29.565  1.00  0.00     0.031 C 
ATOM     37  C   UNL A   1      46.355  27.395  30.637  1.00  0.00     0.031 A 
BRANCH  24  38
ATOM     38  C   UNL A   1      43.541  32.710  32.180  1.00  0.00    -0.014 A 
ATOM     39  C   UNL A   1      43.953  33.850  31.468  1.00  0.00     0.010 A 
ATOM     40  C   UNL A   1      43.243  32.828  33.549  1.00  0.00     0.010 A 
ATOM     41  C   UNL A   1      44.115  35.073  32.127  1.00  0.00     0.020 A 
ATOM     42  C   UNL A   1      43.385  34.051  34.208  1.00  0.00     0.020 A 
ATOM     43  C   UNL A   1      43.844  35.161  33.497  1.00  0.00     0.054 A 
BRANCH  43  44
ATOM     44  S   UNL A   1      44.103  36.744  34.344  1.00  0.00     0.124 S 
ATOM     45  O   UNL A   1      43.822  36.391  35.734  1.00  0.00    -0.237 OA
ATOM     46  O   UNL A   1      45.502  37.044  34.045  1.00  0.00    -0.237 OA
ATOM     47  O   UNL A   1      43.130  37.637  33.719  1.00  0.00    -0.744 OA
ENDBRANCH  43  44
ENDBRANCH  24  38
BRANCH  25  48
ATOM     48  C   UNL A   1      42.464  23.666  27.821  1.00  0.00    -0.014 A 
ATOM     49  C   UNL A   1      42.589  23.443  26.439  1.00  0.00     0.010 A 
ATOM     50  C   UNL A   1      42.157  22.575  28.658  1.00  0.00     0.010 A 
ATOM     51  C   UNL A   1      42.395  22.162  25.905  1.00  0.00     0.020 A 
ATOM     52  C   UNL A   1      41.990  21.290  28.134  1.00  0.00     0.020 A 
ATOM     53  C   UNL A   1      42.095  21.094  26.758  1.00  0.00     0.054 A 
BRANCH  53  54
ATOM     54  S   UNL A   1      41.878  19.435  26.055  1.00  0.00     0.124 S 
ATOM     55  O   UNL A   1      42.282  18.579  27.166  1.00  0.00    -0.237 OA
ATOM     56  O   UNL A   1      40.456  19.413  25.722  1.00  0.00    -0.237 OA
ATOM     57  O   UNL A   1      42.779  19.433  24.903  1.00  0.00    -0.744 OA
ENDBRANCH  53  54
ENDBRANCH  25  48
BRANCH  37  58
ATOM     58  C   UNL A   1      47.771  26.982  30.914  1.00  0.00    -0.014 A 
ATOM     59  C   UNL A   1      48.791  27.227  29.978  1.00  0.00     0.010 A 
ATOM     60  C   UNL A   1      48.087  26.394  32.150  1.00  0.00     0.010 A 
ATOM     61  C   UNL A   1      50.106  26.861  30.267  1.00  0.00     0.020 A 
ATOM     62  C   UNL A   1      49.404  26.049  32.452  1.00  0.00     0.020 A 
ATOM     63  C   UNL A   1      50.403  26.273  31.501  1.00  0.00     0.054 A 
BRANCH  63  64
ATOM     64  S   UNL A   1      52.126  25.849  31.875  1.00  0.00     0.124 S 
ATOM     65  O   UNL A   1      52.003  24.473  32.345  1.00  0.00    -0.237 OA
ATOM     66  O   UNL A   1      52.786  26.018  30.583  1.00  0.00    -0.237 OA
ATOM     67  O   UNL A   1      52.506  26.826  32.893  1.00  0.00    -0.744 OA
ENDBRANCH  63  64
ENDBRANCH  37  58
ENDBRANCH  11  12
ENDBRANCH   4   6
ENDBRANCH   3   4
ENDBRANCH   2   3
ENDBRANCH   1   2
BRANCH   1  68
ATOM     68  O   UNL A   1      31.601  28.960  26.926  1.00  0.00    -0.374 OA
BRANCH  68  69
ATOM     69  C   UNL A   1      31.743  27.915  25.955  1.00  0.00     0.202 C 
BRANCH  69  70
ATOM     70  C   UNL A   1      31.764  26.565  26.659  1.00  0.00     0.261 C 
BRANCH  70  71
ATOM     71  O   UNL A   1      31.159  25.629  25.758  1.00  0.00    -0.462 OA
BRANCH  71  72
ATOM     72  C   UNL A   1      31.197  24.326  26.079  1.00  0.00     0.329 C 
ATOM     73  O   UNL A   1      30.665  23.829  27.069  1.00  0.00    -0.250 OA
BRANCH  72  74
ATOM     74  C   UNL A   1      32.057  23.510  25.107  1.00  0.00     0.197 C 
BRANCH  74  75
ATOM     75  C   UNL A   1      31.763  22.036  24.770  1.00  0.00     0.074 C 
BRANCH  75  76
ATOM     76  C   UNL A   1      32.790  20.938  24.806  1.00  0.00    -0.020 A 
ATOM     77  C   UNL A   1      33.846  20.954  25.707  1.00  0.00     0.087 A 
ATOM     78  C   UNL A   1      32.950  19.739  24.029  1.00  0.00     0.003 A 
ATOM     79  N   UNL A   1      34.576  19.809  25.559  1.00  0.00    -0.361 N 
ATOM     80  C   UNL A   1      34.031  19.033  24.569  1.00  0.00     0.046 A 
ATOM     81  C   UNL A   1      32.250  19.134  22.961  1.00  0.00     0.010 A 
ATOM     82  H   UNL A   1      35.374  19.576  26.086  1.00  0.00     0.166 HD
ATOM     83  C   UNL A   1      34.411  17.757  24.134  1.00  0.00     0.026 A 
ATOM     84  C   UNL A   1      32.593  17.843  22.539  1.00  0.00     0.001 A 
ATOM     85  C   UNL A   1      33.657  17.163  23.124  1.00  0.00     0.002 A 
ENDBRANCH  75  76
ENDBRANCH  74  75
BRANCH  74  86
ATOM     86  N   UNL A   1      32.391  24.288  23.911  1.00  0.00    -0.338 N 
ATOM     87  C   UNL A   1      33.622  24.549  23.365  1.00  0.00     0.254 C 
ATOM     88  H   UNL A   1      31.624  24.679  23.433  1.00  0.00     0.164 HD
ATOM     89  O   UNL A   1      33.704  25.276  22.377  1.00  0.00    -0.269 OA
BRANCH  87  90
ATOM     90  C   UNL A   1      34.842  23.940  23.923  1.00  0.00     0.075 A 
ATOM     91  C   UNL A   1      35.545  22.950  23.220  1.00  0.00     0.020 A 
ATOM     92  C   UNL A   1      35.342  24.414  25.138  1.00  0.00     0.138 A 
ATOM     93  C   UNL A   1      36.710  22.408  23.769  1.00  0.00     0.040 A 
ATOM     94  C   UNL A   1      36.513  23.890  25.677  1.00  0.00     0.079 A 
ATOM     95  F   UNL A   1      34.704  25.381  25.812  1.00  0.00    -0.206 F 
ATOM     96  C   UNL A   1      37.182  22.886  24.989  1.00  0.00     0.126 A 
ATOM     97  F   UNL A   1      38.313  22.378  25.496  1.00  0.00    -0.207 F 
ENDBRANCH  87  90
ENDBRANCH  74  86
ENDBRANCH  72  74
ENDBRANCH  71  72
ENDBRANCH  70  71
ENDBRANCH  69  70
ENDBRANCH  68  69
ENDBRANCH   1  68
TORSDOF 21
ENDMDL
