MODEL 1
REMARK VINA RESULT:     -11.5      0.000      0.000
REMARK SMILES Cc1ccc2cc(C[N@H+]3CC[NH2+][C@H](C(=O)OCCOCCOC(=O)c4ccc(-c5c6nc(c(-c7ccc(S(=O)(=O)[O-])cc7)c7ccc([nH]7)c(-c7ccc(S(=O)(=O)[O-])cc7)c7nc(c(-c8ccc(S(=O)(=O)[O-])cc8)c8ccc5[nH]8)C=C7)C=C6)cc4)C3)c(N3CCOCC3)nc2c1
REMARK SMILES IDX 19 1 18 2 17 3 16 4 14 5 15 6 13 7 9 8 10 9 85 10 11 12
REMARK SMILES IDX 12 13 8 16 7 17 1 18 2 19 3 20 95 21 4 22 94 23 5 24 93 25
REMARK SMILES IDX 6 26 86 27 87 28 88 29 92 30 89 31 91 32 90 33 20 34 21 35
REMARK SMILES IDX 22 36 23 37 24 38 25 39 26 40 84 41 27 42 83 43 28 44 29 45
REMARK SMILES IDX 30 46 77 47 31 48 82 49 76 50 78 51 32 52 81 53 75 54 74 55
REMARK SMILES IDX 33 57 63 58 44 59 62 60 45 61 48 62 61 63 79 64 46 65 47 66
REMARK SMILES IDX 60 68 80 69 49 70 34 71 35 72 43 73 36 74 42 75 37 76 38 77
REMARK SMILES IDX 39 78 40 79 41 80 64 81 65 82 73 83 66 84 72 85 67 86 68 87
REMARK SMILES IDX 69 88 70 89 71 90 50 91 51 92 59 93 52 94 58 95 53 96 54 97
REMARK SMILES IDX 55 98 56 99 57 100
REMARK H PARENT 9 11 12 14 12 15 78 56 48 67
REMARK Flexibility Score: inf
ROOT
ATOM      1  O   UNL A   1      43.014  21.144  25.231  1.00  0.00    -0.374 OA
ENDROOT
BRANCH   1   2
ATOM      2  C   UNL A   1      42.669  20.609  26.506  1.00  0.00     0.202 C 
BRANCH   2   3
ATOM      3  C   UNL A   1      41.218  20.182  26.754  1.00  0.00     0.261 C 
BRANCH   3   4
ATOM      4  O   UNL A   1      40.308  20.921  25.930  1.00  0.00    -0.459 OA
BRANCH   4   5
ATOM      5  C   UNL A   1      39.655  21.943  26.551  1.00  0.00     0.371 C 
ATOM      6  O   UNL A   1      40.168  22.697  27.372  1.00  0.00    -0.245 OA
BRANCH   5   7
ATOM      7  C   UNL A   1      38.268  22.185  25.954  1.00  0.00     0.348 C 
ATOM      8  N   UNL A   1      36.560  21.085  24.481  1.00  0.00    -0.321 N 
ATOM      9  C   UNL A   1      36.329  22.406  23.877  1.00  0.00     0.324 C 
ATOM     10  C   UNL A   1      37.926  21.019  25.014  1.00  0.00     0.341 C 
ATOM     11  H   UNL A   1      36.459  20.424  23.711  1.00  0.00     0.348 HD
ATOM     12  C   UNL A   1      36.760  23.628  24.734  1.00  0.00     0.323 C 
ATOM     13  N   UNL A   1      38.113  23.517  25.311  1.00  0.00    -0.325 N 
ATOM     14  H   UNL A   1      38.246  24.250  26.009  1.00  0.00     0.347 HD
ATOM     15  H   UNL A   1      38.809  23.623  24.574  1.00  0.00     0.347 HD
BRANCH   8  16
ATOM     16  C   UNL A   1      35.524  20.534  25.383  1.00  0.00     0.303 C 
BRANCH  16  17
ATOM     17  C   UNL A   1      34.179  21.227  25.500  1.00  0.00     0.049 A 
ATOM     18  C   UNL A   1      29.881  25.923  24.521  1.00  0.00     0.044 C 
ATOM     19  C   UNL A   1      30.857  24.954  25.124  1.00  0.00    -0.049 A 
ATOM     20  C   UNL A   1      31.814  25.412  26.028  1.00  0.00     0.004 A 
ATOM     21  C   UNL A   1      30.894  23.606  24.720  1.00  0.00     0.032 A 
ATOM     22  C   UNL A   1      32.844  24.566  26.430  1.00  0.00     0.010 A 
ATOM     23  C   UNL A   1      31.911  22.735  25.114  1.00  0.00     0.073 A 
ATOM     24  C   UNL A   1      32.938  23.266  25.910  1.00  0.00     0.001 A 
ATOM     25  N   UNL A   1      31.923  21.448  24.704  1.00  0.00    -0.230 NA
ATOM     26  C   UNL A   1      34.088  22.494  26.085  1.00  0.00     0.023 A 
ATOM     27  C   UNL A   1      33.008  20.678  24.959  1.00  0.00     0.138 A 
BRANCH  27  28
ATOM     28  N   UNL A   1      32.960  19.338  24.645  1.00  0.00    -0.352 N 
ATOM     29  C   UNL A   1      32.635  18.370  25.699  1.00  0.00     0.146 C 
ATOM     30  C   UNL A   1      32.587  18.889  23.306  1.00  0.00     0.146 C 
ATOM     31  C   UNL A   1      33.367  17.058  25.377  1.00  0.00     0.181 C 
ATOM     32  C   UNL A   1      33.288  17.535  23.057  1.00  0.00     0.181 C 
ATOM     33  O   UNL A   1      32.981  16.564  24.081  1.00  0.00    -0.378 OA
ENDBRANCH  27  28
ENDBRANCH  16  17
ENDBRANCH   8  16
ENDBRANCH   5   7
ENDBRANCH   4   5
ENDBRANCH   3   4
ENDBRANCH   2   3
ENDBRANCH   1   2
BRANCH   1  34
ATOM     34  C   UNL A   1      43.070  22.558  25.081  1.00  0.00     0.202 C 
BRANCH  34  35
ATOM     35  C   UNL A   1      44.066  23.378  25.915  1.00  0.00     0.261 C 
BRANCH  35  36
ATOM     36  O   UNL A   1      43.458  24.315  26.800  1.00  0.00    -0.460 OA
BRANCH  36  37
ATOM     37  C   UNL A   1      43.457  25.597  26.367  1.00  0.00     0.338 C 
ATOM     38  O   UNL A   1      43.640  26.011  25.235  1.00  0.00    -0.246 OA
BRANCH  37  39
ATOM     39  C   UNL A   1      42.983  26.418  27.487  1.00  0.00     0.060 A 
ATOM     40  C   UNL A   1      41.991  25.939  28.342  1.00  0.00     0.016 A 
ATOM     41  C   UNL A   1      43.519  27.702  27.636  1.00  0.00     0.016 A 
ATOM     42  C   UNL A   1      41.529  26.762  29.364  1.00  0.00     0.010 A 
ATOM     43  C   UNL A   1      43.048  28.526  28.649  1.00  0.00     0.010 A 
ATOM     44  C   UNL A   1      42.062  28.054  29.525  1.00  0.00    -0.014 A 
BRANCH  44  45
ATOM     45  C   UNL A   1      41.689  28.871  30.697  1.00  0.00     0.031 A 
ATOM     46  C   UNL A   1      42.459  28.781  31.976  1.00  0.00     0.074 A 
ATOM     47  C   UNL A   1      40.608  29.663  30.583  1.00  0.00     0.049 A 
ATOM     48  N   UNL A   1      42.266  29.439  33.088  1.00  0.00    -0.248 NA
ATOM     49  C   UNL A   1      43.582  27.831  32.022  1.00  0.00     0.031 C 
ATOM     50  C   UNL A   1      39.793  29.787  29.372  1.00  0.00     0.029 A 
ATOM     51  N   UNL A   1      40.011  30.510  31.477  1.00  0.00    -0.354 N 
ATOM     52  C   UNL A   1      43.248  28.997  33.963  1.00  0.00     0.074 A 
ATOM     53  C   UNL A   1      44.008  27.979  33.271  1.00  0.00     0.031 C 
ATOM     54  C   UNL A   1      38.822  30.685  29.589  1.00  0.00     0.029 A 
ATOM     55  C   UNL A   1      38.915  31.163  30.965  1.00  0.00     0.049 A 
ATOM     56  H   UNL A   1      40.335  30.639  32.398  1.00  0.00     0.167 HD
ATOM     57  C   UNL A   1      43.495  29.427  35.223  1.00  0.00     0.031 A 
ATOM     58  C   UNL A   1      38.078  32.049  31.538  1.00  0.00     0.031 A 
ATOM     59  C   UNL A   1      42.706  30.436  35.887  1.00  0.00     0.049 A 
ATOM     60  C   UNL A   1      38.346  32.474  32.953  1.00  0.00     0.074 A 
ATOM     61  C   UNL A   1      42.890  30.969  37.149  1.00  0.00     0.029 A 
ATOM     62  N   UNL A   1      41.584  31.055  35.351  1.00  0.00    -0.354 N 
ATOM     63  N   UNL A   1      39.326  32.105  33.746  1.00  0.00    -0.248 NA
ATOM     64  C   UNL A   1      37.417  33.438  33.552  1.00  0.00     0.031 C 
ATOM     65  C   UNL A   1      41.836  31.846  37.409  1.00  0.00     0.029 A 
ATOM     66  C   UNL A   1      41.043  31.935  36.275  1.00  0.00     0.049 A 
ATOM     67  H   UNL A   1      41.227  30.894  34.448  1.00  0.00     0.167 HD
ATOM     68  C   UNL A   1      39.141  32.805  34.931  1.00  0.00     0.074 A 
ATOM     69  C   UNL A   1      37.968  33.637  34.743  1.00  0.00     0.031 C 
ATOM     70  C   UNL A   1      39.873  32.757  36.070  1.00  0.00     0.031 A 
BRANCH  57  71
ATOM     71  C   UNL A   1      44.664  28.841  35.975  1.00  0.00    -0.014 A 
ATOM     72  C   UNL A   1      44.474  27.723  36.809  1.00  0.00     0.010 A 
ATOM     73  C   UNL A   1      45.915  29.484  35.972  1.00  0.00     0.010 A 
ATOM     74  C   UNL A   1      45.495  27.288  37.659  1.00  0.00     0.020 A 
ATOM     75  C   UNL A   1      46.950  29.031  36.798  1.00  0.00     0.020 A 
ATOM     76  C   UNL A   1      46.723  27.954  37.658  1.00  0.00     0.054 A 
BRANCH  76  77
ATOM     77  S   UNL A   1      48.015  27.411  38.811  1.00  0.00     0.124 S 
ATOM     78  O   UNL A   1      48.625  28.676  39.207  1.00  0.00    -0.237 OA
ATOM     79  O   UNL A   1      47.246  26.727  39.847  1.00  0.00    -0.237 OA
ATOM     80  O   UNL A   1      48.857  26.540  37.995  1.00  0.00    -0.744 OA
ENDBRANCH  76  77
ENDBRANCH  57  71
BRANCH  58  81
ATOM     81  C   UNL A   1      36.960  32.611  30.731  1.00  0.00    -0.014 A 
ATOM     82  C   UNL A   1      37.133  33.805  30.003  1.00  0.00     0.010 A 
ATOM     83  C   UNL A   1      35.684  32.026  30.782  1.00  0.00     0.010 A 
ATOM     84  C   UNL A   1      36.042  34.439  29.404  1.00  0.00     0.020 A 
ATOM     85  C   UNL A   1      34.594  32.637  30.153  1.00  0.00     0.020 A 
ATOM     86  C   UNL A   1      34.775  33.858  29.498  1.00  0.00     0.054 A 
BRANCH  86  87
ATOM     87  S   UNL A   1      33.362  34.739  28.780  1.00  0.00     0.124 S 
ATOM     88  O   UNL A   1      34.009  35.895  28.166  1.00  0.00    -0.237 OA
ATOM     89  O   UNL A   1      32.814  33.755  27.849  1.00  0.00    -0.237 OA
ATOM     90  O   UNL A   1      32.519  35.036  29.936  1.00  0.00    -0.744 OA
ENDBRANCH  86  87
ENDBRANCH  58  81
BRANCH  70  91
ATOM     91  C   UNL A   1      39.440  33.617  37.231  1.00  0.00    -0.014 A 
ATOM     92  C   UNL A   1      39.965  34.916  37.370  1.00  0.00     0.010 A 
ATOM     93  C   UNL A   1      38.652  33.083  38.265  1.00  0.00     0.010 A 
ATOM     94  C   UNL A   1      39.763  35.640  38.547  1.00  0.00     0.020 A 
ATOM     95  C   UNL A   1      38.416  33.819  39.428  1.00  0.00     0.020 A 
ATOM     96  C   UNL A   1      39.002  35.079  39.576  1.00  0.00     0.054 A 
BRANCH  96  97
ATOM     97  S   UNL A   1      38.818  36.002  41.125  1.00  0.00     0.124 S 
ATOM     98  O   UNL A   1      37.637  35.381  41.715  1.00  0.00    -0.237 OA
ATOM     99  O   UNL A   1      40.081  35.731  41.809  1.00  0.00    -0.237 OA
ATOM    100  O   UNL A   1      38.643  37.384  40.684  1.00  0.00    -0.744 OA
ENDBRANCH  96  97
ENDBRANCH  70  91
ENDBRANCH  44  45
ENDBRANCH  37  39
ENDBRANCH  36  37
ENDBRANCH  35  36
ENDBRANCH  34  35
ENDBRANCH   1  34
TORSDOF 20
ENDMDL
MODEL 2
REMARK VINA RESULT:     -11.1      2.881     10.095
REMARK SMILES Cc1ccc2cc(C[N@H+]3CC[NH2+][C@H](C(=O)OCCOCCOC(=O)c4ccc(-c5c6nc(c(-c7ccc(S(=O)(=O)[O-])cc7)c7ccc([nH]7)c(-c7ccc(S(=O)(=O)[O-])cc7)c7nc(c(-c8ccc(S(=O)(=O)[O-])cc8)c8ccc5[nH]8)C=C7)C=C6)cc4)C3)c(N3CCOCC3)nc2c1
REMARK SMILES IDX 19 1 18 2 17 3 16 4 14 5 15 6 13 7 9 8 10 9 85 10 11 12
REMARK SMILES IDX 12 13 8 16 7 17 1 18 2 19 3 20 95 21 4 22 94 23 5 24 93 25
REMARK SMILES IDX 6 26 86 27 87 28 88 29 92 30 89 31 91 32 90 33 20 34 21 35
REMARK SMILES IDX 22 36 23 37 24 38 25 39 26 40 84 41 27 42 83 43 28 44 29 45
REMARK SMILES IDX 30 46 77 47 31 48 82 49 76 50 78 51 32 52 81 53 75 54 74 55
REMARK SMILES IDX 33 57 63 58 44 59 62 60 45 61 48 62 61 63 79 64 46 65 47 66
REMARK SMILES IDX 60 68 80 69 49 70 34 71 35 72 43 73 36 74 42 75 37 76 38 77
REMARK SMILES IDX 39 78 40 79 41 80 64 81 65 82 73 83 66 84 72 85 67 86 68 87
REMARK SMILES IDX 69 88 70 89 71 90 50 91 51 92 59 93 52 94 58 95 53 96 54 97
REMARK SMILES IDX 55 98 56 99 57 100
REMARK H PARENT 9 11 12 14 12 15 78 56 48 67
REMARK Flexibility Score: inf
ROOT
ATOM      1  O   UNL A   1      34.451  33.842  27.697  1.00  0.00    -0.374 OA
ENDROOT
BRANCH   1   2
ATOM      2  C   UNL A   1      35.597  33.692  28.532  1.00  0.00     0.202 C 
BRANCH   2   3
ATOM      3  C   UNL A   1      36.230  32.303  28.665  1.00  0.00     0.261 C 
BRANCH   3   4
ATOM      4  O   UNL A   1      35.890  31.465  27.553  1.00  0.00    -0.459 OA
BRANCH   4   5
ATOM      5  C   UNL A   1      35.590  30.173  27.864  1.00  0.00     0.371 C 
ATOM      6  O   UNL A   1      36.273  29.457  28.590  1.00  0.00    -0.245 OA
BRANCH   5   7
ATOM      7  C   UNL A   1      34.195  29.774  27.379  1.00  0.00     0.348 C 
ATOM      8  N   UNL A   1      33.060  28.511  25.531  1.00  0.00    -0.321 N 
ATOM      9  C   UNL A   1      32.043  29.574  25.522  1.00  0.00     0.324 C 
ATOM     10  C   UNL A   1      34.331  29.050  26.030  1.00  0.00     0.341 C 
ATOM     11  H   UNL A   1      33.162  28.238  24.554  1.00  0.00     0.348 HD
ATOM     12  C   UNL A   1      31.933  30.419  26.820  1.00  0.00     0.323 C 
ATOM     13  N   UNL A   1      33.227  30.902  27.341  1.00  0.00    -0.325 N 
ATOM     14  H   UNL A   1      33.097  31.271  28.283  1.00  0.00     0.347 HD
ATOM     15  H   UNL A   1      33.585  31.639  26.734  1.00  0.00     0.347 HD
BRANCH   8  16
ATOM     16  C   UNL A   1      32.692  27.192  26.092  1.00  0.00     0.303 C 
BRANCH  16  17
ATOM     17  C   UNL A   1      33.081  25.924  25.356  1.00  0.00     0.049 A 
ATOM     18  C   UNL A   1      34.303  19.632  24.728  1.00  0.00     0.044 C 
ATOM     19  C   UNL A   1      34.407  21.128  24.804  1.00  0.00    -0.049 A 
ATOM     20  C   UNL A   1      35.449  21.709  25.525  1.00  0.00     0.004 A 
ATOM     21  C   UNL A   1      33.417  21.959  24.248  1.00  0.00     0.032 A 
ATOM     22  C   UNL A   1      35.435  23.080  25.771  1.00  0.00     0.010 A 
ATOM     23  C   UNL A   1      33.384  23.336  24.473  1.00  0.00     0.073 A 
ATOM     24  C   UNL A   1      34.367  23.871  25.320  1.00  0.00     0.001 A 
ATOM     25  N   UNL A   1      32.417  24.107  23.932  1.00  0.00    -0.230 NA
ATOM     26  C   UNL A   1      34.192  25.181  25.771  1.00  0.00     0.023 A 
ATOM     27  C   UNL A   1      32.312  25.404  24.306  1.00  0.00     0.138 A 
BRANCH  27  28
ATOM     28  N   UNL A   1      31.401  26.211  23.659  1.00  0.00    -0.352 N 
ATOM     29  C   UNL A   1      31.801  26.881  22.416  1.00  0.00     0.146 C 
ATOM     30  C   UNL A   1      29.967  25.952  23.747  1.00  0.00     0.146 C 
ATOM     31  C   UNL A   1      31.035  28.211  22.331  1.00  0.00     0.181 C 
ATOM     32  C   UNL A   1      29.239  27.306  23.583  1.00  0.00     0.181 C 
ATOM     33  O   UNL A   1      29.614  27.984  22.365  1.00  0.00    -0.378 OA
ENDBRANCH  27  28
ENDBRANCH  16  17
ENDBRANCH   8  16
ENDBRANCH   5   7
ENDBRANCH   4   5
ENDBRANCH   3   4
ENDBRANCH   2   3
ENDBRANCH   1   2
BRANCH   1  34
ATOM     34  C   UNL A   1      33.247  34.326  28.280  1.00  0.00     0.202 C 
BRANCH  34  35
ATOM     35  C   UNL A   1      33.307  35.268  29.492  1.00  0.00     0.261 C 
BRANCH  35  36
ATOM     36  O   UNL A   1      32.942  34.659  30.727  1.00  0.00    -0.460 OA
BRANCH  36  37
ATOM     37  C   UNL A   1      33.372  35.305  31.836  1.00  0.00     0.338 C 
ATOM     38  O   UNL A   1      32.815  36.197  32.453  1.00  0.00    -0.246 OA
BRANCH  37  39
ATOM     39  C   UNL A   1      34.566  34.590  32.302  1.00  0.00     0.060 A 
ATOM     40  C   UNL A   1      34.447  33.339  32.906  1.00  0.00     0.016 A 
ATOM     41  C   UNL A   1      35.807  35.221  32.166  1.00  0.00     0.016 A 
ATOM     42  C   UNL A   1      35.593  32.709  33.381  1.00  0.00     0.010 A 
ATOM     43  C   UNL A   1      36.948  34.597  32.653  1.00  0.00     0.010 A 
ATOM     44  C   UNL A   1      36.847  33.334  33.249  1.00  0.00    -0.014 A 
BRANCH  44  45
ATOM     45  C   UNL A   1      38.080  32.607  33.609  1.00  0.00     0.031 A 
ATOM     46  C   UNL A   1      38.643  31.550  32.714  1.00  0.00     0.074 A 
ATOM     47  C   UNL A   1      38.650  32.901  34.792  1.00  0.00     0.049 A 
ATOM     48  N   UNL A   1      39.721  30.833  32.882  1.00  0.00    -0.248 NA
ATOM     49  C   UNL A   1      37.904  31.252  31.476  1.00  0.00     0.031 C 
ATOM     50  C   UNL A   1      38.147  33.907  35.730  1.00  0.00     0.029 A 
ATOM     51  N   UNL A   1      39.767  32.400  35.405  1.00  0.00    -0.354 N 
ATOM     52  C   UNL A   1      39.803  30.007  31.768  1.00  0.00     0.074 A 
ATOM     53  C   UNL A   1      38.640  30.277  30.952  1.00  0.00     0.031 C 
ATOM     54  C   UNL A   1      38.970  33.971  36.785  1.00  0.00     0.029 A 
ATOM     55  C   UNL A   1      40.031  32.983  36.621  1.00  0.00     0.049 A 
ATOM     56  H   UNL A   1      40.327  31.692  35.012  1.00  0.00     0.167 HD
ATOM     57  C   UNL A   1      40.779  29.122  31.459  1.00  0.00     0.031 A 
ATOM     58  C   UNL A   1      41.018  32.748  37.508  1.00  0.00     0.031 A 
ATOM     59  C   UNL A   1      41.920  28.869  32.305  1.00  0.00     0.049 A 
ATOM     60  C   UNL A   1      42.063  31.726  37.161  1.00  0.00     0.074 A 
ATOM     61  C   UNL A   1      42.984  28.018  32.070  1.00  0.00     0.029 A 
ATOM     62  N   UNL A   1      42.141  29.452  33.545  1.00  0.00    -0.354 N 
ATOM     63  N   UNL A   1      42.170  31.006  36.069  1.00  0.00    -0.248 NA
ATOM     64  C   UNL A   1      43.123  31.490  38.147  1.00  0.00     0.031 C 
ATOM     65  C   UNL A   1      43.803  28.024  33.200  1.00  0.00     0.029 A 
ATOM     66  C   UNL A   1      43.304  28.948  34.104  1.00  0.00     0.049 A 
ATOM     67  H   UNL A   1      41.558  30.126  33.965  1.00  0.00     0.167 HD
ATOM     68  C   UNL A   1      43.320  30.244  36.227  1.00  0.00     0.074 A 
ATOM     69  C   UNL A   1      43.885  30.607  37.512  1.00  0.00     0.031 C 
ATOM     70  C   UNL A   1      43.853  29.324  35.387  1.00  0.00     0.031 A 
BRANCH  57  71
ATOM     71  C   UNL A   1      40.690  28.369  30.155  1.00  0.00    -0.014 A 
ATOM     72  C   UNL A   1      39.866  27.233  30.055  1.00  0.00     0.010 A 
ATOM     73  C   UNL A   1      41.532  28.697  29.077  1.00  0.00     0.010 A 
ATOM     74  C   UNL A   1      39.919  26.413  28.923  1.00  0.00     0.020 A 
ATOM     75  C   UNL A   1      41.563  27.897  27.929  1.00  0.00     0.020 A 
ATOM     76  C   UNL A   1      40.778  26.744  27.873  1.00  0.00     0.054 A 
BRANCH  76  77
ATOM     77  S   UNL A   1      40.875  25.636  26.439  1.00  0.00     0.124 S 
ATOM     78  O   UNL A   1      39.524  25.091  26.378  1.00  0.00    -0.237 OA
ATOM     79  O   UNL A   1      41.239  26.549  25.358  1.00  0.00    -0.237 OA
ATOM     80  O   UNL A   1      41.917  24.682  26.813  1.00  0.00    -0.744 OA
ENDBRANCH  76  77
ENDBRANCH  57  71
BRANCH  58  81
ATOM     81  C   UNL A   1      41.064  33.546  38.764  1.00  0.00    -0.014 A 
ATOM     82  C   UNL A   1      40.254  33.197  39.862  1.00  0.00     0.010 A 
ATOM     83  C   UNL A   1      41.825  34.725  38.829  1.00  0.00     0.010 A 
ATOM     84  C   UNL A   1      40.147  34.045  40.967  1.00  0.00     0.020 A 
ATOM     85  C   UNL A   1      41.750  35.561  39.949  1.00  0.00     0.020 A 
ATOM     86  C   UNL A   1      40.884  35.231  40.995  1.00  0.00     0.054 A 
BRANCH  86  87
ATOM     87  S   UNL A   1      40.669  36.354  42.403  1.00  0.00     0.124 S 
ATOM     88  O   UNL A   1      40.744  35.434  43.534  1.00  0.00    -0.237 OA
ATOM     89  O   UNL A   1      41.801  37.266  42.257  1.00  0.00    -0.237 OA
ATOM     90  O   UNL A   1      39.356  36.951  42.168  1.00  0.00    -0.744 OA
ENDBRANCH  86  87
ENDBRANCH  58  81
BRANCH  70  91
ATOM     91  C   UNL A   1      45.116  28.617  35.814  1.00  0.00    -0.014 A 
ATOM     92  C   UNL A   1      46.366  29.100  35.380  1.00  0.00     0.010 A 
ATOM     93  C   UNL A   1      45.055  27.391  36.497  1.00  0.00     0.010 A 
ATOM     94  C   UNL A   1      47.522  28.340  35.566  1.00  0.00     0.020 A 
ATOM     95  C   UNL A   1      46.216  26.645  36.719  1.00  0.00     0.020 A 
ATOM     96  C   UNL A   1      47.437  27.109  36.222  1.00  0.00     0.054 A 
BRANCH  96  97
ATOM     97  S   UNL A   1      48.935  26.102  36.382  1.00  0.00     0.124 S 
ATOM     98  O   UNL A   1      49.575  26.687  37.556  1.00  0.00    -0.237 OA
ATOM     99  O   UNL A   1      48.397  24.756  36.561  1.00  0.00    -0.237 OA
ATOM    100  O   UNL A   1      49.634  26.321  35.117  1.00  0.00    -0.744 OA
ENDBRANCH  96  97
ENDBRANCH  70  91
ENDBRANCH  44  45
ENDBRANCH  37  39
ENDBRANCH  36  37
ENDBRANCH  35  36
ENDBRANCH  34  35
ENDBRANCH   1  34
TORSDOF 20
ENDMDL
MODEL 3
REMARK VINA RESULT:     -11.0      2.854      9.346
REMARK SMILES Cc1ccc2cc(C[N@H+]3CC[NH2+][C@H](C(=O)OCCOCCOC(=O)c4ccc(-c5c6nc(c(-c7ccc(S(=O)(=O)[O-])cc7)c7ccc([nH]7)c(-c7ccc(S(=O)(=O)[O-])cc7)c7nc(c(-c8ccc(S(=O)(=O)[O-])cc8)c8ccc5[nH]8)C=C7)C=C6)cc4)C3)c(N3CCOCC3)nc2c1
REMARK SMILES IDX 19 1 18 2 17 3 16 4 14 5 15 6 13 7 9 8 10 9 85 10 11 12
REMARK SMILES IDX 12 13 8 16 7 17 1 18 2 19 3 20 95 21 4 22 94 23 5 24 93 25
REMARK SMILES IDX 6 26 86 27 87 28 88 29 92 30 89 31 91 32 90 33 20 34 21 35
REMARK SMILES IDX 22 36 23 37 24 38 25 39 26 40 84 41 27 42 83 43 28 44 29 45
REMARK SMILES IDX 30 46 77 47 31 48 82 49 76 50 78 51 32 52 81 53 75 54 74 55
REMARK SMILES IDX 33 57 63 58 44 59 62 60 45 61 48 62 61 63 79 64 46 65 47 66
REMARK SMILES IDX 60 68 80 69 49 70 34 71 35 72 43 73 36 74 42 75 37 76 38 77
REMARK SMILES IDX 39 78 40 79 41 80 64 81 65 82 73 83 66 84 72 85 67 86 68 87
REMARK SMILES IDX 69 88 70 89 71 90 50 91 51 92 59 93 52 94 58 95 53 96 54 97
REMARK SMILES IDX 55 98 56 99 57 100
REMARK H PARENT 9 11 12 14 12 15 78 56 48 67
REMARK Flexibility Score: inf
ROOT
ATOM      1  O   UNL A   1      34.109  33.776  27.711  1.00  0.00    -0.374 OA
ENDROOT
BRANCH   1   2
ATOM      2  C   UNL A   1      35.322  33.670  28.452  1.00  0.00     0.202 C 
BRANCH   2   3
ATOM      3  C   UNL A   1      35.816  32.276  28.854  1.00  0.00     0.261 C 
BRANCH   3   4
ATOM      4  O   UNL A   1      35.857  31.392  27.728  1.00  0.00    -0.459 OA
BRANCH   4   5
ATOM      5  C   UNL A   1      35.548  30.091  27.993  1.00  0.00     0.371 C 
ATOM      6  O   UNL A   1      36.216  29.352  28.709  1.00  0.00    -0.245 OA
BRANCH   5   7
ATOM      7  C   UNL A   1      34.162  29.711  27.470  1.00  0.00     0.348 C 
ATOM      8  N   UNL A   1      33.060  28.466  25.590  1.00  0.00    -0.321 N 
ATOM      9  C   UNL A   1      32.059  29.542  25.555  1.00  0.00     0.324 C 
ATOM     10  C   UNL A   1      34.324  28.988  26.124  1.00  0.00     0.341 C 
ATOM     11  H   UNL A   1      33.186  28.193  24.615  1.00  0.00     0.348 HD
ATOM     12  C   UNL A   1      31.924  30.387  26.851  1.00  0.00     0.323 C 
ATOM     13  N   UNL A   1      33.210  30.852  27.407  1.00  0.00    -0.325 N 
ATOM     14  H   UNL A   1      33.059  31.222  28.346  1.00  0.00     0.347 HD
ATOM     15  H   UNL A   1      33.594  31.585  26.812  1.00  0.00     0.347 HD
BRANCH   8  16
ATOM     16  C   UNL A   1      32.661  27.151  26.138  1.00  0.00     0.303 C 
BRANCH  16  17
ATOM     17  C   UNL A   1      33.001  25.882  25.380  1.00  0.00     0.049 A 
ATOM     18  C   UNL A   1      33.934  19.554  24.631  1.00  0.00     0.044 C 
ATOM     19  C   UNL A   1      34.107  21.041  24.742  1.00  0.00    -0.049 A 
ATOM     20  C   UNL A   1      35.163  21.557  25.492  1.00  0.00     0.004 A 
ATOM     21  C   UNL A   1      33.167  21.930  24.190  1.00  0.00     0.032 A 
ATOM     22  C   UNL A   1      35.211  22.920  25.768  1.00  0.00     0.010 A 
ATOM     23  C   UNL A   1      33.196  23.302  24.445  1.00  0.00     0.073 A 
ATOM     24  C   UNL A   1      34.189  23.772  25.319  1.00  0.00     0.001 A 
ATOM     25  N   UNL A   1      32.275  24.130  23.906  1.00  0.00    -0.230 NA
ATOM     26  C   UNL A   1      34.068  25.078  25.796  1.00  0.00     0.023 A 
ATOM     27  C   UNL A   1      32.225  25.423  24.307  1.00  0.00     0.138 A 
BRANCH  27  28
ATOM     28  N   UNL A   1      31.365  26.286  23.664  1.00  0.00    -0.352 N 
ATOM     29  C   UNL A   1      31.808  26.943  22.430  1.00  0.00     0.146 C 
ATOM     30  C   UNL A   1      29.918  26.108  23.744  1.00  0.00     0.146 C 
ATOM     31  C   UNL A   1      31.119  28.315  22.354  1.00  0.00     0.181 C 
ATOM     32  C   UNL A   1      29.269  27.502  23.590  1.00  0.00     0.181 C 
ATOM     33  O   UNL A   1      29.687  28.169  22.380  1.00  0.00    -0.378 OA
ENDBRANCH  27  28
ENDBRANCH  16  17
ENDBRANCH   8  16
ENDBRANCH   5   7
ENDBRANCH   4   5
ENDBRANCH   3   4
ENDBRANCH   2   3
ENDBRANCH   1   2
BRANCH   1  34
ATOM     34  C   UNL A   1      33.060  34.580  28.238  1.00  0.00     0.202 C 
BRANCH  34  35
ATOM     35  C   UNL A   1      33.289  35.393  29.522  1.00  0.00     0.261 C 
BRANCH  35  36
ATOM     36  O   UNL A   1      32.869  34.737  30.714  1.00  0.00    -0.460 OA
BRANCH  36  37
ATOM     37  C   UNL A   1      33.229  35.350  31.865  1.00  0.00     0.338 C 
ATOM     38  O   UNL A   1      32.619  36.204  32.487  1.00  0.00    -0.246 OA
BRANCH  37  39
ATOM     39  C   UNL A   1      34.418  34.649  32.362  1.00  0.00     0.060 A 
ATOM     40  C   UNL A   1      34.286  33.463  33.085  1.00  0.00     0.016 A 
ATOM     41  C   UNL A   1      35.670  35.228  32.132  1.00  0.00     0.016 A 
ATOM     42  C   UNL A   1      35.430  32.849  33.585  1.00  0.00     0.010 A 
ATOM     43  C   UNL A   1      36.809  34.620  32.642  1.00  0.00     0.010 A 
ATOM     44  C   UNL A   1      36.694  33.421  33.358  1.00  0.00    -0.014 A 
BRANCH  44  45
ATOM     45  C   UNL A   1      37.919  32.697  33.750  1.00  0.00     0.031 A 
ATOM     46  C   UNL A   1      38.661  33.053  34.999  1.00  0.00     0.074 A 
ATOM     47  C   UNL A   1      38.364  31.737  32.919  1.00  0.00     0.049 A 
ATOM     48  N   UNL A   1      39.742  32.505  35.485  1.00  0.00    -0.248 NA
ATOM     49  C   UNL A   1      38.132  34.167  35.802  1.00  0.00     0.031 C 
ATOM     50  C   UNL A   1      37.705  31.347  31.671  1.00  0.00     0.029 A 
ATOM     51  N   UNL A   1      39.456  30.915  32.993  1.00  0.00    -0.354 N 
ATOM     52  C   UNL A   1      40.019  33.193  36.659  1.00  0.00     0.074 A 
ATOM     53  C   UNL A   1      39.020  34.232  36.788  1.00  0.00     0.031 C 
ATOM     54  C   UNL A   1      38.388  30.339  31.112  1.00  0.00     0.029 A 
ATOM     55  C   UNL A   1      39.556  30.043  31.935  1.00  0.00     0.049 A 
ATOM     56  H   UNL A   1      40.107  30.945  33.731  1.00  0.00     0.167 HD
ATOM     57  C   UNL A   1      41.011  32.956  37.549  1.00  0.00     0.031 A 
ATOM     58  C   UNL A   1      40.486  29.107  31.657  1.00  0.00     0.031 A 
ATOM     59  C   UNL A   1      41.999  31.918  37.379  1.00  0.00     0.049 A 
ATOM     60  C   UNL A   1      41.603  28.896  32.639  1.00  0.00     0.074 A 
ATOM     61  C   UNL A   1      43.025  31.569  38.237  1.00  0.00     0.029 A 
ATOM     62  N   UNL A   1      42.091  31.073  36.282  1.00  0.00    -0.354 N 
ATOM     63  N   UNL A   1      41.810  29.503  33.784  1.00  0.00    -0.248 NA
ATOM     64  C   UNL A   1      42.601  27.873  32.308  1.00  0.00     0.031 C 
ATOM     65  C   UNL A   1      43.785  30.573  37.623  1.00  0.00     0.029 A 
ATOM     66  C   UNL A   1      43.182  30.232  36.423  1.00  0.00     0.049 A 
ATOM     67  H   UNL A   1      41.471  31.071  35.516  1.00  0.00     0.167 HD
ATOM     68  C   UNL A   1      42.952  28.923  34.320  1.00  0.00     0.074 A 
ATOM     69  C   UNL A   1      43.379  27.902  33.384  1.00  0.00     0.031 C 
ATOM     70  C   UNL A   1      43.591  29.217  35.479  1.00  0.00     0.031 A 
BRANCH  57  71
ATOM     71  C   UNL A   1      41.086  33.801  38.796  1.00  0.00    -0.014 A 
ATOM     72  C   UNL A   1      40.326  33.452  39.928  1.00  0.00     0.010 A 
ATOM     73  C   UNL A   1      41.791  35.018  38.798  1.00  0.00     0.010 A 
ATOM     74  C   UNL A   1      40.231  34.324  41.017  1.00  0.00     0.020 A 
ATOM     75  C   UNL A   1      41.724  35.878  39.900  1.00  0.00     0.020 A 
ATOM     76  C   UNL A   1      40.921  35.538  40.990  1.00  0.00     0.054 A 
BRANCH  76  77
ATOM     77  S   UNL A   1      40.738  36.681  42.387  1.00  0.00     0.124 S 
ATOM     78  O   UNL A   1      40.940  35.801  43.534  1.00  0.00    -0.237 OA
ATOM     79  O   UNL A   1      41.800  37.653  42.141  1.00  0.00    -0.237 OA
ATOM     80  O   UNL A   1      39.382  37.200  42.230  1.00  0.00    -0.744 OA
ENDBRANCH  76  77
ENDBRANCH  57  71
BRANCH  58  81
ATOM     81  C   UNL A   1      40.338  28.288  30.423  1.00  0.00    -0.014 A 
ATOM     82  C   UNL A   1      39.306  27.334  30.318  1.00  0.00     0.010 A 
ATOM     83  C   UNL A   1      41.296  28.368  29.398  1.00  0.00     0.010 A 
ATOM     84  C   UNL A   1      39.276  26.432  29.253  1.00  0.00     0.020 A 
ATOM     85  C   UNL A   1      41.249  27.490  28.309  1.00  0.00     0.020 A 
ATOM     86  C   UNL A   1      40.259  26.505  28.263  1.00  0.00     0.054 A 
BRANCH  86  87
ATOM     87  S   UNL A   1      40.245  25.274  26.932  1.00  0.00     0.124 S 
ATOM     88  O   UNL A   1      40.723  26.055  25.795  1.00  0.00    -0.237 OA
ATOM     89  O   UNL A   1      41.169  24.258  27.430  1.00  0.00    -0.237 OA
ATOM     90  O   UNL A   1      38.846  24.860  26.861  1.00  0.00    -0.744 OA
ENDBRANCH  86  87
ENDBRANCH  58  81
BRANCH  70  91
ATOM     91  C   UNL A   1      44.837  28.439  35.822  1.00  0.00    -0.014 A 
ATOM     92  C   UNL A   1      44.734  27.257  36.581  1.00  0.00     0.010 A 
ATOM     93  C   UNL A   1      46.110  28.962  35.539  1.00  0.00     0.010 A 
ATOM     94  C   UNL A   1      45.878  26.649  37.104  1.00  0.00     0.020 A 
ATOM     95  C   UNL A   1      47.259  28.335  36.028  1.00  0.00     0.020 A 
ATOM     96  C   UNL A   1      47.133  27.203  36.836  1.00  0.00     0.054 A 
BRANCH  96  97
ATOM     97  S   UNL A   1      48.596  26.445  37.590  1.00  0.00     0.124 S 
ATOM     98  O   UNL A   1      48.486  26.877  38.980  1.00  0.00    -0.237 OA
ATOM     99  O   UNL A   1      48.375  25.020  37.354  1.00  0.00    -0.237 OA
ATOM    100  O   UNL A   1      49.709  27.027  36.843  1.00  0.00    -0.744 OA
ENDBRANCH  96  97
ENDBRANCH  70  91
ENDBRANCH  44  45
ENDBRANCH  37  39
ENDBRANCH  36  37
ENDBRANCH  35  36
ENDBRANCH  34  35
ENDBRANCH   1  34
TORSDOF 20
ENDMDL
