MODEL 1
REMARK VINA RESULT:      -9.4      0.000      0.000
REMARK SMILES C[C@@H]1CN([C@@H](CCS(C)(=O)=O)C(=O)OCCOCCOC(=O)c2ccc(-c3c4nc(c(-c5ccc(S(=O)(=O)[O-])cc5)c5ccc([nH]5)c(-c5ccc(S(=O)(=O)[O-])cc5)c5nc(c(-c6ccc(S(=O)(=O)[O-])cc6)c6ccc3[nH]6)C=C5)C=C4)cc2)S(=O)(=O)C1
REMARK SMILES IDX 17 1 16 2 15 3 14 4 12 5 13 6 5 7 4 8 1 9 2 10 3 11 86 12
REMARK SMILES IDX 83 13 84 14 85 15 6 16 7 17 8 18 9 19 10 20 11 21 18 22
REMARK SMILES IDX 19 23 20 24 21 25 22 26 23 27 24 28 82 29 25 30 81 31 26 32
REMARK SMILES IDX 27 33 28 34 75 35 29 36 80 37 74 38 76 39 30 40 79 41 73 42
REMARK SMILES IDX 72 43 31 45 61 46 42 47 60 48 43 49 46 50 59 51 77 52 44 53
REMARK SMILES IDX 45 54 58 56 78 57 47 58 32 59 33 60 41 61 34 62 40 63 35 64
REMARK SMILES IDX 36 65 37 66 38 67 39 68 62 69 63 70 71 71 64 72 70 73 65 74
REMARK SMILES IDX 66 75 67 76 68 77 69 78 48 79 49 80 57 81 50 82 56 83 51 84
REMARK SMILES IDX 52 85 53 86 54 87 55 88
REMARK H PARENT 76 44 46 55
REMARK Flexibility Score: inf
ROOT
ATOM      1  O   UNL A   1      31.556  30.306  25.074  1.00  0.00    -0.374 OA
ENDROOT
BRANCH   1   2
ATOM      2  C   UNL A   1      31.546  28.997  24.507  1.00  0.00     0.202 C 
BRANCH   2   3
ATOM      3  C   UNL A   1      32.831  28.546  23.822  1.00  0.00     0.261 C 
BRANCH   3   4
ATOM      4  O   UNL A   1      32.594  27.954  22.528  1.00  0.00    -0.462 OA
BRANCH   4   5
ATOM      5  C   UNL A   1      33.150  26.742  22.350  1.00  0.00     0.324 C 
ATOM      6  O   UNL A   1      33.664  26.367  21.294  1.00  0.00    -0.250 OA
BRANCH   5   7
ATOM      7  C   UNL A   1      33.041  25.783  23.507  1.00  0.00     0.183 C 
BRANCH   7   8
ATOM      8  N   UNL A   1      31.807  25.349  24.187  1.00  0.00    -0.187 NA
ATOM      9  C   UNL A   1      28.187  26.342  23.980  1.00  0.00     0.010 C 
ATOM     10  C   UNL A   1      29.647  26.323  24.398  1.00  0.00     0.017 C 
ATOM     11  C   UNL A   1      30.522  25.475  23.470  1.00  0.00     0.107 C 
ATOM     12  C   UNL A   1      29.842  25.731  25.791  1.00  0.00     0.159 C 
ATOM     13  S   UNL A   1      31.555  25.224  25.850  1.00  0.00     0.215 S 
ATOM     14  O   UNL A   1      31.554  23.825  26.209  1.00  0.00    -0.212 OA
ATOM     15  O   UNL A   1      32.284  26.242  26.543  1.00  0.00    -0.212 OA
ENDBRANCH   7   8
BRANCH   7  16
ATOM     16  C   UNL A   1      34.155  24.719  23.408  1.00  0.00     0.048 C 
BRANCH  16  17
ATOM     17  C   UNL A   1      34.923  24.230  24.629  1.00  0.00     0.139 C 
BRANCH  17  18
ATOM     18  S   UNL A   1      35.249  22.485  24.859  1.00  0.00     0.147 S 
ATOM     19  C   UNL A   1      33.778  21.624  24.372  1.00  0.00     0.158 C 
ATOM     20  O   UNL A   1      36.270  22.125  23.893  1.00  0.00    -0.229 OA
ATOM     21  O   UNL A   1      35.433  22.187  26.261  1.00  0.00    -0.229 OA
ENDBRANCH  17  18
ENDBRANCH  16  17
ENDBRANCH   7  16
ENDBRANCH   5   7
ENDBRANCH   4   5
ENDBRANCH   3   4
ENDBRANCH   2   3
ENDBRANCH   1   2
BRANCH   1  22
ATOM     22  C   UNL A   1      31.606  30.412  26.496  1.00  0.00     0.202 C 
BRANCH  22  23
ATOM     23  C   UNL A   1      32.768  31.200  27.108  1.00  0.00     0.261 C 
BRANCH  23  24
ATOM     24  O   UNL A   1      33.775  30.366  27.698  1.00  0.00    -0.460 OA
BRANCH  24  25
ATOM     25  C   UNL A   1      34.714  31.000  28.433  1.00  0.00     0.338 C 
ATOM     26  O   UNL A   1      34.569  32.026  29.078  1.00  0.00    -0.246 OA
BRANCH  25  27
ATOM     27  C   UNL A   1      35.952  30.199  28.488  1.00  0.00     0.060 A 
ATOM     28  C   UNL A   1      36.270  29.570  29.696  1.00  0.00     0.016 A 
ATOM     29  C   UNL A   1      36.859  30.199  27.427  1.00  0.00     0.016 A 
ATOM     30  C   UNL A   1      37.533  29.008  29.875  1.00  0.00     0.010 A 
ATOM     31  C   UNL A   1      38.127  29.630  27.609  1.00  0.00     0.010 A 
ATOM     32  C   UNL A   1      38.491  29.081  28.852  1.00  0.00    -0.014 A 
BRANCH  32  33
ATOM     33  C   UNL A   1      39.902  28.717  29.151  1.00  0.00     0.031 A 
ATOM     34  C   UNL A   1      40.780  29.697  29.890  1.00  0.00     0.074 A 
ATOM     35  C   UNL A   1      40.382  27.501  28.828  1.00  0.00     0.049 A 
ATOM     36  N   UNL A   1      42.021  29.565  30.285  1.00  0.00    -0.248 NA
ATOM     37  C   UNL A   1      40.181  30.998  30.227  1.00  0.00     0.031 C 
ATOM     38  C   UNL A   1      39.631  26.452  28.141  1.00  0.00     0.029 A 
ATOM     39  N   UNL A   1      41.619  26.944  29.044  1.00  0.00    -0.354 N 
ATOM     40  C   UNL A   1      42.353  30.763  30.907  1.00  0.00     0.074 A 
ATOM     41  C   UNL A   1      41.196  31.625  30.804  1.00  0.00     0.031 C 
ATOM     42  C   UNL A   1      40.419  25.371  28.004  1.00  0.00     0.029 A 
ATOM     43  C   UNL A   1      41.739  25.664  28.558  1.00  0.00     0.049 A 
ATOM     44  H   UNL A   1      42.351  27.416  29.504  1.00  0.00     0.167 HD
ATOM     45  C   UNL A   1      43.512  31.114  31.519  1.00  0.00     0.031 A 
ATOM     46  C   UNL A   1      42.796  24.826  28.546  1.00  0.00     0.031 A 
ATOM     47  C   UNL A   1      44.667  30.259  31.615  1.00  0.00     0.049 A 
ATOM     48  C   UNL A   1      44.094  25.263  29.175  1.00  0.00     0.074 A 
ATOM     49  C   UNL A   1      45.877  30.517  32.237  1.00  0.00     0.029 A 
ATOM     50  N   UNL A   1      44.763  28.987  31.070  1.00  0.00    -0.354 N 
ATOM     51  N   UNL A   1      44.380  26.386  29.791  1.00  0.00    -0.248 NA
ATOM     52  C   UNL A   1      45.213  24.310  29.118  1.00  0.00     0.031 C 
ATOM     53  C   UNL A   1      46.727  29.430  32.009  1.00  0.00     0.029 A 
ATOM     54  C   UNL A   1      46.022  28.461  31.313  1.00  0.00     0.049 A 
ATOM     55  H   UNL A   1      44.042  28.526  30.584  1.00  0.00     0.167 HD
ATOM     56  C   UNL A   1      45.697  26.261  30.221  1.00  0.00     0.074 A 
ATOM     57  C   UNL A   1      46.147  24.947  29.811  1.00  0.00     0.031 C 
ATOM     58  C   UNL A   1      46.465  27.152  30.898  1.00  0.00     0.031 A 
BRANCH  45  59
ATOM     59  C   UNL A   1      43.602  32.501  32.107  1.00  0.00    -0.014 A 
ATOM     60  C   UNL A   1      43.263  32.753  33.449  1.00  0.00     0.010 A 
ATOM     61  C   UNL A   1      44.083  33.562  31.316  1.00  0.00     0.010 A 
ATOM     62  C   UNL A   1      43.366  34.045  33.976  1.00  0.00     0.020 A 
ATOM     63  C   UNL A   1      44.218  34.847  31.848  1.00  0.00     0.020 A 
ATOM     64  C   UNL A   1      43.842  35.085  33.171  1.00  0.00     0.054 A 
BRANCH  64  65
ATOM     65  S   UNL A   1      43.990  36.744  33.889  1.00  0.00     0.124 S 
ATOM     66  O   UNL A   1      42.592  37.153  33.997  1.00  0.00    -0.237 OA
ATOM     67  O   UNL A   1      44.669  36.486  35.156  1.00  0.00    -0.237 OA
ATOM     68  O   UNL A   1      44.778  37.482  32.903  1.00  0.00    -0.744 OA
ENDBRANCH  64  65
ENDBRANCH  45  59
BRANCH  46  69
ATOM     69  C   UNL A   1      42.675  23.486  27.903  1.00  0.00    -0.014 A 
ATOM     70  C   UNL A   1      41.866  22.485  28.469  1.00  0.00     0.010 A 
ATOM     71  C   UNL A   1      43.378  23.204  26.717  1.00  0.00     0.010 A 
ATOM     72  C   UNL A   1      41.779  21.222  27.873  1.00  0.00     0.020 A 
ATOM     73  C   UNL A   1      43.267  21.955  26.099  1.00  0.00     0.020 A 
ATOM     74  C   UNL A   1      42.478  20.967  26.689  1.00  0.00     0.054 A 
BRANCH  74  75
ATOM     75  S   UNL A   1      42.314  19.336  25.911  1.00  0.00     0.124 S 
ATOM     76  O   UNL A   1      43.076  19.508  24.678  1.00  0.00    -0.237 OA
ATOM     77  O   UNL A   1      42.914  18.450  26.905  1.00  0.00    -0.237 OA
ATOM     78  O   UNL A   1      40.871  19.181  25.736  1.00  0.00    -0.744 OA
ENDBRANCH  74  75
ENDBRANCH  46  69
BRANCH  58  79
ATOM     79  C   UNL A   1      47.861  26.726  31.280  1.00  0.00    -0.014 A 
ATOM     80  C   UNL A   1      48.973  27.037  30.475  1.00  0.00     0.010 A 
ATOM     81  C   UNL A   1      48.068  26.038  32.490  1.00  0.00     0.010 A 
ATOM     82  C   UNL A   1      50.256  26.629  30.853  1.00  0.00     0.020 A 
ATOM     83  C   UNL A   1      49.353  25.659  32.887  1.00  0.00     0.020 A 
ATOM     84  C   UNL A   1      50.438  25.941  32.057  1.00  0.00     0.054 A 
BRANCH  84  85
ATOM     85  S   UNL A   1      52.117  25.449  32.536  1.00  0.00     0.124 S 
ATOM     86  O   UNL A   1      52.528  26.557  33.392  1.00  0.00    -0.237 OA
ATOM     87  O   UNL A   1      51.895  24.176  33.219  1.00  0.00    -0.237 OA
ATOM     88  O   UNL A   1      52.828  25.349  31.263  1.00  0.00    -0.744 OA
ENDBRANCH  84  85
ENDBRANCH  58  79
ENDBRANCH  32  33
ENDBRANCH  25  27
ENDBRANCH  24  25
ENDBRANCH  23  24
ENDBRANCH  22  23
ENDBRANCH   1  22
TORSDOF 21
ENDMDL
MODEL 2
REMARK VINA RESULT:      -9.3      2.318      3.579
REMARK SMILES C[C@@H]1CN([C@@H](CCS(C)(=O)=O)C(=O)OCCOCCOC(=O)c2ccc(-c3c4nc(c(-c5ccc(S(=O)(=O)[O-])cc5)c5ccc([nH]5)c(-c5ccc(S(=O)(=O)[O-])cc5)c5nc(c(-c6ccc(S(=O)(=O)[O-])cc6)c6ccc3[nH]6)C=C5)C=C4)cc2)S(=O)(=O)C1
REMARK SMILES IDX 17 1 16 2 15 3 14 4 12 5 13 6 5 7 4 8 1 9 2 10 3 11 86 12
REMARK SMILES IDX 83 13 84 14 85 15 6 16 7 17 8 18 9 19 10 20 11 21 18 22
REMARK SMILES IDX 19 23 20 24 21 25 22 26 23 27 24 28 82 29 25 30 81 31 26 32
REMARK SMILES IDX 27 33 28 34 75 35 29 36 80 37 74 38 76 39 30 40 79 41 73 42
REMARK SMILES IDX 72 43 31 45 61 46 42 47 60 48 43 49 46 50 59 51 77 52 44 53
REMARK SMILES IDX 45 54 58 56 78 57 47 58 32 59 33 60 41 61 34 62 40 63 35 64
REMARK SMILES IDX 36 65 37 66 38 67 39 68 62 69 63 70 71 71 64 72 70 73 65 74
REMARK SMILES IDX 66 75 67 76 68 77 69 78 48 79 49 80 57 81 50 82 56 83 51 84
REMARK SMILES IDX 52 85 53 86 54 87 55 88
REMARK H PARENT 76 44 46 55
REMARK Flexibility Score: inf
ROOT
ATOM      1  O   UNL A   1      31.669  28.810  27.288  1.00  0.00    -0.374 OA
ENDROOT
BRANCH   1   2
ATOM      2  C   UNL A   1      31.502  27.877  26.222  1.00  0.00     0.202 C 
BRANCH   2   3
ATOM      3  C   UNL A   1      31.982  26.455  26.485  1.00  0.00     0.261 C 
BRANCH   3   4
ATOM      4  O   UNL A   1      30.901  25.500  26.525  1.00  0.00    -0.462 OA
BRANCH   4   5
ATOM      5  C   UNL A   1      31.284  24.210  26.516  1.00  0.00     0.324 C 
ATOM      6  O   UNL A   1      30.897  23.369  27.330  1.00  0.00    -0.250 OA
BRANCH   5   7
ATOM      7  C   UNL A   1      32.315  23.830  25.485  1.00  0.00     0.183 C 
BRANCH   7   8
ATOM      8  N   UNL A   1      33.489  22.960  25.681  1.00  0.00    -0.187 NA
ATOM      9  C   UNL A   1      36.697  22.391  23.805  1.00  0.00     0.010 C 
ATOM     10  C   UNL A   1      35.246  22.265  24.237  1.00  0.00     0.017 C 
ATOM     11  C   UNL A   1      34.795  23.405  25.154  1.00  0.00     0.107 C 
ATOM     12  C   UNL A   1      34.987  20.985  25.026  1.00  0.00     0.159 C 
ATOM     13  S   UNL A   1      33.486  21.295  25.944  1.00  0.00     0.215 S 
ATOM     14  O   UNL A   1      33.799  21.049  27.332  1.00  0.00    -0.212 OA
ATOM     15  O   UNL A   1      32.407  20.679  25.231  1.00  0.00    -0.212 OA
ENDBRANCH   7   8
BRANCH   7  16
ATOM     16  C   UNL A   1      31.653  23.748  24.093  1.00  0.00     0.048 C 
BRANCH  16  17
ATOM     17  C   UNL A   1      32.419  24.043  22.810  1.00  0.00     0.139 C 
BRANCH  17  18
ATOM     18  S   UNL A   1      32.846  25.726  22.373  1.00  0.00     0.147 S 
ATOM     19  C   UNL A   1      31.354  26.676  22.486  1.00  0.00     0.158 C 
ATOM     20  O   UNL A   1      33.721  26.215  23.422  1.00  0.00    -0.229 OA
ATOM     21  O   UNL A   1      33.255  25.799  20.988  1.00  0.00    -0.229 OA
ENDBRANCH  17  18
ENDBRANCH  16  17
ENDBRANCH   7  16
ENDBRANCH   5   7
ENDBRANCH   4   5
ENDBRANCH   3   4
ENDBRANCH   2   3
ENDBRANCH   1   2
BRANCH   1  22
ATOM     22  C   UNL A   1      31.511  30.195  26.987  1.00  0.00     0.202 C 
BRANCH  22  23
ATOM     23  C   UNL A   1      32.713  30.933  26.388  1.00  0.00     0.261 C 
BRANCH  23  24
ATOM     24  O   UNL A   1      33.976  30.378  26.779  1.00  0.00    -0.460 OA
BRANCH  24  25
ATOM     25  C   UNL A   1      34.581  30.966  27.833  1.00  0.00     0.338 C 
ATOM     26  O   UNL A   1      34.153  31.895  28.498  1.00  0.00    -0.246 OA
BRANCH  25  27
ATOM     27  C   UNL A   1      35.810  30.233  28.195  1.00  0.00     0.060 A 
ATOM     28  C   UNL A   1      35.874  29.653  29.466  1.00  0.00     0.016 A 
ATOM     29  C   UNL A   1      36.934  30.255  27.368  1.00  0.00     0.016 A 
ATOM     30  C   UNL A   1      37.087  29.164  29.947  1.00  0.00     0.010 A 
ATOM     31  C   UNL A   1      38.151  29.759  27.852  1.00  0.00     0.010 A 
ATOM     32  C   UNL A   1      38.248  29.261  29.164  1.00  0.00    -0.014 A 
BRANCH  32  33
ATOM     33  C   UNL A   1      39.570  28.980  29.787  1.00  0.00     0.031 A 
ATOM     34  C   UNL A   1      39.993  29.758  31.009  1.00  0.00     0.074 A 
ATOM     35  C   UNL A   1      40.360  27.999  29.312  1.00  0.00     0.049 A 
ATOM     36  N   UNL A   1      41.082  29.643  31.729  1.00  0.00    -0.248 NA
ATOM     37  C   UNL A   1      39.070  30.802  31.483  1.00  0.00     0.031 C 
ATOM     38  C   UNL A   1      40.055  27.154  28.159  1.00  0.00     0.029 A 
ATOM     39  N   UNL A   1      41.579  27.544  29.751  1.00  0.00    -0.354 N 
ATOM     40  C   UNL A   1      40.978  30.603  32.731  1.00  0.00     0.074 A 
ATOM     41  C   UNL A   1      39.740  31.315  32.505  1.00  0.00     0.031 C 
ATOM     42  C   UNL A   1      41.056  26.273  27.988  1.00  0.00     0.029 A 
ATOM     43  C   UNL A   1      42.088  26.515  28.994  1.00  0.00     0.049 A 
ATOM     44  H   UNL A   1      42.045  27.919  30.533  1.00  0.00     0.167 HD
ATOM     45  C   UNL A   1      41.830  30.862  33.754  1.00  0.00     0.031 A 
ATOM     46  C   UNL A   1      43.257  25.850  29.091  1.00  0.00     0.031 A 
ATOM     47  C   UNL A   1      43.067  30.157  33.975  1.00  0.00     0.049 A 
ATOM     48  C   UNL A   1      44.218  26.200  30.199  1.00  0.00     0.074 A 
ATOM     49  C   UNL A   1      43.984  30.333  34.998  1.00  0.00     0.029 A 
ATOM     50  N   UNL A   1      43.566  29.152  33.160  1.00  0.00    -0.354 N 
ATOM     51  N   UNL A   1      44.089  27.086  31.159  1.00  0.00    -0.248 NA
ATOM     52  C   UNL A   1      45.482  25.451  30.242  1.00  0.00     0.031 C 
ATOM     53  C   UNL A   1      45.069  29.482  34.763  1.00  0.00     0.029 A 
ATOM     54  C   UNL A   1      44.793  28.721  33.639  1.00  0.00     0.049 A 
ATOM     55  H   UNL A   1      43.115  28.797  32.361  1.00  0.00     0.167 HD
ATOM     56  C   UNL A   1      45.237  26.976  31.937  1.00  0.00     0.074 A 
ATOM     57  C   UNL A   1      46.042  25.927  31.346  1.00  0.00     0.031 C 
ATOM     58  C   UNL A   1      45.592  27.678  33.043  1.00  0.00     0.031 A 
BRANCH  45  59
ATOM     59  C   UNL A   1      41.470  31.982  34.699  1.00  0.00    -0.014 A 
ATOM     60  C   UNL A   1      40.814  31.731  35.919  1.00  0.00     0.010 A 
ATOM     61  C   UNL A   1      41.839  33.303  34.385  1.00  0.00     0.010 A 
ATOM     62  C   UNL A   1      40.500  32.784  36.784  1.00  0.00     0.020 A 
ATOM     63  C   UNL A   1      41.557  34.354  35.263  1.00  0.00     0.020 A 
ATOM     64  C   UNL A   1      40.874  34.090  36.450  1.00  0.00     0.054 A 
BRANCH  64  65
ATOM     65  S   UNL A   1      40.478  35.431  37.605  1.00  0.00     0.124 S 
ATOM     66  O   UNL A   1      41.655  35.445  38.469  1.00  0.00    -0.237 OA
ATOM     67  O   UNL A   1      40.334  36.584  36.720  1.00  0.00    -0.237 OA
ATOM     68  O   UNL A   1      39.242  34.986  38.247  1.00  0.00    -0.744 OA
ENDBRANCH  64  65
ENDBRANCH  45  59
BRANCH  46  69
ATOM     69  C   UNL A   1      43.594  24.789  28.099  1.00  0.00    -0.014 A 
ATOM     70  C   UNL A   1      43.260  23.445  28.340  1.00  0.00     0.010 A 
ATOM     71  C   UNL A   1      44.259  25.123  26.905  1.00  0.00     0.010 A 
ATOM     72  C   UNL A   1      43.603  22.452  27.415  1.00  0.00     0.020 A 
ATOM     73  C   UNL A   1      44.573  24.139  25.962  1.00  0.00     0.020 A 
ATOM     74  C   UNL A   1      44.254  22.807  26.230  1.00  0.00     0.054 A 
BRANCH  74  75
ATOM     75  S   UNL A   1      44.648  21.508  25.026  1.00  0.00     0.124 S 
ATOM     76  O   UNL A   1      44.598  22.237  23.763  1.00  0.00    -0.237 OA
ATOM     77  O   UNL A   1      45.977  21.075  25.453  1.00  0.00    -0.237 OA
ATOM     78  O   UNL A   1      43.586  20.523  25.221  1.00  0.00    -0.744 OA
ENDBRANCH  74  75
ENDBRANCH  46  69
BRANCH  58  79
ATOM     79  C   UNL A   1      46.890  27.309  33.718  1.00  0.00    -0.014 A 
ATOM     80  C   UNL A   1      46.949  26.312  34.709  1.00  0.00     0.010 A 
ATOM     81  C   UNL A   1      48.082  27.946  33.322  1.00  0.00     0.010 A 
ATOM     82  C   UNL A   1      48.166  25.991  35.320  1.00  0.00     0.020 A 
ATOM     83  C   UNL A   1      49.305  27.603  33.905  1.00  0.00     0.020 A 
ATOM     84  C   UNL A   1      49.336  26.639  34.914  1.00  0.00     0.054 A 
BRANCH  84  85
ATOM     85  S   UNL A   1      50.906  26.184  35.702  1.00  0.00     0.124 S 
ATOM     86  O   UNL A   1      51.050  27.222  36.718  1.00  0.00    -0.237 OA
ATOM     87  O   UNL A   1      50.632  24.841  36.210  1.00  0.00    -0.237 OA
ATOM     88  O   UNL A   1      51.875  26.243  34.609  1.00  0.00    -0.744 OA
ENDBRANCH  84  85
ENDBRANCH  58  79
ENDBRANCH  32  33
ENDBRANCH  25  27
ENDBRANCH  24  25
ENDBRANCH  23  24
ENDBRANCH  22  23
ENDBRANCH   1  22
TORSDOF 21
ENDMDL
MODEL 3
REMARK VINA RESULT:      -9.3      4.081     10.171
REMARK SMILES C[C@@H]1CN([C@@H](CCS(C)(=O)=O)C(=O)OCCOCCOC(=O)c2ccc(-c3c4nc(c(-c5ccc(S(=O)(=O)[O-])cc5)c5ccc([nH]5)c(-c5ccc(S(=O)(=O)[O-])cc5)c5nc(c(-c6ccc(S(=O)(=O)[O-])cc6)c6ccc3[nH]6)C=C5)C=C4)cc2)S(=O)(=O)C1
REMARK SMILES IDX 17 1 16 2 15 3 14 4 12 5 13 6 5 7 4 8 1 9 2 10 3 11 86 12
REMARK SMILES IDX 83 13 84 14 85 15 6 16 7 17 8 18 9 19 10 20 11 21 18 22
REMARK SMILES IDX 19 23 20 24 21 25 22 26 23 27 24 28 82 29 25 30 81 31 26 32
REMARK SMILES IDX 27 33 28 34 75 35 29 36 80 37 74 38 76 39 30 40 79 41 73 42
REMARK SMILES IDX 72 43 31 45 61 46 42 47 60 48 43 49 46 50 59 51 77 52 44 53
REMARK SMILES IDX 45 54 58 56 78 57 47 58 32 59 33 60 41 61 34 62 40 63 35 64
REMARK SMILES IDX 36 65 37 66 38 67 39 68 62 69 63 70 71 71 64 72 70 73 65 74
REMARK SMILES IDX 66 75 67 76 68 77 69 78 48 79 49 80 57 81 50 82 56 83 51 84
REMARK SMILES IDX 52 85 53 86 54 87 55 88
REMARK H PARENT 76 44 46 55
REMARK Flexibility Score: inf
ROOT
ATOM      1  O   UNL A   1      38.825  22.313  25.458  1.00  0.00    -0.374 OA
ENDROOT
BRANCH   1   2
ATOM      2  C   UNL A   1      37.757  21.458  25.054  1.00  0.00     0.202 C 
BRANCH   2   3
ATOM      3  C   UNL A   1      36.603  22.120  24.312  1.00  0.00     0.261 C 
BRANCH   3   4
ATOM      4  O   UNL A   1      35.637  22.716  25.202  1.00  0.00    -0.462 OA
BRANCH   4   5
ATOM      5  C   UNL A   1      34.619  21.910  25.555  1.00  0.00     0.324 C 
ATOM      6  O   UNL A   1      34.691  21.050  26.435  1.00  0.00    -0.250 OA
BRANCH   5   7
ATOM      7  C   UNL A   1      33.357  22.039  24.741  1.00  0.00     0.183 C 
BRANCH   7   8
ATOM      8  N   UNL A   1      32.675  23.285  24.350  1.00  0.00    -0.187 NA
ATOM      9  C   UNL A   1      33.521  26.155  22.074  1.00  0.00     0.010 C 
ATOM     10  C   UNL A   1      33.435  25.289  23.319  1.00  0.00     0.017 C 
ATOM     11  C   UNL A   1      32.964  23.863  23.022  1.00  0.00     0.107 C 
ATOM     12  C   UNL A   1      32.441  25.839  24.338  1.00  0.00     0.159 C 
ATOM     13  S   UNL A   1      32.019  24.449  25.379  1.00  0.00     0.215 S 
ATOM     14  O   UNL A   1      30.579  24.335  25.341  1.00  0.00    -0.212 OA
ATOM     15  O   UNL A   1      32.797  24.553  26.576  1.00  0.00    -0.212 OA
ENDBRANCH   7   8
BRANCH   7  16
ATOM     16  C   UNL A   1      33.282  20.889  23.713  1.00  0.00     0.048 C 
BRANCH  16  17
ATOM     17  C   UNL A   1      32.496  19.612  23.978  1.00  0.00     0.139 C 
BRANCH  17  18
ATOM     18  S   UNL A   1      33.330  18.029  24.050  1.00  0.00     0.147 S 
ATOM     19  C   UNL A   1      32.596  17.127  25.387  1.00  0.00     0.158 C 
ATOM     20  O   UNL A   1      32.974  17.320  22.835  1.00  0.00    -0.229 OA
ATOM     21  O   UNL A   1      34.718  18.208  24.412  1.00  0.00    -0.229 OA
ENDBRANCH  17  18
ENDBRANCH  16  17
ENDBRANCH   7  16
ENDBRANCH   5   7
ENDBRANCH   4   5
ENDBRANCH   3   4
ENDBRANCH   2   3
ENDBRANCH   1   2
BRANCH   1  22
ATOM     22  C   UNL A   1      39.716  21.832  26.463  1.00  0.00     0.202 C 
BRANCH  22  23
ATOM     23  C   UNL A   1      41.212  22.102  26.272  1.00  0.00     0.261 C 
BRANCH  23  24
ATOM     24  O   UNL A   1      41.718  23.136  27.127  1.00  0.00    -0.460 OA
BRANCH  24  25
ATOM     25  C   UNL A   1      42.011  24.310  26.528  1.00  0.00     0.338 C 
ATOM     26  O   UNL A   1      42.521  24.465  25.430  1.00  0.00    -0.246 OA
BRANCH  25  27
ATOM     27  C   UNL A   1      41.489  25.438  27.325  1.00  0.00     0.060 A 
ATOM     28  C   UNL A   1      42.295  26.574  27.456  1.00  0.00     0.016 A 
ATOM     29  C   UNL A   1      40.308  25.318  28.059  1.00  0.00     0.016 A 
ATOM     30  C   UNL A   1      41.963  27.559  28.384  1.00  0.00     0.010 A 
ATOM     31  C   UNL A   1      39.975  26.312  28.989  1.00  0.00     0.010 A 
ATOM     32  C   UNL A   1      40.829  27.410  29.196  1.00  0.00    -0.014 A 
BRANCH  32  33
ATOM     33  C   UNL A   1      40.637  28.328  30.351  1.00  0.00     0.031 A 
ATOM     34  C   UNL A   1      41.538  28.203  31.555  1.00  0.00     0.074 A 
ATOM     35  C   UNL A   1      39.714  29.308  30.305  1.00  0.00     0.049 A 
ATOM     36  N   UNL A   1      41.568  28.926  32.647  1.00  0.00    -0.248 NA
ATOM     37  C   UNL A   1      42.536  27.122  31.526  1.00  0.00     0.031 C 
ATOM     38  C   UNL A   1      38.802  29.557  29.191  1.00  0.00     0.029 A 
ATOM     39  N   UNL A   1      39.400  30.282  31.222  1.00  0.00    -0.354 N 
ATOM     40  C   UNL A   1      42.577  28.383  33.436  1.00  0.00     0.074 A 
ATOM     41  C   UNL A   1      43.109  27.248  32.714  1.00  0.00     0.031 C 
ATOM     42  C   UNL A   1      38.039  30.624  29.483  1.00  0.00     0.029 A 
ATOM     43  C   UNL A   1      38.381  31.111  30.818  1.00  0.00     0.049 A 
ATOM     44  H   UNL A   1      39.861  30.378  32.086  1.00  0.00     0.167 HD
ATOM     45  C   UNL A   1      43.029  28.795  34.646  1.00  0.00     0.031 A 
ATOM     46  C   UNL A   1      37.780  32.136  31.455  1.00  0.00     0.031 A 
ATOM     47  C   UNL A   1      42.494  29.921  35.368  1.00  0.00     0.049 A 
ATOM     48  C   UNL A   1      38.256  32.536  32.828  1.00  0.00     0.074 A 
ATOM     49  C   UNL A   1      42.902  30.431  36.589  1.00  0.00     0.029 A 
ATOM     50  N   UNL A   1      41.432  30.707  34.944  1.00  0.00    -0.354 N 
ATOM     51  N   UNL A   1      39.236  32.034  33.544  1.00  0.00    -0.248 NA
ATOM     52  C   UNL A   1      37.552  33.652  33.476  1.00  0.00     0.031 C 
ATOM     53  C   UNL A   1      42.044  31.480  36.935  1.00  0.00     0.029 A 
ATOM     54  C   UNL A   1      41.151  31.675  35.894  1.00  0.00     0.049 A 
ATOM     55  H   UNL A   1      40.951  30.593  34.093  1.00  0.00     0.167 HD
ATOM     56  C   UNL A   1      39.284  32.794  34.709  1.00  0.00     0.074 A 
ATOM     57  C   UNL A   1      38.248  33.799  34.595  1.00  0.00     0.031 C 
ATOM     58  C   UNL A   1      40.114  32.672  35.776  1.00  0.00     0.031 A 
BRANCH  45  59
ATOM     59  C   UNL A   1      44.141  28.003  35.286  1.00  0.00    -0.014 A 
ATOM     60  C   UNL A   1      45.493  28.338  35.084  1.00  0.00     0.010 A 
ATOM     61  C   UNL A   1      43.827  26.934  36.147  1.00  0.00     0.010 A 
ATOM     62  C   UNL A   1      46.507  27.595  35.698  1.00  0.00     0.020 A 
ATOM     63  C   UNL A   1      44.837  26.210  36.788  1.00  0.00     0.020 A 
ATOM     64  C   UNL A   1      46.172  26.535  36.546  1.00  0.00     0.054 A 
BRANCH  64  65
ATOM     65  S   UNL A   1      47.508  25.607  37.349  1.00  0.00     0.124 S 
ATOM     66  O   UNL A   1      46.765  24.643  38.157  1.00  0.00    -0.237 OA
ATOM     67  O   UNL A   1      48.236  25.046  36.214  1.00  0.00    -0.237 OA
ATOM     68  O   UNL A   1      48.233  26.625  38.108  1.00  0.00    -0.744 OA
ENDBRANCH  64  65
ENDBRANCH  45  59
BRANCH  46  69
ATOM     69  C   UNL A   1      36.647  32.854  30.804  1.00  0.00    -0.014 A 
ATOM     70  C   UNL A   1      36.881  33.823  29.812  1.00  0.00     0.010 A 
ATOM     71  C   UNL A   1      35.320  32.572  31.181  1.00  0.00     0.010 A 
ATOM     72  C   UNL A   1      35.813  34.509  29.225  1.00  0.00     0.020 A 
ATOM     73  C   UNL A   1      34.248  33.232  30.573  1.00  0.00     0.020 A 
ATOM     74  C   UNL A   1      34.502  34.206  29.608  1.00  0.00     0.054 A 
BRANCH  74  75
ATOM     75  S   UNL A   1      33.132  35.079  28.800  1.00  0.00     0.124 S 
ATOM     76  O   UNL A   1      32.558  34.033  27.959  1.00  0.00    -0.237 OA
ATOM     77  O   UNL A   1      32.312  35.497  29.934  1.00  0.00    -0.237 OA
ATOM     78  O   UNL A   1      33.791  36.167  28.081  1.00  0.00    -0.744 OA
ENDBRANCH  74  75
ENDBRANCH  46  69
BRANCH  58  79
ATOM     79  C   UNL A   1      39.970  33.676  36.893  1.00  0.00    -0.014 A 
ATOM     80  C   UNL A   1      40.764  34.835  36.950  1.00  0.00     0.010 A 
ATOM     81  C   UNL A   1      38.988  33.475  37.882  1.00  0.00     0.010 A 
ATOM     82  C   UNL A   1      40.610  35.750  37.998  1.00  0.00     0.020 A 
ATOM     83  C   UNL A   1      38.807  34.403  38.910  1.00  0.00     0.020 A 
ATOM     84  C   UNL A   1      39.632  35.527  38.972  1.00  0.00     0.054 A 
BRANCH  84  85
ATOM     85  S   UNL A   1      39.433  36.743  40.304  1.00  0.00     0.124 S 
ATOM     86  O   UNL A   1      40.817  37.009  40.683  1.00  0.00    -0.237 OA
ATOM     87  O   UNL A   1      38.742  37.842  39.634  1.00  0.00    -0.237 OA
ATOM     88  O   UNL A   1      38.638  36.035  41.306  1.00  0.00    -0.744 OA
ENDBRANCH  84  85
ENDBRANCH  58  79
ENDBRANCH  32  33
ENDBRANCH  25  27
ENDBRANCH  24  25
ENDBRANCH  23  24
ENDBRANCH  22  23
ENDBRANCH   1  22
TORSDOF 21
ENDMDL
