MODEL 1
REMARK VINA RESULT:     -11.0      0.000      0.000
REMARK SMILES Cc1ccc(S(=O)(=O)N[C@@H](Cc2cccc(F)c2)C(=O)OCCOCCOC(=O)c2ccc(-c3c4nc(c(-c5ccc(S(=O)(=O)[O-])cc5)c5ccc([nH]5)c(-c5ccc(S(=O)(=O)[O-])cc5)c5nc(c(-c6ccc(S(=O)(=O)[O-])cc6)c6ccc3[nH]6)C=C5)C=C4)cc2)cc1
REMARK SMILES IDX 24 1 23 2 22 3 21 4 19 5 20 6 10 7 9 8 6 10 7 11 8 12 5 13
REMARK SMILES IDX 1 14 2 15 3 16 91 17 4 18 90 19 11 20 12 21 13 22 18 23
REMARK SMILES IDX 14 24 16 25 15 26 17 27 25 28 26 29 27 30 28 31 29 32 30 33
REMARK SMILES IDX 31 34 89 35 32 36 88 37 33 38 34 39 35 40 82 41 36 42 87 43
REMARK SMILES IDX 81 44 83 45 37 46 86 47 80 48 79 49 38 51 68 52 49 53 67 54
REMARK SMILES IDX 50 55 53 56 66 57 84 58 51 59 52 60 65 62 85 63 54 64 39 65
REMARK SMILES IDX 40 66 48 67 41 68 47 69 42 70 43 71 44 72 45 73 46 74 69 75
REMARK SMILES IDX 70 76 78 77 71 78 77 79 72 80 73 81 74 82 75 83 76 84 55 85
REMARK SMILES IDX 56 86 64 87 57 88 63 89 58 90 59 91 60 92 61 93 62 94
REMARK H PARENT 9 9 83 50 53 61
REMARK Flexibility Score: inf
ROOT
ATOM      1  O   UNL A   1      31.497  28.047  25.176  1.00  0.00    -0.374 OA
ENDROOT
BRANCH   1   2
ATOM      2  C   UNL A   1      30.929  28.723  24.047  1.00  0.00     0.202 C 
BRANCH   2   3
ATOM      3  C   UNL A   1      31.593  28.185  22.784  1.00  0.00     0.261 C 
BRANCH   3   4
ATOM      4  O   UNL A   1      32.928  27.744  23.072  1.00  0.00    -0.462 OA
BRANCH   4   5
ATOM      5  C   UNL A   1      33.305  26.542  22.539  1.00  0.00     0.324 C 
ATOM      6  O   UNL A   1      33.375  26.252  21.352  1.00  0.00    -0.250 OA
BRANCH   5   7
ATOM      7  C   UNL A   1      33.848  25.651  23.668  1.00  0.00     0.184 C 
BRANCH   7   8
ATOM      8  N   UNL A   1      32.676  25.484  24.579  1.00  0.00    -0.197 NA
ATOM      9  H   UNL A   1      33.065  25.111  25.445  1.00  0.00     0.142 HD
BRANCH   8  10
ATOM     10  S   UNL A   1      31.331  24.581  24.291  1.00  0.00     0.241 S 
ATOM     11  O   UNL A   1      30.982  24.744  22.884  1.00  0.00    -0.207 OA
ATOM     12  O   UNL A   1      30.390  24.865  25.331  1.00  0.00    -0.207 OA
BRANCH  10  13
ATOM     13  C   UNL A   1      31.908  22.927  24.525  1.00  0.00     0.082 A 
ATOM     14  C   UNL A   1      33.976  19.190  24.798  1.00  0.00     0.044 C 
ATOM     15  C   UNL A   1      33.219  20.482  24.725  1.00  0.00    -0.051 A 
ATOM     16  C   UNL A   1      32.564  20.836  23.536  1.00  0.00     0.005 A 
ATOM     17  C   UNL A   1      33.155  21.336  25.833  1.00  0.00     0.005 A 
ATOM     18  C   UNL A   1      31.920  22.065  23.429  1.00  0.00     0.022 A 
ATOM     19  C   UNL A   1      32.489  22.555  25.742  1.00  0.00     0.022 A 
ENDBRANCH  10  13
ENDBRANCH   8  10
ENDBRANCH   7   8
BRANCH   7  20
ATOM     20  C   UNL A   1      34.428  24.319  23.203  1.00  0.00     0.067 C 
BRANCH  20  21
ATOM     21  C   UNL A   1      35.513  23.653  24.019  1.00  0.00    -0.043 A 
ATOM     22  C   UNL A   1      36.010  22.421  23.552  1.00  0.00     0.004 A 
ATOM     23  C   UNL A   1      36.044  24.178  25.203  1.00  0.00     0.043 A 
ATOM     24  C   UNL A   1      37.065  21.777  24.197  1.00  0.00     0.003 A 
ATOM     25  C   UNL A   1      37.099  23.531  25.839  1.00  0.00     0.123 A 
ATOM     26  C   UNL A   1      37.618  22.344  25.338  1.00  0.00     0.039 A 
ATOM     27  F   UNL A   1      37.639  24.080  26.934  1.00  0.00    -0.207 F 
ENDBRANCH  20  21
ENDBRANCH   7  20
ENDBRANCH   5   7
ENDBRANCH   4   5
ENDBRANCH   3   4
ENDBRANCH   2   3
ENDBRANCH   1   2
BRANCH   1  28
ATOM     28  C   UNL A   1      32.105  28.882  26.155  1.00  0.00     0.202 C 
BRANCH  28  29
ATOM     29  C   UNL A   1      33.637  28.798  26.234  1.00  0.00     0.261 C 
BRANCH  29  30
ATOM     30  O   UNL A   1      34.075  28.944  27.596  1.00  0.00    -0.460 OA
BRANCH  30  31
ATOM     31  C   UNL A   1      34.478  30.205  27.920  1.00  0.00     0.338 C 
ATOM     32  O   UNL A   1      33.802  31.205  27.761  1.00  0.00    -0.246 OA
BRANCH  31  33
ATOM     33  C   UNL A   1      35.866  30.161  28.451  1.00  0.00     0.060 A 
ATOM     34  C   UNL A   1      36.969  30.327  27.599  1.00  0.00     0.016 A 
ATOM     35  C   UNL A   1      36.066  29.780  29.776  1.00  0.00     0.016 A 
ATOM     36  C   UNL A   1      38.270  30.044  28.057  1.00  0.00     0.010 A 
ATOM     37  C   UNL A   1      37.332  29.431  30.196  1.00  0.00     0.010 A 
ATOM     38  C   UNL A   1      38.452  29.566  29.357  1.00  0.00    -0.014 A 
BRANCH  38  39
ATOM     39  C   UNL A   1      39.691  29.018  29.929  1.00  0.00     0.031 A 
ATOM     40  C   UNL A   1      40.336  27.794  29.367  1.00  0.00     0.074 A 
ATOM     41  C   UNL A   1      40.497  29.863  30.611  1.00  0.00     0.049 A 
ATOM     42  N   UNL A   1      41.392  27.225  29.860  1.00  0.00    -0.248 NA
ATOM     43  C   UNL A   1      39.838  27.120  28.173  1.00  0.00     0.031 C 
ATOM     44  C   UNL A   1      41.958  29.856  30.579  1.00  0.00     0.029 A 
ATOM     45  N   UNL A   1      40.191  30.871  31.518  1.00  0.00    -0.354 N 
ATOM     46  C   UNL A   1      41.908  26.400  28.883  1.00  0.00     0.074 A 
ATOM     47  C   UNL A   1      40.866  26.324  27.878  1.00  0.00     0.031 C 
ATOM     48  C   UNL A   1      42.421  30.634  31.561  1.00  0.00     0.029 A 
ATOM     49  C   UNL A   1      41.290  31.048  32.358  1.00  0.00     0.049 A 
ATOM     50  H   UNL A   1      39.345  31.371  31.561  1.00  0.00     0.167 HD
ATOM     51  C   UNL A   1      43.201  25.959  28.924  1.00  0.00     0.031 A 
ATOM     52  C   UNL A   1      41.257  31.018  33.714  1.00  0.00     0.031 A 
ATOM     53  C   UNL A   1      43.981  26.417  30.103  1.00  0.00     0.049 A 
ATOM     54  C   UNL A   1      42.127  29.906  34.251  1.00  0.00     0.074 A 
ATOM     55  C   UNL A   1      45.281  26.858  30.300  1.00  0.00     0.029 A 
ATOM     56  N   UNL A   1      43.370  26.561  31.364  1.00  0.00    -0.354 N 
ATOM     57  N   UNL A   1      42.596  28.928  33.515  1.00  0.00    -0.248 NA
ATOM     58  C   UNL A   1      42.551  29.805  35.639  1.00  0.00     0.031 C 
ATOM     59  C   UNL A   1      45.458  27.212  31.660  1.00  0.00     0.029 A 
ATOM     60  C   UNL A   1      44.263  27.007  32.320  1.00  0.00     0.049 A 
ATOM     61  H   UNL A   1      42.422  26.368  31.543  1.00  0.00     0.167 HD
ATOM     62  C   UNL A   1      43.363  28.092  34.279  1.00  0.00     0.074 A 
ATOM     63  C   UNL A   1      43.299  28.686  35.606  1.00  0.00     0.031 C 
ATOM     64  C   UNL A   1      43.993  26.995  33.759  1.00  0.00     0.031 A 
BRANCH  51  65
ATOM     65  C   UNL A   1      43.808  25.213  27.721  1.00  0.00    -0.014 A 
ATOM     66  C   UNL A   1      43.296  23.979  27.273  1.00  0.00     0.010 A 
ATOM     67  C   UNL A   1      44.909  25.695  26.979  1.00  0.00     0.010 A 
ATOM     68  C   UNL A   1      43.866  23.245  26.216  1.00  0.00     0.020 A 
ATOM     69  C   UNL A   1      45.538  24.945  25.964  1.00  0.00     0.020 A 
ATOM     70  C   UNL A   1      45.006  23.720  25.583  1.00  0.00     0.054 A 
BRANCH  70  71
ATOM     71  S   UNL A   1      45.758  22.730  24.265  1.00  0.00     0.124 S 
ATOM     72  O   UNL A   1      44.603  22.326  23.466  1.00  0.00    -0.237 OA
ATOM     73  O   UNL A   1      46.656  23.688  23.626  1.00  0.00    -0.237 OA
ATOM     74  O   UNL A   1      46.419  21.642  24.982  1.00  0.00    -0.744 OA
ENDBRANCH  70  71
ENDBRANCH  51  65
BRANCH  52  75
ATOM     75  C   UNL A   1      40.053  31.665  34.309  1.00  0.00    -0.014 A 
ATOM     76  C   UNL A   1      40.025  33.074  34.189  1.00  0.00     0.010 A 
ATOM     77  C   UNL A   1      38.832  30.967  34.362  1.00  0.00     0.010 A 
ATOM     78  C   UNL A   1      38.839  33.735  33.854  1.00  0.00     0.020 A 
ATOM     79  C   UNL A   1      37.643  31.629  34.015  1.00  0.00     0.020 A 
ATOM     80  C   UNL A   1      37.673  32.991  33.685  1.00  0.00     0.054 A 
BRANCH  80  81
ATOM     81  S   UNL A   1      36.313  33.716  32.703  1.00  0.00     0.124 S 
ATOM     82  O   UNL A   1      36.764  33.493  31.335  1.00  0.00    -0.237 OA
ATOM     83  O   UNL A   1      35.149  32.935  33.124  1.00  0.00    -0.237 OA
ATOM     84  O   UNL A   1      36.297  35.104  33.156  1.00  0.00    -0.744 OA
ENDBRANCH  80  81
ENDBRANCH  52  75
BRANCH  64  85
ATOM     85  C   UNL A   1      44.601  25.833  34.532  1.00  0.00    -0.014 A 
ATOM     86  C   UNL A   1      45.728  25.895  35.360  1.00  0.00     0.010 A 
ATOM     87  C   UNL A   1      43.936  24.577  34.480  1.00  0.00     0.010 A 
ATOM     88  C   UNL A   1      46.189  24.767  36.057  1.00  0.00     0.020 A 
ATOM     89  C   UNL A   1      44.380  23.448  35.171  1.00  0.00     0.020 A 
ATOM     90  C   UNL A   1      45.515  23.550  35.956  1.00  0.00     0.054 A 
BRANCH  90  91
ATOM     91  S   UNL A   1      46.104  22.137  36.912  1.00  0.00     0.124 S 
ATOM     92  O   UNL A   1      45.365  21.030  36.309  1.00  0.00    -0.237 OA
ATOM     93  O   UNL A   1      47.539  22.153  36.640  1.00  0.00    -0.237 OA
ATOM     94  O   UNL A   1      45.732  22.460  38.287  1.00  0.00    -0.744 OA
ENDBRANCH  90  91
ENDBRANCH  64  85
ENDBRANCH  38  39
ENDBRANCH  31  33
ENDBRANCH  30  31
ENDBRANCH  29  30
ENDBRANCH  28  29
ENDBRANCH   1  28
TORSDOF 22
ENDMDL
MODEL 2
REMARK VINA RESULT:     -11.0      1.153      2.308
REMARK SMILES Cc1ccc(S(=O)(=O)N[C@@H](Cc2cccc(F)c2)C(=O)OCCOCCOC(=O)c2ccc(-c3c4nc(c(-c5ccc(S(=O)(=O)[O-])cc5)c5ccc([nH]5)c(-c5ccc(S(=O)(=O)[O-])cc5)c5nc(c(-c6ccc(S(=O)(=O)[O-])cc6)c6ccc3[nH]6)C=C5)C=C4)cc2)cc1
REMARK SMILES IDX 24 1 23 2 22 3 21 4 19 5 20 6 10 7 9 8 6 10 7 11 8 12 5 13
REMARK SMILES IDX 1 14 2 15 3 16 91 17 4 18 90 19 11 20 12 21 13 22 18 23
REMARK SMILES IDX 14 24 16 25 15 26 17 27 25 28 26 29 27 30 28 31 29 32 30 33
REMARK SMILES IDX 31 34 89 35 32 36 88 37 33 38 34 39 35 40 82 41 36 42 87 43
REMARK SMILES IDX 81 44 83 45 37 46 86 47 80 48 79 49 38 51 68 52 49 53 67 54
REMARK SMILES IDX 50 55 53 56 66 57 84 58 51 59 52 60 65 62 85 63 54 64 39 65
REMARK SMILES IDX 40 66 48 67 41 68 47 69 42 70 43 71 44 72 45 73 46 74 69 75
REMARK SMILES IDX 70 76 78 77 71 78 77 79 72 80 73 81 74 82 75 83 76 84 55 85
REMARK SMILES IDX 56 86 64 87 57 88 63 89 58 90 59 91 60 92 61 93 62 94
REMARK H PARENT 9 9 83 50 53 61
REMARK Flexibility Score: inf
ROOT
ATOM      1  O   UNL A   1      33.108  27.721  25.158  1.00  0.00    -0.374 OA
ENDROOT
BRANCH   1   2
ATOM      2  C   UNL A   1      32.234  28.746  24.668  1.00  0.00     0.202 C 
BRANCH   2   3
ATOM      3  C   UNL A   1      30.822  28.175  24.595  1.00  0.00     0.261 C 
BRANCH   3   4
ATOM      4  O   UNL A   1      30.803  26.830  25.096  1.00  0.00    -0.462 OA
BRANCH   4   5
ATOM      5  C   UNL A   1      30.105  25.912  24.359  1.00  0.00     0.324 C 
ATOM      6  O   UNL A   1      29.067  26.101  23.738  1.00  0.00    -0.250 OA
BRANCH   5   7
ATOM      7  C   UNL A   1      30.947  24.632  24.242  1.00  0.00     0.184 C 
BRANCH   7   8
ATOM      8  N   UNL A   1      32.346  25.141  24.106  1.00  0.00    -0.197 NA
ATOM      9  H   UNL A   1      32.251  26.153  24.020  1.00  0.00     0.142 HD
BRANCH   8  10
ATOM     10  S   UNL A   1      33.435  24.713  22.950  1.00  0.00     0.241 S 
ATOM     11  O   UNL A   1      33.990  25.939  22.389  1.00  0.00    -0.207 OA
ATOM     12  O   UNL A   1      32.816  23.726  22.120  1.00  0.00    -0.207 OA
BRANCH  10  13
ATOM     13  C   UNL A   1      34.706  23.910  23.881  1.00  0.00     0.082 A 
ATOM     14  C   UNL A   1      38.268  22.436  25.738  1.00  0.00     0.044 C 
ATOM     15  C   UNL A   1      36.997  22.929  25.116  1.00  0.00    -0.051 A 
ATOM     16  C   UNL A   1      36.555  22.375  23.906  1.00  0.00     0.005 A 
ATOM     17  C   UNL A   1      36.244  23.936  25.733  1.00  0.00     0.005 A 
ATOM     18  C   UNL A   1      35.417  22.873  23.279  1.00  0.00     0.022 A 
ATOM     19  C   UNL A   1      35.089  24.421  25.125  1.00  0.00     0.022 A 
ENDBRANCH  10  13
ENDBRANCH   8  10
ENDBRANCH   7   8
BRANCH   7  20
ATOM     20  C   UNL A   1      30.785  23.656  25.404  1.00  0.00     0.067 C 
BRANCH  20  21
ATOM     21  C   UNL A   1      31.813  22.568  25.612  1.00  0.00    -0.043 A 
ATOM     22  C   UNL A   1      31.896  21.560  24.632  1.00  0.00     0.004 A 
ATOM     23  C   UNL A   1      32.673  22.495  26.714  1.00  0.00     0.043 A 
ATOM     24  C   UNL A   1      32.867  20.562  24.703  1.00  0.00     0.003 A 
ATOM     25  C   UNL A   1      33.642  21.498  26.775  1.00  0.00     0.123 A 
ATOM     26  C   UNL A   1      33.751  20.542  25.774  1.00  0.00     0.039 A 
ATOM     27  F   UNL A   1      34.500  21.482  27.803  1.00  0.00    -0.207 F 
ENDBRANCH  20  21
ENDBRANCH   7  20
ENDBRANCH   5   7
ENDBRANCH   4   5
ENDBRANCH   3   4
ENDBRANCH   2   3
ENDBRANCH   1   2
BRANCH   1  28
ATOM     28  C   UNL A   1      33.942  28.089  26.251  1.00  0.00     0.202 C 
BRANCH  28  29
ATOM     29  C   UNL A   1      33.706  29.497  26.818  1.00  0.00     0.261 C 
BRANCH  29  30
ATOM     30  O   UNL A   1      34.960  30.169  27.023  1.00  0.00    -0.460 OA
BRANCH  30  31
ATOM     31  C   UNL A   1      34.962  31.039  28.072  1.00  0.00     0.338 C 
ATOM     32  O   UNL A   1      34.085  31.855  28.289  1.00  0.00    -0.246 OA
BRANCH  31  33
ATOM     33  C   UNL A   1      36.204  30.855  28.867  1.00  0.00     0.060 A 
ATOM     34  C   UNL A   1      37.390  31.519  28.514  1.00  0.00     0.016 A 
ATOM     35  C   UNL A   1      36.226  29.884  29.865  1.00  0.00     0.016 A 
ATOM     36  C   UNL A   1      38.611  31.159  29.113  1.00  0.00     0.010 A 
ATOM     37  C   UNL A   1      37.435  29.482  30.392  1.00  0.00     0.010 A 
ATOM     38  C   UNL A   1      38.641  30.114  30.040  1.00  0.00    -0.014 A 
BRANCH  38  39
ATOM     39  C   UNL A   1      39.836  29.463  30.597  1.00  0.00     0.031 A 
ATOM     40  C   UNL A   1      40.438  28.256  29.957  1.00  0.00     0.074 A 
ATOM     41  C   UNL A   1      40.661  30.212  31.363  1.00  0.00     0.049 A 
ATOM     42  N   UNL A   1      41.451  27.599  30.429  1.00  0.00    -0.248 NA
ATOM     43  C   UNL A   1      39.943  27.701  28.701  1.00  0.00     0.031 C 
ATOM     44  C   UNL A   1      42.121  30.135  31.366  1.00  0.00     0.029 A 
ATOM     45  N   UNL A   1      40.378  31.160  32.339  1.00  0.00    -0.354 N 
ATOM     46  C   UNL A   1      41.955  26.828  29.403  1.00  0.00     0.074 A 
ATOM     47  C   UNL A   1      40.940  26.881  28.369  1.00  0.00     0.031 C 
ATOM     48  C   UNL A   1      42.592  30.811  32.418  1.00  0.00     0.029 A 
ATOM     49  C   UNL A   1      41.460  31.217  33.217  1.00  0.00     0.049 A 
ATOM     50  H   UNL A   1      39.555  31.697  32.401  1.00  0.00     0.167 HD
ATOM     51  C   UNL A   1      43.225  26.322  29.440  1.00  0.00     0.031 A 
ATOM     52  C   UNL A   1      41.387  31.084  34.565  1.00  0.00     0.031 A 
ATOM     53  C   UNL A   1      43.992  26.648  30.671  1.00  0.00     0.049 A 
ATOM     54  C   UNL A   1      42.188  29.892  35.034  1.00  0.00     0.074 A 
ATOM     55  C   UNL A   1      45.305  27.008  30.933  1.00  0.00     0.029 A 
ATOM     56  N   UNL A   1      43.353  26.724  31.924  1.00  0.00    -0.354 N 
ATOM     57  N   UNL A   1      42.631  28.953  34.235  1.00  0.00    -0.248 NA
ATOM     58  C   UNL A   1      42.568  29.663  36.420  1.00  0.00     0.031 C 
ATOM     59  C   UNL A   1      45.460  27.246  32.320  1.00  0.00     0.029 A 
ATOM     60  C   UNL A   1      44.239  27.050  32.933  1.00  0.00     0.049 A 
ATOM     61  H   UNL A   1      42.392  26.565  32.064  1.00  0.00     0.167 HD
ATOM     62  C   UNL A   1      43.336  28.023  34.949  1.00  0.00     0.074 A 
ATOM     63  C   UNL A   1      43.263  28.515  36.316  1.00  0.00     0.031 C 
ATOM     64  C   UNL A   1      43.928  26.940  34.360  1.00  0.00     0.031 A 
BRANCH  51  65
ATOM     65  C   UNL A   1      43.829  25.642  28.197  1.00  0.00    -0.014 A 
ATOM     66  C   UNL A   1      43.758  24.249  27.999  1.00  0.00     0.010 A 
ATOM     67  C   UNL A   1      44.494  26.347  27.169  1.00  0.00     0.010 A 
ATOM     68  C   UNL A   1      44.353  23.593  26.906  1.00  0.00     0.020 A 
ATOM     69  C   UNL A   1      45.157  25.705  26.103  1.00  0.00     0.020 A 
ATOM     70  C   UNL A   1      45.077  24.325  25.973  1.00  0.00     0.054 A 
BRANCH  70  71
ATOM     71  S   UNL A   1      45.884  23.453  24.606  1.00  0.00     0.124 S 
ATOM     72  O   UNL A   1      46.481  22.296  25.269  1.00  0.00    -0.237 OA
ATOM     73  O   UNL A   1      44.764  23.157  23.717  1.00  0.00    -0.237 OA
ATOM     74  O   UNL A   1      46.844  24.428  24.091  1.00  0.00    -0.744 OA
ENDBRANCH  70  71
ENDBRANCH  51  65
BRANCH  52  75
ATOM     75  C   UNL A   1      40.199  31.741  35.179  1.00  0.00    -0.014 A 
ATOM     76  C   UNL A   1      40.131  33.139  34.976  1.00  0.00     0.010 A 
ATOM     77  C   UNL A   1      38.999  31.023  35.337  1.00  0.00     0.010 A 
ATOM     78  C   UNL A   1      38.914  33.753  34.661  1.00  0.00     0.020 A 
ATOM     79  C   UNL A   1      37.778  31.637  35.011  1.00  0.00     0.020 A 
ATOM     80  C   UNL A   1      37.760  32.975  34.598  1.00  0.00     0.054 A 
BRANCH  80  81
ATOM     81  S   UNL A   1      36.336  33.609  33.643  1.00  0.00     0.124 S 
ATOM     82  O   UNL A   1      35.202  33.161  34.441  1.00  0.00    -0.237 OA
ATOM     83  O   UNL A   1      36.569  35.053  33.623  1.00  0.00    -0.237 OA
ATOM     84  O   UNL A   1      36.506  32.959  32.346  1.00  0.00    -0.744 OA
ENDBRANCH  80  81
ENDBRANCH  52  75
BRANCH  64  85
ATOM     85  C   UNL A   1      44.459  25.693  35.053  1.00  0.00    -0.014 A 
ATOM     86  C   UNL A   1      44.543  24.412  34.494  1.00  0.00     0.010 A 
ATOM     87  C   UNL A   1      44.989  25.835  36.365  1.00  0.00     0.010 A 
ATOM     88  C   UNL A   1      45.082  23.333  35.211  1.00  0.00     0.020 A 
ATOM     89  C   UNL A   1      45.533  24.772  37.089  1.00  0.00     0.020 A 
ATOM     90  C   UNL A   1      45.570  23.518  36.505  1.00  0.00     0.054 A 
BRANCH  90  91
ATOM     91  S   UNL A   1      46.309  22.118  37.374  1.00  0.00     0.124 S 
ATOM     92  O   UNL A   1      45.774  22.279  38.723  1.00  0.00    -0.237 OA
ATOM     93  O   UNL A   1      45.787  20.977  36.625  1.00  0.00    -0.237 OA
ATOM     94  O   UNL A   1      47.747  22.339  37.242  1.00  0.00    -0.744 OA
ENDBRANCH  90  91
ENDBRANCH  64  85
ENDBRANCH  38  39
ENDBRANCH  31  33
ENDBRANCH  30  31
ENDBRANCH  29  30
ENDBRANCH  28  29
ENDBRANCH   1  28
TORSDOF 22
ENDMDL
MODEL 3
REMARK VINA RESULT:     -10.9      4.887      9.463
REMARK SMILES Cc1ccc(S(=O)(=O)N[C@@H](Cc2cccc(F)c2)C(=O)OCCOCCOC(=O)c2ccc(-c3c4nc(c(-c5ccc(S(=O)(=O)[O-])cc5)c5ccc([nH]5)c(-c5ccc(S(=O)(=O)[O-])cc5)c5nc(c(-c6ccc(S(=O)(=O)[O-])cc6)c6ccc3[nH]6)C=C5)C=C4)cc2)cc1
REMARK SMILES IDX 24 1 23 2 22 3 21 4 19 5 20 6 10 7 9 8 6 10 7 11 8 12 5 13
REMARK SMILES IDX 1 14 2 15 3 16 91 17 4 18 90 19 11 20 12 21 13 22 18 23
REMARK SMILES IDX 14 24 16 25 15 26 17 27 25 28 26 29 27 30 28 31 29 32 30 33
REMARK SMILES IDX 31 34 89 35 32 36 88 37 33 38 34 39 35 40 82 41 36 42 87 43
REMARK SMILES IDX 81 44 83 45 37 46 86 47 80 48 79 49 38 51 68 52 49 53 67 54
REMARK SMILES IDX 50 55 53 56 66 57 84 58 51 59 52 60 65 62 85 63 54 64 39 65
REMARK SMILES IDX 40 66 48 67 41 68 47 69 42 70 43 71 44 72 45 73 46 74 69 75
REMARK SMILES IDX 70 76 78 77 71 78 77 79 72 80 73 81 74 82 75 83 76 84 55 85
REMARK SMILES IDX 56 86 64 87 57 88 63 89 58 90 59 91 60 92 61 93 62 94
REMARK H PARENT 9 9 83 50 53 61
REMARK Flexibility Score: inf
ROOT
ATOM      1  O   UNL A   1      32.858  29.512  27.098  1.00  0.00    -0.374 OA
ENDROOT
BRANCH   1   2
ATOM      2  C   UNL A   1      32.031  28.425  27.535  1.00  0.00     0.202 C 
BRANCH   2   3
ATOM      3  C   UNL A   1      32.033  27.357  26.447  1.00  0.00     0.261 C 
BRANCH   3   4
ATOM      4  O   UNL A   1      30.898  27.520  25.585  1.00  0.00    -0.462 OA
BRANCH   4   5
ATOM      5  C   UNL A   1      30.729  26.576  24.609  1.00  0.00     0.324 C 
ATOM      6  O   UNL A   1      30.052  26.679  23.594  1.00  0.00    -0.250 OA
BRANCH   5   7
ATOM      7  C   UNL A   1      31.707  25.419  24.868  1.00  0.00     0.184 C 
BRANCH   7   8
ATOM      8  N   UNL A   1      30.810  24.254  25.136  1.00  0.00    -0.197 NA
ATOM      9  H   UNL A   1      29.886  24.660  25.281  1.00  0.00     0.142 HD
BRANCH   8  10
ATOM     10  S   UNL A   1      30.983  23.141  26.335  1.00  0.00     0.241 S 
ATOM     11  O   UNL A   1      29.733  22.394  26.430  1.00  0.00    -0.207 OA
ATOM     12  O   UNL A   1      31.537  23.814  27.470  1.00  0.00    -0.207 OA
BRANCH  10  13
ATOM     13  C   UNL A   1      32.223  22.057  25.695  1.00  0.00     0.082 A 
ATOM     14  C   UNL A   1      34.837  18.875  24.530  1.00  0.00     0.044 C 
ATOM     15  C   UNL A   1      33.942  20.016  24.911  1.00  0.00    -0.051 A 
ATOM     16  C   UNL A   1      34.156  20.692  26.121  1.00  0.00     0.005 A 
ATOM     17  C   UNL A   1      32.898  20.416  24.068  1.00  0.00     0.005 A 
ATOM     18  C   UNL A   1      33.289  21.704  26.522  1.00  0.00     0.022 A 
ATOM     19  C   UNL A   1      32.043  21.446  24.450  1.00  0.00     0.022 A 
ENDBRANCH  10  13
ENDBRANCH   8  10
ENDBRANCH   7   8
BRANCH   7  20
ATOM     20  C   UNL A   1      32.695  25.156  23.736  1.00  0.00     0.067 C 
BRANCH  20  21
ATOM     21  C   UNL A   1      34.046  24.554  24.051  1.00  0.00    -0.043 A 
ATOM     22  C   UNL A   1      34.620  24.870  25.297  1.00  0.00     0.004 A 
ATOM     23  C   UNL A   1      34.758  23.717  23.185  1.00  0.00     0.043 A 
ATOM     24  C   UNL A   1      35.825  24.298  25.703  1.00  0.00     0.003 A 
ATOM     25  C   UNL A   1      35.959  23.147  23.599  1.00  0.00     0.123 A 
ATOM     26  C   UNL A   1      36.488  23.422  24.852  1.00  0.00     0.039 A 
ATOM     27  F   UNL A   1      36.594  22.297  22.783  1.00  0.00    -0.207 F 
ENDBRANCH  20  21
ENDBRANCH   7  20
ENDBRANCH   5   7
ENDBRANCH   4   5
ENDBRANCH   3   4
ENDBRANCH   2   3
ENDBRANCH   1   2
BRANCH   1  28
ATOM     28  C   UNL A   1      34.249  29.230  26.998  1.00  0.00     0.202 C 
BRANCH  28  29
ATOM     29  C   UNL A   1      35.116  29.768  28.147  1.00  0.00     0.261 C 
BRANCH  29  30
ATOM     30  O   UNL A   1      36.492  29.402  27.946  1.00  0.00    -0.460 OA
BRANCH  30  31
ATOM     31  C   UNL A   1      37.386  30.303  28.441  1.00  0.00     0.338 C 
ATOM     32  O   UNL A   1      37.091  31.412  28.848  1.00  0.00    -0.246 OA
BRANCH  31  33
ATOM     33  C   UNL A   1      38.757  29.734  28.367  1.00  0.00     0.060 A 
ATOM     34  C   UNL A   1      39.656  29.878  29.435  1.00  0.00     0.016 A 
ATOM     35  C   UNL A   1      39.200  29.204  27.157  1.00  0.00     0.016 A 
ATOM     36  C   UNL A   1      41.016  29.557  29.268  1.00  0.00     0.010 A 
ATOM     37  C   UNL A   1      40.545  28.964  26.975  1.00  0.00     0.010 A 
ATOM     38  C   UNL A   1      41.472  29.122  28.021  1.00  0.00    -0.014 A 
BRANCH  38  39
ATOM     39  C   UNL A   1      42.872  28.952  27.604  1.00  0.00     0.031 A 
ATOM     40  C   UNL A   1      43.717  30.119  27.210  1.00  0.00     0.074 A 
ATOM     41  C   UNL A   1      43.529  27.853  28.039  1.00  0.00     0.049 A 
ATOM     42  N   UNL A   1      44.935  30.033  26.775  1.00  0.00    -0.248 NA
ATOM     43  C   UNL A   1      43.246  31.496  27.298  1.00  0.00     0.031 C 
ATOM     44  C   UNL A   1      44.930  27.809  28.453  1.00  0.00     0.029 A 
ATOM     45  N   UNL A   1      43.109  26.533  28.154  1.00  0.00    -0.354 N 
ATOM     46  C   UNL A   1      45.503  31.283  26.897  1.00  0.00     0.074 A 
ATOM     47  C   UNL A   1      44.389  32.170  27.167  1.00  0.00     0.031 C 
ATOM     48  C   UNL A   1      45.314  26.534  28.561  1.00  0.00     0.029 A 
ATOM     49  C   UNL A   1      44.232  25.711  28.076  1.00  0.00     0.049 A 
ATOM     50  H   UNL A   1      42.179  26.232  28.269  1.00  0.00     0.167 HD
ATOM     51  C   UNL A   1      46.860  31.460  26.897  1.00  0.00     0.031 A 
ATOM     52  C   UNL A   1      44.386  24.670  27.219  1.00  0.00     0.031 A 
ATOM     53  C   UNL A   1      47.652  30.213  26.735  1.00  0.00     0.049 A 
ATOM     54  C   UNL A   1      45.566  24.896  26.302  1.00  0.00     0.074 A 
ATOM     55  C   UNL A   1      48.819  29.720  27.299  1.00  0.00     0.029 A 
ATOM     56  N   UNL A   1      47.197  29.168  25.908  1.00  0.00    -0.354 N 
ATOM     57  N   UNL A   1      46.158  26.055  26.150  1.00  0.00    -0.248 NA
ATOM     58  C   UNL A   1      46.182  23.851  25.498  1.00  0.00     0.031 C 
ATOM     59  C   UNL A   1      49.082  28.428  26.784  1.00  0.00     0.029 A 
ATOM     60  C   UNL A   1      48.072  28.098  25.903  1.00  0.00     0.049 A 
ATOM     61  H   UNL A   1      46.357  29.195  25.395  1.00  0.00     0.167 HD
ATOM     62  C   UNL A   1      47.201  25.937  25.272  1.00  0.00     0.074 A 
ATOM     63  C   UNL A   1      47.170  24.534  24.890  1.00  0.00     0.031 C 
ATOM     64  C   UNL A   1      48.005  26.993  24.944  1.00  0.00     0.031 A 
BRANCH  51  65
ATOM     65  C   UNL A   1      47.466  32.833  27.240  1.00  0.00    -0.014 A 
ATOM     66  C   UNL A   1      47.594  33.282  28.570  1.00  0.00     0.010 A 
ATOM     67  C   UNL A   1      47.936  33.743  26.267  1.00  0.00     0.010 A 
ATOM     68  C   UNL A   1      48.086  34.555  28.911  1.00  0.00     0.020 A 
ATOM     69  C   UNL A   1      48.367  35.048  26.581  1.00  0.00     0.020 A 
ATOM     70  C   UNL A   1      48.446  35.447  27.909  1.00  0.00     0.054 A 
BRANCH  70  71
ATOM     71  S   UNL A   1      49.021  37.102  28.369  1.00  0.00     0.124 S 
ATOM     72  O   UNL A   1      47.804  37.905  28.273  1.00  0.00    -0.237 OA
ATOM     73  O   UNL A   1      49.528  36.893  29.722  1.00  0.00    -0.237 OA
ATOM     74  O   UNL A   1      50.039  37.408  27.365  1.00  0.00    -0.744 OA
ENDBRANCH  70  71
ENDBRANCH  51  65
BRANCH  52  75
ATOM     75  C   UNL A   1      43.151  23.864  27.010  1.00  0.00    -0.014 A 
ATOM     76  C   UNL A   1      42.937  23.456  25.672  1.00  0.00     0.010 A 
ATOM     77  C   UNL A   1      42.649  23.059  28.049  1.00  0.00     0.010 A 
ATOM     78  C   UNL A   1      42.490  22.161  25.387  1.00  0.00     0.020 A 
ATOM     79  C   UNL A   1      42.210  21.756  27.764  1.00  0.00     0.020 A 
ATOM     80  C   UNL A   1      42.211  21.293  26.441  1.00  0.00     0.054 A 
BRANCH  80  81
ATOM     81  S   UNL A   1      42.209  19.496  26.110  1.00  0.00     0.124 S 
ATOM     82  O   UNL A   1      42.640  18.943  27.387  1.00  0.00    -0.237 OA
ATOM     83  O   UNL A   1      40.818  19.231  25.739  1.00  0.00    -0.237 OA
ATOM     84  O   UNL A   1      43.155  19.374  25.004  1.00  0.00    -0.744 OA
ENDBRANCH  80  81
ENDBRANCH  52  75
BRANCH  64  85
ATOM     85  C   UNL A   1      48.977  27.079  23.775  1.00  0.00    -0.014 A 
ATOM     86  C   UNL A   1      50.340  26.761  23.811  1.00  0.00     0.010 A 
ATOM     87  C   UNL A   1      48.457  27.443  22.502  1.00  0.00     0.010 A 
ATOM     88  C   UNL A   1      51.143  26.844  22.663  1.00  0.00     0.020 A 
ATOM     89  C   UNL A   1      49.242  27.525  21.350  1.00  0.00     0.020 A 
ATOM     90  C   UNL A   1      50.591  27.228  21.441  1.00  0.00     0.054 A 
BRANCH  90  91
ATOM     91  S   UNL A   1      51.643  27.265  19.974  1.00  0.00     0.124 S 
ATOM     92  O   UNL A   1      51.331  28.575  19.408  1.00  0.00    -0.237 OA
ATOM     93  O   UNL A   1      52.980  27.134  20.548  1.00  0.00    -0.237 OA
ATOM     94  O   UNL A   1      51.192  26.121  19.186  1.00  0.00    -0.744 OA
ENDBRANCH  90  91
ENDBRANCH  64  85
ENDBRANCH  38  39
ENDBRANCH  31  33
ENDBRANCH  30  31
ENDBRANCH  29  30
ENDBRANCH  28  29
ENDBRANCH   1  28
TORSDOF 22
ENDMDL
