MODEL 1
REMARK VINA RESULT:     -11.8      0.000      0.000
REMARK SMILES Cc1ccc(NC(=O)[C@H]2CC=CC[C@H]2C(=O)OCCOCCOC(=O)c2ccc(-c3c4nc(c(-c5ccc(S(=O)(=O)[O-])cc5)c5ccc([nH]5)c(-c5ccc(S(=O)(=O)[O-])cc5)c5nc(c(-c6ccc(S(=O)(=O)[O-])cc6)c6ccc3[nH]6)C=C5)C=C4)cc2)cc1F
REMARK SMILES IDX 21 1 20 2 19 3 18 4 17 5 15 6 16 7 14 8 9 9 10 10 11 11
REMARK SMILES IDX 13 12 12 13 7 14 6 15 8 17 5 18 1 19 2 20 3 21 87 22 4 23
REMARK SMILES IDX 86 24 88 25 22 26 23 27 24 28 25 29 26 30 27 31 85 32 28 33
REMARK SMILES IDX 84 34 29 35 30 36 31 37 78 38 32 39 83 40 77 41 79 42 33 43
REMARK SMILES IDX 82 44 76 45 75 46 34 48 64 49 45 50 63 51 46 52 49 53 62 54
REMARK SMILES IDX 80 55 47 56 48 57 61 59 81 60 50 61 35 62 36 63 44 64 37 65
REMARK SMILES IDX 43 66 38 67 39 68 40 69 41 70 42 71 65 72 66 73 74 74 67 75
REMARK SMILES IDX 73 76 68 77 69 78 70 79 71 80 72 81 51 82 52 83 60 84 53 85
REMARK SMILES IDX 59 86 54 87 55 88 56 89 57 90 58 91
REMARK H PARENT 6 16 79 47 49 58
REMARK Flexibility Score: inf
ROOT
ATOM      1  C   UNL A   1      40.657  21.820  27.411  1.00  0.00     0.202 C 
ENDROOT
BRANCH   1   2
ATOM      2  O   UNL A   1      39.628  21.632  26.174  1.00  0.00    -0.374 OA
BRANCH   2   3
ATOM      3  C   UNL A   1      38.317  22.246  26.073  1.00  0.00     0.202 C 
BRANCH   3   4
ATOM      4  C   UNL A   1      37.378  22.010  24.891  1.00  0.00     0.261 C 
BRANCH   4   5
ATOM      5  O   UNL A   1      36.655  23.174  24.469  1.00  0.00    -0.463 OA
BRANCH   5   6
ATOM      6  C   UNL A   1      35.555  22.936  23.725  1.00  0.00     0.310 C 
ATOM      7  O   UNL A   1      35.432  23.268  22.550  1.00  0.00    -0.252 OA
BRANCH   6   8
ATOM      8  C   UNL A   1      34.417  22.292  24.494  1.00  0.00     0.116 C 
ATOM      9  C   UNL A   1      32.952  22.676  24.221  1.00  0.00     0.097 C 
ATOM     10  C   UNL A   1      31.951  21.865  25.073  1.00  0.00     0.041 C 
ATOM     11  C   UNL A   1      32.436  20.537  25.563  1.00  0.00    -0.030 C 
ATOM     12  C   UNL A   1      34.640  20.782  24.439  1.00  0.00     0.043 C 
ATOM     13  C   UNL A   1      33.642  20.039  25.267  1.00  0.00    -0.030 C 
BRANCH   9  14
ATOM     14  C   UNL A   1      32.561  22.885  22.766  1.00  0.00     0.228 C 
ATOM     15  N   UNL A   1      32.373  24.155  22.272  1.00  0.00    -0.326 N 
ATOM     16  H   UNL A   1      32.297  24.195  21.290  1.00  0.00     0.169 HD
ATOM     17  O   UNL A   1      32.450  21.932  21.994  1.00  0.00    -0.274 OA
BRANCH  15  18
ATOM     18  C   UNL A   1      32.269  25.412  22.905  1.00  0.00     0.044 A 
ATOM     19  C   UNL A   1      31.917  29.898  25.300  1.00  0.00     0.047 C 
ATOM     20  C   UNL A   1      32.149  28.669  24.472  1.00  0.00    -0.015 A 
ATOM     21  C   UNL A   1      33.688  27.765  24.493  1.00  0.00     0.008 A 
ATOM     22  C   UNL A   1      30.719  27.974  23.716  1.00  0.00     0.128 A 
ATOM     23  C   UNL A   1      33.773  26.143  23.680  1.00  0.00     0.026 A 
ATOM     24  C   UNL A   1      30.757  26.396  22.921  1.00  0.00     0.065 A 
ATOM     25  F   UNL A   1      29.545  28.616  23.804  1.00  0.00    -0.207 F 
ENDBRANCH  15  18
ENDBRANCH   9  14
ENDBRANCH   6   8
ENDBRANCH   5   6
ENDBRANCH   4   5
ENDBRANCH   3   4
ENDBRANCH   2   3
ENDBRANCH   1   2
BRANCH   1  26
ATOM     26  C   UNL A   1      42.159  23.361  27.810  1.00  0.00     0.261 C 
BRANCH  26  27
ATOM     27  O   UNL A   1      42.031  25.007  27.295  1.00  0.00    -0.460 OA
BRANCH  27  28
ATOM     28  C   UNL A   1      40.842  25.586  26.926  1.00  0.00     0.338 C 
ATOM     29  O   UNL A   1      40.109  25.140  26.055  1.00  0.00    -0.246 OA
BRANCH  28  30
ATOM     30  C   UNL A   1      40.308  26.583  27.951  1.00  0.00     0.060 A 
ATOM     31  C   UNL A   1      40.754  27.923  27.869  1.00  0.00     0.016 A 
ATOM     32  C   UNL A   1      39.495  26.247  29.033  1.00  0.00     0.016 A 
ATOM     33  C   UNL A   1      40.441  28.891  28.839  1.00  0.00     0.010 A 
ATOM     34  C   UNL A   1      39.232  27.207  30.050  1.00  0.00     0.010 A 
ATOM     35  C   UNL A   1      39.744  28.522  29.987  1.00  0.00    -0.014 A 
BRANCH  35  36
ATOM     36  C   UNL A   1      39.820  29.402  31.205  1.00  0.00     0.031 A 
ATOM     37  C   UNL A   1      40.992  29.212  32.149  1.00  0.00     0.074 A 
ATOM     38  C   UNL A   1      38.945  30.399  31.460  1.00  0.00     0.049 A 
ATOM     39  N   UNL A   1      41.240  29.769  33.307  1.00  0.00    -0.248 NA
ATOM     40  C   UNL A   1      42.027  28.258  31.714  1.00  0.00     0.031 C 
ATOM     41  C   UNL A   1      37.830  30.790  30.599  1.00  0.00     0.029 A 
ATOM     42  N   UNL A   1      38.854  31.264  32.531  1.00  0.00    -0.354 N 
ATOM     43  C   UNL A   1      42.432  29.203  33.758  1.00  0.00     0.074 A 
ATOM     44  C   UNL A   1      42.850  28.253  32.752  1.00  0.00     0.031 C 
ATOM     45  C   UNL A   1      37.156  31.797  31.185  1.00  0.00     0.029 A 
ATOM     46  C   UNL A   1      37.755  32.094  32.486  1.00  0.00     0.049 A 
ATOM     47  H   UNL A   1      39.514  31.285  33.261  1.00  0.00     0.167 HD
ATOM     48  C   UNL A   1      43.115  29.443  34.904  1.00  0.00     0.031 A 
ATOM     49  C   UNL A   1      37.263  32.963  33.398  1.00  0.00     0.031 A 
ATOM     50  C   UNL A   1      42.700  30.390  35.908  1.00  0.00     0.049 A 
ATOM     51  C   UNL A   1      37.983  33.146  34.714  1.00  0.00     0.074 A 
ATOM     52  C   UNL A   1      43.325  30.711  37.100  1.00  0.00     0.029 A 
ATOM     53  N   UNL A   1      41.553  31.167  35.838  1.00  0.00    -0.354 N 
ATOM     54  N   UNL A   1      39.095  32.589  35.131  1.00  0.00    -0.248 NA
ATOM     55  C   UNL A   1      37.382  34.079  35.681  1.00  0.00     0.031 C 
ATOM     56  C   UNL A   1      42.518  31.622  37.787  1.00  0.00     0.029 A 
ATOM     57  C   UNL A   1      41.435  31.938  36.984  1.00  0.00     0.049 A 
ATOM     58  H   UNL A   1      40.917  31.170  35.087  1.00  0.00     0.167 HD
ATOM     59  C   UNL A   1      39.344  33.129  36.390  1.00  0.00     0.074 A 
ATOM     60  C   UNL A   1      38.274  34.068  36.661  1.00  0.00     0.031 C 
ATOM     61  C   UNL A   1      40.367  32.873  37.245  1.00  0.00     0.031 A 
BRANCH  48  62
ATOM     62  C   UNL A   1      44.359  28.626  35.171  1.00  0.00    -0.014 A 
ATOM     63  C   UNL A   1      45.647  29.121  34.896  1.00  0.00     0.010 A 
ATOM     64  C   UNL A   1      44.235  27.348  35.752  1.00  0.00     0.010 A 
ATOM     65  C   UNL A   1      46.779  28.341  35.157  1.00  0.00     0.020 A 
ATOM     66  C   UNL A   1      45.365  26.581  36.048  1.00  0.00     0.020 A 
ATOM     67  C   UNL A   1      46.630  27.075  35.733  1.00  0.00     0.054 A 
BRANCH  67  68
ATOM     68  S   UNL A   1      48.118  26.098  36.085  1.00  0.00     0.124 S 
ATOM     69  O   UNL A   1      48.586  25.765  34.741  1.00  0.00    -0.237 OA
ATOM     70  O   UNL A   1      48.953  27.044  36.822  1.00  0.00    -0.237 OA
ATOM     71  O   UNL A   1      47.619  24.970  36.868  1.00  0.00    -0.744 OA
ENDBRANCH  67  68
ENDBRANCH  48  62
BRANCH  49  72
ATOM     72  C   UNL A   1      35.994  33.703  33.123  1.00  0.00    -0.014 A 
ATOM     73  C   UNL A   1      34.741  33.087  33.294  1.00  0.00     0.010 A 
ATOM     74  C   UNL A   1      36.033  35.037  32.672  1.00  0.00     0.010 A 
ATOM     75  C   UNL A   1      33.558  33.784  33.018  1.00  0.00     0.020 A 
ATOM     76  C   UNL A   1      34.854  35.750  32.429  1.00  0.00     0.020 A 
ATOM     77  C   UNL A   1      33.623  35.115  32.597  1.00  0.00     0.054 A 
BRANCH  77  78
ATOM     78  S   UNL A   1      32.074  36.019  32.314  1.00  0.00     0.124 S 
ATOM     79  O   UNL A   1      32.177  37.111  33.278  1.00  0.00    -0.237 OA
ATOM     80  O   UNL A   1      32.187  36.402  30.910  1.00  0.00    -0.237 OA
ATOM     81  O   UNL A   1      31.040  35.028  32.601  1.00  0.00    -0.744 OA
ENDBRANCH  77  78
ENDBRANCH  49  72
BRANCH  61  82
ATOM     82  C   UNL A   1      40.417  33.651  38.536  1.00  0.00    -0.014 A 
ATOM     83  C   UNL A   1      39.803  33.178  39.709  1.00  0.00     0.010 A 
ATOM     84  C   UNL A   1      41.145  34.855  38.587  1.00  0.00     0.010 A 
ATOM     85  C   UNL A   1      39.884  33.912  40.897  1.00  0.00     0.020 A 
ATOM     86  C   UNL A   1      41.259  35.574  39.780  1.00  0.00     0.020 A 
ATOM     87  C   UNL A   1      40.615  35.104  40.925  1.00  0.00     0.054 A 
BRANCH  87  88
ATOM     88  S   UNL A   1      40.740  36.014  42.489  1.00  0.00     0.124 S 
ATOM     89  O   UNL A   1      41.527  37.181  42.101  1.00  0.00    -0.237 OA
ATOM     90  O   UNL A   1      39.341  36.279  42.815  1.00  0.00    -0.237 OA
ATOM     91  O   UNL A   1      41.416  35.078  43.385  1.00  0.00    -0.744 OA
ENDBRANCH  87  88
ENDBRANCH  61  82
ENDBRANCH  35  36
ENDBRANCH  28  30
ENDBRANCH  27  28
ENDBRANCH  26  27
ENDBRANCH   1  26
TORSDOF 19
ENDMDL
MODEL 2
REMARK VINA RESULT:     -11.4      3.492     10.141
REMARK SMILES Cc1ccc(NC(=O)[C@H]2CC=CC[C@H]2C(=O)OCCOCCOC(=O)c2ccc(-c3c4nc(c(-c5ccc(S(=O)(=O)[O-])cc5)c5ccc([nH]5)c(-c5ccc(S(=O)(=O)[O-])cc5)c5nc(c(-c6ccc(S(=O)(=O)[O-])cc6)c6ccc3[nH]6)C=C5)C=C4)cc2)cc1F
REMARK SMILES IDX 21 1 20 2 19 3 18 4 17 5 15 6 16 7 14 8 9 9 10 10 11 11
REMARK SMILES IDX 13 12 12 13 7 14 6 15 8 17 5 18 1 19 2 20 3 21 87 22 4 23
REMARK SMILES IDX 86 24 88 25 22 26 23 27 24 28 25 29 26 30 27 31 85 32 28 33
REMARK SMILES IDX 84 34 29 35 30 36 31 37 78 38 32 39 83 40 77 41 79 42 33 43
REMARK SMILES IDX 82 44 76 45 75 46 34 48 64 49 45 50 63 51 46 52 49 53 62 54
REMARK SMILES IDX 80 55 47 56 48 57 61 59 81 60 50 61 35 62 36 63 44 64 37 65
REMARK SMILES IDX 43 66 38 67 39 68 40 69 41 70 42 71 65 72 66 73 74 74 67 75
REMARK SMILES IDX 73 76 68 77 69 78 70 79 71 80 72 81 51 82 52 83 60 84 53 85
REMARK SMILES IDX 59 86 54 87 55 88 56 89 57 90 58 91
REMARK H PARENT 6 16 79 47 49 58
REMARK Flexibility Score: inf
ROOT
ATOM      1  C   UNL A   1      30.609  31.713  25.705  1.00  0.00     0.202 C 
ENDROOT
BRANCH   1   2
ATOM      2  O   UNL A   1      29.748  31.915  24.348  1.00  0.00    -0.374 OA
BRANCH   2   3
ATOM      3  C   UNL A   1      29.354  30.855  23.439  1.00  0.00     0.202 C 
BRANCH   3   4
ATOM      4  C   UNL A   1      29.871  29.423  23.559  1.00  0.00     0.261 C 
BRANCH   4   5
ATOM      5  O   UNL A   1      30.175  28.797  22.306  1.00  0.00    -0.463 OA
BRANCH   5   6
ATOM      6  C   UNL A   1      31.000  27.731  22.374  1.00  0.00     0.310 C 
ATOM      7  O   UNL A   1      31.172  26.933  21.457  1.00  0.00    -0.252 OA
BRANCH   6   8
ATOM      8  C   UNL A   1      31.646  27.536  23.731  1.00  0.00     0.116 C 
ATOM      9  C   UNL A   1      30.847  26.979  24.922  1.00  0.00     0.097 C 
ATOM     10  C   UNL A   1      31.706  26.808  26.194  1.00  0.00     0.041 C 
ATOM     11  C   UNL A   1      33.178  26.653  25.973  1.00  0.00    -0.030 C 
ATOM     12  C   UNL A   1      32.948  26.773  23.499  1.00  0.00     0.043 C 
ATOM     13  C   UNL A   1      33.740  26.622  24.759  1.00  0.00    -0.030 C 
BRANCH   9  14
ATOM     14  C   UNL A   1      29.880  25.843  24.624  1.00  0.00     0.228 C 
ATOM     15  N   UNL A   1      30.268  24.535  24.801  1.00  0.00    -0.326 N 
ATOM     16  H   UNL A   1      29.527  23.888  24.752  1.00  0.00     0.169 HD
ATOM     17  O   UNL A   1      28.724  26.068  24.265  1.00  0.00    -0.274 OA
BRANCH  15  18
ATOM     18  C   UNL A   1      31.529  23.945  25.038  1.00  0.00     0.044 A 
ATOM     19  C   UNL A   1      36.043  21.714  25.836  1.00  0.00     0.047 C 
ATOM     20  C   UNL A   1      34.819  22.523  25.522  1.00  0.00    -0.015 A 
ATOM     21  C   UNL A   1      34.240  22.793  23.855  1.00  0.00     0.008 A 
ATOM     22  C   UNL A   1      33.794  22.928  26.896  1.00  0.00     0.128 A 
ATOM     23  C   UNL A   1      32.603  23.539  23.597  1.00  0.00     0.026 A 
ATOM     24  C   UNL A   1      32.195  23.648  26.688  1.00  0.00     0.065 A 
ATOM     25  F   UNL A   1      34.198  22.618  28.137  1.00  0.00    -0.207 F 
ENDBRANCH  15  18
ENDBRANCH   9  14
ENDBRANCH   6   8
ENDBRANCH   5   6
ENDBRANCH   4   5
ENDBRANCH   3   4
ENDBRANCH   2   3
ENDBRANCH   1   2
BRANCH   1  26
ATOM     26  C   UNL A   1      32.339  30.444  26.135  1.00  0.00     0.261 C 
BRANCH  26  27
ATOM     27  O   UNL A   1      33.315  30.569  27.558  1.00  0.00    -0.460 OA
BRANCH  27  28
ATOM     28  C   UNL A   1      34.262  31.548  27.733  1.00  0.00     0.338 C 
ATOM     29  O   UNL A   1      34.000  32.707  28.017  1.00  0.00    -0.246 OA
BRANCH  28  30
ATOM     30  C   UNL A   1      35.669  30.998  27.949  1.00  0.00     0.060 A 
ATOM     31  C   UNL A   1      35.840  29.593  27.952  1.00  0.00     0.016 A 
ATOM     32  C   UNL A   1      36.786  31.776  28.253  1.00  0.00     0.016 A 
ATOM     33  C   UNL A   1      37.060  28.975  28.280  1.00  0.00     0.010 A 
ATOM     34  C   UNL A   1      38.001  31.152  28.650  1.00  0.00     0.010 A 
ATOM     35  C   UNL A   1      38.134  29.747  28.716  1.00  0.00    -0.014 A 
BRANCH  35  36
ATOM     36  C   UNL A   1      39.239  29.091  29.497  1.00  0.00     0.031 A 
ATOM     37  C   UNL A   1      39.395  29.464  30.959  1.00  0.00     0.074 A 
ATOM     38  C   UNL A   1      40.046  28.135  28.989  1.00  0.00     0.049 A 
ATOM     39  N   UNL A   1      40.316  29.119  31.823  1.00  0.00    -0.248 NA
ATOM     40  C   UNL A   1      38.359  30.350  31.517  1.00  0.00     0.031 C 
ATOM     41  C   UNL A   1      39.957  27.578  27.640  1.00  0.00     0.029 A 
ATOM     42  N   UNL A   1      41.113  27.465  29.552  1.00  0.00    -0.354 N 
ATOM     43  C   UNL A   1      39.996  29.779  33.009  1.00  0.00     0.074 A 
ATOM     44  C   UNL A   1      38.802  30.550  32.750  1.00  0.00     0.031 C 
ATOM     45  C   UNL A   1      40.940  26.674  27.472  1.00  0.00     0.029 A 
ATOM     46  C   UNL A   1      41.762  26.617  28.681  1.00  0.00     0.049 A 
ATOM     47  H   UNL A   1      41.385  27.582  30.491  1.00  0.00     0.167 HD
ATOM     48  C   UNL A   1      40.637  29.753  34.204  1.00  0.00     0.031 A 
ATOM     49  C   UNL A   1      42.904  25.908  28.821  1.00  0.00     0.031 A 
ATOM     50  C   UNL A   1      41.827  28.983  34.465  1.00  0.00     0.049 A 
ATOM     51  C   UNL A   1      43.661  25.968  30.128  1.00  0.00     0.074 A 
ATOM     52  C   UNL A   1      42.547  28.885  35.643  1.00  0.00     0.029 A 
ATOM     53  N   UNL A   1      42.474  28.183  33.534  1.00  0.00    -0.354 N 
ATOM     54  N   UNL A   1      43.355  26.611  31.230  1.00  0.00    -0.248 NA
ATOM     55  C   UNL A   1      44.916  25.202  30.210  1.00  0.00     0.031 C 
ATOM     56  C   UNL A   1      43.671  28.089  35.403  1.00  0.00     0.029 A 
ATOM     57  C   UNL A   1      43.604  27.618  34.103  1.00  0.00     0.049 A 
ATOM     58  H   UNL A   1      42.174  28.039  32.608  1.00  0.00     0.167 HD
ATOM     59  C   UNL A   1      44.359  26.300  32.144  1.00  0.00     0.074 A 
ATOM     60  C   UNL A   1      45.273  25.400  31.471  1.00  0.00     0.031 C 
ATOM     61  C   UNL A   1      44.509  26.720  33.426  1.00  0.00     0.031 A 
BRANCH  48  62
ATOM     62  C   UNL A   1      40.100  30.629  35.314  1.00  0.00    -0.014 A 
ATOM     63  C   UNL A   1      40.846  31.698  35.843  1.00  0.00     0.010 A 
ATOM     64  C   UNL A   1      38.800  30.400  35.806  1.00  0.00     0.010 A 
ATOM     65  C   UNL A   1      40.319  32.492  36.868  1.00  0.00     0.020 A 
ATOM     66  C   UNL A   1      38.257  31.214  36.805  1.00  0.00     0.020 A 
ATOM     67  C   UNL A   1      39.026  32.245  37.342  1.00  0.00     0.054 A 
BRANCH  67  68
ATOM     68  S   UNL A   1      38.362  33.308  38.653  1.00  0.00     0.124 S 
ATOM     69  O   UNL A   1      36.941  33.353  38.316  1.00  0.00    -0.237 OA
ATOM     70  O   UNL A   1      38.696  32.564  39.865  1.00  0.00    -0.237 OA
ATOM     71  O   UNL A   1      39.082  34.567  38.481  1.00  0.00    -0.744 OA
ENDBRANCH  67  68
ENDBRANCH  48  62
BRANCH  49  72
ATOM     72  C   UNL A   1      43.437  25.105  27.677  1.00  0.00    -0.014 A 
ATOM     73  C   UNL A   1      44.411  25.633  26.810  1.00  0.00     0.010 A 
ATOM     74  C   UNL A   1      42.958  23.802  27.441  1.00  0.00     0.010 A 
ATOM     75  C   UNL A   1      44.891  24.879  25.733  1.00  0.00     0.020 A 
ATOM     76  C   UNL A   1      43.459  23.031  26.386  1.00  0.00     0.020 A 
ATOM     77  C   UNL A   1      44.419  23.579  25.534  1.00  0.00     0.054 A 
BRANCH  77  78
ATOM     78  S   UNL A   1      45.109  22.596  24.172  1.00  0.00     0.124 S 
ATOM     79  O   UNL A   1      45.574  21.397  24.865  1.00  0.00    -0.237 OA
ATOM     80  O   UNL A   1      43.952  22.415  23.300  1.00  0.00    -0.237 OA
ATOM     81  O   UNL A   1      46.162  23.452  23.629  1.00  0.00    -0.744 OA
ENDBRANCH  77  78
ENDBRANCH  49  72
BRANCH  61  82
ATOM     82  C   UNL A   1      45.675  26.177  34.213  1.00  0.00    -0.014 A 
ATOM     83  C   UNL A   1      45.550  25.039  35.031  1.00  0.00     0.010 A 
ATOM     84  C   UNL A   1      46.937  26.787  34.086  1.00  0.00     0.010 A 
ATOM     85  C   UNL A   1      46.655  24.546  35.732  1.00  0.00     0.020 A 
ATOM     86  C   UNL A   1      48.052  26.277  34.757  1.00  0.00     0.020 A 
ATOM     87  C   UNL A   1      47.899  25.167  35.588  1.00  0.00     0.054 A 
BRANCH  87  88
ATOM     88  S   UNL A   1      49.324  24.481  36.477  1.00  0.00     0.124 S 
ATOM     89  O   UNL A   1      50.435  25.227  35.893  1.00  0.00    -0.237 OA
ATOM     90  O   UNL A   1      49.015  24.801  37.868  1.00  0.00    -0.237 OA
ATOM     91  O   UNL A   1      49.289  23.058  36.148  1.00  0.00    -0.744 OA
ENDBRANCH  87  88
ENDBRANCH  61  82
ENDBRANCH  35  36
ENDBRANCH  28  30
ENDBRANCH  27  28
ENDBRANCH  26  27
ENDBRANCH   1  26
TORSDOF 19
ENDMDL
MODEL 3
REMARK VINA RESULT:     -11.4      2.474      8.710
REMARK SMILES Cc1ccc(NC(=O)[C@H]2CC=CC[C@H]2C(=O)OCCOCCOC(=O)c2ccc(-c3c4nc(c(-c5ccc(S(=O)(=O)[O-])cc5)c5ccc([nH]5)c(-c5ccc(S(=O)(=O)[O-])cc5)c5nc(c(-c6ccc(S(=O)(=O)[O-])cc6)c6ccc3[nH]6)C=C5)C=C4)cc2)cc1F
REMARK SMILES IDX 21 1 20 2 19 3 18 4 17 5 15 6 16 7 14 8 9 9 10 10 11 11
REMARK SMILES IDX 13 12 12 13 7 14 6 15 8 17 5 18 1 19 2 20 3 21 87 22 4 23
REMARK SMILES IDX 86 24 88 25 22 26 23 27 24 28 25 29 26 30 27 31 85 32 28 33
REMARK SMILES IDX 84 34 29 35 30 36 31 37 78 38 32 39 83 40 77 41 79 42 33 43
REMARK SMILES IDX 82 44 76 45 75 46 34 48 64 49 45 50 63 51 46 52 49 53 62 54
REMARK SMILES IDX 80 55 47 56 48 57 61 59 81 60 50 61 35 62 36 63 44 64 37 65
REMARK SMILES IDX 43 66 38 67 39 68 40 69 41 70 42 71 65 72 66 73 74 74 67 75
REMARK SMILES IDX 73 76 68 77 69 78 70 79 71 80 72 81 51 82 52 83 60 84 53 85
REMARK SMILES IDX 59 86 54 87 55 88 56 89 57 90 58 91
REMARK H PARENT 6 16 79 47 49 58
REMARK Flexibility Score: inf
ROOT
ATOM      1  C   UNL A   1      32.713  30.689  27.098  1.00  0.00     0.202 C 
ENDROOT
BRANCH   1   2
ATOM      2  O   UNL A   1      31.779  29.365  27.133  1.00  0.00    -0.374 OA
BRANCH   2   3
ATOM      3  C   UNL A   1      31.870  28.250  26.208  1.00  0.00     0.202 C 
BRANCH   3   4
ATOM      4  C   UNL A   1      33.130  27.940  25.402  1.00  0.00     0.261 C 
BRANCH   4   5
ATOM      5  O   UNL A   1      34.010  26.994  26.022  1.00  0.00    -0.463 OA
BRANCH   5   6
ATOM      6  C   UNL A   1      33.962  25.741  25.522  1.00  0.00     0.310 C 
ATOM      7  O   UNL A   1      34.701  25.324  24.636  1.00  0.00    -0.252 OA
BRANCH   6   8
ATOM      8  C   UNL A   1      32.839  24.894  26.088  1.00  0.00     0.116 C 
ATOM      9  C   UNL A   1      31.563  24.615  25.273  1.00  0.00     0.097 C 
ATOM     10  C   UNL A   1      30.572  23.688  26.011  1.00  0.00     0.041 C 
ATOM     11  C   UNL A   1      31.166  22.791  27.051  1.00  0.00    -0.030 C 
ATOM     12  C   UNL A   1      33.474  23.614  26.628  1.00  0.00     0.043 C 
ATOM     13  C   UNL A   1      32.476  22.745  27.322  1.00  0.00    -0.030 C 
BRANCH   9  14
ATOM     14  C   UNL A   1      31.749  24.333  23.790  1.00  0.00     0.228 C 
ATOM     15  N   UNL A   1      31.324  25.243  22.851  1.00  0.00    -0.326 N 
ATOM     16  H   UNL A   1      31.643  25.054  21.938  1.00  0.00     0.169 HD
ATOM     17  O   UNL A   1      32.320  23.312  23.403  1.00  0.00    -0.274 OA
BRANCH  15  18
ATOM     18  C   UNL A   1      30.516  26.396  22.947  1.00  0.00     0.044 A 
ATOM     19  C   UNL A   1      27.675  30.607  23.378  1.00  0.00     0.047 C 
ATOM     20  C   UNL A   1      28.510  29.404  23.054  1.00  0.00    -0.015 A 
ATOM     21  C   UNL A   1      30.202  29.522  22.496  1.00  0.00     0.008 A 
ATOM     22  C   UNL A   1      27.845  27.852  23.557  1.00  0.00     0.128 A 
ATOM     23  C   UNL A   1      31.211  28.014  22.404  1.00  0.00     0.026 A 
ATOM     24  C   UNL A   1      28.795  26.364  23.490  1.00  0.00     0.065 A 
ATOM     25  F   UNL A   1      26.610  27.798  24.076  1.00  0.00    -0.207 F 
ENDBRANCH  15  18
ENDBRANCH   9  14
ENDBRANCH   6   8
ENDBRANCH   5   6
ENDBRANCH   4   5
ENDBRANCH   3   4
ENDBRANCH   2   3
ENDBRANCH   1   2
BRANCH   1  26
ATOM     26  C   UNL A   1      32.205  32.812  27.255  1.00  0.00     0.261 C 
BRANCH  26  27
ATOM     27  O   UNL A   1      33.351  34.072  27.557  1.00  0.00    -0.460 OA
BRANCH  27  28
ATOM     28  C   UNL A   1      33.322  34.856  28.684  1.00  0.00     0.338 C 
ATOM     29  O   UNL A   1      32.339  35.483  29.053  1.00  0.00    -0.246 OA
BRANCH  28  30
ATOM     30  C   UNL A   1      34.463  34.565  29.655  1.00  0.00     0.060 A 
ATOM     31  C   UNL A   1      35.770  34.444  29.126  1.00  0.00     0.016 A 
ATOM     32  C   UNL A   1      34.299  34.302  31.015  1.00  0.00     0.016 A 
ATOM     33  C   UNL A   1      36.871  34.040  29.902  1.00  0.00     0.010 A 
ATOM     34  C   UNL A   1      35.397  33.829  31.785  1.00  0.00     0.010 A 
ATOM     35  C   UNL A   1      36.681  33.645  31.224  1.00  0.00    -0.014 A 
BRANCH  35  36
ATOM     36  C   UNL A   1      37.723  32.789  31.891  1.00  0.00     0.031 A 
ATOM     37  C   UNL A   1      38.205  33.201  33.269  1.00  0.00     0.074 A 
ATOM     38  C   UNL A   1      38.190  31.638  31.364  1.00  0.00     0.049 A 
ATOM     39  N   UNL A   1      39.156  32.696  34.014  1.00  0.00    -0.248 NA
ATOM     40  C   UNL A   1      37.510  34.343  33.886  1.00  0.00     0.031 C 
ATOM     41  C   UNL A   1      37.749  31.039  30.105  1.00  0.00     0.029 A 
ATOM     42  N   UNL A   1      39.155  30.764  31.824  1.00  0.00    -0.354 N 
ATOM     43  C   UNL A   1      39.201  33.483  35.164  1.00  0.00     0.074 A 
ATOM     44  C   UNL A   1      38.189  34.504  35.012  1.00  0.00     0.031 C 
ATOM     45  C   UNL A   1      38.455  29.916  29.882  1.00  0.00     0.029 A 
ATOM     46  C   UNL A   1      39.435  29.734  30.953  1.00  0.00     0.049 A 
ATOM     47  H   UNL A   1      39.602  30.869  32.695  1.00  0.00     0.167 HD
ATOM     48  C   UNL A   1      40.011  33.375  36.245  1.00  0.00     0.031 A 
ATOM     49  C   UNL A   1      40.391  28.779  30.989  1.00  0.00     0.031 A 
ATOM     50  C   UNL A   1      41.020  32.357  36.399  1.00  0.00     0.049 A 
ATOM     51  C   UNL A   1      41.352  28.732  32.155  1.00  0.00     0.074 A 
ATOM     52  C   UNL A   1      41.888  32.159  37.459  1.00  0.00     0.029 A 
ATOM     53  N   UNL A   1      41.299  31.370  35.466  1.00  0.00    -0.354 N 
ATOM     54  N   UNL A   1      41.393  29.495  33.221  1.00  0.00    -0.248 NA
ATOM     55  C   UNL A   1      42.392  27.692  32.123  1.00  0.00     0.031 C 
ATOM     56  C   UNL A   1      42.742  31.101  37.134  1.00  0.00     0.029 A 
ATOM     57  C   UNL A   1      42.349  30.582  35.911  1.00  0.00     0.049 A 
ATOM     58  H   UNL A   1      40.822  31.247  34.614  1.00  0.00     0.167 HD
ATOM     59  C   UNL A   1      42.438  29.006  34.000  1.00  0.00     0.074 A 
ATOM     60  C   UNL A   1      42.994  27.873  33.290  1.00  0.00     0.031 C 
ATOM     61  C   UNL A   1      42.895  29.453  35.197  1.00  0.00     0.031 A 
BRANCH  48  62
ATOM     62  C   UNL A   1      39.886  34.420  37.332  1.00  0.00    -0.014 A 
ATOM     63  C   UNL A   1      39.089  34.215  38.472  1.00  0.00     0.010 A 
ATOM     64  C   UNL A   1      40.621  35.617  37.225  1.00  0.00     0.010 A 
ATOM     65  C   UNL A   1      38.997  35.201  39.461  1.00  0.00     0.020 A 
ATOM     66  C   UNL A   1      40.559  36.589  38.229  1.00  0.00     0.020 A 
ATOM     67  C   UNL A   1      39.734  36.382  39.333  1.00  0.00     0.054 A 
BRANCH  67  68
ATOM     68  S   UNL A   1      39.614  37.630  40.644  1.00  0.00     0.124 S 
ATOM     69  O   UNL A   1      38.931  36.892  41.704  1.00  0.00    -0.237 OA
ATOM     70  O   UNL A   1      41.015  37.952  40.906  1.00  0.00    -0.237 OA
ATOM     71  O   UNL A   1      38.835  38.705  40.033  1.00  0.00    -0.744 OA
ENDBRANCH  67  68
ENDBRANCH  48  62
BRANCH  49  72
ATOM     72  C   UNL A   1      40.523  27.804  29.863  1.00  0.00    -0.014 A 
ATOM     73  C   UNL A   1      41.642  27.826  29.010  1.00  0.00     0.010 A 
ATOM     74  C   UNL A   1      39.516  26.848  29.630  1.00  0.00     0.010 A 
ATOM     75  C   UNL A   1      41.749  26.919  27.949  1.00  0.00     0.020 A 
ATOM     76  C   UNL A   1      39.634  25.917  28.592  1.00  0.00     0.020 A 
ATOM     77  C   UNL A   1      40.748  25.963  27.753  1.00  0.00     0.054 A 
BRANCH  77  78
ATOM     78  S   UNL A   1      40.944  24.754  26.414  1.00  0.00     0.124 S 
ATOM     79  O   UNL A   1      41.209  25.611  25.262  1.00  0.00    -0.237 OA
ATOM     80  O   UNL A   1      42.071  23.952  26.879  1.00  0.00    -0.237 OA
ATOM     81  O   UNL A   1      39.660  24.056  26.391  1.00  0.00    -0.744 OA
ENDBRANCH  77  78
ENDBRANCH  49  72
BRANCH  61  82
ATOM     82  C   UNL A   1      44.022  28.692  35.850  1.00  0.00    -0.014 A 
ATOM     83  C   UNL A   1      45.366  29.067  35.678  1.00  0.00     0.010 A 
ATOM     84  C   UNL A   1      43.721  27.610  36.699  1.00  0.00     0.010 A 
ATOM     85  C   UNL A   1      46.388  28.354  36.313  1.00  0.00     0.020 A 
ATOM     86  C   UNL A   1      44.737  26.916  37.364  1.00  0.00     0.020 A 
ATOM     87  C   UNL A   1      46.066  27.285  37.155  1.00  0.00     0.054 A 
BRANCH  87  88
ATOM     88  S   UNL A   1      47.408  26.404  37.998  1.00  0.00     0.124 S 
ATOM     89  O   UNL A   1      47.736  27.319  39.088  1.00  0.00    -0.237 OA
ATOM     90  O   UNL A   1      46.765  25.154  38.399  1.00  0.00    -0.237 OA
ATOM     91  O   UNL A   1      48.437  26.266  36.969  1.00  0.00    -0.744 OA
ENDBRANCH  87  88
ENDBRANCH  61  82
ENDBRANCH  35  36
ENDBRANCH  28  30
ENDBRANCH  27  28
ENDBRANCH  26  27
ENDBRANCH   1  26
TORSDOF 19
ENDMDL
