MODEL 1
REMARK VINA RESULT:     -11.5      0.000      0.000
REMARK SMILES C[C@H]1CCCC[C@H]1[N@H+]1[C@@H](C(=O)OCCOCCOC(=O)c2ccc(-c3c4nc(c(-c5ccc(S(=O)(=O)[O-])cc5)c5ccc([nH]5)c(-c5ccc(S(=O)(=O)[O-])cc5)c5nc(c(-c6ccc(S(=O)(=O)[O-])cc6)c6ccc3[nH]6)C=C5)C=C4)cc2)CC[C@H]2CCCC[C@H]21
REMARK SMILES IDX 16 1 15 2 14 3 13 4 12 5 10 6 11 7 9 8 8 9 88 10 81 12 83 13
REMARK SMILES IDX 87 14 82 15 84 16 86 17 85 18 7 19 1 20 2 21 3 22 4 23 6 24
REMARK SMILES IDX 5 25 17 26 18 27 19 28 20 29 21 30 22 31 80 32 23 33 79 34
REMARK SMILES IDX 24 35 25 36 26 37 73 38 27 39 78 40 72 41 74 42 28 43 77 44
REMARK SMILES IDX 71 45 70 46 29 48 59 49 40 50 58 51 41 52 44 53 57 54 75 55
REMARK SMILES IDX 42 56 43 57 56 59 76 60 45 61 30 62 31 63 39 64 32 65 38 66
REMARK SMILES IDX 33 67 34 68 35 69 36 70 37 71 60 72 61 73 69 74 62 75 68 76
REMARK SMILES IDX 63 77 64 78 65 79 66 80 67 81 46 82 47 83 55 84 48 85 54 86
REMARK SMILES IDX 49 87 50 88 51 89 52 90 53 91
REMARK H PARENT 8 11 74 47 44 58
REMARK Flexibility Score: inf
ROOT
ATOM      1  C   UNL A   1      41.032  21.517  27.156  1.00  0.00     0.202 C 
ENDROOT
BRANCH   1   2
ATOM      2  O   UNL A   1      39.685  22.006  27.251  1.00  0.00    -0.374 OA
BRANCH   2   3
ATOM      3  C   UNL A   1      38.858  22.315  26.118  1.00  0.00     0.202 C 
BRANCH   3   4
ATOM      4  C   UNL A   1      38.145  23.700  26.118  1.00  0.00     0.261 C 
BRANCH   4   5
ATOM      5  O   UNL A   1      36.680  23.569  26.191  1.00  0.00    -0.459 OA
BRANCH   5   6
ATOM      6  C   UNL A   1      36.037  23.060  25.097  1.00  0.00     0.365 C 
ATOM      7  O   UNL A   1      36.015  23.660  24.020  1.00  0.00    -0.245 OA
BRANCH   6   8
ATOM      8  C   UNL A   1      35.333  21.666  25.241  1.00  0.00     0.295 C 
ATOM      9  N   UNL A   1      34.450  21.087  24.187  1.00  0.00    -0.318 N 
ATOM     10  C   UNL A   1      34.390  19.494  24.687  1.00  0.00     0.188 C 
ATOM     11  H   UNL A   1      34.753  21.138  23.215  1.00  0.00     0.349 HD
ATOM     12  C   UNL A   1      34.502  21.453  26.520  1.00  0.00     0.078 C 
ATOM     13  C   UNL A   1      32.962  19.488  25.036  1.00  0.00     0.048 C 
ATOM     14  C   UNL A   1      34.603  17.984  24.252  1.00  0.00     0.065 C 
ATOM     15  C   UNL A   1      33.278  20.393  26.403  1.00  0.00     0.016 C 
ATOM     16  C   UNL A   1      32.530  19.462  23.400  1.00  0.00     0.010 C 
ATOM     17  C   UNL A   1      33.670  17.254  23.276  1.00  0.00     0.006 C 
ATOM     18  C   UNL A   1      32.513  18.079  22.772  1.00  0.00     0.001 C 
BRANCH   9  19
ATOM     19  C   UNL A   1      32.989  21.968  24.101  1.00  0.00     0.187 C 
ATOM     20  C   UNL A   1      31.879  23.408  26.374  1.00  0.00     0.014 C 
ATOM     21  C   UNL A   1      32.226  23.292  24.867  1.00  0.00     0.044 C 
ATOM     22  C   UNL A   1      32.550  24.704  24.296  1.00  0.00     0.009 C 
ATOM     23  C   UNL A   1      32.323  24.739  22.798  1.00  0.00     0.001 C 
ATOM     24  C   UNL A   1      32.573  22.209  22.653  1.00  0.00     0.065 C 
ATOM     25  C   UNL A   1      33.034  23.569  22.169  1.00  0.00     0.006 C 
ENDBRANCH   9  19
ENDBRANCH   6   8
ENDBRANCH   5   6
ENDBRANCH   4   5
ENDBRANCH   3   4
ENDBRANCH   2   3
ENDBRANCH   1   2
BRANCH   1  26
ATOM     26  C   UNL A   1      42.269  22.435  26.976  1.00  0.00     0.261 C 
BRANCH  26  27
ATOM     27  O   UNL A   1      42.199  23.676  27.670  1.00  0.00    -0.460 OA
BRANCH  27  28
ATOM     28  C   UNL A   1      41.962  24.714  26.856  1.00  0.00     0.338 C 
ATOM     29  O   UNL A   1      42.098  24.727  25.628  1.00  0.00    -0.246 OA
BRANCH  28  30
ATOM     30  C   UNL A   1      41.285  25.786  27.591  1.00  0.00     0.060 A 
ATOM     31  C   UNL A   1      41.894  27.042  27.521  1.00  0.00     0.016 A 
ATOM     32  C   UNL A   1      40.161  25.576  28.394  1.00  0.00     0.016 A 
ATOM     33  C   UNL A   1      41.471  28.062  28.358  1.00  0.00     0.010 A 
ATOM     34  C   UNL A   1      39.731  26.610  29.235  1.00  0.00     0.010 A 
ATOM     35  C   UNL A   1      40.436  27.829  29.272  1.00  0.00    -0.014 A 
BRANCH  35  36
ATOM     36  C   UNL A   1      40.282  28.776  30.405  1.00  0.00     0.031 A 
ATOM     37  C   UNL A   1      41.235  28.665  31.568  1.00  0.00     0.074 A 
ATOM     38  C   UNL A   1      39.399  29.789  30.349  1.00  0.00     0.049 A 
ATOM     39  N   UNL A   1      41.314  29.399  32.648  1.00  0.00    -0.248 NA
ATOM     40  C   UNL A   1      42.241  27.591  31.502  1.00  0.00     0.031 C 
ATOM     41  C   UNL A   1      38.489  30.058  29.237  1.00  0.00     0.029 A 
ATOM     42  N   UNL A   1      39.141  30.795  31.247  1.00  0.00    -0.354 N 
ATOM     43  C   UNL A   1      42.359  28.865  33.394  1.00  0.00     0.074 A 
ATOM     44  C   UNL A   1      42.869  27.730  32.659  1.00  0.00     0.031 C 
ATOM     45  C   UNL A   1      37.776  31.162  29.517  1.00  0.00     0.029 A 
ATOM     46  C   UNL A   1      38.147  31.653  30.843  1.00  0.00     0.049 A 
ATOM     47  H   UNL A   1      39.624  30.891  32.101  1.00  0.00     0.167 HD
ATOM     48  C   UNL A   1      42.856  29.285  34.581  1.00  0.00     0.031 A 
ATOM     49  C   UNL A   1      37.585  32.700  31.480  1.00  0.00     0.031 A 
ATOM     50  C   UNL A   1      42.349  30.417  35.309  1.00  0.00     0.049 A 
ATOM     51  C   UNL A   1      38.090  33.089  32.846  1.00  0.00     0.074 A 
ATOM     52  C   UNL A   1      42.785  30.924  36.520  1.00  0.00     0.029 A 
ATOM     53  N   UNL A   1      41.291  31.213  34.898  1.00  0.00    -0.354 N 
ATOM     54  N   UNL A   1      39.073  32.570  33.541  1.00  0.00    -0.248 NA
ATOM     55  C   UNL A   1      37.411  34.211  33.511  1.00  0.00     0.031 C 
ATOM     56  C   UNL A   1      41.947  31.984  36.876  1.00  0.00     0.029 A 
ATOM     57  C   UNL A   1      41.040  32.190  35.847  1.00  0.00     0.049 A 
ATOM     58  H   UNL A   1      40.792  31.102  34.057  1.00  0.00     0.167 HD
ATOM     59  C   UNL A   1      39.159  33.329  34.705  1.00  0.00     0.074 A 
ATOM     60  C   UNL A   1      38.128  34.343  34.620  1.00  0.00     0.031 C 
ATOM     61  C   UNL A   1      40.020  33.204  35.744  1.00  0.00     0.031 A 
BRANCH  48  62
ATOM     62  C   UNL A   1      43.974  28.483  35.197  1.00  0.00    -0.014 A 
ATOM     63  C   UNL A   1      43.720  27.372  36.022  1.00  0.00     0.010 A 
ATOM     64  C   UNL A   1      45.307  28.830  34.909  1.00  0.00     0.010 A 
ATOM     65  C   UNL A   1      44.780  26.648  36.577  1.00  0.00     0.020 A 
ATOM     66  C   UNL A   1      46.369  28.089  35.436  1.00  0.00     0.020 A 
ATOM     67  C   UNL A   1      46.097  27.012  36.281  1.00  0.00     0.054 A 
BRANCH  67  68
ATOM     68  S   UNL A   1      47.453  26.043  36.998  1.00  0.00     0.124 S 
ATOM     69  O   UNL A   1      48.624  26.661  36.382  1.00  0.00    -0.237 OA
ATOM     70  O   UNL A   1      47.295  26.285  38.430  1.00  0.00    -0.237 OA
ATOM     71  O   UNL A   1      47.172  24.677  36.565  1.00  0.00    -0.744 OA
ENDBRANCH  67  68
ENDBRANCH  48  62
BRANCH  49  72
ATOM     72  C   UNL A   1      36.462  33.442  30.842  1.00  0.00    -0.014 A 
ATOM     73  C   UNL A   1      36.626  34.068  29.595  1.00  0.00     0.010 A 
ATOM     74  C   UNL A   1      35.215  33.527  31.490  1.00  0.00     0.010 A 
ATOM     75  C   UNL A   1      35.569  34.779  29.016  1.00  0.00     0.020 A 
ATOM     76  C   UNL A   1      34.148  34.208  30.901  1.00  0.00     0.020 A 
ATOM     77  C   UNL A   1      34.336  34.841  29.671  1.00  0.00     0.054 A 
BRANCH  77  78
ATOM     78  S   UNL A   1      32.967  35.728  28.878  1.00  0.00     0.124 S 
ATOM     79  O   UNL A   1      32.153  36.121  30.025  1.00  0.00    -0.237 OA
ATOM     80  O   UNL A   1      33.655  36.816  28.188  1.00  0.00    -0.237 OA
ATOM     81  O   UNL A   1      32.368  34.724  28.001  1.00  0.00    -0.744 OA
ENDBRANCH  77  78
ENDBRANCH  49  72
BRANCH  61  82
ATOM     82  C   UNL A   1      39.944  34.221  36.854  1.00  0.00    -0.014 A 
ATOM     83  C   UNL A   1      40.652  35.433  36.797  1.00  0.00     0.010 A 
ATOM     84  C   UNL A   1      39.069  33.990  37.934  1.00  0.00     0.010 A 
ATOM     85  C   UNL A   1      40.501  36.387  37.809  1.00  0.00     0.020 A 
ATOM     86  C   UNL A   1      38.890  34.954  38.929  1.00  0.00     0.020 A 
ATOM     87  C   UNL A   1      39.615  36.144  38.865  1.00  0.00     0.054 A 
BRANCH  87  88
ATOM     88  S   UNL A   1      39.383  37.428  40.124  1.00  0.00     0.124 S 
ATOM     89  O   UNL A   1      39.253  36.639  41.346  1.00  0.00    -0.237 OA
ATOM     90  O   UNL A   1      40.610  38.212  40.009  1.00  0.00    -0.237 OA
ATOM     91  O   UNL A   1      38.168  38.119  39.697  1.00  0.00    -0.744 OA
ENDBRANCH  87  88
ENDBRANCH  61  82
ENDBRANCH  35  36
ENDBRANCH  28  30
ENDBRANCH  27  28
ENDBRANCH  26  27
ENDBRANCH   1  26
TORSDOF 18
ENDMDL
MODEL 2
REMARK VINA RESULT:     -11.2      1.758      3.265
REMARK SMILES C[C@H]1CCCC[C@H]1[N@H+]1[C@@H](C(=O)OCCOCCOC(=O)c2ccc(-c3c4nc(c(-c5ccc(S(=O)(=O)[O-])cc5)c5ccc([nH]5)c(-c5ccc(S(=O)(=O)[O-])cc5)c5nc(c(-c6ccc(S(=O)(=O)[O-])cc6)c6ccc3[nH]6)C=C5)C=C4)cc2)CC[C@H]2CCCC[C@H]21
REMARK SMILES IDX 16 1 15 2 14 3 13 4 12 5 10 6 11 7 9 8 8 9 88 10 81 12 83 13
REMARK SMILES IDX 87 14 82 15 84 16 86 17 85 18 7 19 1 20 2 21 3 22 4 23 6 24
REMARK SMILES IDX 5 25 17 26 18 27 19 28 20 29 21 30 22 31 80 32 23 33 79 34
REMARK SMILES IDX 24 35 25 36 26 37 73 38 27 39 78 40 72 41 74 42 28 43 77 44
REMARK SMILES IDX 71 45 70 46 29 48 59 49 40 50 58 51 41 52 44 53 57 54 75 55
REMARK SMILES IDX 42 56 43 57 56 59 76 60 45 61 30 62 31 63 39 64 32 65 38 66
REMARK SMILES IDX 33 67 34 68 35 69 36 70 37 71 60 72 61 73 69 74 62 75 68 76
REMARK SMILES IDX 63 77 64 78 65 79 66 80 67 81 46 82 47 83 55 84 48 85 54 86
REMARK SMILES IDX 49 87 50 88 51 89 52 90 53 91
REMARK H PARENT 8 11 74 47 44 58
REMARK Flexibility Score: inf
ROOT
ATOM      1  C   UNL A   1      40.977  22.201  26.558  1.00  0.00     0.202 C 
ENDROOT
BRANCH   1   2
ATOM      2  O   UNL A   1      39.768  21.643  26.021  1.00  0.00    -0.374 OA
BRANCH   2   3
ATOM      3  C   UNL A   1      38.480  22.274  26.112  1.00  0.00     0.202 C 
BRANCH   3   4
ATOM      4  C   UNL A   1      37.406  21.842  25.070  1.00  0.00     0.261 C 
BRANCH   4   5
ATOM      5  O   UNL A   1      36.290  22.801  24.995  1.00  0.00    -0.459 OA
BRANCH   5   6
ATOM      6  C   UNL A   1      35.970  23.302  23.764  1.00  0.00     0.365 C 
ATOM      7  O   UNL A   1      36.574  22.958  22.746  1.00  0.00    -0.245 OA
BRANCH   6   8
ATOM      8  C   UNL A   1      34.784  24.324  23.673  1.00  0.00     0.295 C 
ATOM      9  N   UNL A   1      33.987  24.754  24.859  1.00  0.00    -0.318 N 
ATOM     10  C   UNL A   1      33.235  26.112  24.239  1.00  0.00     0.188 C 
ATOM     11  H   UNL A   1      34.481  24.989  25.719  1.00  0.00     0.349 HD
ATOM     12  C   UNL A   1      33.688  24.003  22.640  1.00  0.00     0.078 C 
ATOM     13  C   UNL A   1      31.869  25.570  24.274  1.00  0.00     0.048 C 
ATOM     14  C   UNL A   1      32.955  27.657  24.455  1.00  0.00     0.065 C 
ATOM     15  C   UNL A   1      32.209  24.589  22.966  1.00  0.00     0.016 C 
ATOM     16  C   UNL A   1      31.806  25.750  25.956  1.00  0.00     0.010 C 
ATOM     17  C   UNL A   1      32.040  28.196  25.564  1.00  0.00     0.006 C 
ATOM     18  C   UNL A   1      31.405  27.137  26.429  1.00  0.00     0.001 C 
BRANCH   9  19
ATOM     19  C   UNL A   1      33.012  23.463  25.407  1.00  0.00     0.187 C 
ATOM     20  C   UNL A   1      32.226  21.243  23.695  1.00  0.00     0.014 C 
ATOM     21  C   UNL A   1      32.718  21.818  25.049  1.00  0.00     0.044 C 
ATOM     22  C   UNL A   1      33.645  20.781  25.751  1.00  0.00     0.009 C 
ATOM     23  C   UNL A   1      33.672  21.014  27.248  1.00  0.00     0.001 C 
ATOM     24  C   UNL A   1      32.938  23.433  26.930  1.00  0.00     0.065 C 
ATOM     25  C   UNL A   1      33.956  22.471  27.509  1.00  0.00     0.006 C 
ENDBRANCH   9  19
ENDBRANCH   6   8
ENDBRANCH   5   6
ENDBRANCH   4   5
ENDBRANCH   3   4
ENDBRANCH   2   3
ENDBRANCH   1   2
BRANCH   1  26
ATOM     26  C   UNL A   1      41.359  23.700  26.440  1.00  0.00     0.261 C 
BRANCH  26  27
ATOM     27  O   UNL A   1      40.309  24.611  26.748  1.00  0.00    -0.460 OA
BRANCH  27  28
ATOM     28  C   UNL A   1      40.646  25.888  26.524  1.00  0.00     0.338 C 
ATOM     29  O   UNL A   1      41.155  26.341  25.493  1.00  0.00    -0.246 OA
BRANCH  28  30
ATOM     30  C   UNL A   1      40.113  26.744  27.588  1.00  0.00     0.060 A 
ATOM     31  C   UNL A   1      40.547  28.072  27.567  1.00  0.00     0.016 A 
ATOM     32  C   UNL A   1      39.300  26.268  28.621  1.00  0.00     0.016 A 
ATOM     33  C   UNL A   1      40.290  28.899  28.649  1.00  0.00     0.010 A 
ATOM     34  C   UNL A   1      39.037  27.108  29.710  1.00  0.00     0.010 A 
ATOM     35  C   UNL A   1      39.597  28.399  29.759  1.00  0.00    -0.014 A 
BRANCH  35  36
ATOM     36  C   UNL A   1      39.691  29.154  31.034  1.00  0.00     0.031 A 
ATOM     37  C   UNL A   1      40.864  28.885  31.943  1.00  0.00     0.074 A 
ATOM     38  C   UNL A   1      38.825  30.141  31.322  1.00  0.00     0.049 A 
ATOM     39  N   UNL A   1      41.171  29.444  33.086  1.00  0.00    -0.248 NA
ATOM     40  C   UNL A   1      41.824  27.859  31.502  1.00  0.00     0.031 C 
ATOM     41  C   UNL A   1      37.706  30.559  30.478  1.00  0.00     0.029 A 
ATOM     42  N   UNL A   1      38.768  30.988  32.401  1.00  0.00    -0.354 N 
ATOM     43  C   UNL A   1      42.344  28.825  33.506  1.00  0.00     0.074 A 
ATOM     44  C   UNL A   1      42.680  27.831  32.511  1.00  0.00     0.031 C 
ATOM     45  C   UNL A   1      37.076  31.588  31.070  1.00  0.00     0.029 A 
ATOM     46  C   UNL A   1      37.719  31.874  32.352  1.00  0.00     0.049 A 
ATOM     47  H   UNL A   1      39.418  30.962  33.141  1.00  0.00     0.167 HD
ATOM     48  C   UNL A   1      43.080  29.066  34.616  1.00  0.00     0.031 A 
ATOM     49  C   UNL A   1      37.311  32.796  33.248  1.00  0.00     0.031 A 
ATOM     50  C   UNL A   1      42.745  30.057  35.602  1.00  0.00     0.049 A 
ATOM     51  C   UNL A   1      38.092  32.979  34.524  1.00  0.00     0.074 A 
ATOM     52  C   UNL A   1      43.427  30.380  36.762  1.00  0.00     0.029 A 
ATOM     53  N   UNL A   1      41.632  30.883  35.549  1.00  0.00    -0.354 N 
ATOM     54  N   UNL A   1      39.193  32.381  34.911  1.00  0.00    -0.248 NA
ATOM     55  C   UNL A   1      37.575  33.966  35.483  1.00  0.00     0.031 C 
ATOM     56  C   UNL A   1      42.691  31.351  37.445  1.00  0.00     0.029 A 
ATOM     57  C   UNL A   1      41.593  31.692  36.672  1.00  0.00     0.049 A 
ATOM     58  H   UNL A   1      40.968  30.892  34.823  1.00  0.00     0.167 HD
ATOM     59  C   UNL A   1      39.526  32.951  36.137  1.00  0.00     0.074 A 
ATOM     60  C   UNL A   1      38.508  33.940  36.427  1.00  0.00     0.031 C 
ATOM     61  C   UNL A   1      40.583  32.685  36.942  1.00  0.00     0.031 A 
BRANCH  48  62
ATOM     62  C   UNL A   1      44.294  28.204  34.853  1.00  0.00    -0.014 A 
ATOM     63  C   UNL A   1      44.216  26.997  35.570  1.00  0.00     0.010 A 
ATOM     64  C   UNL A   1      45.532  28.598  34.311  1.00  0.00     0.010 A 
ATOM     65  C   UNL A   1      45.361  26.220  35.772  1.00  0.00     0.020 A 
ATOM     66  C   UNL A   1      46.672  27.808  34.483  1.00  0.00     0.020 A 
ATOM     67  C   UNL A   1      46.581  26.632  35.228  1.00  0.00     0.054 A 
BRANCH  67  68
ATOM     68  S   UNL A   1      48.047  25.594  35.488  1.00  0.00     0.124 S 
ATOM     69  O   UNL A   1      48.928  26.044  34.414  1.00  0.00    -0.237 OA
ATOM     70  O   UNL A   1      48.464  25.963  36.838  1.00  0.00    -0.237 OA
ATOM     71  O   UNL A   1      47.539  24.232  35.346  1.00  0.00    -0.744 OA
ENDBRANCH  67  68
ENDBRANCH  48  62
BRANCH  49  72
ATOM     72  C   UNL A   1      36.087  33.600  32.980  1.00  0.00    -0.014 A 
ATOM     73  C   UNL A   1      36.178  34.911  32.481  1.00  0.00     0.010 A 
ATOM     74  C   UNL A   1      34.814  33.052  33.231  1.00  0.00     0.010 A 
ATOM     75  C   UNL A   1      35.020  35.663  32.254  1.00  0.00     0.020 A 
ATOM     76  C   UNL A   1      33.656  33.789  32.975  1.00  0.00     0.020 A 
ATOM     77  C   UNL A   1      33.767  35.095  32.499  1.00  0.00     0.054 A 
BRANCH  77  78
ATOM     78  S   UNL A   1      32.279  36.074  32.151  1.00  0.00     0.124 S 
ATOM     79  O   UNL A   1      32.454  37.219  33.041  1.00  0.00    -0.237 OA
ATOM     80  O   UNL A   1      32.414  36.356  30.724  1.00  0.00    -0.237 OA
ATOM     81  O   UNL A   1      31.185  35.171  32.500  1.00  0.00    -0.744 OA
ENDBRANCH  77  78
ENDBRANCH  49  72
BRANCH  61  82
ATOM     82  C   UNL A   1      40.748  33.514  38.191  1.00  0.00    -0.014 A 
ATOM     83  C   UNL A   1      40.276  33.073  39.439  1.00  0.00     0.010 A 
ATOM     84  C   UNL A   1      41.475  34.719  38.120  1.00  0.00     0.010 A 
ATOM     85  C   UNL A   1      40.512  33.832  40.590  1.00  0.00     0.020 A 
ATOM     86  C   UNL A   1      41.740  35.462  39.273  1.00  0.00     0.020 A 
ATOM     87  C   UNL A   1      41.249  35.018  40.500  1.00  0.00     0.054 A 
BRANCH  87  88
ATOM     88  S   UNL A   1      41.602  35.945  42.019  1.00  0.00     0.124 S 
ATOM     89  O   UNL A   1      42.263  34.938  42.845  1.00  0.00    -0.237 OA
ATOM     90  O   UNL A   1      42.458  37.027  41.541  1.00  0.00    -0.237 OA
ATOM     91  O   UNL A   1      40.282  36.363  42.486  1.00  0.00    -0.744 OA
ENDBRANCH  87  88
ENDBRANCH  61  82
ENDBRANCH  35  36
ENDBRANCH  28  30
ENDBRANCH  27  28
ENDBRANCH  26  27
ENDBRANCH   1  26
TORSDOF 18
ENDMDL
MODEL 3
REMARK VINA RESULT:     -11.1      7.029     12.088
REMARK SMILES C[C@H]1CCCC[C@H]1[N@H+]1[C@@H](C(=O)OCCOCCOC(=O)c2ccc(-c3c4nc(c(-c5ccc(S(=O)(=O)[O-])cc5)c5ccc([nH]5)c(-c5ccc(S(=O)(=O)[O-])cc5)c5nc(c(-c6ccc(S(=O)(=O)[O-])cc6)c6ccc3[nH]6)C=C5)C=C4)cc2)CC[C@H]2CCCC[C@H]21
REMARK SMILES IDX 16 1 15 2 14 3 13 4 12 5 10 6 11 7 9 8 8 9 88 10 81 12 83 13
REMARK SMILES IDX 87 14 82 15 84 16 86 17 85 18 7 19 1 20 2 21 3 22 4 23 6 24
REMARK SMILES IDX 5 25 17 26 18 27 19 28 20 29 21 30 22 31 80 32 23 33 79 34
REMARK SMILES IDX 24 35 25 36 26 37 73 38 27 39 78 40 72 41 74 42 28 43 77 44
REMARK SMILES IDX 71 45 70 46 29 48 59 49 40 50 58 51 41 52 44 53 57 54 75 55
REMARK SMILES IDX 42 56 43 57 56 59 76 60 45 61 30 62 31 63 39 64 32 65 38 66
REMARK SMILES IDX 33 67 34 68 35 69 36 70 37 71 60 72 61 73 69 74 62 75 68 76
REMARK SMILES IDX 63 77 64 78 65 79 66 80 67 81 46 82 47 83 55 84 48 85 54 86
REMARK SMILES IDX 49 87 50 88 51 89 52 90 53 91
REMARK H PARENT 8 11 74 47 44 58
REMARK Flexibility Score: inf
ROOT
ATOM      1  C   UNL A   1      34.920  31.452  27.645  1.00  0.00     0.202 C 
ENDROOT
BRANCH   1   2
ATOM      2  O   UNL A   1      33.487  31.433  27.555  1.00  0.00    -0.374 OA
BRANCH   2   3
ATOM      3  C   UNL A   1      32.717  30.269  27.214  1.00  0.00     0.202 C 
BRANCH   3   4
ATOM      4  C   UNL A   1      33.340  28.882  27.557  1.00  0.00     0.261 C 
BRANCH   4   5
ATOM      5  O   UNL A   1      32.791  27.805  26.716  1.00  0.00    -0.459 OA
BRANCH   5   6
ATOM      6  C   UNL A   1      33.068  27.846  25.378  1.00  0.00     0.365 C 
ATOM      7  O   UNL A   1      34.023  27.235  24.894  1.00  0.00    -0.245 OA
BRANCH   6   8
ATOM      8  C   UNL A   1      32.117  28.685  24.456  1.00  0.00     0.295 C 
ATOM      9  N   UNL A   1      30.651  28.430  24.351  1.00  0.00    -0.318 N 
ATOM     10  C   UNL A   1      30.150  29.851  23.629  1.00  0.00     0.188 C 
ATOM     11  H   UNL A   1      30.123  28.267  25.208  1.00  0.00     0.349 HD
ATOM     12  C   UNL A   1      32.536  28.806  22.979  1.00  0.00     0.078 C 
ATOM     13  C   UNL A   1      29.733  29.246  22.355  1.00  0.00     0.048 C 
ATOM     14  C   UNL A   1      29.149  31.077  23.725  1.00  0.00     0.065 C 
ATOM     15  C   UNL A   1      31.331  29.040  21.915  1.00  0.00     0.016 C 
ATOM     16  C   UNL A   1      28.348  28.597  23.079  1.00  0.00     0.010 C 
ATOM     17  C   UNL A   1      27.636  30.944  23.500  1.00  0.00     0.006 C 
ATOM     18  C   UNL A   1      27.169  29.552  23.158  1.00  0.00     0.001 C 
BRANCH   9  19
ATOM     19  C   UNL A   1      30.371  26.958  23.532  1.00  0.00     0.187 C 
ATOM     20  C   UNL A   1      32.041  26.034  21.333  1.00  0.00     0.014 C 
ATOM     21  C   UNL A   1      31.237  25.788  22.637  1.00  0.00     0.044 C 
ATOM     22  C   UNL A   1      31.909  24.647  23.456  1.00  0.00     0.009 C 
ATOM     23  C   UNL A   1      30.904  23.989  24.380  1.00  0.00     0.001 C 
ATOM     24  C   UNL A   1      29.421  26.059  24.318  1.00  0.00     0.065 C 
ATOM     25  C   UNL A   1      30.186  25.059  25.161  1.00  0.00     0.006 C 
ENDBRANCH   9  19
ENDBRANCH   6   8
ENDBRANCH   5   6
ENDBRANCH   4   5
ENDBRANCH   3   4
ENDBRANCH   2   3
ENDBRANCH   1   2
BRANCH   1  26
ATOM     26  C   UNL A   1      35.703  31.181  28.957  1.00  0.00     0.261 C 
BRANCH  26  27
ATOM     27  O   UNL A   1      37.077  30.851  28.776  1.00  0.00    -0.460 OA
BRANCH  27  28
ATOM     28  C   UNL A   1      37.452  29.780  29.488  1.00  0.00     0.338 C 
ATOM     29  O   UNL A   1      36.788  29.213  30.363  1.00  0.00    -0.246 OA
BRANCH  28  30
ATOM     30  C   UNL A   1      38.681  29.210  28.929  1.00  0.00     0.060 A 
ATOM     31  C   UNL A   1      39.538  28.605  29.852  1.00  0.00     0.016 A 
ATOM     32  C   UNL A   1      39.042  29.332  27.585  1.00  0.00     0.016 A 
ATOM     33  C   UNL A   1      40.820  28.243  29.470  1.00  0.00     0.010 A 
ATOM     34  C   UNL A   1      40.336  28.961  27.199  1.00  0.00     0.010 A 
ATOM     35  C   UNL A   1      41.251  28.487  28.160  1.00  0.00    -0.014 A 
BRANCH  35  36
ATOM     36  C   UNL A   1      42.711  28.472  27.894  1.00  0.00     0.031 A 
ATOM     37  C   UNL A   1      43.315  27.240  27.268  1.00  0.00     0.074 A 
ATOM     38  C   UNL A   1      43.465  29.568  28.090  1.00  0.00     0.049 A 
ATOM     39  N   UNL A   1      44.554  27.011  26.916  1.00  0.00    -0.248 NA
ATOM     40  C   UNL A   1      42.398  26.120  26.990  1.00  0.00     0.031 C 
ATOM     41  C   UNL A   1      42.980  30.849  28.601  1.00  0.00     0.029 A 
ATOM     42  N   UNL A   1      44.801  29.782  27.858  1.00  0.00    -0.354 N 
ATOM     43  C   UNL A   1      44.568  25.721  26.397  1.00  0.00     0.074 A 
ATOM     44  C   UNL A   1      43.221  25.205  26.502  1.00  0.00     0.031 C 
ATOM     45  C   UNL A   1      44.004  31.718  28.638  1.00  0.00     0.029 A 
ATOM     46  C   UNL A   1      45.224  31.045  28.195  1.00  0.00     0.049 A 
ATOM     47  H   UNL A   1      45.400  29.094  27.485  1.00  0.00     0.167 HD
ATOM     48  C   UNL A   1      45.605  25.028  25.872  1.00  0.00     0.031 A 
ATOM     49  C   UNL A   1      46.458  31.589  28.170  1.00  0.00     0.031 A 
ATOM     50  C   UNL A   1      46.943  25.544  25.765  1.00  0.00     0.049 A 
ATOM     51  C   UNL A   1      47.617  30.765  27.673  1.00  0.00     0.074 A 
ATOM     52  C   UNL A   1      48.066  24.921  25.248  1.00  0.00     0.029 A 
ATOM     53  N   UNL A   1      47.343  26.803  26.188  1.00  0.00    -0.354 N 
ATOM     54  N   UNL A   1      47.616  29.544  27.193  1.00  0.00    -0.248 NA
ATOM     55  C   UNL A   1      48.945  31.394  27.711  1.00  0.00     0.031 C 
ATOM     56  C   UNL A   1      49.157  25.775  25.420  1.00  0.00     0.029 A 
ATOM     57  C   UNL A   1      48.701  26.963  25.971  1.00  0.00     0.049 A 
ATOM     58  H   UNL A   1      46.751  27.481  26.584  1.00  0.00     0.167 HD
ATOM     59  C   UNL A   1      48.933  29.277  26.830  1.00  0.00     0.074 A 
ATOM     60  C   UNL A   1      49.702  30.462  27.147  1.00  0.00     0.031 C 
ATOM     61  C   UNL A   1      49.454  28.155  26.276  1.00  0.00     0.031 A 
BRANCH  48  62
ATOM     62  C   UNL A   1      45.349  23.612  25.422  1.00  0.00    -0.014 A 
ATOM     63  C   UNL A   1      44.851  23.322  24.139  1.00  0.00     0.010 A 
ATOM     64  C   UNL A   1      45.650  22.549  26.294  1.00  0.00     0.010 A 
ATOM     65  C   UNL A   1      44.625  21.998  23.752  1.00  0.00     0.020 A 
ATOM     66  C   UNL A   1      45.456  21.223  25.899  1.00  0.00     0.020 A 
ATOM     67  C   UNL A   1      44.928  20.957  24.635  1.00  0.00     0.054 A 
BRANCH  67  68
ATOM     68  S   UNL A   1      44.644  19.247  24.099  1.00  0.00     0.124 S 
ATOM     69  O   UNL A   1      44.584  19.393  22.647  1.00  0.00    -0.237 OA
ATOM     70  O   UNL A   1      45.822  18.552  24.612  1.00  0.00    -0.237 OA
ATOM     71  O   UNL A   1      43.383  18.886  24.740  1.00  0.00    -0.744 OA
ENDBRANCH  67  68
ENDBRANCH  48  62
BRANCH  49  72
ATOM     72  C   UNL A   1      46.664  32.983  28.655  1.00  0.00    -0.014 A 
ATOM     73  C   UNL A   1      46.945  33.244  30.006  1.00  0.00     0.010 A 
ATOM     74  C   UNL A   1      46.575  34.063  27.755  1.00  0.00     0.010 A 
ATOM     75  C   UNL A   1      47.117  34.559  30.453  1.00  0.00     0.020 A 
ATOM     76  C   UNL A   1      46.776  35.374  28.191  1.00  0.00     0.020 A 
ATOM     77  C   UNL A   1      47.035  35.614  29.541  1.00  0.00     0.054 A 
BRANCH  77  78
ATOM     78  S   UNL A   1      47.307  37.307  30.135  1.00  0.00     0.124 S 
ATOM     79  O   UNL A   1      48.058  37.899  29.031  1.00  0.00    -0.237 OA
ATOM     80  O   UNL A   1      45.944  37.802  30.312  1.00  0.00    -0.237 OA
ATOM     81  O   UNL A   1      48.060  37.119  31.373  1.00  0.00    -0.744 OA
ENDBRANCH  77  78
ENDBRANCH  49  72
BRANCH  61  82
ATOM     82  C   UNL A   1      50.915  28.160  25.907  1.00  0.00    -0.014 A 
ATOM     83  C   UNL A   1      51.906  27.716  26.799  1.00  0.00     0.010 A 
ATOM     84  C   UNL A   1      51.289  28.534  24.601  1.00  0.00     0.010 A 
ATOM     85  C   UNL A   1      53.245  27.663  26.398  1.00  0.00     0.020 A 
ATOM     86  C   UNL A   1      52.621  28.452  24.187  1.00  0.00     0.020 A 
ATOM     87  C   UNL A   1      53.592  28.025  25.091  1.00  0.00     0.054 A 
BRANCH  87  88
ATOM     88  S   UNL A   1      55.325  27.878  24.576  1.00  0.00     0.124 S 
ATOM     89  O   UNL A   1      55.617  29.226  24.097  1.00  0.00    -0.237 OA
ATOM     90  O   UNL A   1      55.995  27.492  25.815  1.00  0.00    -0.237 OA
ATOM     91  O   UNL A   1      55.295  26.844  23.544  1.00  0.00    -0.744 OA
ENDBRANCH  87  88
ENDBRANCH  61  82
ENDBRANCH  35  36
ENDBRANCH  28  30
ENDBRANCH  27  28
ENDBRANCH  26  27
ENDBRANCH   1  26
TORSDOF 18
ENDMDL
