MODEL 1
REMARK VINA RESULT:     -10.4      0.000      0.000
REMARK SMILES O=C(OCCOCCOC(=O)c1cc(/C=C/c2cc(O)cc(O)c2)ccc1O)c1ccc(-c2c3nc(c(-c4ccc(S(=O)(=O)[O-])cc4)c4ccc([nH]4)c(-c4ccc(S(=O)(=O)[O-])cc4)c4nc(c(-c5ccc(S(=O)(=O)[O-])cc5)c5ccc2[nH]5)C=C4)C=C3)cc1
REMARK SMILES IDX 6 1 5 2 4 3 3 4 2 5 1 6 29 7 30 8 88 9 31 10 87 11 32 12
REMARK SMILES IDX 33 13 34 14 81 15 35 16 86 17 80 18 82 19 36 20 85 21 79 22
REMARK SMILES IDX 78 23 37 25 67 26 48 27 66 28 49 29 52 30 65 31 83 32 50 33
REMARK SMILES IDX 51 34 64 36 84 37 53 38 38 39 39 40 47 41 40 42 46 43 41 44
REMARK SMILES IDX 42 45 43 46 44 47 45 48 68 49 69 50 77 51 70 52 76 53 71 54
REMARK SMILES IDX 72 55 73 56 74 57 75 58 54 59 55 60 63 61 56 62 62 63 57 64
REMARK SMILES IDX 58 65 59 66 60 67 61 68 7 69 8 70 9 71 10 72 11 73 12 74
REMARK SMILES IDX 13 75 27 76 14 77 26 78 25 79 28 80 15 82 16 83 17 84 18 85
REMARK SMILES IDX 24 86 19 87 22 88 21 89 20 90 23 92
REMARK H PARENT 82 24 52 35 28 81 20 91 23 93
REMARK Flexibility Score: inf
ROOT
ATOM      1  O   UNL A   1      35.065  33.586  27.559  1.00  0.00    -0.374 OA
ENDROOT
BRANCH   1   2
ATOM      2  C   UNL A   1      34.460  32.400  28.066  1.00  0.00     0.202 C 
BRANCH   2   3
ATOM      3  C   UNL A   1      35.179  31.792  29.273  1.00  0.00     0.261 C 
BRANCH   3   4
ATOM      4  O   UNL A   1      35.920  30.624  28.881  1.00  0.00    -0.460 OA
BRANCH   4   5
ATOM      5  C   UNL A   1      36.703  29.830  29.651  1.00  0.00     0.338 C 
ATOM      6  O   UNL A   1      36.215  29.332  30.665  1.00  0.00    -0.246 OA
BRANCH   5   7
ATOM      7  C   UNL A   1      38.131  29.522  29.337  1.00  0.00     0.060 A 
ATOM      8  C   UNL A   1      38.672  29.508  28.053  1.00  0.00     0.016 A 
ATOM      9  C   UNL A   1      39.007  29.322  30.417  1.00  0.00     0.016 A 
ATOM     10  C   UNL A   1      40.010  29.239  27.827  1.00  0.00     0.010 A 
ATOM     11  C   UNL A   1      40.374  29.101  30.205  1.00  0.00     0.010 A 
ATOM     12  C   UNL A   1      40.874  29.046  28.900  1.00  0.00    -0.014 A 
BRANCH  12  13
ATOM     13  C   UNL A   1      42.273  28.718  28.577  1.00  0.00     0.031 A 
ATOM     14  C   UNL A   1      42.598  27.325  28.138  1.00  0.00     0.074 A 
ATOM     15  C   UNL A   1      43.171  29.719  28.492  1.00  0.00     0.049 A 
ATOM     16  N   UNL A   1      43.740  26.832  27.744  1.00  0.00    -0.248 NA
ATOM     17  C   UNL A   1      41.483  26.360  28.116  1.00  0.00     0.031 C 
ATOM     18  C   UNL A   1      42.890  31.130  28.781  1.00  0.00     0.029 A 
ATOM     19  N   UNL A   1      44.478  29.719  28.087  1.00  0.00    -0.354 N 
ATOM     20  C   UNL A   1      43.486  25.503  27.435  1.00  0.00     0.074 A 
ATOM     21  C   UNL A   1      42.086  25.258  27.702  1.00  0.00     0.031 C 
ATOM     22  C   UNL A   1      43.980  31.862  28.503  1.00  0.00     0.029 A 
ATOM     23  C   UNL A   1      45.054  30.969  28.086  1.00  0.00     0.049 A 
ATOM     24  H   UNL A   1      44.961  28.904  27.821  1.00  0.00     0.167 HD
ATOM     25  C   UNL A   1      44.352  24.573  26.971  1.00  0.00     0.031 A 
ATOM     26  C   UNL A   1      46.318  31.339  27.805  1.00  0.00     0.031 A 
ATOM     27  C   UNL A   1      45.745  24.842  26.743  1.00  0.00     0.049 A 
ATOM     28  C   UNL A   1      47.285  30.261  27.398  1.00  0.00     0.074 A 
ATOM     29  C   UNL A   1      46.750  23.965  26.384  1.00  0.00     0.029 A 
ATOM     30  N   UNL A   1      46.324  26.100  26.849  1.00  0.00    -0.354 N 
ATOM     31  N   UNL A   1      47.055  28.983  27.199  1.00  0.00    -0.248 NA
ATOM     32  C   UNL A   1      48.679  30.666  27.185  1.00  0.00     0.031 C 
ATOM     33  C   UNL A   1      47.947  24.688  26.313  1.00  0.00     0.029 A 
ATOM     34  C   UNL A   1      47.676  26.023  26.571  1.00  0.00     0.049 A 
ATOM     35  H   UNL A   1      45.843  26.926  27.088  1.00  0.00     0.167 HD
ATOM     36  C   UNL A   1      48.276  28.431  26.835  1.00  0.00     0.074 A 
ATOM     37  C   UNL A   1      49.232  29.521  26.806  1.00  0.00     0.031 C 
ATOM     38  C   UNL A   1      48.588  27.139  26.559  1.00  0.00     0.031 A 
BRANCH  25  39
ATOM     39  C   UNL A   1      43.816  23.184  26.759  1.00  0.00    -0.014 A 
ATOM     40  C   UNL A   1      43.091  22.519  27.764  1.00  0.00     0.010 A 
ATOM     41  C   UNL A   1      44.070  22.522  25.544  1.00  0.00     0.010 A 
ATOM     42  C   UNL A   1      42.662  21.201  27.572  1.00  0.00     0.020 A 
ATOM     43  C   UNL A   1      43.624  21.212  25.341  1.00  0.00     0.020 A 
ATOM     44  C   UNL A   1      42.939  20.554  26.364  1.00  0.00     0.054 A 
BRANCH  44  45
ATOM     45  S   UNL A   1      42.380  18.842  26.144  1.00  0.00     0.124 S 
ATOM     46  O   UNL A   1      42.588  18.284  27.479  1.00  0.00    -0.237 OA
ATOM     47  O   UNL A   1      40.985  19.009  25.744  1.00  0.00    -0.237 OA
ATOM     48  O   UNL A   1      43.265  18.319  25.106  1.00  0.00    -0.744 OA
ENDBRANCH  44  45
ENDBRANCH  25  39
BRANCH  26  49
ATOM     49  C   UNL A   1      46.751  32.755  27.983  1.00  0.00    -0.014 A 
ATOM     50  C   UNL A   1      46.702  33.680  26.927  1.00  0.00     0.010 A 
ATOM     51  C   UNL A   1      47.244  33.180  29.233  1.00  0.00     0.010 A 
ATOM     52  C   UNL A   1      47.166  34.990  27.107  1.00  0.00     0.020 A 
ATOM     53  C   UNL A   1      47.678  34.494  29.427  1.00  0.00     0.020 A 
ATOM     54  C   UNL A   1      47.657  35.386  28.355  1.00  0.00     0.054 A 
BRANCH  54  55
ATOM     55  S   UNL A   1      48.249  37.087  28.576  1.00  0.00     0.124 S 
ATOM     56  O   UNL A   1      48.875  37.020  29.893  1.00  0.00    -0.237 OA
ATOM     57  O   UNL A   1      49.162  37.257  27.448  1.00  0.00    -0.237 OA
ATOM     58  O   UNL A   1      47.028  37.886  28.503  1.00  0.00    -0.744 OA
ENDBRANCH  54  55
ENDBRANCH  26  49
BRANCH  38  59
ATOM     59  C   UNL A   1      50.015  26.857  26.185  1.00  0.00    -0.014 A 
ATOM     60  C   UNL A   1      50.988  26.613  27.169  1.00  0.00     0.010 A 
ATOM     61  C   UNL A   1      50.374  26.795  24.827  1.00  0.00     0.010 A 
ATOM     62  C   UNL A   1      52.308  26.346  26.801  1.00  0.00     0.020 A 
ATOM     63  C   UNL A   1      51.686  26.502  24.455  1.00  0.00     0.020 A 
ATOM     64  C   UNL A   1      52.648  26.295  25.446  1.00  0.00     0.054 A 
BRANCH  64  65
ATOM     65  S   UNL A   1      54.359  25.909  24.990  1.00  0.00     0.124 S 
ATOM     66  O   UNL A   1      54.464  26.524  23.669  1.00  0.00    -0.237 OA
ATOM     67  O   UNL A   1      55.129  26.558  26.048  1.00  0.00    -0.237 OA
ATOM     68  O   UNL A   1      54.400  24.450  25.005  1.00  0.00    -0.744 OA
ENDBRANCH  64  65
ENDBRANCH  38  59
ENDBRANCH  12  13
ENDBRANCH   5   7
ENDBRANCH   4   5
ENDBRANCH   3   4
ENDBRANCH   2   3
ENDBRANCH   1   2
BRANCH   1  69
ATOM     69  C   UNL A   1      34.501  34.820  28.016  1.00  0.00     0.202 C 
BRANCH  69  70
ATOM     70  C   UNL A   1      32.986  34.658  28.148  1.00  0.00     0.261 C 
BRANCH  70  71
ATOM     71  O   UNL A   1      32.639  34.914  29.517  1.00  0.00    -0.460 OA
BRANCH  71  72
ATOM     72  C   UNL A   1      33.079  36.094  30.031  1.00  0.00     0.342 C 
ATOM     73  O   UNL A   1      32.874  37.214  29.610  1.00  0.00    -0.246 OA
BRANCH  72  74
ATOM     74  C   UNL A   1      33.624  35.807  31.378  1.00  0.00     0.102 A 
ATOM     75  C   UNL A   1      34.424  34.657  31.522  1.00  0.00     0.027 A 
ATOM     76  C   UNL A   1      33.462  36.690  32.446  1.00  0.00     0.130 A 
ATOM     77  C   UNL A   1      35.129  34.431  32.709  1.00  0.00    -0.025 A 
ATOM     78  C   UNL A   1      34.125  36.453  33.644  1.00  0.00     0.048 A 
ATOM     79  C   UNL A   1      34.959  35.338  33.766  1.00  0.00     0.012 A 
BRANCH  76  80
ATOM     80  O   UNL A   1      32.646  37.779  32.332  1.00  0.00    -0.507 OA
ATOM     81  H   UNL A   1      31.741  37.712  32.564  1.00  0.00     0.293 HD
ENDBRANCH  76  80
BRANCH  77  82
ATOM     82  C   UNL A   1      36.011  33.273  32.941  1.00  0.00     0.009 C 
ATOM     83  C   UNL A   1      37.246  33.273  33.476  1.00  0.00     0.009 C 
BRANCH  83  84
ATOM     84  C   UNL A   1      38.006  32.020  33.661  1.00  0.00    -0.018 A 
ATOM     85  C   UNL A   1      39.351  32.044  34.068  1.00  0.00     0.054 A 
ATOM     86  C   UNL A   1      37.385  30.779  33.453  1.00  0.00     0.054 A 
ATOM     87  C   UNL A   1      40.064  30.856  34.211  1.00  0.00     0.119 A 
ATOM     88  C   UNL A   1      38.119  29.600  33.608  1.00  0.00     0.119 A 
ATOM     89  C   UNL A   1      39.459  29.631  33.974  1.00  0.00     0.092 A 
BRANCH  87  90
ATOM     90  O   UNL A   1      41.376  30.861  34.585  1.00  0.00    -0.508 OA
ATOM     91  H   UNL A   1      41.614  31.113  35.456  1.00  0.00     0.293 HD
ENDBRANCH  87  90
BRANCH  88  92
ATOM     92  O   UNL A   1      37.556  28.375  33.400  1.00  0.00    -0.508 OA
ATOM     93  H   UNL A   1      37.828  27.640  33.915  1.00  0.00     0.293 HD
ENDBRANCH  88  92
ENDBRANCH  83  84
ENDBRANCH  77  82
ENDBRANCH  72  74
ENDBRANCH  71  72
ENDBRANCH  70  71
ENDBRANCH  69  70
ENDBRANCH   1  69
TORSDOF 22
ENDMDL
MODEL 2
REMARK VINA RESULT:     -10.2      3.102      9.853
REMARK SMILES O=C(OCCOCCOC(=O)c1cc(/C=C/c2cc(O)cc(O)c2)ccc1O)c1ccc(-c2c3nc(c(-c4ccc(S(=O)(=O)[O-])cc4)c4ccc([nH]4)c(-c4ccc(S(=O)(=O)[O-])cc4)c4nc(c(-c5ccc(S(=O)(=O)[O-])cc5)c5ccc2[nH]5)C=C4)C=C3)cc1
REMARK SMILES IDX 6 1 5 2 4 3 3 4 2 5 1 6 29 7 30 8 88 9 31 10 87 11 32 12
REMARK SMILES IDX 33 13 34 14 81 15 35 16 86 17 80 18 82 19 36 20 85 21 79 22
REMARK SMILES IDX 78 23 37 25 67 26 48 27 66 28 49 29 52 30 65 31 83 32 50 33
REMARK SMILES IDX 51 34 64 36 84 37 53 38 38 39 39 40 47 41 40 42 46 43 41 44
REMARK SMILES IDX 42 45 43 46 44 47 45 48 68 49 69 50 77 51 70 52 76 53 71 54
REMARK SMILES IDX 72 55 73 56 74 57 75 58 54 59 55 60 63 61 56 62 62 63 57 64
REMARK SMILES IDX 58 65 59 66 60 67 61 68 7 69 8 70 9 71 10 72 11 73 12 74
REMARK SMILES IDX 13 75 27 76 14 77 26 78 25 79 28 80 15 82 16 83 17 84 18 85
REMARK SMILES IDX 24 86 19 87 22 88 21 89 20 90 23 92
REMARK H PARENT 82 24 52 35 28 81 20 91 23 93
REMARK Flexibility Score: inf
ROOT
ATOM      1  O   UNL A   1      35.807  32.658  28.591  1.00  0.00    -0.374 OA
ENDROOT
BRANCH   1   2
ATOM      2  C   UNL A   1      35.591  33.516  29.709  1.00  0.00     0.202 C 
BRANCH   2   3
ATOM      3  C   UNL A   1      35.660  32.810  31.066  1.00  0.00     0.261 C 
BRANCH   3   4
ATOM      4  O   UNL A   1      35.801  31.390  30.888  1.00  0.00    -0.460 OA
BRANCH   4   5
ATOM      5  C   UNL A   1      36.730  30.566  31.429  1.00  0.00     0.338 C 
ATOM      6  O   UNL A   1      36.495  30.058  32.525  1.00  0.00    -0.246 OA
BRANCH   5   7
ATOM      7  C   UNL A   1      38.029  30.235  30.767  1.00  0.00     0.060 A 
ATOM      8  C   UNL A   1      38.280  30.383  29.404  1.00  0.00     0.016 A 
ATOM      9  C   UNL A   1      39.095  29.835  31.589  1.00  0.00     0.016 A 
ATOM     10  C   UNL A   1      39.513  30.083  28.853  1.00  0.00     0.010 A 
ATOM     11  C   UNL A   1      40.363  29.578  31.050  1.00  0.00     0.010 A 
ATOM     12  C   UNL A   1      40.567  29.691  29.672  1.00  0.00    -0.014 A 
BRANCH  12  13
ATOM     13  C   UNL A   1      41.833  29.344  29.004  1.00  0.00     0.031 A 
ATOM     14  C   UNL A   1      42.940  30.350  29.002  1.00  0.00     0.074 A 
ATOM     15  C   UNL A   1      42.025  28.074  28.597  1.00  0.00     0.049 A 
ATOM     16  N   UNL A   1      44.153  30.238  28.536  1.00  0.00    -0.248 NA
ATOM     17  C   UNL A   1      42.653  31.652  29.632  1.00  0.00     0.031 C 
ATOM     18  C   UNL A   1      41.029  27.000  28.688  1.00  0.00     0.029 A 
ATOM     19  N   UNL A   1      43.131  27.455  28.083  1.00  0.00    -0.354 N 
ATOM     20  C   UNL A   1      44.772  31.451  28.807  1.00  0.00     0.074 A 
ATOM     21  C   UNL A   1      43.798  32.294  29.463  1.00  0.00     0.031 C 
ATOM     22  C   UNL A   1      41.585  25.848  28.283  1.00  0.00     0.029 A 
ATOM     23  C   UNL A   1      42.948  26.112  27.839  1.00  0.00     0.049 A 
ATOM     24  H   UNL A   1      43.978  27.923  27.903  1.00  0.00     0.167 HD
ATOM     25  C   UNL A   1      46.042  31.823  28.526  1.00  0.00     0.031 A 
ATOM     26  C   UNL A   1      43.784  25.210  27.291  1.00  0.00     0.031 A 
ATOM     27  C   UNL A   1      46.977  30.969  27.847  1.00  0.00     0.049 A 
ATOM     28  C   UNL A   1      45.154  25.684  26.889  1.00  0.00     0.074 A 
ATOM     29  C   UNL A   1      48.253  31.260  27.404  1.00  0.00     0.029 A 
ATOM     30  N   UNL A   1      46.728  29.642  27.520  1.00  0.00    -0.354 N 
ATOM     31  N   UNL A   1      45.698  26.867  27.065  1.00  0.00    -0.248 NA
ATOM     32  C   UNL A   1      46.019  24.714  26.210  1.00  0.00     0.031 C 
ATOM     33  C   UNL A   1      48.759  30.119  26.771  1.00  0.00     0.029 A 
ATOM     34  C   UNL A   1      47.822  29.101  26.871  1.00  0.00     0.049 A 
ATOM     35  H   UNL A   1      45.894  29.158  27.720  1.00  0.00     0.167 HD
ATOM     36  C   UNL A   1      46.973  26.781  26.520  1.00  0.00     0.074 A 
ATOM     37  C   UNL A   1      47.129  25.421  26.042  1.00  0.00     0.031 C 
ATOM     38  C   UNL A   1      47.928  27.740  26.411  1.00  0.00     0.031 A 
BRANCH  25  39
ATOM     39  C   UNL A   1      46.442  33.223  28.896  1.00  0.00    -0.014 A 
ATOM     40  C   UNL A   1      46.163  34.311  28.048  1.00  0.00     0.010 A 
ATOM     41  C   UNL A   1      47.139  33.452  30.096  1.00  0.00     0.010 A 
ATOM     42  C   UNL A   1      46.606  35.596  28.377  1.00  0.00     0.020 A 
ATOM     43  C   UNL A   1      47.565  34.739  30.438  1.00  0.00     0.020 A 
ATOM     44  C   UNL A   1      47.312  35.800  29.566  1.00  0.00     0.054 A 
BRANCH  44  45
ATOM     45  S   UNL A   1      47.884  37.474  29.965  1.00  0.00     0.124 S 
ATOM     46  O   UNL A   1      47.666  37.530  31.410  1.00  0.00    -0.237 OA
ATOM     47  O   UNL A   1      49.282  37.445  29.542  1.00  0.00    -0.237 OA
ATOM     48  O   UNL A   1      47.014  38.338  29.171  1.00  0.00    -0.744 OA
ENDBRANCH  44  45
ENDBRANCH  25  39
BRANCH  26  49
ATOM     49  C   UNL A   1      43.324  23.819  27.016  1.00  0.00    -0.014 A 
ATOM     50  C   UNL A   1      42.680  23.479  25.814  1.00  0.00     0.010 A 
ATOM     51  C   UNL A   1      43.515  22.817  27.988  1.00  0.00     0.010 A 
ATOM     52  C   UNL A   1      42.209  22.176  25.603  1.00  0.00     0.020 A 
ATOM     53  C   UNL A   1      43.077  21.508  27.769  1.00  0.00     0.020 A 
ATOM     54  C   UNL A   1      42.406  21.201  26.585  1.00  0.00     0.054 A 
BRANCH  54  55
ATOM     55  S   UNL A   1      41.797  19.515  26.297  1.00  0.00     0.124 S 
ATOM     56  O   UNL A   1      42.154  18.847  27.545  1.00  0.00    -0.237 OA
ATOM     57  O   UNL A   1      40.368  19.725  26.077  1.00  0.00    -0.237 OA
ATOM     58  O   UNL A   1      42.543  19.080  25.118  1.00  0.00    -0.744 OA
ENDBRANCH  54  55
ENDBRANCH  26  49
BRANCH  38  59
ATOM     59  C   UNL A   1      49.223  27.329  25.769  1.00  0.00    -0.014 A 
ATOM     60  C   UNL A   1      49.416  27.454  24.382  1.00  0.00     0.010 A 
ATOM     61  C   UNL A   1      50.271  26.851  26.574  1.00  0.00     0.010 A 
ATOM     62  C   UNL A   1      50.629  27.074  23.806  1.00  0.00     0.020 A 
ATOM     63  C   UNL A   1      51.494  26.495  26.005  1.00  0.00     0.020 A 
ATOM     64  C   UNL A   1      51.659  26.594  24.621  1.00  0.00     0.054 A 
BRANCH  64  65
ATOM     65  S   UNL A   1      53.238  26.141  23.856  1.00  0.00     0.124 S 
ATOM     66  O   UNL A   1      53.505  24.840  24.464  1.00  0.00    -0.237 OA
ATOM     67  O   UNL A   1      52.910  26.114  22.433  1.00  0.00    -0.237 OA
ATOM     68  O   UNL A   1      54.139  27.216  24.261  1.00  0.00    -0.744 OA
ENDBRANCH  64  65
ENDBRANCH  38  59
ENDBRANCH  12  13
ENDBRANCH   5   7
ENDBRANCH   4   5
ENDBRANCH   3   4
ENDBRANCH   2   3
ENDBRANCH   1   2
BRANCH   1  69
ATOM     69  C   UNL A   1      34.662  32.401  27.772  1.00  0.00     0.202 C 
BRANCH  69  70
ATOM     70  C   UNL A   1      34.158  30.983  28.048  1.00  0.00     0.261 C 
BRANCH  70  71
ATOM     71  O   UNL A   1      33.918  30.353  26.782  1.00  0.00    -0.460 OA
BRANCH  71  72
ATOM     72  C   UNL A   1      32.620  30.054  26.503  1.00  0.00     0.342 C 
ATOM     73  O   UNL A   1      31.628  30.687  26.802  1.00  0.00    -0.246 OA
BRANCH  72  74
ATOM     74  C   UNL A   1      32.628  28.956  25.510  1.00  0.00     0.102 A 
ATOM     75  C   UNL A   1      33.532  27.896  25.722  1.00  0.00     0.027 A 
ATOM     76  C   UNL A   1      31.706  28.895  24.465  1.00  0.00     0.130 A 
ATOM     77  C   UNL A   1      33.460  26.739  24.941  1.00  0.00    -0.025 A 
ATOM     78  C   UNL A   1      31.652  27.767  23.656  1.00  0.00     0.048 A 
ATOM     79  C   UNL A   1      32.516  26.696  23.902  1.00  0.00     0.012 A 
BRANCH  76  80
ATOM     80  O   UNL A   1      30.862  29.941  24.218  1.00  0.00    -0.507 OA
ATOM     81  H   UNL A   1      31.207  30.767  23.943  1.00  0.00     0.293 HD
ENDBRANCH  76  80
BRANCH  77  82
ATOM     82  C   UNL A   1      34.341  25.570  25.108  1.00  0.00     0.009 C 
ATOM     83  C   UNL A   1      34.209  24.352  24.550  1.00  0.00     0.009 C 
BRANCH  83  84
ATOM     84  C   UNL A   1      35.191  23.278  24.803  1.00  0.00    -0.018 A 
ATOM     85  C   UNL A   1      36.536  23.578  25.078  1.00  0.00     0.054 A 
ATOM     86  C   UNL A   1      34.786  21.934  24.795  1.00  0.00     0.054 A 
ATOM     87  C   UNL A   1      37.457  22.554  25.286  1.00  0.00     0.119 A 
ATOM     88  C   UNL A   1      35.727  20.924  25.012  1.00  0.00     0.119 A 
ATOM     89  C   UNL A   1      37.063  21.225  25.246  1.00  0.00     0.092 A 
BRANCH  87  90
ATOM     90  O   UNL A   1      38.771  22.826  25.533  1.00  0.00    -0.508 OA
ATOM     91  H   UNL A   1      39.343  22.146  25.830  1.00  0.00     0.293 HD
ENDBRANCH  87  90
BRANCH  88  92
ATOM     92  O   UNL A   1      35.377  19.605  24.997  1.00  0.00    -0.508 OA
ATOM     93  H   UNL A   1      35.000  19.211  25.759  1.00  0.00     0.293 HD
ENDBRANCH  88  92
ENDBRANCH  83  84
ENDBRANCH  77  82
ENDBRANCH  72  74
ENDBRANCH  71  72
ENDBRANCH  70  71
ENDBRANCH  69  70
ENDBRANCH   1  69
TORSDOF 22
ENDMDL
MODEL 3
REMARK VINA RESULT:     -10.1      5.960     11.650
REMARK SMILES O=C(OCCOCCOC(=O)c1cc(/C=C/c2cc(O)cc(O)c2)ccc1O)c1ccc(-c2c3nc(c(-c4ccc(S(=O)(=O)[O-])cc4)c4ccc([nH]4)c(-c4ccc(S(=O)(=O)[O-])cc4)c4nc(c(-c5ccc(S(=O)(=O)[O-])cc5)c5ccc2[nH]5)C=C4)C=C3)cc1
REMARK SMILES IDX 6 1 5 2 4 3 3 4 2 5 1 6 29 7 30 8 88 9 31 10 87 11 32 12
REMARK SMILES IDX 33 13 34 14 81 15 35 16 86 17 80 18 82 19 36 20 85 21 79 22
REMARK SMILES IDX 78 23 37 25 67 26 48 27 66 28 49 29 52 30 65 31 83 32 50 33
REMARK SMILES IDX 51 34 64 36 84 37 53 38 38 39 39 40 47 41 40 42 46 43 41 44
REMARK SMILES IDX 42 45 43 46 44 47 45 48 68 49 69 50 77 51 70 52 76 53 71 54
REMARK SMILES IDX 72 55 73 56 74 57 75 58 54 59 55 60 63 61 56 62 62 63 57 64
REMARK SMILES IDX 58 65 59 66 60 67 61 68 7 69 8 70 9 71 10 72 11 73 12 74
REMARK SMILES IDX 13 75 27 76 14 77 26 78 25 79 28 80 15 82 16 83 17 84 18 85
REMARK SMILES IDX 24 86 19 87 22 88 21 89 20 90 23 92
REMARK H PARENT 82 24 52 35 28 81 20 91 23 93
REMARK Flexibility Score: inf
ROOT
ATOM      1  O   UNL A   1      30.729  29.577  24.862  1.00  0.00    -0.374 OA
ENDROOT
BRANCH   1   2
ATOM      2  C   UNL A   1      32.074  29.934  25.173  1.00  0.00     0.202 C 
BRANCH   2   3
ATOM      3  C   UNL A   1      32.244  30.629  26.526  1.00  0.00     0.261 C 
BRANCH   3   4
ATOM      4  O   UNL A   1      33.570  30.414  27.039  1.00  0.00    -0.460 OA
BRANCH   4   5
ATOM      5  C   UNL A   1      34.328  31.255  27.783  1.00  0.00     0.338 C 
ATOM      6  O   UNL A   1      33.918  32.399  27.973  1.00  0.00    -0.246 OA
BRANCH   5   7
ATOM      7  C   UNL A   1      35.638  30.869  28.391  1.00  0.00     0.060 A 
ATOM      8  C   UNL A   1      35.895  29.644  29.001  1.00  0.00     0.016 A 
ATOM      9  C   UNL A   1      36.709  31.770  28.255  1.00  0.00     0.016 A 
ATOM     10  C   UNL A   1      37.138  29.336  29.524  1.00  0.00     0.010 A 
ATOM     11  C   UNL A   1      37.986  31.448  28.733  1.00  0.00     0.010 A 
ATOM     12  C   UNL A   1      38.196  30.228  29.383  1.00  0.00    -0.014 A 
BRANCH  12  13
ATOM     13  C   UNL A   1      39.474  29.848  30.008  1.00  0.00     0.031 A 
ATOM     14  C   UNL A   1      39.857  30.491  31.304  1.00  0.00     0.074 A 
ATOM     15  C   UNL A   1      40.156  28.801  29.505  1.00  0.00     0.049 A 
ATOM     16  N   UNL A   1      40.895  30.264  32.060  1.00  0.00    -0.248 NA
ATOM     17  C   UNL A   1      38.934  31.511  31.835  1.00  0.00     0.031 C 
ATOM     18  C   UNL A   1      39.770  28.038  28.311  1.00  0.00     0.029 A 
ATOM     19  N   UNL A   1      41.276  28.159  29.958  1.00  0.00    -0.354 N 
ATOM     20  C   UNL A   1      40.757  31.113  33.149  1.00  0.00     0.074 A 
ATOM     21  C   UNL A   1      39.544  31.875  32.951  1.00  0.00     0.031 C 
ATOM     22  C   UNL A   1      40.616  27.009  28.153  1.00  0.00     0.029 A 
ATOM     23  C   UNL A   1      41.641  27.078  29.187  1.00  0.00     0.049 A 
ATOM     24  H   UNL A   1      41.775  28.442  30.758  1.00  0.00     0.167 HD
ATOM     25  C   UNL A   1      41.577  31.243  34.217  1.00  0.00     0.031 A 
ATOM     26  C   UNL A   1      42.703  26.258  29.295  1.00  0.00     0.031 A 
ATOM     27  C   UNL A   1      42.792  30.490  34.370  1.00  0.00     0.049 A 
ATOM     28  C   UNL A   1      43.658  26.500  30.433  1.00  0.00     0.074 A 
ATOM     29  C   UNL A   1      43.766  30.604  35.342  1.00  0.00     0.029 A 
ATOM     30  N   UNL A   1      43.189  29.469  33.516  1.00  0.00    -0.354 N 
ATOM     31  N   UNL A   1      43.566  27.374  31.410  1.00  0.00    -0.248 NA
ATOM     32  C   UNL A   1      44.857  25.657  30.483  1.00  0.00     0.031 C 
ATOM     33  C   UNL A   1      44.774  29.677  35.052  1.00  0.00     0.029 A 
ATOM     34  C   UNL A   1      44.400  28.948  33.933  1.00  0.00     0.049 A 
ATOM     35  H   UNL A   1      42.683  29.161  32.729  1.00  0.00     0.167 HD
ATOM     36  C   UNL A   1      44.697  27.184  32.194  1.00  0.00     0.074 A 
ATOM     37  C   UNL A   1      45.437  26.089  31.596  1.00  0.00     0.031 C 
ATOM     38  C   UNL A   1      45.100  27.858  33.301  1.00  0.00     0.031 A 
BRANCH  25  39
ATOM     39  C   UNL A   1      41.209  32.280  35.241  1.00  0.00    -0.014 A 
ATOM     40  C   UNL A   1      40.294  31.996  36.272  1.00  0.00     0.010 A 
ATOM     41  C   UNL A   1      41.764  33.570  35.153  1.00  0.00     0.010 A 
ATOM     42  C   UNL A   1      39.911  32.996  37.172  1.00  0.00     0.020 A 
ATOM     43  C   UNL A   1      41.400  34.565  36.065  1.00  0.00     0.020 A 
ATOM     44  C   UNL A   1      40.461  34.276  37.058  1.00  0.00     0.054 A 
BRANCH  44  45
ATOM     45  S   UNL A   1      39.942  35.557  38.232  1.00  0.00     0.124 S 
ATOM     46  O   UNL A   1      41.154  35.745  39.027  1.00  0.00    -0.237 OA
ATOM     47  O   UNL A   1      39.587  36.671  37.356  1.00  0.00    -0.237 OA
ATOM     48  O   UNL A   1      38.821  34.944  38.941  1.00  0.00    -0.744 OA
ENDBRANCH  44  45
ENDBRANCH  25  39
BRANCH  26  49
ATOM     49  C   UNL A   1      42.961  25.211  28.265  1.00  0.00    -0.014 A 
ATOM     50  C   UNL A   1      42.325  23.959  28.311  1.00  0.00     0.010 A 
ATOM     51  C   UNL A   1      43.880  25.465  27.228  1.00  0.00     0.010 A 
ATOM     52  C   UNL A   1      42.626  22.973  27.362  1.00  0.00     0.020 A 
ATOM     53  C   UNL A   1      44.160  24.497  26.259  1.00  0.00     0.020 A 
ATOM     54  C   UNL A   1      43.547  23.248  26.345  1.00  0.00     0.054 A 
BRANCH  54  55
ATOM     55  S   UNL A   1      43.923  21.965  25.118  1.00  0.00     0.124 S 
ATOM     56  O   UNL A   1      45.339  21.715  25.366  1.00  0.00    -0.237 OA
ATOM     57  O   UNL A   1      43.013  20.885  25.495  1.00  0.00    -0.237 OA
ATOM     58  O   UNL A   1      43.615  22.610  23.844  1.00  0.00    -0.744 OA
ENDBRANCH  54  55
ENDBRANCH  26  49
BRANCH  38  59
ATOM     59  C   UNL A   1      46.383  27.404  33.935  1.00  0.00    -0.014 A 
ATOM     60  C   UNL A   1      46.392  26.396  34.915  1.00  0.00     0.010 A 
ATOM     61  C   UNL A   1      47.600  27.968  33.512  1.00  0.00     0.010 A 
ATOM     62  C   UNL A   1      47.596  25.984  35.487  1.00  0.00     0.020 A 
ATOM     63  C   UNL A   1      48.807  27.538  34.062  1.00  0.00     0.020 A 
ATOM     64  C   UNL A   1      48.795  26.559  35.059  1.00  0.00     0.054 A 
BRANCH  64  65
ATOM     65  S   UNL A   1      50.350  25.982  35.788  1.00  0.00     0.124 S 
ATOM     66  O   UNL A   1      50.045  24.583  36.080  1.00  0.00    -0.237 OA
ATOM     67  O   UNL A   1      51.313  26.204  34.712  1.00  0.00    -0.237 OA
ATOM     68  O   UNL A   1      50.523  26.840  36.957  1.00  0.00    -0.744 OA
ENDBRANCH  64  65
ENDBRANCH  38  59
ENDBRANCH  12  13
ENDBRANCH   5   7
ENDBRANCH   4   5
ENDBRANCH   3   4
ENDBRANCH   2   3
ENDBRANCH   1   2
BRANCH   1  69
ATOM     69  C   UNL A   1      30.555  28.731  23.721  1.00  0.00     0.202 C 
BRANCH  69  70
ATOM     70  C   UNL A   1      31.541  27.564  23.809  1.00  0.00     0.261 C 
BRANCH  70  71
ATOM     71  O   UNL A   1      30.928  26.538  24.603  1.00  0.00    -0.460 OA
BRANCH  71  72
ATOM     72  C   UNL A   1      31.377  26.429  25.883  1.00  0.00     0.342 C 
ATOM     73  O   UNL A   1      30.772  26.668  26.908  1.00  0.00    -0.246 OA
BRANCH  72  74
ATOM     74  C   UNL A   1      32.656  25.685  25.836  1.00  0.00     0.102 A 
ATOM     75  C   UNL A   1      32.600  24.321  25.484  1.00  0.00     0.027 A 
ATOM     76  C   UNL A   1      33.888  26.316  26.013  1.00  0.00     0.130 A 
ATOM     77  C   UNL A   1      33.776  23.609  25.229  1.00  0.00    -0.025 A 
ATOM     78  C   UNL A   1      35.064  25.606  25.803  1.00  0.00     0.048 A 
ATOM     79  C   UNL A   1      35.004  24.268  25.403  1.00  0.00     0.012 A 
BRANCH  76  80
ATOM     80  O   UNL A   1      33.951  27.622  26.407  1.00  0.00    -0.507 OA
ATOM     81  H   UNL A   1      33.269  27.986  26.935  1.00  0.00     0.293 HD
ENDBRANCH  76  80
BRANCH  77  82
ATOM     82  C   UNL A   1      33.816  22.192  24.828  1.00  0.00     0.009 C 
ATOM     83  C   UNL A   1      32.787  21.417  24.437  1.00  0.00     0.009 C 
BRANCH  83  84
ATOM     84  C   UNL A   1      32.988  20.006  24.048  1.00  0.00    -0.018 A 
ATOM     85  C   UNL A   1      33.964  19.215  24.678  1.00  0.00     0.054 A 
ATOM     86  C   UNL A   1      32.187  19.426  23.053  1.00  0.00     0.054 A 
ATOM     87  C   UNL A   1      34.162  17.894  24.282  1.00  0.00     0.119 A 
ATOM     88  C   UNL A   1      32.400  18.098  22.675  1.00  0.00     0.119 A 
ATOM     89  C   UNL A   1      33.391  17.331  23.275  1.00  0.00     0.092 A 
BRANCH  87  90
ATOM     90  O   UNL A   1      35.119  17.117  24.867  1.00  0.00    -0.508 OA
ATOM     91  H   UNL A   1      35.908  17.508  25.187  1.00  0.00     0.293 HD
ENDBRANCH  87  90
BRANCH  88  92
ATOM     92  O   UNL A   1      31.653  17.502  21.702  1.00  0.00    -0.508 OA
ATOM     93  H   UNL A   1      30.743  17.710  21.615  1.00  0.00     0.293 HD
ENDBRANCH  88  92
ENDBRANCH  83  84
ENDBRANCH  77  82
ENDBRANCH  72  74
ENDBRANCH  71  72
ENDBRANCH  70  71
ENDBRANCH  69  70
ENDBRANCH   1  69
TORSDOF 22
ENDMDL
