MODEL 1
REMARK VINA RESULT:     -11.9      0.000      0.000
REMARK SMILES O=C(OCCOCCOC(=O)C1CCN(C2=[NH+]C(Cl)=[NH+]C3=[NH+]C=N[C@@H]32)CC1)c1ccc(-c2c3nc(c(-c4ccc(S(=O)(=O)[O-])cc4)c4ccc([nH]4)c(-c4ccc(S(=O)(=O)[O-])cc4)c4nc(c(-c5ccc(S(=O)(=O)[O-])cc5)c5ccc2[nH]5)C=C4)C=C3)cc1
REMARK SMILES IDX 4 1 3 2 2 3 1 4 28 5 29 6 87 7 30 8 86 9 31 10 32 11 33 12
REMARK SMILES IDX 80 13 34 14 85 15 79 16 81 17 35 18 84 19 78 20 77 21 36 23
REMARK SMILES IDX 66 24 47 25 65 26 48 27 51 28 64 29 82 30 49 31 50 32 63 34
REMARK SMILES IDX 83 35 52 36 37 37 38 38 46 39 39 40 45 41 40 42 41 43 42 44
REMARK SMILES IDX 43 45 44 46 67 47 68 48 76 49 69 50 75 51 70 52 71 53 72 54
REMARK SMILES IDX 73 55 74 56 53 57 54 58 62 59 55 60 61 61 56 62 57 63 58 64
REMARK SMILES IDX 59 65 60 66 5 67 6 68 7 69 8 70 9 71 10 72 11 73 12 74 13 75
REMARK SMILES IDX 27 76 14 77 26 78 15 79 16 80 17 81 25 82 18 83 21 85 24 86
REMARK SMILES IDX 19 87 20 88 22 89 23 90
REMARK H PARENT 81 22 51 33 17 84 20 91 22 92
REMARK Flexibility Score: inf
ROOT
ATOM      1  C   UNL A   1      37.540  21.429  25.364  1.00  0.00     0.261 C 
ENDROOT
BRANCH   1   2
ATOM      2  O   UNL A   1      38.315  22.569  25.781  1.00  0.00    -0.460 OA
BRANCH   2   3
ATOM      3  C   UNL A   1      39.426  22.479  26.542  1.00  0.00     0.338 C 
ATOM      4  O   UNL A   1      39.958  21.391  26.754  1.00  0.00    -0.246 OA
BRANCH   3   5
ATOM      5  C   UNL A   1      40.117  23.742  26.920  1.00  0.00     0.060 A 
ATOM      6  C   UNL A   1      41.237  23.802  27.746  1.00  0.00     0.016 A 
ATOM      7  C   UNL A   1      39.535  24.936  26.470  1.00  0.00     0.016 A 
ATOM      8  C   UNL A   1      41.582  24.981  28.358  1.00  0.00     0.010 A 
ATOM      9  C   UNL A   1      39.934  26.142  27.015  1.00  0.00     0.010 A 
ATOM     10  C   UNL A   1      40.868  26.129  28.047  1.00  0.00    -0.014 A 
BRANCH  10  11
ATOM     11  C   UNL A   1      41.163  27.298  28.851  1.00  0.00     0.031 A 
ATOM     12  C   UNL A   1      42.413  28.008  28.474  1.00  0.00     0.074 A 
ATOM     13  C   UNL A   1      40.328  27.679  29.834  1.00  0.00     0.049 A 
ATOM     14  N   UNL A   1      43.465  28.230  29.193  1.00  0.00    -0.248 NA
ATOM     15  C   UNL A   1      42.564  28.379  27.056  1.00  0.00     0.031 C 
ATOM     16  C   UNL A   1      38.982  27.169  30.119  1.00  0.00     0.029 A 
ATOM     17  N   UNL A   1      40.453  28.715  30.700  1.00  0.00    -0.354 N 
ATOM     18  C   UNL A   1      44.331  28.955  28.377  1.00  0.00     0.074 A 
ATOM     19  C   UNL A   1      43.802  28.866  27.041  1.00  0.00     0.031 C 
ATOM     20  C   UNL A   1      38.320  28.078  30.868  1.00  0.00     0.029 A 
ATOM     21  C   UNL A   1      39.241  29.141  31.227  1.00  0.00     0.049 A 
ATOM     22  H   UNL A   1      41.318  29.124  30.933  1.00  0.00     0.167 HD
ATOM     23  C   UNL A   1      45.277  29.790  28.891  1.00  0.00     0.031 A 
ATOM     24  C   UNL A   1      38.997  30.343  31.804  1.00  0.00     0.031 A 
ATOM     25  C   UNL A   1      45.589  29.475  30.257  1.00  0.00     0.049 A 
ATOM     26  C   UNL A   1      40.308  30.914  32.205  1.00  0.00     0.074 A 
ATOM     27  C   UNL A   1      46.112  28.374  30.905  1.00  0.00     0.029 A 
ATOM     28  N   UNL A   1      45.012  30.252  31.235  1.00  0.00    -0.354 N 
ATOM     29  N   UNL A   1      41.070  30.385  33.122  1.00  0.00    -0.248 NA
ATOM     30  C   UNL A   1      40.988  31.800  31.271  1.00  0.00     0.031 C 
ATOM     31  C   UNL A   1      45.414  28.311  32.146  1.00  0.00     0.029 A 
ATOM     32  C   UNL A   1      44.550  29.406  32.210  1.00  0.00     0.049 A 
ATOM     33  H   UNL A   1      44.944  31.233  31.236  1.00  0.00     0.167 HD
ATOM     34  C   UNL A   1      42.365  30.523  32.640  1.00  0.00     0.074 A 
ATOM     35  C   UNL A   1      42.258  31.488  31.547  1.00  0.00     0.031 C 
ATOM     36  C   UNL A   1      43.349  29.640  32.985  1.00  0.00     0.031 A 
BRANCH  23  37
ATOM     37  C   UNL A   1      45.569  31.145  28.284  1.00  0.00    -0.014 A 
ATOM     38  C   UNL A   1      44.550  32.120  28.275  1.00  0.00     0.010 A 
ATOM     39  C   UNL A   1      46.687  31.385  27.458  1.00  0.00     0.010 A 
ATOM     40  C   UNL A   1      44.600  33.211  27.397  1.00  0.00     0.020 A 
ATOM     41  C   UNL A   1      46.767  32.491  26.613  1.00  0.00     0.020 A 
ATOM     42  C   UNL A   1      45.699  33.372  26.553  1.00  0.00     0.054 A 
BRANCH  42  43
ATOM     43  S   UNL A   1      45.683  34.681  25.306  1.00  0.00     0.124 S 
ATOM     44  O   UNL A   1      45.112  35.796  26.055  1.00  0.00    -0.237 OA
ATOM     45  O   UNL A   1      47.098  34.801  24.966  1.00  0.00    -0.237 OA
ATOM     46  O   UNL A   1      44.837  34.135  24.248  1.00  0.00    -0.744 OA
ENDBRANCH  42  43
ENDBRANCH  23  37
BRANCH  24  47
ATOM     47  C   UNL A   1      37.763  31.154  31.644  1.00  0.00    -0.014 A 
ATOM     48  C   UNL A   1      36.641  30.942  32.462  1.00  0.00     0.010 A 
ATOM     49  C   UNL A   1      37.780  32.317  30.844  1.00  0.00     0.010 A 
ATOM     50  C   UNL A   1      35.598  31.884  32.513  1.00  0.00     0.020 A 
ATOM     51  C   UNL A   1      36.743  33.253  30.879  1.00  0.00     0.020 A 
ATOM     52  C   UNL A   1      35.664  33.043  31.731  1.00  0.00     0.054 A 
BRANCH  52  53
ATOM     53  S   UNL A   1      34.397  34.331  31.922  1.00  0.00     0.124 S 
ATOM     54  O   UNL A   1      35.178  35.466  32.405  1.00  0.00    -0.237 OA
ATOM     55  O   UNL A   1      33.866  34.458  30.568  1.00  0.00    -0.237 OA
ATOM     56  O   UNL A   1      33.469  33.760  32.898  1.00  0.00    -0.744 OA
ENDBRANCH  52  53
ENDBRANCH  24  47
BRANCH  36  57
ATOM     57  C   UNL A   1      43.076  28.657  34.100  1.00  0.00    -0.014 A 
ATOM     58  C   UNL A   1      43.239  28.966  35.465  1.00  0.00     0.010 A 
ATOM     59  C   UNL A   1      42.470  27.435  33.759  1.00  0.00     0.010 A 
ATOM     60  C   UNL A   1      42.828  28.065  36.460  1.00  0.00     0.020 A 
ATOM     61  C   UNL A   1      42.043  26.541  34.744  1.00  0.00     0.020 A 
ATOM     62  C   UNL A   1      42.230  26.857  36.090  1.00  0.00     0.054 A 
BRANCH  62  63
ATOM     63  S   UNL A   1      41.650  25.717  37.379  1.00  0.00     0.124 S 
ATOM     64  O   UNL A   1      40.316  26.228  37.680  1.00  0.00    -0.237 OA
ATOM     65  O   UNL A   1      41.690  24.419  36.706  1.00  0.00    -0.237 OA
ATOM     66  O   UNL A   1      42.631  25.876  38.452  1.00  0.00    -0.744 OA
ENDBRANCH  62  63
ENDBRANCH  36  57
ENDBRANCH  10  11
ENDBRANCH   3   5
ENDBRANCH   2   3
ENDBRANCH   1   2
BRANCH   1  67
ATOM     67  C   UNL A   1      36.029  21.617  25.498  1.00  0.00     0.202 C 
BRANCH  67  68
ATOM     68  O   UNL A   1      35.142  20.890  24.655  1.00  0.00    -0.374 OA
BRANCH  68  69
ATOM     69  C   UNL A   1      33.982  20.268  25.229  1.00  0.00     0.202 C 
BRANCH  69  70
ATOM     70  C   UNL A   1      32.590  20.470  24.607  1.00  0.00     0.261 C 
BRANCH  70  71
ATOM     71  O   UNL A   1      32.076  21.790  24.814  1.00  0.00    -0.463 OA
BRANCH  71  72
ATOM     72  C   UNL A   1      32.100  22.595  23.724  1.00  0.00     0.309 C 
ATOM     73  O   UNL A   1      32.761  22.375  22.707  1.00  0.00    -0.252 OA
BRANCH  72  74
ATOM     74  C   UNL A   1      31.107  23.748  23.828  1.00  0.00     0.108 C 
ATOM     75  C   UNL A   1      31.565  24.850  22.879  1.00  0.00     0.070 C 
ATOM     76  C   UNL A   1      30.923  24.313  25.244  1.00  0.00     0.070 C 
ATOM     77  C   UNL A   1      32.872  25.427  23.394  1.00  0.00     0.277 C 
ATOM     78  C   UNL A   1      32.193  24.996  25.755  1.00  0.00     0.277 C 
ATOM     79  N   UNL A   1      32.677  25.938  24.747  1.00  0.00    -0.230 N 
ATOM     80  C   UNL A   1      33.001  27.241  25.065  1.00  0.00     0.383 C 
ATOM     81  N   UNL A   1      33.655  27.540  26.152  1.00  0.00    -0.155 N 
ATOM     82  C   UNL A   1      32.618  28.345  24.101  1.00  0.00     0.523 C 
ATOM     83  C   UNL A   1      34.017  28.849  26.355  1.00  0.00     0.414 C 
ATOM     84  H   UNL A   1      33.884  26.845  26.811  1.00  0.00     0.367 HD
ATOM     85  C   UNL A   1      32.504  29.561  24.932  1.00  0.00     0.389 C 
ATOM     86  N   UNL A   1      31.237  28.231  23.580  1.00  0.00     0.003 NA
ATOM     87  Cl  UNL A   1      35.314  29.095  27.445  1.00  0.00     0.028 Cl
ATOM     88  N   UNL A   1      33.493  29.889  25.790  1.00  0.00    -0.155 N 
ATOM     89  N   UNL A   1      31.370  30.155  24.829  1.00  0.00    -0.169 N 
ATOM     90  C   UNL A   1      30.651  29.306  24.022  1.00  0.00     0.532 C 
ATOM     91  H   UNL A   1      33.783  30.813  25.966  1.00  0.00     0.367 HD
ATOM     92  H   UNL A   1      31.086  31.008  25.230  1.00  0.00     0.365 HD
ENDBRANCH  72  74
ENDBRANCH  71  72
ENDBRANCH  70  71
ENDBRANCH  69  70
ENDBRANCH  68  69
ENDBRANCH  67  68
ENDBRANCH   1  67
TORSDOF 17
ENDMDL
MODEL 2
REMARK VINA RESULT:     -11.8      3.029      9.243
REMARK SMILES O=C(OCCOCCOC(=O)C1CCN(C2=[NH+]C(Cl)=[NH+]C3=[NH+]C=N[C@@H]32)CC1)c1ccc(-c2c3nc(c(-c4ccc(S(=O)(=O)[O-])cc4)c4ccc([nH]4)c(-c4ccc(S(=O)(=O)[O-])cc4)c4nc(c(-c5ccc(S(=O)(=O)[O-])cc5)c5ccc2[nH]5)C=C4)C=C3)cc1
REMARK SMILES IDX 4 1 3 2 2 3 1 4 28 5 29 6 87 7 30 8 86 9 31 10 32 11 33 12
REMARK SMILES IDX 80 13 34 14 85 15 79 16 81 17 35 18 84 19 78 20 77 21 36 23
REMARK SMILES IDX 66 24 47 25 65 26 48 27 51 28 64 29 82 30 49 31 50 32 63 34
REMARK SMILES IDX 83 35 52 36 37 37 38 38 46 39 39 40 45 41 40 42 41 43 42 44
REMARK SMILES IDX 43 45 44 46 67 47 68 48 76 49 69 50 75 51 70 52 71 53 72 54
REMARK SMILES IDX 73 55 74 56 53 57 54 58 62 59 55 60 61 61 56 62 57 63 58 64
REMARK SMILES IDX 59 65 60 66 5 67 6 68 7 69 8 70 9 71 10 72 11 73 12 74 13 75
REMARK SMILES IDX 27 76 14 77 26 78 15 79 16 80 17 81 25 82 18 83 21 85 24 86
REMARK SMILES IDX 19 87 20 88 22 89 23 90
REMARK H PARENT 81 22 51 33 17 84 20 91 22 92
REMARK Flexibility Score: inf
ROOT
ATOM      1  C   UNL A   1      32.934  29.961  27.192  1.00  0.00     0.261 C 
ENDROOT
BRANCH   1   2
ATOM      2  O   UNL A   1      34.244  30.425  26.810  1.00  0.00    -0.460 OA
BRANCH   2   3
ATOM      3  C   UNL A   1      34.976  31.285  27.548  1.00  0.00     0.338 C 
ATOM      4  O   UNL A   1      34.589  32.435  27.743  1.00  0.00    -0.246 OA
BRANCH   3   5
ATOM      5  C   UNL A   1      36.135  30.742  28.306  1.00  0.00     0.060 A 
ATOM      6  C   UNL A   1      37.005  31.520  29.067  1.00  0.00     0.016 A 
ATOM      7  C   UNL A   1      36.394  29.371  28.162  1.00  0.00     0.016 A 
ATOM      8  C   UNL A   1      38.243  31.038  29.410  1.00  0.00     0.010 A 
ATOM      9  C   UNL A   1      37.605  28.852  28.584  1.00  0.00     0.010 A 
ATOM     10  C   UNL A   1      38.562  29.727  29.089  1.00  0.00    -0.014 A 
BRANCH  10  11
ATOM     11  C   UNL A   1      39.938  29.333  29.319  1.00  0.00     0.031 A 
ATOM     12  C   UNL A   1      40.312  29.203  30.752  1.00  0.00     0.074 A 
ATOM     13  C   UNL A   1      40.763  29.094  28.284  1.00  0.00     0.049 A 
ATOM     14  N   UNL A   1      41.220  29.846  31.411  1.00  0.00    -0.248 NA
ATOM     15  C   UNL A   1      39.447  28.354  31.589  1.00  0.00     0.031 C 
ATOM     16  C   UNL A   1      40.414  28.985  26.863  1.00  0.00     0.029 A 
ATOM     17  N   UNL A   1      42.074  28.751  28.305  1.00  0.00    -0.354 N 
ATOM     18  C   UNL A   1      41.180  29.329  32.705  1.00  0.00     0.074 A 
ATOM     19  C   UNL A   1      39.972  28.552  32.796  1.00  0.00     0.031 C 
ATOM     20  C   UNL A   1      41.399  28.320  26.222  1.00  0.00     0.029 A 
ATOM     21  C   UNL A   1      42.491  28.098  27.153  1.00  0.00     0.049 A 
ATOM     22  H   UNL A   1      42.673  28.945  29.062  1.00  0.00     0.167 HD
ATOM     23  C   UNL A   1      42.264  29.363  33.529  1.00  0.00     0.031 A 
ATOM     24  C   UNL A   1      43.598  27.327  27.024  1.00  0.00     0.031 A 
ATOM     25  C   UNL A   1      43.216  30.362  33.128  1.00  0.00     0.049 A 
ATOM     26  C   UNL A   1      44.513  27.681  28.139  1.00  0.00     0.074 A 
ATOM     27  C   UNL A   1      43.186  31.735  33.000  1.00  0.00     0.029 A 
ATOM     28  N   UNL A   1      44.321  29.939  32.425  1.00  0.00    -0.354 N 
ATOM     29  N   UNL A   1      45.078  28.851  28.258  1.00  0.00    -0.248 NA
ATOM     30  C   UNL A   1      44.437  26.902  29.366  1.00  0.00     0.031 C 
ATOM     31  C   UNL A   1      43.981  32.016  31.851  1.00  0.00     0.029 A 
ATOM     32  C   UNL A   1      44.496  30.807  31.379  1.00  0.00     0.049 A 
ATOM     33  H   UNL A   1      44.882  29.159  32.635  1.00  0.00     0.167 HD
ATOM     34  C   UNL A   1      45.044  29.131  29.618  1.00  0.00     0.074 A 
ATOM     35  C   UNL A   1      44.729  27.854  30.258  1.00  0.00     0.031 C 
ATOM     36  C   UNL A   1      44.997  30.418  30.077  1.00  0.00     0.031 A 
BRANCH  23  37
ATOM     37  C   UNL A   1      42.641  28.192  34.411  1.00  0.00    -0.014 A 
ATOM     38  C   UNL A   1      42.931  28.429  35.770  1.00  0.00     0.010 A 
ATOM     39  C   UNL A   1      43.019  26.936  33.889  1.00  0.00     0.010 A 
ATOM     40  C   UNL A   1      43.662  27.504  36.527  1.00  0.00     0.020 A 
ATOM     41  C   UNL A   1      43.708  25.990  34.646  1.00  0.00     0.020 A 
ATOM     42  C   UNL A   1      44.069  26.302  35.947  1.00  0.00     0.054 A 
BRANCH  42  43
ATOM     43  S   UNL A   1      45.154  25.188  36.870  1.00  0.00     0.124 S 
ATOM     44  O   UNL A   1      44.378  24.957  38.084  1.00  0.00    -0.237 OA
ATOM     45  O   UNL A   1      45.270  24.049  35.964  1.00  0.00    -0.237 OA
ATOM     46  O   UNL A   1      46.377  25.969  37.043  1.00  0.00    -0.744 OA
ENDBRANCH  42  43
ENDBRANCH  23  37
BRANCH  24  47
ATOM     47  C   UNL A   1      43.696  26.063  26.252  1.00  0.00    -0.014 A 
ATOM     48  C   UNL A   1      44.810  25.788  25.441  1.00  0.00     0.010 A 
ATOM     49  C   UNL A   1      42.798  25.003  26.512  1.00  0.00     0.010 A 
ATOM     50  C   UNL A   1      45.042  24.491  24.950  1.00  0.00     0.020 A 
ATOM     51  C   UNL A   1      43.015  23.714  26.018  1.00  0.00     0.020 A 
ATOM     52  C   UNL A   1      44.150  23.457  25.256  1.00  0.00     0.054 A 
BRANCH  52  53
ATOM     53  S   UNL A   1      44.540  21.755  24.757  1.00  0.00     0.124 S 
ATOM     54  O   UNL A   1      44.534  21.850  23.299  1.00  0.00    -0.237 OA
ATOM     55  O   UNL A   1      45.846  21.535  25.370  1.00  0.00    -0.237 OA
ATOM     56  O   UNL A   1      43.449  20.969  25.330  1.00  0.00    -0.744 OA
ENDBRANCH  52  53
ENDBRANCH  24  47
BRANCH  36  57
ATOM     57  C   UNL A   1      45.242  31.541  29.095  1.00  0.00    -0.014 A 
ATOM     58  C   UNL A   1      46.524  32.034  28.783  1.00  0.00     0.010 A 
ATOM     59  C   UNL A   1      44.147  31.996  28.338  1.00  0.00     0.010 A 
ATOM     60  C   UNL A   1      46.702  32.974  27.755  1.00  0.00     0.020 A 
ATOM     61  C   UNL A   1      44.319  32.918  27.303  1.00  0.00     0.020 A 
ATOM     62  C   UNL A   1      45.594  33.408  27.020  1.00  0.00     0.054 A 
BRANCH  62  63
ATOM     63  S   UNL A   1      45.833  34.583  25.656  1.00  0.00     0.124 S 
ATOM     64  O   UNL A   1      44.936  34.064  24.628  1.00  0.00    -0.237 OA
ATOM     65  O   UNL A   1      45.437  35.858  26.253  1.00  0.00    -0.237 OA
ATOM     66  O   UNL A   1      47.259  34.473  25.347  1.00  0.00    -0.744 OA
ENDBRANCH  62  63
ENDBRANCH  36  57
ENDBRANCH  10  11
ENDBRANCH   3   5
ENDBRANCH   2   3
ENDBRANCH   1   2
BRANCH   1  67
ATOM     67  C   UNL A   1      32.768  28.442  27.132  1.00  0.00     0.202 C 
BRANCH  67  68
ATOM     68  O   UNL A   1      32.970  27.751  25.905  1.00  0.00    -0.374 OA
BRANCH  68  69
ATOM     69  C   UNL A   1      32.395  28.279  24.700  1.00  0.00     0.202 C 
BRANCH  69  70
ATOM     70  C   UNL A   1      30.921  28.014  24.347  1.00  0.00     0.261 C 
BRANCH  70  71
ATOM     71  O   UNL A   1      30.726  26.756  23.691  1.00  0.00    -0.463 OA
BRANCH  71  72
ATOM     72  C   UNL A   1      30.361  25.734  24.502  1.00  0.00     0.309 C 
ATOM     73  O   UNL A   1      29.651  25.855  25.502  1.00  0.00    -0.252 OA
BRANCH  72  74
ATOM     74  C   UNL A   1      30.814  24.378  23.971  1.00  0.00     0.108 C 
ATOM     75  C   UNL A   1      31.016  23.449  25.163  1.00  0.00     0.070 C 
ATOM     76  C   UNL A   1      32.084  24.415  23.109  1.00  0.00     0.070 C 
ATOM     77  C   UNL A   1      32.195  23.950  25.978  1.00  0.00     0.277 C 
ATOM     78  C   UNL A   1      33.315  24.815  23.925  1.00  0.00     0.277 C 
ATOM     79  N   UNL A   1      33.384  23.996  25.134  1.00  0.00    -0.230 N 
ATOM     80  C   UNL A   1      34.541  23.342  25.504  1.00  0.00     0.383 C 
ATOM     81  N   UNL A   1      35.711  23.909  25.411  1.00  0.00    -0.155 N 
ATOM     82  C   UNL A   1      34.439  21.940  26.071  1.00  0.00     0.523 C 
ATOM     83  C   UNL A   1      36.806  23.227  25.881  1.00  0.00     0.414 C 
ATOM     84  H   UNL A   1      35.807  24.805  25.012  1.00  0.00     0.367 HD
ATOM     85  C   UNL A   1      35.741  21.308  25.777  1.00  0.00     0.389 C 
ATOM     86  N   UNL A   1      33.522  21.056  25.316  1.00  0.00     0.003 NA
ATOM     87  Cl  UNL A   1      38.170  24.190  26.257  1.00  0.00     0.028 Cl
ATOM     88  N   UNL A   1      36.889  21.951  26.083  1.00  0.00    -0.155 N 
ATOM     89  N   UNL A   1      35.648  20.204  25.128  1.00  0.00    -0.169 N 
ATOM     90  C   UNL A   1      34.301  20.115  24.868  1.00  0.00     0.532 C 
ATOM     91  H   UNL A   1      37.696  21.501  26.421  1.00  0.00     0.367 HD
ATOM     92  H   UNL A   1      36.363  19.577  24.879  1.00  0.00     0.365 HD
ENDBRANCH  72  74
ENDBRANCH  71  72
ENDBRANCH  70  71
ENDBRANCH  69  70
ENDBRANCH  68  69
ENDBRANCH  67  68
ENDBRANCH   1  67
TORSDOF 17
ENDMDL
MODEL 3
REMARK VINA RESULT:     -11.7      1.088      1.790
REMARK SMILES O=C(OCCOCCOC(=O)C1CCN(C2=[NH+]C(Cl)=[NH+]C3=[NH+]C=N[C@@H]32)CC1)c1ccc(-c2c3nc(c(-c4ccc(S(=O)(=O)[O-])cc4)c4ccc([nH]4)c(-c4ccc(S(=O)(=O)[O-])cc4)c4nc(c(-c5ccc(S(=O)(=O)[O-])cc5)c5ccc2[nH]5)C=C4)C=C3)cc1
REMARK SMILES IDX 4 1 3 2 2 3 1 4 28 5 29 6 87 7 30 8 86 9 31 10 32 11 33 12
REMARK SMILES IDX 80 13 34 14 85 15 79 16 81 17 35 18 84 19 78 20 77 21 36 23
REMARK SMILES IDX 66 24 47 25 65 26 48 27 51 28 64 29 82 30 49 31 50 32 63 34
REMARK SMILES IDX 83 35 52 36 37 37 38 38 46 39 39 40 45 41 40 42 41 43 42 44
REMARK SMILES IDX 43 45 44 46 67 47 68 48 76 49 69 50 75 51 70 52 71 53 72 54
REMARK SMILES IDX 73 55 74 56 53 57 54 58 62 59 55 60 61 61 56 62 57 63 58 64
REMARK SMILES IDX 59 65 60 66 5 67 6 68 7 69 8 70 9 71 10 72 11 73 12 74 13 75
REMARK SMILES IDX 27 76 14 77 26 78 15 79 16 80 17 81 25 82 18 83 21 85 24 86
REMARK SMILES IDX 19 87 20 88 22 89 23 90
REMARK H PARENT 81 22 51 33 17 84 20 91 22 92
REMARK Flexibility Score: inf
ROOT
ATOM      1  C   UNL A   1      37.654  21.269  25.596  1.00  0.00     0.261 C 
ENDROOT
BRANCH   1   2
ATOM      2  O   UNL A   1      38.426  22.454  25.869  1.00  0.00    -0.460 OA
BRANCH   2   3
ATOM      3  C   UNL A   1      39.445  22.494  26.753  1.00  0.00     0.338 C 
ATOM      4  O   UNL A   1      39.965  21.457  27.161  1.00  0.00    -0.246 OA
BRANCH   3   5
ATOM      5  C   UNL A   1      40.070  23.813  27.038  1.00  0.00     0.060 A 
ATOM      6  C   UNL A   1      41.255  23.978  27.753  1.00  0.00     0.016 A 
ATOM      7  C   UNL A   1      39.360  24.949  26.621  1.00  0.00     0.016 A 
ATOM      8  C   UNL A   1      41.564  25.196  28.305  1.00  0.00     0.010 A 
ATOM      9  C   UNL A   1      39.715  26.196  27.101  1.00  0.00     0.010 A 
ATOM     10  C   UNL A   1      40.740  26.279  28.040  1.00  0.00    -0.014 A 
BRANCH  10  11
ATOM     11  C   UNL A   1      41.018  27.488  28.789  1.00  0.00     0.031 A 
ATOM     12  C   UNL A   1      42.195  28.257  28.306  1.00  0.00     0.074 A 
ATOM     13  C   UNL A   1      40.231  27.852  29.816  1.00  0.00     0.049 A 
ATOM     14  N   UNL A   1      43.278  28.562  28.942  1.00  0.00    -0.248 NA
ATOM     15  C   UNL A   1      42.226  28.590  26.871  1.00  0.00     0.031 C 
ATOM     16  C   UNL A   1      38.940  27.275  30.209  1.00  0.00     0.029 A 
ATOM     17  N   UNL A   1      40.352  28.920  30.643  1.00  0.00    -0.354 N 
ATOM     18  C   UNL A   1      44.042  29.310  28.048  1.00  0.00     0.074 A 
ATOM     19  C   UNL A   1      43.429  29.147  26.755  1.00  0.00     0.031 C 
ATOM     20  C   UNL A   1      38.279  28.167  30.977  1.00  0.00     0.029 A 
ATOM     21  C   UNL A   1      39.157  29.293  31.241  1.00  0.00     0.049 A 
ATOM     22  H   UNL A   1      41.205  29.386  30.803  1.00  0.00     0.167 HD
ATOM     23  C   UNL A   1      44.969  30.213  28.471  1.00  0.00     0.031 A 
ATOM     24  C   UNL A   1      38.881  30.496  31.801  1.00  0.00     0.031 A 
ATOM     25  C   UNL A   1      45.392  29.961  29.821  1.00  0.00     0.049 A 
ATOM     26  C   UNL A   1      40.180  31.154  32.093  1.00  0.00     0.074 A 
ATOM     27  C   UNL A   1      46.023  28.913  30.460  1.00  0.00     0.029 A 
ATOM     28  N   UNL A   1      44.838  30.734  30.814  1.00  0.00    -0.354 N 
ATOM     29  N   UNL A   1      41.033  30.699  32.969  1.00  0.00    -0.248 NA
ATOM     30  C   UNL A   1      40.740  32.047  31.089  1.00  0.00     0.031 C 
ATOM     31  C   UNL A   1      45.416  28.849  31.748  1.00  0.00     0.029 A 
ATOM     32  C   UNL A   1      44.495  29.894  31.842  1.00  0.00     0.049 A 
ATOM     33  H   UNL A   1      44.711  31.709  30.792  1.00  0.00     0.167 HD
ATOM     34  C   UNL A   1      42.281  30.896  32.393  1.00  0.00     0.074 A 
ATOM     35  C   UNL A   1      42.042  31.819  31.283  1.00  0.00     0.031 C 
ATOM     36  C   UNL A   1      43.338  30.083  32.693  1.00  0.00     0.031 A 
BRANCH  23  37
ATOM     37  C   UNL A   1      45.137  31.563  27.808  1.00  0.00    -0.014 A 
ATOM     38  C   UNL A   1      46.422  31.959  27.386  1.00  0.00     0.010 A 
ATOM     39  C   UNL A   1      44.149  32.569  27.867  1.00  0.00     0.010 A 
ATOM     40  C   UNL A   1      46.725  33.307  27.151  1.00  0.00     0.020 A 
ATOM     41  C   UNL A   1      44.428  33.907  27.593  1.00  0.00     0.020 A 
ATOM     42  C   UNL A   1      45.728  34.274  27.284  1.00  0.00     0.054 A 
BRANCH  42  43
ATOM     43  S   UNL A   1      46.159  36.025  27.148  1.00  0.00     0.124 S 
ATOM     44  O   UNL A   1      46.635  36.319  28.496  1.00  0.00    -0.237 OA
ATOM     45  O   UNL A   1      47.179  36.011  26.102  1.00  0.00    -0.237 OA
ATOM     46  O   UNL A   1      44.898  36.659  26.773  1.00  0.00    -0.744 OA
ENDBRANCH  42  43
ENDBRANCH  23  37
BRANCH  24  47
ATOM     47  C   UNL A   1      37.593  31.229  31.705  1.00  0.00    -0.014 A 
ATOM     48  C   UNL A   1      36.689  31.258  32.780  1.00  0.00     0.010 A 
ATOM     49  C   UNL A   1      37.363  32.117  30.631  1.00  0.00     0.010 A 
ATOM     50  C   UNL A   1      35.624  32.177  32.802  1.00  0.00     0.020 A 
ATOM     51  C   UNL A   1      36.301  33.025  30.639  1.00  0.00     0.020 A 
ATOM     52  C   UNL A   1      35.447  33.067  31.736  1.00  0.00     0.054 A 
BRANCH  52  53
ATOM     53  S   UNL A   1      34.172  34.356  31.845  1.00  0.00     0.124 S 
ATOM     54  O   UNL A   1      33.671  34.413  30.474  1.00  0.00    -0.237 OA
ATOM     55  O   UNL A   1      33.248  33.808  32.833  1.00  0.00    -0.237 OA
ATOM     56  O   UNL A   1      34.913  35.538  32.281  1.00  0.00    -0.744 OA
ENDBRANCH  52  53
ENDBRANCH  24  47
BRANCH  36  57
ATOM     57  C   UNL A   1      43.200  29.122  33.851  1.00  0.00    -0.014 A 
ATOM     58  C   UNL A   1      43.340  29.506  35.200  1.00  0.00     0.010 A 
ATOM     59  C   UNL A   1      42.746  27.821  33.570  1.00  0.00     0.010 A 
ATOM     60  C   UNL A   1      43.054  28.604  36.237  1.00  0.00     0.020 A 
ATOM     61  C   UNL A   1      42.443  26.925  34.597  1.00  0.00     0.020 A 
ATOM     62  C   UNL A   1      42.605  27.317  35.926  1.00  0.00     0.054 A 
BRANCH  62  63
ATOM     63  S   UNL A   1      42.185  26.170  37.269  1.00  0.00     0.124 S 
ATOM     64  O   UNL A   1      42.338  24.865  36.634  1.00  0.00    -0.237 OA
ATOM     65  O   UNL A   1      43.176  26.493  38.294  1.00  0.00    -0.237 OA
ATOM     66  O   UNL A   1      40.810  26.531  37.618  1.00  0.00    -0.744 OA
ENDBRANCH  62  63
ENDBRANCH  36  57
ENDBRANCH  10  11
ENDBRANCH   3   5
ENDBRANCH   2   3
ENDBRANCH   1   2
BRANCH   1  67
ATOM     67  C   UNL A   1      36.141  21.487  25.640  1.00  0.00     0.202 C 
BRANCH  67  68
ATOM     68  O   UNL A   1      35.280  20.673  24.850  1.00  0.00    -0.374 OA
BRANCH  68  69
ATOM     69  C   UNL A   1      33.991  20.308  25.367  1.00  0.00     0.202 C 
BRANCH  69  70
ATOM     70  C   UNL A   1      32.703  20.710  24.629  1.00  0.00     0.261 C 
BRANCH  70  71
ATOM     71  O   UNL A   1      32.326  22.070  24.874  1.00  0.00    -0.463 OA
BRANCH  71  72
ATOM     72  C   UNL A   1      32.561  22.926  23.849  1.00  0.00     0.309 C 
ATOM     73  O   UNL A   1      31.928  22.940  22.792  1.00  0.00    -0.252 OA
BRANCH  72  74
ATOM     74  C   UNL A   1      33.615  23.973  24.194  1.00  0.00     0.108 C 
ATOM     75  C   UNL A   1      33.283  24.538  25.570  1.00  0.00     0.070 C 
ATOM     76  C   UNL A   1      33.749  25.112  23.174  1.00  0.00     0.070 C 
ATOM     77  C   UNL A   1      31.985  25.322  25.477  1.00  0.00     0.277 C 
ATOM     78  C   UNL A   1      32.495  25.988  23.128  1.00  0.00     0.277 C 
ATOM     79  N   UNL A   1      32.131  26.384  24.488  1.00  0.00    -0.230 N 
ATOM     80  C   UNL A   1      31.869  27.699  24.817  1.00  0.00     0.383 C 
ATOM     81  N   UNL A   1      31.171  28.476  24.037  1.00  0.00    -0.155 N 
ATOM     82  C   UNL A   1      32.376  28.236  26.140  1.00  0.00     0.523 C 
ATOM     83  C   UNL A   1      30.879  29.745  24.474  1.00  0.00     0.414 C 
ATOM     84  H   UNL A   1      30.861  28.161  23.157  1.00  0.00     0.367 HD
ATOM     85  C   UNL A   1      32.515  29.692  25.938  1.00  0.00     0.389 C 
ATOM     86  N   UNL A   1      33.776  27.860  26.440  1.00  0.00     0.003 NA
ATOM     87  Cl  UNL A   1      29.537  30.494  23.720  1.00  0.00     0.028 Cl
ATOM     88  N   UNL A   1      31.498  30.401  25.401  1.00  0.00    -0.155 N 
ATOM     89  N   UNL A   1      33.688  30.144  26.204  1.00  0.00    -0.169 N 
ATOM     90  C   UNL A   1      34.400  29.002  26.482  1.00  0.00     0.532 C 
ATOM     91  H   UNL A   1      31.256  31.312  25.684  1.00  0.00     0.367 HD
ATOM     92  H   UNL A   1      33.999  31.077  26.208  1.00  0.00     0.365 HD
ENDBRANCH  72  74
ENDBRANCH  71  72
ENDBRANCH  70  71
ENDBRANCH  69  70
ENDBRANCH  68  69
ENDBRANCH  67  68
ENDBRANCH   1  67
TORSDOF 17
ENDMDL
