MODEL 1
REMARK VINA RESULT:     -10.4      0.000      0.000
REMARK SMILES O=C(OCCOCCOC(=O)c1ccccc1C(=O)N1CCCc2ccccc21)c1ccc(-c2c3nc(c(-c4ccc(S(=O)(=O)[O-])cc4)c4ccc([nH]4)c(-c4ccc(S(=O)(=O)[O-])cc4)c4nc(c(-c5ccc(S(=O)(=O)[O-])cc5)c5ccc2[nH]5)C=C4)C=C3)cc1
REMARK SMILES IDX 5 1 4 2 3 3 2 4 1 5 30 6 31 7 89 8 32 9 88 10 33 11 34 12
REMARK SMILES IDX 35 13 82 14 36 15 87 16 81 17 83 18 37 19 86 20 80 21 79 22
REMARK SMILES IDX 38 24 68 25 49 26 67 27 50 28 53 29 66 30 84 31 51 32 52 33
REMARK SMILES IDX 65 35 85 36 54 37 39 38 40 39 48 40 41 41 47 42 42 43 43 44
REMARK SMILES IDX 44 45 45 46 46 47 69 48 70 49 78 50 71 51 77 52 72 53 73 54
REMARK SMILES IDX 74 55 75 56 76 57 55 58 56 59 64 60 57 61 63 62 58 63 59 64
REMARK SMILES IDX 60 65 61 66 62 67 6 68 7 69 8 70 9 71 10 72 11 73 12 74
REMARK SMILES IDX 13 75 17 76 14 77 16 78 15 79 18 80 19 81 20 82 21 83 29 84
REMARK SMILES IDX 22 85 24 86 28 87 23 88 25 89 27 90 26 91
REMARK H PARENT 83 23 53 34
REMARK Flexibility Score: inf
ROOT
ATOM      1  C   UNL A   1      33.547  28.854  25.389  1.00  0.00     0.202 C 
ENDROOT
BRANCH   1   2
ATOM      2  C   UNL A   1      32.784  29.772  26.354  1.00  0.00     0.261 C 
BRANCH   2   3
ATOM      3  O   UNL A   1      33.407  29.810  27.651  1.00  0.00    -0.460 OA
BRANCH   3   4
ATOM      4  C   UNL A   1      34.398  30.614  28.106  1.00  0.00     0.338 C 
ATOM      5  O   UNL A   1      34.161  31.816  28.225  1.00  0.00    -0.246 OA
BRANCH   4   6
ATOM      6  C   UNL A   1      35.778  30.138  28.436  1.00  0.00     0.060 A 
ATOM      7  C   UNL A   1      36.191  29.706  29.693  1.00  0.00     0.016 A 
ATOM      8  C   UNL A   1      36.707  30.049  27.383  1.00  0.00     0.016 A 
ATOM      9  C   UNL A   1      37.452  29.207  29.926  1.00  0.00     0.010 A 
ATOM     10  C   UNL A   1      38.004  29.572  27.606  1.00  0.00     0.010 A 
ATOM     11  C   UNL A   1      38.373  29.169  28.892  1.00  0.00    -0.014 A 
BRANCH  11  12
ATOM     12  C   UNL A   1      39.756  28.940  29.321  1.00  0.00     0.031 A 
ATOM     13  C   UNL A   1      40.385  27.646  28.904  1.00  0.00     0.074 A 
ATOM     14  C   UNL A   1      40.474  29.976  29.790  1.00  0.00     0.049 A 
ATOM     15  N   UNL A   1      41.612  27.236  29.061  1.00  0.00    -0.248 NA
ATOM     16  C   UNL A   1      39.522  26.699  28.171  1.00  0.00     0.031 C 
ATOM     17  C   UNL A   1      39.957  31.334  30.002  1.00  0.00     0.029 A 
ATOM     18  N   UNL A   1      41.800  30.073  30.100  1.00  0.00    -0.354 N 
ATOM     19  C   UNL A   1      41.655  25.971  28.485  1.00  0.00     0.074 A 
ATOM     20  C   UNL A   1      40.343  25.684  27.961  1.00  0.00     0.031 C 
ATOM     21  C   UNL A   1      40.967  32.132  30.382  1.00  0.00     0.029 A 
ATOM     22  C   UNL A   1      42.177  31.330  30.506  1.00  0.00     0.049 A 
ATOM     23  H   UNL A   1      42.426  29.315  30.038  1.00  0.00     0.167 HD
ATOM     24  C   UNL A   1      42.705  25.124  28.427  1.00  0.00     0.031 A 
ATOM     25  C   UNL A   1      43.371  31.762  30.956  1.00  0.00     0.031 A 
ATOM     26  C   UNL A   1      43.989  25.451  28.978  1.00  0.00     0.049 A 
ATOM     27  C   UNL A   1      44.489  30.754  31.005  1.00  0.00     0.074 A 
ATOM     28  C   UNL A   1      45.114  24.658  29.084  1.00  0.00     0.029 A 
ATOM     29  N   UNL A   1      44.309  26.690  29.521  1.00  0.00    -0.354 N 
ATOM     30  N   UNL A   1      44.496  29.513  30.570  1.00  0.00    -0.248 NA
ATOM     31  C   UNL A   1      45.748  31.192  31.614  1.00  0.00     0.031 C 
ATOM     32  C   UNL A   1      46.098  25.402  29.746  1.00  0.00     0.029 A 
ATOM     33  C   UNL A   1      45.610  26.680  29.985  1.00  0.00     0.049 A 
ATOM     34  H   UNL A   1      43.699  27.461  29.568  1.00  0.00     0.167 HD
ATOM     35  C   UNL A   1      45.772  29.029  30.829  1.00  0.00     0.074 A 
ATOM     36  C   UNL A   1      46.508  30.119  31.443  1.00  0.00     0.031 C 
ATOM     37  C   UNL A   1      46.294  27.800  30.586  1.00  0.00     0.031 A 
BRANCH  24  38
ATOM     38  C   UNL A   1      42.445  23.751  27.872  1.00  0.00    -0.014 A 
ATOM     39  C   UNL A   1      42.150  22.652  28.698  1.00  0.00     0.010 A 
ATOM     40  C   UNL A   1      42.556  23.552  26.483  1.00  0.00     0.010 A 
ATOM     41  C   UNL A   1      42.016  21.371  28.149  1.00  0.00     0.020 A 
ATOM     42  C   UNL A   1      42.395  22.280  25.929  1.00  0.00     0.020 A 
ATOM     43  C   UNL A   1      42.145  21.194  26.768  1.00  0.00     0.054 A 
BRANCH  43  44
ATOM     44  S   UNL A   1      41.972  19.524  26.080  1.00  0.00     0.124 S 
ATOM     45  O   UNL A   1      40.547  19.472  25.770  1.00  0.00    -0.237 OA
ATOM     46  O   UNL A   1      42.865  19.561  24.924  1.00  0.00    -0.237 OA
ATOM     47  O   UNL A   1      42.405  18.653  27.170  1.00  0.00    -0.744 OA
ENDBRANCH  43  44
ENDBRANCH  24  38
BRANCH  25  48
ATOM     48  C   UNL A   1      43.539  33.156  31.453  1.00  0.00    -0.014 A 
ATOM     49  C   UNL A   1      43.308  33.488  32.799  1.00  0.00     0.010 A 
ATOM     50  C   UNL A   1      43.927  34.177  30.561  1.00  0.00     0.010 A 
ATOM     51  C   UNL A   1      43.435  34.813  33.236  1.00  0.00     0.020 A 
ATOM     52  C   UNL A   1      44.086  35.494  31.000  1.00  0.00     0.020 A 
ATOM     53  C   UNL A   1      43.823  35.807  32.332  1.00  0.00     0.054 A 
BRANCH  53  54
ATOM     54  S   UNL A   1      44.000  37.514  32.923  1.00  0.00     0.124 S 
ATOM     55  O   UNL A   1      43.844  38.279  31.691  1.00  0.00    -0.237 OA
ATOM     56  O   UNL A   1      42.907  37.630  33.884  1.00  0.00    -0.237 OA
ATOM     57  O   UNL A   1      45.339  37.536  33.507  1.00  0.00    -0.744 OA
ENDBRANCH  53  54
ENDBRANCH  25  48
BRANCH  37  58
ATOM     58  C   UNL A   1      47.741  27.600  30.934  1.00  0.00    -0.014 A 
ATOM     59  C   UNL A   1      48.762  27.882  30.012  1.00  0.00     0.010 A 
ATOM     60  C   UNL A   1      48.074  27.174  32.232  1.00  0.00     0.010 A 
ATOM     61  C   UNL A   1      50.097  27.701  30.371  1.00  0.00     0.020 A 
ATOM     62  C   UNL A   1      49.409  27.026  32.606  1.00  0.00     0.020 A 
ATOM     63  C   UNL A   1      50.411  27.273  31.666  1.00  0.00     0.054 A 
BRANCH  63  64
ATOM     64  S   UNL A   1      52.155  27.083  32.122  1.00  0.00     0.124 S 
ATOM     65  O   UNL A   1      52.237  25.655  32.413  1.00  0.00    -0.237 OA
ATOM     66  O   UNL A   1      52.851  27.522  30.915  1.00  0.00    -0.237 OA
ATOM     67  O   UNL A   1      52.307  27.966  33.277  1.00  0.00    -0.744 OA
ENDBRANCH  63  64
ENDBRANCH  37  58
ENDBRANCH  11  12
ENDBRANCH   4   6
ENDBRANCH   3   4
ENDBRANCH   2   3
ENDBRANCH   1   2
BRANCH   1  68
ATOM     68  O   UNL A   1      33.240  29.035  24.003  1.00  0.00    -0.374 OA
BRANCH  68  69
ATOM     69  C   UNL A   1      34.246  28.594  23.087  1.00  0.00     0.202 C 
BRANCH  69  70
ATOM     70  C   UNL A   1      33.596  27.780  21.997  1.00  0.00     0.261 C 
BRANCH  70  71
ATOM     71  O   UNL A   1      32.355  27.314  22.544  1.00  0.00    -0.460 OA
BRANCH  71  72
ATOM     72  C   UNL A   1      32.190  25.969  22.610  1.00  0.00     0.339 C 
ATOM     73  O   UNL A   1      32.291  25.140  21.740  1.00  0.00    -0.246 OA
BRANCH  72  74
ATOM     74  C   UNL A   1      32.003  25.708  24.032  1.00  0.00     0.072 A 
ATOM     75  C   UNL A   1      30.850  26.288  24.591  1.00  0.00     0.016 A 
ATOM     76  C   UNL A   1      32.824  24.853  24.768  1.00  0.00     0.054 A 
ATOM     77  C   UNL A   1      30.464  25.971  25.887  1.00  0.00     0.001 A 
ATOM     78  C   UNL A   1      32.420  24.553  26.084  1.00  0.00     0.015 A 
ATOM     79  C   UNL A   1      31.242  25.087  26.629  1.00  0.00     0.001 A 
BRANCH  76  80
ATOM     80  C   UNL A   1      34.230  24.478  24.421  1.00  0.00     0.259 C 
ATOM     81  O   UNL A   1      35.099  25.113  25.024  1.00  0.00    -0.269 OA
BRANCH  80  82
ATOM     82  N   UNL A   1      34.515  23.357  23.624  1.00  0.00    -0.308 N 
ATOM     83  C   UNL A   1      35.914  23.003  23.320  1.00  0.00     0.126 C 
ATOM     84  C   UNL A   1      33.827  22.137  23.936  1.00  0.00     0.047 A 
ATOM     85  C   UNL A   1      36.670  22.314  24.454  1.00  0.00     0.027 C 
ATOM     86  C   UNL A   1      34.503  21.187  24.731  1.00  0.00    -0.024 A 
ATOM     87  C   UNL A   1      32.679  21.779  23.233  1.00  0.00     0.026 A 
ATOM     88  C   UNL A   1      35.748  21.632  25.445  1.00  0.00     0.039 C 
ATOM     89  C   UNL A   1      34.048  19.873  24.794  1.00  0.00     0.006 A 
ATOM     90  C   UNL A   1      32.239  20.453  23.289  1.00  0.00     0.002 A 
ATOM     91  C   UNL A   1      32.929  19.503  24.053  1.00  0.00     0.000 A 
ENDBRANCH  80  82
ENDBRANCH  76  80
ENDBRANCH  72  74
ENDBRANCH  71  72
ENDBRANCH  70  71
ENDBRANCH  69  70
ENDBRANCH  68  69
ENDBRANCH   1  68
TORSDOF 19
ENDMDL
MODEL 2
REMARK VINA RESULT:     -10.3      4.359      9.447
REMARK SMILES O=C(OCCOCCOC(=O)c1ccccc1C(=O)N1CCCc2ccccc21)c1ccc(-c2c3nc(c(-c4ccc(S(=O)(=O)[O-])cc4)c4ccc([nH]4)c(-c4ccc(S(=O)(=O)[O-])cc4)c4nc(c(-c5ccc(S(=O)(=O)[O-])cc5)c5ccc2[nH]5)C=C4)C=C3)cc1
REMARK SMILES IDX 5 1 4 2 3 3 2 4 1 5 30 6 31 7 89 8 32 9 88 10 33 11 34 12
REMARK SMILES IDX 35 13 82 14 36 15 87 16 81 17 83 18 37 19 86 20 80 21 79 22
REMARK SMILES IDX 38 24 68 25 49 26 67 27 50 28 53 29 66 30 84 31 51 32 52 33
REMARK SMILES IDX 65 35 85 36 54 37 39 38 40 39 48 40 41 41 47 42 42 43 43 44
REMARK SMILES IDX 44 45 45 46 46 47 69 48 70 49 78 50 71 51 77 52 72 53 73 54
REMARK SMILES IDX 74 55 75 56 76 57 55 58 56 59 64 60 57 61 63 62 58 63 59 64
REMARK SMILES IDX 60 65 61 66 62 67 6 68 7 69 8 70 9 71 10 72 11 73 12 74
REMARK SMILES IDX 13 75 17 76 14 77 16 78 15 79 18 80 19 81 20 82 21 83 29 84
REMARK SMILES IDX 22 85 24 86 28 87 23 88 25 89 27 90 26 91
REMARK H PARENT 83 23 53 34
REMARK Flexibility Score: inf
ROOT
ATOM      1  C   UNL A   1      40.152  22.186  26.958  1.00  0.00     0.202 C 
ENDROOT
BRANCH   1   2
ATOM      2  C   UNL A   1      41.282  23.205  26.754  1.00  0.00     0.261 C 
BRANCH   2   3
ATOM      3  O   UNL A   1      40.829  24.358  26.021  1.00  0.00    -0.460 OA
BRANCH   3   4
ATOM      4  C   UNL A   1      41.168  25.661  26.172  1.00  0.00     0.338 C 
ATOM      5  O   UNL A   1      41.628  26.256  25.198  1.00  0.00    -0.246 OA
BRANCH   4   6
ATOM      6  C   UNL A   1      41.056  26.412  27.461  1.00  0.00     0.060 A 
ATOM      7  C   UNL A   1      40.100  26.170  28.443  1.00  0.00     0.016 A 
ATOM      8  C   UNL A   1      42.035  27.385  27.737  1.00  0.00     0.016 A 
ATOM      9  C   UNL A   1      40.087  26.839  29.645  1.00  0.00     0.010 A 
ATOM     10  C   UNL A   1      42.020  28.099  28.941  1.00  0.00     0.010 A 
ATOM     11  C   UNL A   1      41.027  27.829  29.885  1.00  0.00    -0.014 A 
BRANCH  11  12
ATOM     12  C   UNL A   1      40.719  28.689  31.031  1.00  0.00     0.031 A 
ATOM     13  C   UNL A   1      41.701  28.681  32.162  1.00  0.00     0.074 A 
ATOM     14  C   UNL A   1      39.774  29.636  30.900  1.00  0.00     0.049 A 
ATOM     15  N   UNL A   1      41.726  29.412  33.240  1.00  0.00    -0.248 NA
ATOM     16  C   UNL A   1      42.837  27.745  32.042  1.00  0.00     0.031 C 
ATOM     17  C   UNL A   1      38.934  29.833  29.712  1.00  0.00     0.029 A 
ATOM     18  N   UNL A   1      39.411  30.653  31.737  1.00  0.00    -0.354 N 
ATOM     19  C   UNL A   1      42.851  28.997  33.942  1.00  0.00     0.074 A 
ATOM     20  C   UNL A   1      43.495  27.964  33.168  1.00  0.00     0.031 C 
ATOM     21  C   UNL A   1      38.173  30.924  29.890  1.00  0.00     0.029 A 
ATOM     22  C   UNL A   1      38.421  31.457  31.223  1.00  0.00     0.049 A 
ATOM     23  H   UNL A   1      39.818  30.797  32.621  1.00  0.00     0.167 HD
ATOM     24  C   UNL A   1      43.286  29.435  35.144  1.00  0.00     0.031 A 
ATOM     25  C   UNL A   1      37.775  32.490  31.797  1.00  0.00     0.031 A 
ATOM     26  C   UNL A   1      42.601  30.456  35.884  1.00  0.00     0.049 A 
ATOM     27  C   UNL A   1      38.193  32.868  33.194  1.00  0.00     0.074 A 
ATOM     28  C   UNL A   1      42.862  30.931  37.153  1.00  0.00     0.029 A 
ATOM     29  N   UNL A   1      41.503  31.162  35.402  1.00  0.00    -0.354 N 
ATOM     30  N   UNL A   1      39.186  32.392  33.911  1.00  0.00    -0.248 NA
ATOM     31  C   UNL A   1      37.404  33.907  33.861  1.00  0.00     0.031 C 
ATOM     32  C   UNL A   1      41.885  31.883  37.462  1.00  0.00     0.029 A 
ATOM     33  C   UNL A   1      41.060  32.055  36.357  1.00  0.00     0.049 A 
ATOM     34  H   UNL A   1      41.101  31.042  34.511  1.00  0.00     0.167 HD
ATOM     35  C   UNL A   1      39.157  33.093  35.110  1.00  0.00     0.074 A 
ATOM     36  C   UNL A   1      38.058  34.035  35.008  1.00  0.00     0.031 C 
ATOM     37  C   UNL A   1      39.960  32.975  36.198  1.00  0.00     0.031 A 
BRANCH  24  38
ATOM     38  C   UNL A   1      44.458  28.716  35.752  1.00  0.00    -0.014 A 
ATOM     39  C   UNL A   1      45.783  29.139  35.550  1.00  0.00     0.010 A 
ATOM     40  C   UNL A   1      44.220  27.548  36.500  1.00  0.00     0.010 A 
ATOM     41  C   UNL A   1      46.850  28.383  36.048  1.00  0.00     0.020 A 
ATOM     42  C   UNL A   1      45.281  26.806  37.023  1.00  0.00     0.020 A 
ATOM     43  C   UNL A   1      46.590  27.217  36.777  1.00  0.00     0.054 A 
BRANCH  43  44
ATOM     44  S   UNL A   1      47.990  26.249  37.408  1.00  0.00     0.124 S 
ATOM     45  O   UNL A   1      47.897  26.488  38.845  1.00  0.00    -0.237 OA
ATOM     46  O   UNL A   1      47.662  24.894  36.973  1.00  0.00    -0.237 OA
ATOM     47  O   UNL A   1      49.150  26.848  36.751  1.00  0.00    -0.744 OA
ENDBRANCH  43  44
ENDBRANCH  24  38
BRANCH  25  48
ATOM     48  C   UNL A   1      36.646  33.165  31.098  1.00  0.00    -0.014 A 
ATOM     49  C   UNL A   1      35.363  33.231  31.668  1.00  0.00     0.010 A 
ATOM     50  C   UNL A   1      36.853  33.745  29.830  1.00  0.00     0.010 A 
ATOM     51  C   UNL A   1      34.308  33.837  30.976  1.00  0.00     0.020 A 
ATOM     52  C   UNL A   1      35.810  34.379  29.149  1.00  0.00     0.020 A 
ATOM     53  C   UNL A   1      34.538  34.407  29.720  1.00  0.00     0.054 A 
BRANCH  53  54
ATOM     54  S   UNL A   1      33.161  35.205  28.848  1.00  0.00     0.124 S 
ATOM     55  O   UNL A   1      32.214  35.445  29.932  1.00  0.00    -0.237 OA
ATOM     56  O   UNL A   1      33.792  36.393  28.282  1.00  0.00    -0.237 OA
ATOM     57  O   UNL A   1      32.748  34.201  27.869  1.00  0.00    -0.744 OA
ENDBRANCH  53  54
ENDBRANCH  25  48
BRANCH  37  58
ATOM     58  C   UNL A   1      39.706  33.927  37.330  1.00  0.00    -0.014 A 
ATOM     59  C   UNL A   1      38.936  33.552  38.444  1.00  0.00     0.010 A 
ATOM     60  C   UNL A   1      40.301  35.201  37.293  1.00  0.00     0.010 A 
ATOM     61  C   UNL A   1      38.732  34.455  39.488  1.00  0.00     0.020 A 
ATOM     62  C   UNL A   1      40.128  36.092  38.351  1.00  0.00     0.020 A 
ATOM     63  C   UNL A   1      39.329  35.719  39.433  1.00  0.00     0.054 A 
BRANCH  63  64
ATOM     64  S   UNL A   1      39.082  36.861  40.819  1.00  0.00     0.124 S 
ATOM     65  O   UNL A   1      40.437  36.995  41.345  1.00  0.00    -0.237 OA
ATOM     66  O   UNL A   1      38.539  38.048  40.163  1.00  0.00    -0.237 OA
ATOM     67  O   UNL A   1      38.143  36.152  41.686  1.00  0.00    -0.744 OA
ENDBRANCH  63  64
ENDBRANCH  37  58
ENDBRANCH  11  12
ENDBRANCH   4   6
ENDBRANCH   3   4
ENDBRANCH   2   3
ENDBRANCH   1   2
BRANCH   1  68
ATOM     68  O   UNL A   1      39.506  21.744  25.760  1.00  0.00    -0.374 OA
BRANCH  68  69
ATOM     69  C   UNL A   1      38.081  21.867  25.750  1.00  0.00     0.202 C 
BRANCH  69  70
ATOM     70  C   UNL A   1      37.714  23.323  25.615  1.00  0.00     0.261 C 
BRANCH  70  71
ATOM     71  O   UNL A   1      36.341  23.344  25.202  1.00  0.00    -0.460 OA
BRANCH  71  72
ATOM     72  C   UNL A   1      36.096  23.050  23.900  1.00  0.00     0.339 C 
ATOM     73  O   UNL A   1      36.811  23.179  22.937  1.00  0.00    -0.246 OA
BRANCH  72  74
ATOM     74  C   UNL A   1      34.800  22.385  23.927  1.00  0.00     0.072 A 
ATOM     75  C   UNL A   1      34.780  21.160  24.620  1.00  0.00     0.016 A 
ATOM     76  C   UNL A   1      33.633  22.959  23.420  1.00  0.00     0.054 A 
ATOM     77  C   UNL A   1      33.574  20.517  24.869  1.00  0.00     0.001 A 
ATOM     78  C   UNL A   1      32.423  22.284  23.675  1.00  0.00     0.015 A 
ATOM     79  C   UNL A   1      32.392  21.090  24.411  1.00  0.00     0.001 A 
BRANCH  76  80
ATOM     80  C   UNL A   1      33.569  24.032  22.380  1.00  0.00     0.259 C 
ATOM     81  O   UNL A   1      33.342  23.631  21.235  1.00  0.00    -0.269 OA
BRANCH  80  82
ATOM     82  N   UNL A   1      33.569  25.393  22.728  1.00  0.00    -0.308 N 
ATOM     83  C   UNL A   1      33.074  26.400  21.772  1.00  0.00     0.126 C 
ATOM     84  C   UNL A   1      33.047  25.741  24.019  1.00  0.00     0.047 A 
ATOM     85  C   UNL A   1      31.554  26.492  21.655  1.00  0.00     0.027 C 
ATOM     86  C   UNL A   1      31.708  26.181  24.089  1.00  0.00    -0.024 A 
ATOM     87  C   UNL A   1      33.909  25.930  25.097  1.00  0.00     0.026 A 
ATOM     88  C   UNL A   1      30.838  25.965  22.884  1.00  0.00     0.039 C 
ATOM     89  C   UNL A   1      31.244  26.840  25.224  1.00  0.00     0.006 A 
ATOM     90  C   UNL A   1      33.439  26.608  26.226  1.00  0.00     0.002 A 
ATOM     91  C   UNL A   1      32.119  27.073  26.281  1.00  0.00     0.000 A 
ENDBRANCH  80  82
ENDBRANCH  76  80
ENDBRANCH  72  74
ENDBRANCH  71  72
ENDBRANCH  70  71
ENDBRANCH  69  70
ENDBRANCH  68  69
ENDBRANCH   1  68
TORSDOF 19
ENDMDL
MODEL 3
REMARK VINA RESULT:     -10.3      4.475     10.141
REMARK SMILES O=C(OCCOCCOC(=O)c1ccccc1C(=O)N1CCCc2ccccc21)c1ccc(-c2c3nc(c(-c4ccc(S(=O)(=O)[O-])cc4)c4ccc([nH]4)c(-c4ccc(S(=O)(=O)[O-])cc4)c4nc(c(-c5ccc(S(=O)(=O)[O-])cc5)c5ccc2[nH]5)C=C4)C=C3)cc1
REMARK SMILES IDX 5 1 4 2 3 3 2 4 1 5 30 6 31 7 89 8 32 9 88 10 33 11 34 12
REMARK SMILES IDX 35 13 82 14 36 15 87 16 81 17 83 18 37 19 86 20 80 21 79 22
REMARK SMILES IDX 38 24 68 25 49 26 67 27 50 28 53 29 66 30 84 31 51 32 52 33
REMARK SMILES IDX 65 35 85 36 54 37 39 38 40 39 48 40 41 41 47 42 42 43 43 44
REMARK SMILES IDX 44 45 45 46 46 47 69 48 70 49 78 50 71 51 77 52 72 53 73 54
REMARK SMILES IDX 74 55 75 56 76 57 55 58 56 59 64 60 57 61 63 62 58 63 59 64
REMARK SMILES IDX 60 65 61 66 62 67 6 68 7 69 8 70 9 71 10 72 11 73 12 74
REMARK SMILES IDX 13 75 17 76 14 77 16 78 15 79 18 80 19 81 20 82 21 83 29 84
REMARK SMILES IDX 22 85 24 86 28 87 23 88 25 89 27 90 26 91
REMARK H PARENT 83 23 53 34
REMARK Flexibility Score: inf
ROOT
ATOM      1  C   UNL A   1      39.981  22.901  26.838  1.00  0.00     0.202 C 
ENDROOT
BRANCH   1   2
ATOM      2  C   UNL A   1      41.473  22.944  26.479  1.00  0.00     0.261 C 
BRANCH   2   3
ATOM      3  O   UNL A   1      42.010  24.273  26.608  1.00  0.00    -0.460 OA
BRANCH   3   4
ATOM      4  C   UNL A   1      41.402  25.469  26.417  1.00  0.00     0.338 C 
ATOM      5  O   UNL A   1      41.026  25.753  25.280  1.00  0.00    -0.246 OA
BRANCH   4   6
ATOM      6  C   UNL A   1      41.194  26.485  27.496  1.00  0.00     0.060 A 
ATOM      7  C   UNL A   1      41.891  27.685  27.604  1.00  0.00     0.016 A 
ATOM      8  C   UNL A   1      40.166  26.248  28.427  1.00  0.00     0.016 A 
ATOM      9  C   UNL A   1      41.609  28.620  28.573  1.00  0.00     0.010 A 
ATOM     10  C   UNL A   1      39.884  27.173  29.439  1.00  0.00     0.010 A 
ATOM     11  C   UNL A   1      40.628  28.353  29.514  1.00  0.00    -0.014 A 
BRANCH  11  12
ATOM     12  C   UNL A   1      40.642  29.249  30.674  1.00  0.00     0.031 A 
ATOM     13  C   UNL A   1      39.533  30.253  30.764  1.00  0.00     0.074 A 
ATOM     14  C   UNL A   1      41.436  28.952  31.717  1.00  0.00     0.049 A 
ATOM     15  N   UNL A   1      39.253  31.089  31.722  1.00  0.00    -0.248 NA
ATOM     16  C   UNL A   1      38.584  30.290  29.633  1.00  0.00     0.031 C 
ATOM     17  C   UNL A   1      42.383  27.831  31.765  1.00  0.00     0.029 A 
ATOM     18  N   UNL A   1      41.522  29.514  32.959  1.00  0.00    -0.354 N 
ATOM     19  C   UNL A   1      38.124  31.778  31.292  1.00  0.00     0.074 A 
ATOM     20  C   UNL A   1      37.758  31.256  29.999  1.00  0.00     0.031 C 
ATOM     21  C   UNL A   1      42.933  27.775  32.988  1.00  0.00     0.029 A 
ATOM     22  C   UNL A   1      42.431  28.891  33.780  1.00  0.00     0.049 A 
ATOM     23  H   UNL A   1      40.984  30.289  33.240  1.00  0.00     0.167 HD
ATOM     24  C   UNL A   1      37.472  32.776  31.928  1.00  0.00     0.031 A 
ATOM     25  C   UNL A   1      42.825  29.220  35.025  1.00  0.00     0.031 A 
ATOM     26  C   UNL A   1      37.885  33.272  33.209  1.00  0.00     0.049 A 
ATOM     27  C   UNL A   1      42.173  30.423  35.654  1.00  0.00     0.074 A 
ATOM     28  C   UNL A   1      37.387  34.340  33.927  1.00  0.00     0.029 A 
ATOM     29  N   UNL A   1      38.911  32.715  33.964  1.00  0.00    -0.354 N 
ATOM     30  N   UNL A   1      41.182  31.154  35.195  1.00  0.00    -0.248 NA
ATOM     31  C   UNL A   1      42.694  30.854  36.954  1.00  0.00     0.031 C 
ATOM     32  C   UNL A   1      38.154  34.466  35.091  1.00  0.00     0.029 A 
ATOM     33  C   UNL A   1      39.079  33.431  35.133  1.00  0.00     0.049 A 
ATOM     34  H   UNL A   1      39.441  31.927  33.704  1.00  0.00     0.167 HD
ATOM     35  C   UNL A   1      40.942  32.119  36.164  1.00  0.00     0.074 A 
ATOM     36  C   UNL A   1      41.883  31.864  37.239  1.00  0.00     0.031 C 
ATOM     37  C   UNL A   1      40.032  33.126  36.172  1.00  0.00     0.031 A 
BRANCH  24  38
ATOM     38  C   UNL A   1      36.358  33.451  31.176  1.00  0.00    -0.014 A 
ATOM     39  C   UNL A   1      36.458  33.761  29.808  1.00  0.00     0.010 A 
ATOM     40  C   UNL A   1      35.201  33.833  31.881  1.00  0.00     0.010 A 
ATOM     41  C   UNL A   1      35.440  34.481  29.171  1.00  0.00     0.020 A 
ATOM     42  C   UNL A   1      34.171  34.526  31.243  1.00  0.00     0.020 A 
ATOM     43  C   UNL A   1      34.306  34.863  29.896  1.00  0.00     0.054 A 
BRANCH  43  44
ATOM     44  S   UNL A   1      33.002  35.800  29.050  1.00  0.00     0.124 S 
ATOM     45  O   UNL A   1      32.408  34.780  28.190  1.00  0.00    -0.237 OA
ATOM     46  O   UNL A   1      32.165  36.253  30.158  1.00  0.00    -0.237 OA
ATOM     47  O   UNL A   1      33.731  36.856  28.351  1.00  0.00    -0.744 OA
ENDBRANCH  43  44
ENDBRANCH  24  38
BRANCH  25  48
ATOM     48  C   UNL A   1      43.916  28.466  35.703  1.00  0.00    -0.014 A 
ATOM     49  C   UNL A   1      43.639  27.388  36.562  1.00  0.00     0.010 A 
ATOM     50  C   UNL A   1      45.260  28.838  35.498  1.00  0.00     0.010 A 
ATOM     51  C   UNL A   1      44.678  26.716  37.218  1.00  0.00     0.020 A 
ATOM     52  C   UNL A   1      46.302  28.152  36.127  1.00  0.00     0.020 A 
ATOM     53  C   UNL A   1      46.003  27.104  36.997  1.00  0.00     0.054 A 
BRANCH  53  54
ATOM     54  S   UNL A   1      47.336  26.210  37.844  1.00  0.00     0.124 S 
ATOM     55  O   UNL A   1      48.247  25.911  36.744  1.00  0.00    -0.237 OA
ATOM     56  O   UNL A   1      47.812  27.195  38.811  1.00  0.00    -0.237 OA
ATOM     57  O   UNL A   1      46.657  25.054  38.425  1.00  0.00    -0.744 OA
ENDBRANCH  53  54
ENDBRANCH  25  48
BRANCH  37  58
ATOM     58  C   UNL A   1      39.982  33.980  37.407  1.00  0.00    -0.014 A 
ATOM     59  C   UNL A   1      40.716  35.174  37.502  1.00  0.00     0.010 A 
ATOM     60  C   UNL A   1      39.137  33.597  38.464  1.00  0.00     0.010 A 
ATOM     61  C   UNL A   1      40.636  35.953  38.656  1.00  0.00     0.020 A 
ATOM     62  C   UNL A   1      39.027  34.393  39.603  1.00  0.00     0.020 A 
ATOM     63  C   UNL A   1      39.792  35.556  39.699  1.00  0.00     0.054 A 
BRANCH  63  64
ATOM     64  S   UNL A   1      39.674  36.605  41.172  1.00  0.00     0.124 S 
ATOM     65  O   UNL A   1      41.062  37.015  41.363  1.00  0.00    -0.237 OA
ATOM     66  O   UNL A   1      38.759  37.660  40.741  1.00  0.00    -0.237 OA
ATOM     67  O   UNL A   1      39.142  35.706  42.194  1.00  0.00    -0.744 OA
ENDBRANCH  63  64
ENDBRANCH  37  58
ENDBRANCH  11  12
ENDBRANCH   4   6
ENDBRANCH   3   4
ENDBRANCH   2   3
ENDBRANCH   1   2
BRANCH   1  68
ATOM     68  O   UNL A   1      39.326  21.656  26.574  1.00  0.00    -0.374 OA
BRANCH  68  69
ATOM     69  C   UNL A   1      38.453  21.650  25.440  1.00  0.00     0.202 C 
BRANCH  69  70
ATOM     70  C   UNL A   1      37.291  22.572  25.708  1.00  0.00     0.261 C 
BRANCH  70  71
ATOM     71  O   UNL A   1      36.153  21.721  25.900  1.00  0.00    -0.460 OA
BRANCH  71  72
ATOM     72  C   UNL A   1      34.951  22.337  26.023  1.00  0.00     0.339 C 
ATOM     73  O   UNL A   1      34.649  23.305  26.676  1.00  0.00    -0.246 OA
BRANCH  72  74
ATOM     74  C   UNL A   1      34.103  21.652  25.055  1.00  0.00     0.072 A 
ATOM     75  C   UNL A   1      33.885  20.288  25.325  1.00  0.00     0.016 A 
ATOM     76  C   UNL A   1      33.452  22.305  24.009  1.00  0.00     0.054 A 
ATOM     77  C   UNL A   1      32.958  19.568  24.582  1.00  0.00     0.001 A 
ATOM     78  C   UNL A   1      32.525  21.553  23.261  1.00  0.00     0.015 A 
ATOM     79  C   UNL A   1      32.263  20.207  23.560  1.00  0.00     0.001 A 
BRANCH  76  80
ATOM     80  C   UNL A   1      33.862  23.611  23.405  1.00  0.00     0.259 C 
ATOM     81  O   UNL A   1      34.414  23.524  22.305  1.00  0.00    -0.269 OA
BRANCH  80  82
ATOM     82  N   UNL A   1      33.462  24.837  23.966  1.00  0.00    -0.308 N 
ATOM     83  C   UNL A   1      33.926  26.105  23.376  1.00  0.00     0.126 C 
ATOM     84  C   UNL A   1      32.069  24.996  24.271  1.00  0.00     0.047 A 
ATOM     85  C   UNL A   1      33.210  26.526  22.095  1.00  0.00     0.027 C 
ATOM     86  C   UNL A   1      31.264  25.673  23.330  1.00  0.00    -0.024 A 
ATOM     87  C   UNL A   1      31.603  24.769  25.564  1.00  0.00     0.026 A 
ATOM     88  C   UNL A   1      31.834  25.904  21.960  1.00  0.00     0.039 C 
ATOM     89  C   UNL A   1      30.009  26.151  23.696  1.00  0.00     0.006 A 
ATOM     90  C   UNL A   1      30.349  25.269  25.927  1.00  0.00     0.002 A 
ATOM     91  C   UNL A   1      29.564  25.969  25.003  1.00  0.00     0.000 A 
ENDBRANCH  80  82
ENDBRANCH  76  80
ENDBRANCH  72  74
ENDBRANCH  71  72
ENDBRANCH  70  71
ENDBRANCH  69  70
ENDBRANCH  68  69
ENDBRANCH   1  68
TORSDOF 19
ENDMDL
