MODEL 1
REMARK VINA RESULT:     -10.3      0.000      0.000
REMARK SMILES CC1(C)CCC[C@@]1(NC(=O)OCc1ccccc1)C(=O)OCCOCCOC(=O)c1ccc(-c2c3nc(c(-c4ccc(S(=O)(=O)[O-])cc4)c4ccc([nH]4)c(-c4ccc(S(=O)(=O)[O-])cc4)c4nc(c(-c5ccc(S(=O)(=O)[O-])cc5)c5ccc2[nH]5)C=C4)C=C3)cc1
REMARK SMILES IDX 23 1 22 2 21 3 19 4 20 5 7 6 1 7 2 8 3 9 4 10 5 11 6 12 8 13
REMARK SMILES IDX 9 14 10 16 11 17 12 18 13 19 14 20 18 21 15 22 17 23 16 24
REMARK SMILES IDX 24 25 25 26 26 27 27 28 28 29 29 30 30 31 31 32 89 33 32 34
REMARK SMILES IDX 88 35 33 36 34 37 35 38 82 39 36 40 87 41 81 42 83 43 37 44
REMARK SMILES IDX 86 45 80 46 79 47 38 49 68 50 49 51 67 52 50 53 53 54 66 55
REMARK SMILES IDX 84 56 51 57 52 58 65 60 85 61 54 62 39 63 40 64 48 65 41 66
REMARK SMILES IDX 47 67 42 68 43 69 44 70 45 71 46 72 69 73 70 74 78 75 71 76
REMARK SMILES IDX 77 77 72 78 73 79 74 80 75 81 76 82 55 83 56 84 64 85 57 86
REMARK SMILES IDX 63 87 58 88 59 89 60 90 61 91 62 92
REMARK H PARENT 8 15 83 48 53 59
REMARK Flexibility Score: inf
ROOT
ATOM      1  C   UNL A   1      37.239  22.563  24.206  1.00  0.00     0.202 C 
ENDROOT
BRANCH   1   2
ATOM      2  C   UNL A   1      36.137  23.260  23.412  1.00  0.00     0.261 C 
BRANCH   2   3
ATOM      3  O   UNL A   1      35.028  23.683  24.234  1.00  0.00    -0.461 OA
BRANCH   3   4
ATOM      4  C   UNL A   1      33.908  24.030  23.541  1.00  0.00     0.332 C 
ATOM      5  O   UNL A   1      33.860  24.101  22.314  1.00  0.00    -0.249 OA
BRANCH   4   6
ATOM      6  C   UNL A   1      32.708  24.438  24.450  1.00  0.00     0.146 C 
ATOM      7  C   UNL A   1      33.842  26.819  24.188  1.00  0.00     0.014 C 
ATOM      8  C   UNL A   1      32.567  26.018  24.525  1.00  0.00    -0.001 C 
ATOM      9  C   UNL A   1      32.082  26.527  25.899  1.00  0.00     0.014 C 
ATOM     10  C   UNL A   1      31.494  26.346  23.470  1.00  0.00     0.009 C 
ATOM     11  C   UNL A   1      30.585  25.137  23.363  1.00  0.00     0.004 C 
ATOM     12  C   UNL A   1      31.313  23.958  23.997  1.00  0.00     0.041 C 
BRANCH   6  13
ATOM     13  N   UNL A   1      33.002  23.833  25.774  1.00  0.00    -0.305 N 
ATOM     14  C   UNL A   1      32.999  22.503  26.095  1.00  0.00     0.408 C 
ATOM     15  H   UNL A   1      33.223  24.457  26.502  1.00  0.00     0.168 HD
ATOM     16  O   UNL A   1      33.063  22.140  27.260  1.00  0.00    -0.225 OA
BRANCH  14  17
ATOM     17  O   UNL A   1      33.011  21.692  25.013  1.00  0.00    -0.445 OA
BRANCH  17  18
ATOM     18  C   UNL A   1      32.124  20.563  25.051  1.00  0.00     0.270 C 
BRANCH  18  19
ATOM     19  C   UNL A   1      32.693  19.322  24.385  1.00  0.00    -0.011 A 
ATOM     20  C   UNL A   1      33.782  18.666  24.983  1.00  0.00     0.007 A 
ATOM     21  C   UNL A   1      32.226  18.834  23.155  1.00  0.00     0.007 A 
ATOM     22  C   UNL A   1      34.386  17.567  24.364  1.00  0.00     0.000 A 
ATOM     23  C   UNL A   1      32.830  17.737  22.536  1.00  0.00     0.000 A 
ATOM     24  C   UNL A   1      33.913  17.108  23.137  1.00  0.00     0.000 A 
ENDBRANCH  18  19
ENDBRANCH  17  18
ENDBRANCH  14  17
ENDBRANCH   6  13
ENDBRANCH   4   6
ENDBRANCH   3   4
ENDBRANCH   2   3
ENDBRANCH   1   2
BRANCH   1  25
ATOM     25  O   UNL A   1      37.227  22.665  25.627  1.00  0.00    -0.374 OA
BRANCH  25  26
ATOM     26  C   UNL A   1      37.933  23.737  26.233  1.00  0.00     0.202 C 
BRANCH  26  27
ATOM     27  C   UNL A   1      39.450  23.602  26.436  1.00  0.00     0.261 C 
BRANCH  27  28
ATOM     28  O   UNL A   1      40.005  24.413  27.473  1.00  0.00    -0.460 OA
BRANCH  28  29
ATOM     29  C   UNL A   1      40.345  25.659  27.054  1.00  0.00     0.338 C 
ATOM     30  O   UNL A   1      40.716  25.988  25.940  1.00  0.00    -0.246 OA
BRANCH  29  31
ATOM     31  C   UNL A   1      40.067  26.629  28.124  1.00  0.00     0.060 A 
ATOM     32  C   UNL A   1      40.785  27.830  28.113  1.00  0.00     0.016 A 
ATOM     33  C   UNL A   1      39.172  26.339  29.155  1.00  0.00     0.016 A 
ATOM     34  C   UNL A   1      40.640  28.733  29.161  1.00  0.00     0.010 A 
ATOM     35  C   UNL A   1      39.038  27.241  30.215  1.00  0.00     0.010 A 
ATOM     36  C   UNL A   1      39.798  28.425  30.238  1.00  0.00    -0.014 A 
BRANCH  36  37
ATOM     37  C   UNL A   1      39.851  29.264  31.457  1.00  0.00     0.031 A 
ATOM     38  C   UNL A   1      40.985  29.057  32.425  1.00  0.00     0.074 A 
ATOM     39  C   UNL A   1      38.942  30.234  31.663  1.00  0.00     0.049 A 
ATOM     40  N   UNL A   1      41.236  29.677  33.547  1.00  0.00    -0.248 NA
ATOM     41  C   UNL A   1      41.968  28.016  32.079  1.00  0.00     0.031 C 
ATOM     42  C   UNL A   1      37.832  30.558  30.766  1.00  0.00     0.029 A 
ATOM     43  N   UNL A   1      38.815  31.131  32.693  1.00  0.00    -0.354 N 
ATOM     44  C   UNL A   1      42.406  29.108  34.038  1.00  0.00     0.074 A 
ATOM     45  C   UNL A   1      42.796  28.068  33.113  1.00  0.00     0.031 C 
ATOM     46  C   UNL A   1      37.135  31.584  31.289  1.00  0.00     0.029 A 
ATOM     47  C   UNL A   1      37.730  31.966  32.568  1.00  0.00     0.049 A 
ATOM     48  H   UNL A   1      39.441  31.173  33.451  1.00  0.00     0.167 HD
ATOM     49  C   UNL A   1      43.102  29.434  35.152  1.00  0.00     0.031 A 
ATOM     50  C   UNL A   1      37.263  32.917  33.400  1.00  0.00     0.031 A 
ATOM     51  C   UNL A   1      42.703  30.462  36.076  1.00  0.00     0.049 A 
ATOM     52  C   UNL A   1      38.009  33.198  34.681  1.00  0.00     0.074 A 
ATOM     53  C   UNL A   1      43.331  30.860  37.243  1.00  0.00     0.029 A 
ATOM     54  N   UNL A   1      41.573  31.253  35.938  1.00  0.00    -0.354 N 
ATOM     55  N   UNL A   1      39.119  32.657  35.125  1.00  0.00    -0.248 NA
ATOM     56  C   UNL A   1      37.444  34.225  35.568  1.00  0.00     0.031 C 
ATOM     57  C   UNL A   1      42.554  31.860  37.835  1.00  0.00     0.029 A 
ATOM     58  C   UNL A   1      41.476  32.127  37.006  1.00  0.00     0.049 A 
ATOM     59  H   UNL A   1      40.937  31.202  35.189  1.00  0.00     0.167 HD
ATOM     60  C   UNL A   1      39.402  33.303  36.324  1.00  0.00     0.074 A 
ATOM     61  C   UNL A   1      38.356  34.283  36.528  1.00  0.00     0.031 C 
ATOM     62  C   UNL A   1      40.433  33.105  37.182  1.00  0.00     0.031 A 
BRANCH  49  63
ATOM     63  C   UNL A   1      44.360  28.661  35.445  1.00  0.00    -0.014 A 
ATOM     64  C   UNL A   1      45.610  29.115  34.989  1.00  0.00     0.010 A 
ATOM     65  C   UNL A   1      44.301  27.505  36.244  1.00  0.00     0.010 A 
ATOM     66  C   UNL A   1      46.777  28.416  35.310  1.00  0.00     0.020 A 
ATOM     67  C   UNL A   1      45.467  26.817  36.589  1.00  0.00     0.020 A 
ATOM     68  C   UNL A   1      46.698  27.273  36.112  1.00  0.00     0.054 A 
BRANCH  68  69
ATOM     69  S   UNL A   1      48.235  26.418  36.559  1.00  0.00     0.124 S 
ATOM     70  O   UNL A   1      48.052  25.116  35.925  1.00  0.00    -0.237 OA
ATOM     71  O   UNL A   1      49.259  27.270  35.960  1.00  0.00    -0.237 OA
ATOM     72  O   UNL A   1      48.214  26.408  38.020  1.00  0.00    -0.744 OA
ENDBRANCH  68  69
ENDBRANCH  49  63
BRANCH  50  73
ATOM     73  C   UNL A   1      36.011  33.658  33.076  1.00  0.00    -0.014 A 
ATOM     74  C   UNL A   1      36.052  35.001  32.660  1.00  0.00     0.010 A 
ATOM     75  C   UNL A   1      34.761  33.032  33.232  1.00  0.00     0.010 A 
ATOM     76  C   UNL A   1      34.868  35.714  32.446  1.00  0.00     0.020 A 
ATOM     77  C   UNL A   1      33.576  33.731  32.988  1.00  0.00     0.020 A 
ATOM     78  C   UNL A   1      33.638  35.075  32.617  1.00  0.00     0.054 A 
BRANCH  78  79
ATOM     79  S   UNL A   1      32.112  36.014  32.331  1.00  0.00     0.124 S 
ATOM     80  O   UNL A   1      32.264  36.421  30.938  1.00  0.00    -0.237 OA
ATOM     81  O   UNL A   1      31.074  35.020  32.592  1.00  0.00    -0.237 OA
ATOM     82  O   UNL A   1      32.189  37.096  33.312  1.00  0.00    -0.744 OA
ENDBRANCH  78  79
ENDBRANCH  50  73
BRANCH  62  83
ATOM     83  C   UNL A   1      40.513  33.997  38.393  1.00  0.00    -0.014 A 
ATOM     84  C   UNL A   1      39.758  33.731  39.548  1.00  0.00     0.010 A 
ATOM     85  C   UNL A   1      41.403  35.087  38.390  1.00  0.00     0.010 A 
ATOM     86  C   UNL A   1      39.866  34.561  40.667  1.00  0.00     0.020 A 
ATOM     87  C   UNL A   1      41.537  35.900  39.517  1.00  0.00     0.020 A 
ATOM     88  C   UNL A   1      40.756  35.640  40.644  1.00  0.00     0.054 A 
BRANCH  88  89
ATOM     89  S   UNL A   1      40.909  36.676  42.126  1.00  0.00     0.124 S 
ATOM     90  O   UNL A   1      41.639  37.832  41.615  1.00  0.00    -0.237 OA
ATOM     91  O   UNL A   1      39.516  36.922  42.489  1.00  0.00    -0.237 OA
ATOM     92  O   UNL A   1      41.651  35.834  43.061  1.00  0.00    -0.744 OA
ENDBRANCH  88  89
ENDBRANCH  62  83
ENDBRANCH  36  37
ENDBRANCH  29  31
ENDBRANCH  28  29
ENDBRANCH  27  28
ENDBRANCH  26  27
ENDBRANCH  25  26
ENDBRANCH   1  25
TORSDOF 21
ENDMDL
MODEL 2
REMARK VINA RESULT:     -10.3      6.294     11.302
REMARK SMILES CC1(C)CCC[C@@]1(NC(=O)OCc1ccccc1)C(=O)OCCOCCOC(=O)c1ccc(-c2c3nc(c(-c4ccc(S(=O)(=O)[O-])cc4)c4ccc([nH]4)c(-c4ccc(S(=O)(=O)[O-])cc4)c4nc(c(-c5ccc(S(=O)(=O)[O-])cc5)c5ccc2[nH]5)C=C4)C=C3)cc1
REMARK SMILES IDX 23 1 22 2 21 3 19 4 20 5 7 6 1 7 2 8 3 9 4 10 5 11 6 12 8 13
REMARK SMILES IDX 9 14 10 16 11 17 12 18 13 19 14 20 18 21 15 22 17 23 16 24
REMARK SMILES IDX 24 25 25 26 26 27 27 28 28 29 29 30 30 31 31 32 89 33 32 34
REMARK SMILES IDX 88 35 33 36 34 37 35 38 82 39 36 40 87 41 81 42 83 43 37 44
REMARK SMILES IDX 86 45 80 46 79 47 38 49 68 50 49 51 67 52 50 53 53 54 66 55
REMARK SMILES IDX 84 56 51 57 52 58 65 60 85 61 54 62 39 63 40 64 48 65 41 66
REMARK SMILES IDX 47 67 42 68 43 69 44 70 45 71 46 72 69 73 70 74 78 75 71 76
REMARK SMILES IDX 77 77 72 78 73 79 74 80 75 81 76 82 55 83 56 84 64 85 57 86
REMARK SMILES IDX 63 87 58 88 59 89 60 90 61 91 62 92
REMARK H PARENT 8 15 83 48 53 59
REMARK Flexibility Score: inf
ROOT
ATOM      1  C   UNL A   1      37.483  23.272  25.856  1.00  0.00     0.202 C 
ENDROOT
BRANCH   1   2
ATOM      2  C   UNL A   1      36.301  23.219  24.891  1.00  0.00     0.261 C 
BRANCH   2   3
ATOM      3  O   UNL A   1      35.472  24.400  24.945  1.00  0.00    -0.461 OA
BRANCH   3   4
ATOM      4  C   UNL A   1      34.316  24.251  25.651  1.00  0.00     0.332 C 
ATOM      5  O   UNL A   1      34.272  23.820  26.802  1.00  0.00    -0.249 OA
BRANCH   4   6
ATOM      6  C   UNL A   1      33.031  24.573  24.828  1.00  0.00     0.146 C 
ATOM      7  C   UNL A   1      33.283  26.883  26.103  1.00  0.00     0.014 C 
ATOM      8  C   UNL A   1      32.689  26.122  24.900  1.00  0.00    -0.001 C 
ATOM      9  C   UNL A   1      31.173  26.416  24.902  1.00  0.00     0.014 C 
ATOM     10  C   UNL A   1      33.301  26.699  23.609  1.00  0.00     0.009 C 
ATOM     11  C   UNL A   1      33.296  25.589  22.575  1.00  0.00     0.004 C 
ATOM     12  C   UNL A   1      33.096  24.273  23.316  1.00  0.00     0.041 C 
BRANCH   6  13
ATOM     13  N   UNL A   1      31.966  23.729  25.426  1.00  0.00    -0.305 N 
ATOM     14  C   UNL A   1      31.806  22.377  25.287  1.00  0.00     0.408 C 
ATOM     15  H   UNL A   1      31.301  24.193  25.984  1.00  0.00     0.168 HD
ATOM     16  O   UNL A   1      30.781  21.827  25.663  1.00  0.00    -0.225 OA
BRANCH  14  17
ATOM     17  O   UNL A   1      32.901  21.757  24.795  1.00  0.00    -0.445 OA
BRANCH  17  18
ATOM     18  C   UNL A   1      33.294  20.539  25.447  1.00  0.00     0.270 C 
BRANCH  18  19
ATOM     19  C   UNL A   1      33.436  19.361  24.499  1.00  0.00    -0.011 A 
ATOM     20  C   UNL A   1      32.480  19.182  23.486  1.00  0.00     0.007 A 
ATOM     21  C   UNL A   1      34.445  18.394  24.630  1.00  0.00     0.007 A 
ATOM     22  C   UNL A   1      32.529  18.068  22.642  1.00  0.00     0.000 A 
ATOM     23  C   UNL A   1      34.493  17.281  23.788  1.00  0.00     0.000 A 
ATOM     24  C   UNL A   1      33.532  17.115  22.798  1.00  0.00     0.000 A 
ENDBRANCH  18  19
ENDBRANCH  17  18
ENDBRANCH  14  17
ENDBRANCH   6  13
ENDBRANCH   4   6
ENDBRANCH   3   4
ENDBRANCH   2   3
ENDBRANCH   1   2
BRANCH   1  25
ATOM     25  O   UNL A   1      38.492  22.271  25.756  1.00  0.00    -0.374 OA
BRANCH  25  26
ATOM     26  C   UNL A   1      38.127  20.991  25.263  1.00  0.00     0.202 C 
BRANCH  26  27
ATOM     27  C   UNL A   1      38.919  19.762  25.738  1.00  0.00     0.261 C 
BRANCH  27  28
ATOM     28  O   UNL A   1      40.341  19.899  25.705  1.00  0.00    -0.460 OA
BRANCH  28  29
ATOM     29  C   UNL A   1      40.890  20.063  26.935  1.00  0.00     0.338 C 
ATOM     30  O   UNL A   1      40.785  19.322  27.898  1.00  0.00    -0.246 OA
BRANCH  29  31
ATOM     31  C   UNL A   1      41.783  21.233  26.921  1.00  0.00     0.060 A 
ATOM     32  C   UNL A   1      42.365  21.620  28.133  1.00  0.00     0.016 A 
ATOM     33  C   UNL A   1      41.990  21.976  25.757  1.00  0.00     0.016 A 
ATOM     34  C   UNL A   1      43.128  22.781  28.196  1.00  0.00     0.010 A 
ATOM     35  C   UNL A   1      42.744  23.151  25.825  1.00  0.00     0.010 A 
ATOM     36  C   UNL A   1      43.287  23.575  27.051  1.00  0.00    -0.014 A 
BRANCH  36  37
ATOM     37  C   UNL A   1      43.875  24.927  27.190  1.00  0.00     0.031 A 
ATOM     38  C   UNL A   1      42.996  26.049  27.675  1.00  0.00     0.074 A 
ATOM     39  C   UNL A   1      45.182  25.135  26.948  1.00  0.00     0.049 A 
ATOM     40  N   UNL A   1      43.296  27.304  27.877  1.00  0.00    -0.248 NA
ATOM     41  C   UNL A   1      41.596  25.707  27.977  1.00  0.00     0.031 C 
ATOM     42  C   UNL A   1      46.138  24.112  26.524  1.00  0.00     0.029 A 
ATOM     43  N   UNL A   1      45.932  26.281  27.033  1.00  0.00    -0.354 N 
ATOM     44  C   UNL A   1      42.127  27.901  28.335  1.00  0.00     0.074 A 
ATOM     45  C   UNL A   1      41.103  26.882  28.346  1.00  0.00     0.031 C 
ATOM     46  C   UNL A   1      47.350  24.679  26.385  1.00  0.00     0.029 A 
ATOM     47  C   UNL A   1      47.249  26.107  26.678  1.00  0.00     0.049 A 
ATOM     48  H   UNL A   1      45.562  27.146  27.320  1.00  0.00     0.167 HD
ATOM     49  C   UNL A   1      41.929  29.182  28.725  1.00  0.00     0.031 A 
ATOM     50  C   UNL A   1      48.251  27.003  26.586  1.00  0.00     0.031 A 
ATOM     51  C   UNL A   1      42.949  30.196  28.701  1.00  0.00     0.049 A 
ATOM     52  C   UNL A   1      47.979  28.443  26.942  1.00  0.00     0.074 A 
ATOM     53  C   UNL A   1      42.846  31.527  29.063  1.00  0.00     0.029 A 
ATOM     54  N   UNL A   1      44.257  29.991  28.292  1.00  0.00    -0.354 N 
ATOM     55  N   UNL A   1      46.869  28.989  27.382  1.00  0.00    -0.248 NA
ATOM     56  C   UNL A   1      49.097  29.386  26.798  1.00  0.00     0.031 C 
ATOM     57  C   UNL A   1      44.081  32.139  28.826  1.00  0.00     0.029 A 
ATOM     58  C   UNL A   1      44.969  31.175  28.376  1.00  0.00     0.049 A 
ATOM     59  H   UNL A   1      44.625  29.129  27.988  1.00  0.00     0.167 HD
ATOM     60  C   UNL A   1      47.168  30.330  27.600  1.00  0.00     0.074 A 
ATOM     61  C   UNL A   1      48.563  30.510  27.257  1.00  0.00     0.031 C 
ATOM     62  C   UNL A   1      46.362  31.326  28.043  1.00  0.00     0.031 A 
BRANCH  49  63
ATOM     63  C   UNL A   1      40.552  29.566  29.199  1.00  0.00    -0.014 A 
ATOM     64  C   UNL A   1      40.281  29.737  30.568  1.00  0.00     0.010 A 
ATOM     65  C   UNL A   1      39.537  29.825  28.262  1.00  0.00     0.010 A 
ATOM     66  C   UNL A   1      39.013  30.144  30.993  1.00  0.00     0.020 A 
ATOM     67  C   UNL A   1      38.275  30.256  28.680  1.00  0.00     0.020 A 
ATOM     68  C   UNL A   1      38.019  30.404  30.045  1.00  0.00     0.054 A 
BRANCH  68  69
ATOM     69  S   UNL A   1      36.399  30.984  30.622  1.00  0.00     0.124 S 
ATOM     70  O   UNL A   1      36.125  30.067  31.724  1.00  0.00    -0.237 OA
ATOM     71  O   UNL A   1      36.673  32.365  31.007  1.00  0.00    -0.237 OA
ATOM     72  O   UNL A   1      35.537  30.826  29.452  1.00  0.00    -0.744 OA
ENDBRANCH  68  69
ENDBRANCH  49  63
BRANCH  50  73
ATOM     73  C   UNL A   1      49.599  26.584  26.109  1.00  0.00    -0.014 A 
ATOM     74  C   UNL A   1      50.548  26.048  26.999  1.00  0.00     0.010 A 
ATOM     75  C   UNL A   1      49.958  26.766  24.761  1.00  0.00     0.010 A 
ATOM     76  C   UNL A   1      51.839  25.743  26.559  1.00  0.00     0.020 A 
ATOM     77  C   UNL A   1      51.238  26.432  24.310  1.00  0.00     0.020 A 
ATOM     78  C   UNL A   1      52.177  25.943  25.218  1.00  0.00     0.054 A 
BRANCH  78  79
ATOM     79  S   UNL A   1      53.857  25.536  24.665  1.00  0.00     0.124 S 
ATOM     80  O   UNL A   1      54.675  26.133  25.716  1.00  0.00    -0.237 OA
ATOM     81  O   UNL A   1      53.834  24.076  24.631  1.00  0.00    -0.237 OA
ATOM     82  O   UNL A   1      53.950  26.180  23.356  1.00  0.00    -0.744 OA
ENDBRANCH  78  79
ENDBRANCH  50  73
BRANCH  62  83
ATOM     83  C   UNL A   1      46.978  32.688  28.233  1.00  0.00    -0.014 A 
ATOM     84  C   UNL A   1      47.589  33.051  29.445  1.00  0.00     0.010 A 
ATOM     85  C   UNL A   1      46.994  33.595  27.157  1.00  0.00     0.010 A 
ATOM     86  C   UNL A   1      48.174  34.312  29.589  1.00  0.00     0.020 A 
ATOM     87  C   UNL A   1      47.605  34.843  27.287  1.00  0.00     0.020 A 
ATOM     88  C   UNL A   1      48.179  35.200  28.509  1.00  0.00     0.054 A 
BRANCH  88  89
ATOM     89  S   UNL A   1      48.983  36.813  28.709  1.00  0.00     0.124 S 
ATOM     90  O   UNL A   1      47.941  37.731  28.260  1.00  0.00    -0.237 OA
ATOM     91  O   UNL A   1      49.278  36.848  30.139  1.00  0.00    -0.237 OA
ATOM     92  O   UNL A   1      50.154  36.726  27.839  1.00  0.00    -0.744 OA
ENDBRANCH  88  89
ENDBRANCH  62  83
ENDBRANCH  36  37
ENDBRANCH  29  31
ENDBRANCH  28  29
ENDBRANCH  27  28
ENDBRANCH  26  27
ENDBRANCH  25  26
ENDBRANCH   1  25
TORSDOF 21
ENDMDL
MODEL 3
REMARK VINA RESULT:     -10.1      6.961     12.019
REMARK SMILES CC1(C)CCC[C@@]1(NC(=O)OCc1ccccc1)C(=O)OCCOCCOC(=O)c1ccc(-c2c3nc(c(-c4ccc(S(=O)(=O)[O-])cc4)c4ccc([nH]4)c(-c4ccc(S(=O)(=O)[O-])cc4)c4nc(c(-c5ccc(S(=O)(=O)[O-])cc5)c5ccc2[nH]5)C=C4)C=C3)cc1
REMARK SMILES IDX 23 1 22 2 21 3 19 4 20 5 7 6 1 7 2 8 3 9 4 10 5 11 6 12 8 13
REMARK SMILES IDX 9 14 10 16 11 17 12 18 13 19 14 20 18 21 15 22 17 23 16 24
REMARK SMILES IDX 24 25 25 26 26 27 27 28 28 29 29 30 30 31 31 32 89 33 32 34
REMARK SMILES IDX 88 35 33 36 34 37 35 38 82 39 36 40 87 41 81 42 83 43 37 44
REMARK SMILES IDX 86 45 80 46 79 47 38 49 68 50 49 51 67 52 50 53 53 54 66 55
REMARK SMILES IDX 84 56 51 57 52 58 65 60 85 61 54 62 39 63 40 64 48 65 41 66
REMARK SMILES IDX 47 67 42 68 43 69 44 70 45 71 46 72 69 73 70 74 78 75 71 76
REMARK SMILES IDX 77 77 72 78 73 79 74 80 75 81 76 82 55 83 56 84 64 85 57 86
REMARK SMILES IDX 63 87 58 88 59 89 60 90 61 91 62 92
REMARK H PARENT 8 15 83 48 53 59
REMARK Flexibility Score: inf
ROOT
ATOM      1  C   UNL A   1      32.444  30.354  26.559  1.00  0.00     0.202 C 
ENDROOT
BRANCH   1   2
ATOM      2  C   UNL A   1      31.774  29.176  25.856  1.00  0.00     0.261 C 
BRANCH   2   3
ATOM      3  O   UNL A   1      32.446  27.920  26.092  1.00  0.00    -0.461 OA
BRANCH   3   4
ATOM      4  C   UNL A   1      32.965  27.335  24.977  1.00  0.00     0.332 C 
ATOM      5  O   UNL A   1      33.865  27.832  24.303  1.00  0.00    -0.249 OA
BRANCH   4   6
ATOM      6  C   UNL A   1      32.238  26.019  24.562  1.00  0.00     0.146 C 
ATOM      7  C   UNL A   1      34.339  24.952  25.773  1.00  0.00     0.014 C 
ATOM      8  C   UNL A   1      32.889  24.762  25.280  1.00  0.00    -0.001 C 
ATOM      9  C   UNL A   1      32.888  23.487  24.410  1.00  0.00     0.014 C 
ATOM     10  C   UNL A   1      31.986  24.524  26.506  1.00  0.00     0.009 C 
ATOM     11  C   UNL A   1      30.600  25.024  26.145  1.00  0.00     0.004 C 
ATOM     12  C   UNL A   1      30.740  25.923  24.924  1.00  0.00     0.041 C 
BRANCH   6  13
ATOM     13  N   UNL A   1      32.365  25.954  23.083  1.00  0.00    -0.305 N 
ATOM     14  C   UNL A   1      31.486  26.443  22.156  1.00  0.00     0.408 C 
ATOM     15  H   UNL A   1      33.170  25.512  22.732  1.00  0.00     0.168 HD
ATOM     16  O   UNL A   1      31.602  26.157  20.973  1.00  0.00    -0.225 OA
BRANCH  14  17
ATOM     17  O   UNL A   1      30.585  27.306  22.675  1.00  0.00    -0.445 OA
BRANCH  17  18
ATOM     18  C   UNL A   1      30.750  28.690  22.326  1.00  0.00     0.270 C 
BRANCH  18  19
ATOM     19  C   UNL A   1      29.580  29.565  22.742  1.00  0.00    -0.011 A 
ATOM     20  C   UNL A   1      29.835  30.756  23.440  1.00  0.00     0.007 A 
ATOM     21  C   UNL A   1      28.242  29.203  22.524  1.00  0.00     0.007 A 
ATOM     22  C   UNL A   1      28.784  31.552  23.909  1.00  0.00     0.000 A 
ATOM     23  C   UNL A   1      27.193  29.996  22.995  1.00  0.00     0.000 A 
ATOM     24  C   UNL A   1      27.464  31.167  23.693  1.00  0.00     0.000 A 
ENDBRANCH  18  19
ENDBRANCH  17  18
ENDBRANCH  14  17
ENDBRANCH   6  13
ENDBRANCH   4   6
ENDBRANCH   3   4
ENDBRANCH   2   3
ENDBRANCH   1   2
BRANCH   1  25
ATOM     25  O   UNL A   1      33.351  30.088  27.625  1.00  0.00    -0.374 OA
BRANCH  25  26
ATOM     26  C   UNL A   1      34.665  30.617  27.541  1.00  0.00     0.202 C 
BRANCH  26  27
ATOM     27  C   UNL A   1      35.081  31.726  28.520  1.00  0.00     0.261 C 
BRANCH  27  28
ATOM     28  O   UNL A   1      36.465  31.746  28.873  1.00  0.00    -0.460 OA
BRANCH  28  29
ATOM     29  C   UNL A   1      36.793  30.814  29.804  1.00  0.00     0.338 C 
ATOM     30  O   UNL A   1      36.127  30.458  30.760  1.00  0.00    -0.246 OA
BRANCH  29  31
ATOM     31  C   UNL A   1      38.054  30.159  29.419  1.00  0.00     0.060 A 
ATOM     32  C   UNL A   1      38.963  29.855  30.438  1.00  0.00     0.016 A 
ATOM     33  C   UNL A   1      38.366  29.913  28.081  1.00  0.00     0.016 A 
ATOM     34  C   UNL A   1      40.214  29.336  30.118  1.00  0.00     0.010 A 
ATOM     35  C   UNL A   1      39.629  29.406  27.760  1.00  0.00     0.010 A 
ATOM     36  C   UNL A   1      40.569  29.148  28.775  1.00  0.00    -0.014 A 
BRANCH  36  37
ATOM     37  C   UNL A   1      41.979  28.846  28.439  1.00  0.00     0.031 A 
ATOM     38  C   UNL A   1      42.342  27.435  28.058  1.00  0.00     0.074 A 
ATOM     39  C   UNL A   1      42.903  29.823  28.412  1.00  0.00     0.049 A 
ATOM     40  N   UNL A   1      43.505  26.944  27.721  1.00  0.00    -0.248 NA
ATOM     41  C   UNL A   1      41.247  26.450  28.052  1.00  0.00     0.031 C 
ATOM     42  C   UNL A   1      42.654  31.233  28.711  1.00  0.00     0.029 A 
ATOM     43  N   UNL A   1      44.242  29.775  28.111  1.00  0.00    -0.354 N 
ATOM     44  C   UNL A   1      43.282  25.597  27.457  1.00  0.00     0.074 A 
ATOM     45  C   UNL A   1      41.883  25.338  27.709  1.00  0.00     0.031 C 
ATOM     46  C   UNL A   1      43.805  31.917  28.579  1.00  0.00     0.029 A 
ATOM     47  C   UNL A   1      44.875  30.990  28.217  1.00  0.00     0.049 A 
ATOM     48  H   UNL A   1      44.704  28.948  27.844  1.00  0.00     0.167 HD
ATOM     49  C   UNL A   1      44.163  24.663  27.029  1.00  0.00     0.031 A 
ATOM     50  C   UNL A   1      46.174  31.311  28.058  1.00  0.00     0.031 A 
ATOM     51  C   UNL A   1      45.558  24.923  26.792  1.00  0.00     0.049 A 
ATOM     52  C   UNL A   1      47.152  30.230  27.667  1.00  0.00     0.074 A 
ATOM     53  C   UNL A   1      46.537  24.041  26.370  1.00  0.00     0.029 A 
ATOM     54  N   UNL A   1      46.171  26.156  26.956  1.00  0.00    -0.354 N 
ATOM     55  N   UNL A   1      46.922  28.963  27.413  1.00  0.00    -0.248 NA
ATOM     56  C   UNL A   1      48.561  30.625  27.533  1.00  0.00     0.031 C 
ATOM     57  C   UNL A   1      47.753  24.731  26.326  1.00  0.00     0.029 A 
ATOM     58  C   UNL A   1      47.519  26.055  26.660  1.00  0.00     0.049 A 
ATOM     59  H   UNL A   1      45.713  26.980  27.239  1.00  0.00     0.167 HD
ATOM     60  C   UNL A   1      48.152  28.420  27.055  1.00  0.00     0.074 A 
ATOM     61  C   UNL A   1      49.118  29.498  27.112  1.00  0.00     0.031 C 
ATOM     62  C   UNL A   1      48.458  27.145  26.710  1.00  0.00     0.031 A 
BRANCH  49  63
ATOM     63  C   UNL A   1      43.650  23.266  26.803  1.00  0.00    -0.014 A 
ATOM     64  C   UNL A   1      43.843  22.615  25.572  1.00  0.00     0.010 A 
ATOM     65  C   UNL A   1      43.028  22.571  27.855  1.00  0.00     0.010 A 
ATOM     66  C   UNL A   1      43.407  21.300  25.390  1.00  0.00     0.020 A 
ATOM     67  C   UNL A   1      42.612  21.247  27.686  1.00  0.00     0.020 A 
ATOM     68  C   UNL A   1      42.797  20.623  26.451  1.00  0.00     0.054 A 
BRANCH  68  69
ATOM     69  S   UNL A   1      42.292  18.898  26.204  1.00  0.00     0.124 S 
ATOM     70  O   UNL A   1      42.507  18.327  27.530  1.00  0.00    -0.237 OA
ATOM     71  O   UNL A   1      40.896  19.030  25.796  1.00  0.00    -0.237 OA
ATOM     72  O   UNL A   1      43.198  18.416  25.164  1.00  0.00    -0.744 OA
ENDBRANCH  68  69
ENDBRANCH  49  63
BRANCH  50  73
ATOM     73  C   UNL A   1      46.644  32.705  28.295  1.00  0.00    -0.014 A 
ATOM     74  C   UNL A   1      47.152  33.095  29.547  1.00  0.00     0.010 A 
ATOM     75  C   UNL A   1      46.538  33.667  27.273  1.00  0.00     0.010 A 
ATOM     76  C   UNL A   1      47.505  34.427  29.785  1.00  0.00     0.020 A 
ATOM     77  C   UNL A   1      46.920  34.993  27.498  1.00  0.00     0.020 A 
ATOM     78  C   UNL A   1      47.381  35.368  28.760  1.00  0.00     0.054 A 
BRANCH  78  79
ATOM     79  S   UNL A   1      47.848  37.090  29.087  1.00  0.00     0.124 S 
ATOM     80  O   UNL A   1      49.179  37.161  28.495  1.00  0.00    -0.237 OA
ATOM     81  O   UNL A   1      46.803  37.839  28.391  1.00  0.00    -0.237 OA
ATOM     82  O   UNL A   1      47.804  37.185  30.545  1.00  0.00    -0.744 OA
ENDBRANCH  78  79
ENDBRANCH  50  73
BRANCH  62  83
ATOM     83  C   UNL A   1      49.883  26.854  26.317  1.00  0.00    -0.014 A 
ATOM     84  C   UNL A   1      50.385  27.223  25.058  1.00  0.00     0.010 A 
ATOM     85  C   UNL A   1      50.747  26.250  27.250  1.00  0.00     0.010 A 
ATOM     86  C   UNL A   1      51.717  26.962  24.725  1.00  0.00     0.020 A 
ATOM     87  C   UNL A   1      52.086  26.017  26.933  1.00  0.00     0.020 A 
ATOM     88  C   UNL A   1      52.559  26.361  25.666  1.00  0.00     0.054 A 
BRANCH  88  89
ATOM     89  S   UNL A   1      54.295  26.073  25.224  1.00  0.00     0.124 S 
ATOM     90  O   UNL A   1      54.509  27.062  24.173  1.00  0.00    -0.237 OA
ATOM     91  O   UNL A   1      54.992  26.330  26.481  1.00  0.00    -0.237 OA
ATOM     92  O   UNL A   1      54.313  24.680  24.781  1.00  0.00    -0.744 OA
ENDBRANCH  88  89
ENDBRANCH  62  83
ENDBRANCH  36  37
ENDBRANCH  29  31
ENDBRANCH  28  29
ENDBRANCH  27  28
ENDBRANCH  26  27
ENDBRANCH  25  26
ENDBRANCH   1  25
TORSDOF 21
ENDMDL
