MODEL 1
REMARK VINA RESULT:      -9.6      0.000      0.000
REMARK SMILES C[C@H](NC1=[NH+]S(=O)(=O)c2ccccc21)C(=O)OCCOCCOC(=O)c1ccc(-c2c3nc(c(-c4ccc(S(=O)(=O)[O-])cc4)c4ccc([nH]4)c(-c4ccc(S(=O)(=O)[O-])cc4)c4nc(c(-c5ccc(S(=O)(=O)[O-])cc5)c5ccc2[nH]5)C=C4)C=C3)cc1
REMARK SMILES IDX 21 1 20 2 19 3 18 4 17 5 15 6 16 7 2 8 1 9 3 10 4 11 5 13
REMARK SMILES IDX 14 14 6 15 9 17 13 18 7 19 8 20 10 21 12 22 11 23 22 24
REMARK SMILES IDX 23 25 24 26 25 27 26 28 27 29 85 30 28 31 84 32 29 33 30 34
REMARK SMILES IDX 31 35 78 36 32 37 83 38 77 39 79 40 33 41 82 42 76 43 75 44
REMARK SMILES IDX 34 46 64 47 45 48 63 49 46 50 49 51 62 52 80 53 47 54 48 55
REMARK SMILES IDX 61 57 81 58 50 59 35 60 36 61 44 62 37 63 43 64 38 65 39 66
REMARK SMILES IDX 40 67 41 68 42 69 65 70 66 71 74 72 67 73 73 74 68 75 69 76
REMARK SMILES IDX 70 77 71 78 72 79 51 80 52 81 60 82 53 83 59 84 54 85 55 86
REMARK SMILES IDX 56 87 57 88 58 89
REMARK H PARENT 3 12 5 16 79 45 49 56
REMARK Flexibility Score: inf
ROOT
ATOM      1  C   UNL A   1      39.400  22.056  26.276  1.00  0.00     0.202 C 
ENDROOT
BRANCH   1   2
ATOM      2  O   UNL A   1      39.966  20.753  26.120  1.00  0.00    -0.374 OA
BRANCH   2   3
ATOM      3  C   UNL A   1      41.049  20.391  26.969  1.00  0.00     0.202 C 
BRANCH   3   4
ATOM      4  C   UNL A   1      42.407  20.143  26.308  1.00  0.00     0.261 C 
BRANCH   4   5
ATOM      5  O   UNL A   1      42.735  21.107  25.294  1.00  0.00    -0.460 OA
BRANCH   5   6
ATOM      6  C   UNL A   1      44.072  21.358  25.174  1.00  0.00     0.350 C 
ATOM      7  O   UNL A   1      44.936  20.498  25.039  1.00  0.00    -0.247 OA
BRANCH   6   8
ATOM      8  C   UNL A   1      44.411  22.836  25.306  1.00  0.00     0.279 C 
ATOM      9  C   UNL A   1      45.856  22.953  25.785  1.00  0.00     0.071 C 
BRANCH   8  10
ATOM     10  N   UNL A   1      43.547  23.602  26.228  1.00  0.00    -0.260 N 
ATOM     11  C   UNL A   1      43.529  24.972  26.110  1.00  0.00     0.292 C 
ATOM     12  H   UNL A   1      42.998  23.145  26.905  1.00  0.00     0.306 HD
ATOM     13  N   UNL A   1      43.582  25.574  24.954  1.00  0.00    -0.162 N 
ATOM     14  C   UNL A   1      43.612  25.862  27.291  1.00  0.00     0.087 A 
ATOM     15  S   UNL A   1      43.779  27.188  25.134  1.00  0.00     0.329 S 
ATOM     16  H   UNL A   1      43.511  25.115  24.086  1.00  0.00     0.327 HD
ATOM     17  C   UNL A   1      43.849  27.159  26.869  1.00  0.00     0.124 A 
ATOM     18  C   UNL A   1      43.627  25.554  28.639  1.00  0.00     0.018 A 
ATOM     19  O   UNL A   1      42.576  27.895  24.762  1.00  0.00    -0.179 OA
ATOM     20  O   UNL A   1      45.092  27.579  24.657  1.00  0.00    -0.179 OA
ATOM     21  C   UNL A   1      44.179  28.191  27.723  1.00  0.00     0.025 A 
ATOM     22  C   UNL A   1      43.926  26.587  29.539  1.00  0.00     0.001 A 
ATOM     23  C   UNL A   1      44.217  27.889  29.083  1.00  0.00     0.002 A 
ENDBRANCH   8  10
ENDBRANCH   6   8
ENDBRANCH   5   6
ENDBRANCH   4   5
ENDBRANCH   3   4
ENDBRANCH   2   3
ENDBRANCH   1   2
BRANCH   1  24
ATOM     24  C   UNL A   1      40.212  23.082  27.078  1.00  0.00     0.261 C 
BRANCH  24  25
ATOM     25  O   UNL A   1      39.433  24.243  27.426  1.00  0.00    -0.460 OA
BRANCH  25  26
ATOM     26  C   UNL A   1      39.970  25.427  27.030  1.00  0.00     0.338 C 
ATOM     27  O   UNL A   1      40.418  25.703  25.930  1.00  0.00    -0.246 OA
BRANCH  26  28
ATOM     28  C   UNL A   1      39.770  26.443  28.080  1.00  0.00     0.060 A 
ATOM     29  C   UNL A   1      40.386  27.691  27.909  1.00  0.00     0.016 A 
ATOM     30  C   UNL A   1      39.067  26.152  29.250  1.00  0.00     0.016 A 
ATOM     31  C   UNL A   1      40.338  28.640  28.930  1.00  0.00     0.010 A 
ATOM     32  C   UNL A   1      39.030  27.101  30.276  1.00  0.00     0.010 A 
ATOM     33  C   UNL A   1      39.692  28.335  30.133  1.00  0.00    -0.014 A 
BRANCH  33  34
ATOM     34  C   UNL A   1      39.826  29.241  31.299  1.00  0.00     0.031 A 
ATOM     35  C   UNL A   1      40.949  29.011  32.274  1.00  0.00     0.074 A 
ATOM     36  C   UNL A   1      38.952  30.243  31.497  1.00  0.00     0.049 A 
ATOM     37  N   UNL A   1      41.201  29.622  33.402  1.00  0.00    -0.248 NA
ATOM     38  C   UNL A   1      41.908  27.949  31.932  1.00  0.00     0.031 C 
ATOM     39  C   UNL A   1      37.847  30.588  30.604  1.00  0.00     0.029 A 
ATOM     40  N   UNL A   1      38.849  31.142  32.529  1.00  0.00    -0.354 N 
ATOM     41  C   UNL A   1      42.336  29.007  33.917  1.00  0.00     0.074 A 
ATOM     42  C   UNL A   1      42.712  27.965  32.986  1.00  0.00     0.031 C 
ATOM     43  C   UNL A   1      37.158  31.609  31.143  1.00  0.00     0.029 A 
ATOM     44  C   UNL A   1      37.752  31.964  32.430  1.00  0.00     0.049 A 
ATOM     45  H   UNL A   1      39.497  31.193  33.268  1.00  0.00     0.167 HD
ATOM     46  C   UNL A   1      43.003  29.282  35.063  1.00  0.00     0.031 A 
ATOM     47  C   UNL A   1      37.263  32.876  33.295  1.00  0.00     0.031 A 
ATOM     48  C   UNL A   1      42.618  30.310  35.992  1.00  0.00     0.049 A 
ATOM     49  C   UNL A   1      37.985  33.129  34.591  1.00  0.00     0.074 A 
ATOM     50  C   UNL A   1      43.246  30.687  37.166  1.00  0.00     0.029 A 
ATOM     51  N   UNL A   1      41.499  31.117  35.860  1.00  0.00    -0.354 N 
ATOM     52  N   UNL A   1      39.077  32.564  35.048  1.00  0.00    -0.248 NA
ATOM     53  C   UNL A   1      37.412  34.144  35.487  1.00  0.00     0.031 C 
ATOM     54  C   UNL A   1      42.475  31.684  37.773  1.00  0.00     0.029 A 
ATOM     55  C   UNL A   1      41.398  31.968  36.946  1.00  0.00     0.049 A 
ATOM     56  H   UNL A   1      40.868  31.089  35.104  1.00  0.00     0.167 HD
ATOM     57  C   UNL A   1      39.336  33.171  36.273  1.00  0.00     0.074 A 
ATOM     58  C   UNL A   1      38.289  34.152  36.483  1.00  0.00     0.031 C 
ATOM     59  C   UNL A   1      40.351  32.940  37.141  1.00  0.00     0.031 A 
BRANCH  46  60
ATOM     60  C   UNL A   1      44.190  28.420  35.395  1.00  0.00    -0.014 A 
ATOM     61  C   UNL A   1      45.488  28.765  34.975  1.00  0.00     0.010 A 
ATOM     62  C   UNL A   1      44.004  27.248  36.151  1.00  0.00     0.010 A 
ATOM     63  C   UNL A   1      46.568  27.926  35.260  1.00  0.00     0.020 A 
ATOM     64  C   UNL A   1      45.087  26.420  36.460  1.00  0.00     0.020 A 
ATOM     65  C   UNL A   1      46.359  26.753  35.993  1.00  0.00     0.054 A 
BRANCH  65  66
ATOM     66  S   UNL A   1      47.775  25.677  36.343  1.00  0.00     0.124 S 
ATOM     67  O   UNL A   1      48.418  25.593  35.034  1.00  0.00    -0.237 OA
ATOM     68  O   UNL A   1      48.511  26.431  37.356  1.00  0.00    -0.237 OA
ATOM     69  O   UNL A   1      47.162  24.438  36.816  1.00  0.00    -0.744 OA
ENDBRANCH  65  66
ENDBRANCH  46  60
BRANCH  47  70
ATOM     70  C   UNL A   1      35.999  33.588  32.967  1.00  0.00    -0.014 A 
ATOM     71  C   UNL A   1      34.814  33.313  33.670  1.00  0.00     0.010 A 
ATOM     72  C   UNL A   1      35.991  34.578  31.968  1.00  0.00     0.010 A 
ATOM     73  C   UNL A   1      33.643  34.019  33.380  1.00  0.00     0.020 A 
ATOM     74  C   UNL A   1      34.829  35.302  31.692  1.00  0.00     0.020 A 
ATOM     75  C   UNL A   1      33.659  35.014  32.398  1.00  0.00     0.054 A 
BRANCH  75  76
ATOM     76  S   UNL A   1      32.152  35.978  32.098  1.00  0.00     0.124 S 
ATOM     77  O   UNL A   1      32.229  36.226  30.662  1.00  0.00    -0.237 OA
ATOM     78  O   UNL A   1      31.100  35.061  32.529  1.00  0.00    -0.237 OA
ATOM     79  O   UNL A   1      32.326  37.154  32.949  1.00  0.00    -0.744 OA
ENDBRANCH  75  76
ENDBRANCH  47  70
BRANCH  59  80
ATOM     80  C   UNL A   1      40.408  33.776  38.393  1.00  0.00    -0.014 A 
ATOM     81  C   UNL A   1      39.832  33.328  39.594  1.00  0.00     0.010 A 
ATOM     82  C   UNL A   1      41.130  34.983  38.385  1.00  0.00     0.010 A 
ATOM     83  C   UNL A   1      39.969  34.079  40.764  1.00  0.00     0.020 A 
ATOM     84  C   UNL A   1      41.288  35.726  39.558  1.00  0.00     0.020 A 
ATOM     85  C   UNL A   1      40.700  35.272  40.740  1.00  0.00     0.054 A 
BRANCH  85  86
ATOM     86  S   UNL A   1      40.926  36.191  42.288  1.00  0.00     0.124 S 
ATOM     87  O   UNL A   1      39.773  37.086  42.281  1.00  0.00    -0.237 OA
ATOM     88  O   UNL A   1      40.898  35.134  43.296  1.00  0.00    -0.237 OA
ATOM     89  O   UNL A   1      42.223  36.844  42.116  1.00  0.00    -0.744 OA
ENDBRANCH  85  86
ENDBRANCH  59  80
ENDBRANCH  33  34
ENDBRANCH  26  28
ENDBRANCH  25  26
ENDBRANCH  24  25
ENDBRANCH   1  24
TORSDOF 18
ENDMDL
MODEL 2
REMARK VINA RESULT:      -9.3      6.561     13.537
REMARK SMILES C[C@H](NC1=[NH+]S(=O)(=O)c2ccccc21)C(=O)OCCOCCOC(=O)c1ccc(-c2c3nc(c(-c4ccc(S(=O)(=O)[O-])cc4)c4ccc([nH]4)c(-c4ccc(S(=O)(=O)[O-])cc4)c4nc(c(-c5ccc(S(=O)(=O)[O-])cc5)c5ccc2[nH]5)C=C4)C=C3)cc1
REMARK SMILES IDX 21 1 20 2 19 3 18 4 17 5 15 6 16 7 2 8 1 9 3 10 4 11 5 13
REMARK SMILES IDX 14 14 6 15 9 17 13 18 7 19 8 20 10 21 12 22 11 23 22 24
REMARK SMILES IDX 23 25 24 26 25 27 26 28 27 29 85 30 28 31 84 32 29 33 30 34
REMARK SMILES IDX 31 35 78 36 32 37 83 38 77 39 79 40 33 41 82 42 76 43 75 44
REMARK SMILES IDX 34 46 64 47 45 48 63 49 46 50 49 51 62 52 80 53 47 54 48 55
REMARK SMILES IDX 61 57 81 58 50 59 35 60 36 61 44 62 37 63 43 64 38 65 39 66
REMARK SMILES IDX 40 67 41 68 42 69 65 70 66 71 74 72 67 73 73 74 68 75 69 76
REMARK SMILES IDX 70 77 71 78 72 79 51 80 52 81 60 82 53 83 59 84 54 85 55 86
REMARK SMILES IDX 56 87 57 88 58 89
REMARK H PARENT 3 12 5 16 79 45 49 56
REMARK Flexibility Score: inf
ROOT
ATOM      1  C   UNL A   1      34.504  32.509  28.004  1.00  0.00     0.202 C 
ENDROOT
BRANCH   1   2
ATOM      2  O   UNL A   1      34.768  31.254  27.374  1.00  0.00    -0.374 OA
BRANCH   2   3
ATOM      3  C   UNL A   1      33.820  30.207  27.550  1.00  0.00     0.202 C 
BRANCH   3   4
ATOM      4  C   UNL A   1      32.433  30.404  26.931  1.00  0.00     0.261 C 
BRANCH   4   5
ATOM      5  O   UNL A   1      32.080  29.384  25.984  1.00  0.00    -0.460 OA
BRANCH   5   6
ATOM      6  C   UNL A   1      31.960  28.136  26.526  1.00  0.00     0.350 C 
ATOM      7  O   UNL A   1      31.343  27.876  27.554  1.00  0.00    -0.247 OA
BRANCH   6   8
ATOM      8  C   UNL A   1      32.748  27.080  25.764  1.00  0.00     0.279 C 
ATOM      9  C   UNL A   1      33.740  27.793  24.849  1.00  0.00     0.071 C 
BRANCH   8  10
ATOM     10  N   UNL A   1      31.936  26.154  24.947  1.00  0.00    -0.260 N 
ATOM     11  C   UNL A   1      31.645  24.916  25.470  1.00  0.00     0.292 C 
ATOM     12  H   UNL A   1      31.612  26.417  24.057  1.00  0.00     0.306 HD
ATOM     13  N   UNL A   1      31.378  24.738  26.734  1.00  0.00    -0.162 N 
ATOM     14  C   UNL A   1      31.773  23.676  24.669  1.00  0.00     0.087 A 
ATOM     15  S   UNL A   1      31.302  23.146  27.106  1.00  0.00     0.329 S 
ATOM     16  H   UNL A   1      31.239  25.467  27.381  1.00  0.00     0.327 HD
ATOM     17  C   UNL A   1      31.686  22.580  25.509  1.00  0.00     0.124 A 
ATOM     18  C   UNL A   1      32.085  23.508  23.332  1.00  0.00     0.018 A 
ATOM     19  O   UNL A   1      29.943  22.751  27.389  1.00  0.00    -0.179 OA
ATOM     20  O   UNL A   1      32.414  22.789  27.967  1.00  0.00    -0.179 OA
ATOM     21  C   UNL A   1      31.967  21.290  25.110  1.00  0.00     0.025 A 
ATOM     22  C   UNL A   1      32.344  22.205  22.884  1.00  0.00     0.001 A 
ATOM     23  C   UNL A   1      32.303  21.108  23.770  1.00  0.00     0.002 A 
ENDBRANCH   8  10
ENDBRANCH   6   8
ENDBRANCH   5   6
ENDBRANCH   4   5
ENDBRANCH   3   4
ENDBRANCH   2   3
ENDBRANCH   1   2
BRANCH   1  24
ATOM     24  C   UNL A   1      34.869  32.639  29.489  1.00  0.00     0.261 C 
BRANCH  24  25
ATOM     25  O   UNL A   1      36.276  32.436  29.725  1.00  0.00    -0.460 OA
BRANCH  25  26
ATOM     26  C   UNL A   1      36.565  31.463  30.628  1.00  0.00     0.338 C 
ATOM     27  O   UNL A   1      35.882  31.108  31.574  1.00  0.00    -0.246 OA
BRANCH  26  28
ATOM     28  C   UNL A   1      37.770  30.727  30.203  1.00  0.00     0.060 A 
ATOM     29  C   UNL A   1      38.685  30.341  31.192  1.00  0.00     0.016 A 
ATOM     30  C   UNL A   1      38.044  30.498  28.854  1.00  0.00     0.016 A 
ATOM     31  C   UNL A   1      39.900  29.761  30.833  1.00  0.00     0.010 A 
ATOM     32  C   UNL A   1      39.268  29.927  28.495  1.00  0.00     0.010 A 
ATOM     33  C   UNL A   1      40.214  29.586  29.480  1.00  0.00    -0.014 A 
BRANCH  33  34
ATOM     34  C   UNL A   1      41.584  29.181  29.081  1.00  0.00     0.031 A 
ATOM     35  C   UNL A   1      42.661  30.229  29.011  1.00  0.00     0.074 A 
ATOM     36  C   UNL A   1      41.862  27.903  28.770  1.00  0.00     0.049 A 
ATOM     37  N   UNL A   1      43.897  30.116  28.603  1.00  0.00    -0.248 NA
ATOM     38  C   UNL A   1      42.289  31.583  29.453  1.00  0.00     0.031 C 
ATOM     39  C   UNL A   1      40.913  26.793  28.836  1.00  0.00     0.029 A 
ATOM     40  N   UNL A   1      43.023  27.331  28.315  1.00  0.00    -0.354 N 
ATOM     41  C   UNL A   1      44.449  31.387  28.720  1.00  0.00     0.074 A 
ATOM     42  C   UNL A   1      43.407  32.257  29.221  1.00  0.00     0.031 C 
ATOM     43  C   UNL A   1      41.525  25.675  28.409  1.00  0.00     0.029 A 
ATOM     44  C   UNL A   1      42.893  25.998  28.008  1.00  0.00     0.049 A 
ATOM     45  H   UNL A   1      43.868  27.827  28.219  1.00  0.00     0.167 HD
ATOM     46  C   UNL A   1      45.709  31.794  28.434  1.00  0.00     0.031 A 
ATOM     47  C   UNL A   1      43.766  25.144  27.437  1.00  0.00     0.031 A 
ATOM     48  C   UNL A   1      46.739  30.928  27.924  1.00  0.00     0.049 A 
ATOM     49  C   UNL A   1      45.143  25.627  27.070  1.00  0.00     0.074 A 
ATOM     50  C   UNL A   1      48.055  31.238  27.631  1.00  0.00     0.029 A 
ATOM     51  N   UNL A   1      46.566  29.587  27.620  1.00  0.00    -0.354 N 
ATOM     52  N   UNL A   1      45.662  26.823  27.220  1.00  0.00    -0.248 NA
ATOM     53  C   UNL A   1      46.055  24.646  26.464  1.00  0.00     0.031 C 
ATOM     54  C   UNL A   1      48.663  30.097  27.096  1.00  0.00     0.029 A 
ATOM     55  C   UNL A   1      47.740  29.061  27.112  1.00  0.00     0.049 A 
ATOM     56  H   UNL A   1      45.729  29.082  27.747  1.00  0.00     0.167 HD
ATOM     57  C   UNL A   1      46.967  26.733  26.747  1.00  0.00     0.074 A 
ATOM     58  C   UNL A   1      47.162  25.364  26.314  1.00  0.00     0.031 C 
ATOM     59  C   UNL A   1      47.919  27.696  26.684  1.00  0.00     0.031 A 
BRANCH  46  60
ATOM     60  C   UNL A   1      46.023  33.253  28.620  1.00  0.00    -0.014 A 
ATOM     61  C   UNL A   1      45.817  34.186  27.587  1.00  0.00     0.010 A 
ATOM     62  C   UNL A   1      46.523  33.701  29.857  1.00  0.00     0.010 A 
ATOM     63  C   UNL A   1      46.154  35.529  27.770  1.00  0.00     0.020 A 
ATOM     64  C   UNL A   1      46.837  35.048  30.052  1.00  0.00     0.020 A 
ATOM     65  C   UNL A   1      46.672  35.950  28.999  1.00  0.00     0.054 A 
BRANCH  65  66
ATOM     66  S   UNL A   1      47.111  37.697  29.210  1.00  0.00     0.124 S 
ATOM     67  O   UNL A   1      46.087  38.360  28.407  1.00  0.00    -0.237 OA
ATOM     68  O   UNL A   1      46.996  37.886  30.654  1.00  0.00    -0.237 OA
ATOM     69  O   UNL A   1      48.469  37.780  28.680  1.00  0.00    -0.744 OA
ENDBRANCH  65  66
ENDBRANCH  46  60
BRANCH  47  70
ATOM     70  C   UNL A   1      43.337  23.750  27.145  1.00  0.00    -0.014 A 
ATOM     71  C   UNL A   1      43.296  22.780  28.161  1.00  0.00     0.010 A 
ATOM     72  C   UNL A   1      42.929  23.399  25.845  1.00  0.00     0.010 A 
ATOM     73  C   UNL A   1      42.851  21.485  27.882  1.00  0.00     0.020 A 
ATOM     74  C   UNL A   1      42.462  22.113  25.568  1.00  0.00     0.020 A 
ATOM     75  C   UNL A   1      42.430  21.161  26.588  1.00  0.00     0.054 A 
BRANCH  75  76
ATOM     76  S   UNL A   1      41.774  19.500  26.268  1.00  0.00     0.124 S 
ATOM     77  O   UNL A   1      42.479  19.125  25.047  1.00  0.00    -0.237 OA
ATOM     78  O   UNL A   1      42.160  18.771  27.473  1.00  0.00    -0.237 OA
ATOM     79  O   UNL A   1      40.337  19.725  26.120  1.00  0.00    -0.744 OA
ENDBRANCH  75  76
ENDBRANCH  47  70
BRANCH  59  80
ATOM     80  C   UNL A   1      49.274  27.310  26.153  1.00  0.00    -0.014 A 
ATOM     81  C   UNL A   1      50.253  26.753  26.993  1.00  0.00     0.010 A 
ATOM     82  C   UNL A   1      49.534  27.421  24.774  1.00  0.00     0.010 A 
ATOM     83  C   UNL A   1      51.474  26.323  26.464  1.00  0.00     0.020 A 
ATOM     84  C   UNL A   1      50.744  26.972  24.239  1.00  0.00     0.020 A 
ATOM     85  C   UNL A   1      51.710  26.432  25.089  1.00  0.00     0.054 A 
BRANCH  85  86
ATOM     86  S   UNL A   1      53.272  25.799  24.417  1.00  0.00     0.124 S 
ATOM     87  O   UNL A   1      54.236  26.772  24.922  1.00  0.00    -0.237 OA
ATOM     88  O   UNL A   1      53.357  24.464  25.006  1.00  0.00    -0.237 OA
ATOM     89  O   UNL A   1      53.060  25.822  22.971  1.00  0.00    -0.744 OA
ENDBRANCH  85  86
ENDBRANCH  59  80
ENDBRANCH  33  34
ENDBRANCH  26  28
ENDBRANCH  25  26
ENDBRANCH  24  25
ENDBRANCH   1  24
TORSDOF 18
ENDMDL
MODEL 3
REMARK VINA RESULT:      -9.1      3.582      5.330
REMARK SMILES C[C@H](NC1=[NH+]S(=O)(=O)c2ccccc21)C(=O)OCCOCCOC(=O)c1ccc(-c2c3nc(c(-c4ccc(S(=O)(=O)[O-])cc4)c4ccc([nH]4)c(-c4ccc(S(=O)(=O)[O-])cc4)c4nc(c(-c5ccc(S(=O)(=O)[O-])cc5)c5ccc2[nH]5)C=C4)C=C3)cc1
REMARK SMILES IDX 21 1 20 2 19 3 18 4 17 5 15 6 16 7 2 8 1 9 3 10 4 11 5 13
REMARK SMILES IDX 14 14 6 15 9 17 13 18 7 19 8 20 10 21 12 22 11 23 22 24
REMARK SMILES IDX 23 25 24 26 25 27 26 28 27 29 85 30 28 31 84 32 29 33 30 34
REMARK SMILES IDX 31 35 78 36 32 37 83 38 77 39 79 40 33 41 82 42 76 43 75 44
REMARK SMILES IDX 34 46 64 47 45 48 63 49 46 50 49 51 62 52 80 53 47 54 48 55
REMARK SMILES IDX 61 57 81 58 50 59 35 60 36 61 44 62 37 63 43 64 38 65 39 66
REMARK SMILES IDX 40 67 41 68 42 69 65 70 66 71 74 72 67 73 73 74 68 75 69 76
REMARK SMILES IDX 70 77 71 78 72 79 51 80 52 81 60 82 53 83 59 84 54 85 55 86
REMARK SMILES IDX 56 87 57 88 58 89
REMARK H PARENT 3 12 5 16 79 45 49 56
REMARK Flexibility Score: inf
ROOT
ATOM      1  C   UNL A   1      43.055  21.881  25.385  1.00  0.00     0.202 C 
ENDROOT
BRANCH   1   2
ATOM      2  O   UNL A   1      42.251  21.343  26.438  1.00  0.00    -0.374 OA
BRANCH   2   3
ATOM      3  C   UNL A   1      40.894  21.031  26.145  1.00  0.00     0.202 C 
BRANCH   3   4
ATOM      4  C   UNL A   1      39.824  21.992  26.669  1.00  0.00     0.261 C 
BRANCH   4   5
ATOM      5  O   UNL A   1      38.588  21.926  25.939  1.00  0.00    -0.460 OA
BRANCH   5   6
ATOM      6  C   UNL A   1      37.854  23.077  25.980  1.00  0.00     0.350 C 
ATOM      7  O   UNL A   1      38.230  24.130  26.485  1.00  0.00    -0.247 OA
BRANCH   6   8
ATOM      8  C   UNL A   1      36.458  22.910  25.396  1.00  0.00     0.279 C 
ATOM      9  C   UNL A   1      36.587  22.237  24.032  1.00  0.00     0.071 C 
BRANCH   8  10
ATOM     10  N   UNL A   1      35.689  24.161  25.233  1.00  0.00    -0.260 N 
ATOM     11  C   UNL A   1      34.327  24.113  25.422  1.00  0.00     0.292 C 
ATOM     12  H   UNL A   1      36.138  25.004  24.998  1.00  0.00     0.306 HD
ATOM     13  N   UNL A   1      33.777  23.375  26.346  1.00  0.00    -0.162 N 
ATOM     14  C   UNL A   1      33.382  24.767  24.488  1.00  0.00     0.087 A 
ATOM     15  S   UNL A   1      32.149  23.337  26.184  1.00  0.00     0.329 S 
ATOM     16  H   UNL A   1      34.277  22.902  27.051  1.00  0.00     0.327 HD
ATOM     17  C   UNL A   1      32.097  24.331  24.761  1.00  0.00     0.124 A 
ATOM     18  C   UNL A   1      33.627  25.569  23.389  1.00  0.00     0.018 A 
ATOM     19  O   UNL A   1      31.512  24.074  27.250  1.00  0.00    -0.179 OA
ATOM     20  O   UNL A   1      31.724  22.006  25.795  1.00  0.00    -0.179 OA
ATOM     21  C   UNL A   1      31.014  24.592  23.947  1.00  0.00     0.025 A 
ATOM     22  C   UNL A   1      32.543  25.883  22.557  1.00  0.00     0.001 A 
ATOM     23  C   UNL A   1      31.252  25.383  22.824  1.00  0.00     0.002 A 
ENDBRANCH   8  10
ENDBRANCH   6   8
ENDBRANCH   5   6
ENDBRANCH   4   5
ENDBRANCH   3   4
ENDBRANCH   2   3
ENDBRANCH   1   2
BRANCH   1  24
ATOM     24  C   UNL A   1      43.030  23.403  25.191  1.00  0.00     0.261 C 
BRANCH  24  25
ATOM     25  O   UNL A   1      42.439  24.087  26.313  1.00  0.00    -0.460 OA
BRANCH  25  26
ATOM     26  C   UNL A   1      42.066  25.369  26.063  1.00  0.00     0.338 C 
ATOM     27  O   UNL A   1      41.656  25.827  25.010  1.00  0.00    -0.246 OA
BRANCH  26  28
ATOM     28  C   UNL A   1      42.039  26.137  27.322  1.00  0.00     0.060 A 
ATOM     29  C   UNL A   1      40.967  25.918  28.199  1.00  0.00     0.016 A 
ATOM     30  C   UNL A   1      42.994  27.116  27.599  1.00  0.00     0.016 A 
ATOM     31  C   UNL A   1      40.823  26.709  29.338  1.00  0.00     0.010 A 
ATOM     32  C   UNL A   1      42.841  27.916  28.735  1.00  0.00     0.010 A 
ATOM     33  C   UNL A   1      41.738  27.737  29.591  1.00  0.00    -0.014 A 
BRANCH  33  34
ATOM     34  C   UNL A   1      41.472  28.721  30.667  1.00  0.00     0.031 A 
ATOM     35  C   UNL A   1      42.284  28.655  31.932  1.00  0.00     0.074 A 
ATOM     36  C   UNL A   1      40.510  29.650  30.529  1.00  0.00     0.049 A 
ATOM     37  N   UNL A   1      42.161  29.354  33.030  1.00  0.00    -0.248 NA
ATOM     38  C   UNL A   1      43.372  27.666  31.962  1.00  0.00     0.031 C 
ATOM     39  C   UNL A   1      39.683  29.838  29.338  1.00  0.00     0.029 A 
ATOM     40  N   UNL A   1      40.054  30.597  31.411  1.00  0.00    -0.354 N 
ATOM     41  C   UNL A   1      43.144  28.877  33.891  1.00  0.00     0.074 A 
ATOM     42  C   UNL A   1      43.841  27.819  33.192  1.00  0.00     0.031 C 
ATOM     43  C   UNL A   1      38.800  30.824  29.575  1.00  0.00     0.029 A 
ATOM     44  C   UNL A   1      38.977  31.310  30.942  1.00  0.00     0.049 A 
ATOM     45  H   UNL A   1      40.461  30.753  32.295  1.00  0.00     0.167 HD
ATOM     46  C   UNL A   1      43.436  29.282  35.150  1.00  0.00     0.031 A 
ATOM     47  C   UNL A   1      38.200  32.224  31.556  1.00  0.00     0.031 A 
ATOM     48  C   UNL A   1      42.732  30.326  35.844  1.00  0.00     0.049 A 
ATOM     49  C   UNL A   1      38.503  32.621  32.976  1.00  0.00     0.074 A 
ATOM     50  C   UNL A   1      42.972  30.830  37.111  1.00  0.00     0.029 A 
ATOM     51  N   UNL A   1      41.643  31.018  35.338  1.00  0.00    -0.354 N 
ATOM     52  N   UNL A   1      39.457  32.187  33.765  1.00  0.00    -0.248 NA
ATOM     53  C   UNL A   1      37.630  33.633  33.587  1.00  0.00     0.031 C 
ATOM     54  C   UNL A   1      41.992  31.788  37.392  1.00  0.00     0.029 A 
ATOM     55  C   UNL A   1      41.178  31.922  36.277  1.00  0.00     0.049 A 
ATOM     56  H   UNL A   1      41.256  30.886  34.441  1.00  0.00     0.167 HD
ATOM     57  C   UNL A   1      39.313  32.888  34.957  1.00  0.00     0.074 A 
ATOM     58  C   UNL A   1      38.185  33.781  34.784  1.00  0.00     0.031 C 
ATOM     59  C   UNL A   1      40.053  32.804  36.090  1.00  0.00     0.031 A 
BRANCH  46  60
ATOM     60  C   UNL A   1      44.537  28.553  35.871  1.00  0.00    -0.014 A 
ATOM     61  C   UNL A   1      45.875  28.982  35.792  1.00  0.00     0.010 A 
ATOM     62  C   UNL A   1      44.224  27.424  36.650  1.00  0.00     0.010 A 
ATOM     63  C   UNL A   1      46.885  28.264  36.437  1.00  0.00     0.020 A 
ATOM     64  C   UNL A   1      45.229  26.719  37.317  1.00  0.00     0.020 A 
ATOM     65  C   UNL A   1      46.556  27.131  37.188  1.00  0.00     0.054 A 
BRANCH  65  66
ATOM     66  S   UNL A   1      47.886  26.211  38.009  1.00  0.00     0.124 S 
ATOM     67  O   UNL A   1      47.536  26.373  39.417  1.00  0.00    -0.237 OA
ATOM     68  O   UNL A   1      47.723  24.861  37.473  1.00  0.00    -0.237 OA
ATOM     69  O   UNL A   1      49.101  26.904  37.586  1.00  0.00    -0.744 OA
ENDBRANCH  65  66
ENDBRANCH  46  60
BRANCH  47  70
ATOM     70  C   UNL A   1      37.034  32.797  30.831  1.00  0.00    -0.014 A 
ATOM     71  C   UNL A   1      35.726  32.379  31.124  1.00  0.00     0.010 A 
ATOM     72  C   UNL A   1      37.234  33.799  29.863  1.00  0.00     0.010 A 
ATOM     73  C   UNL A   1      34.636  32.954  30.464  1.00  0.00     0.020 A 
ATOM     74  C   UNL A   1      36.147  34.394  29.219  1.00  0.00     0.020 A 
ATOM     75  C   UNL A   1      34.854  33.964  29.520  1.00  0.00     0.054 A 
BRANCH  75  76
ATOM     76  S   UNL A   1      33.422  34.759  28.740  1.00  0.00     0.124 S 
ATOM     77  O   UNL A   1      32.527  34.956  29.875  1.00  0.00    -0.237 OA
ATOM     78  O   UNL A   1      34.005  35.973  28.174  1.00  0.00    -0.237 OA
ATOM     79  O   UNL A   1      32.981  33.773  27.754  1.00  0.00    -0.744 OA
ENDBRANCH  75  76
ENDBRANCH  47  70
BRANCH  59  80
ATOM     80  C   UNL A   1      39.693  33.717  37.233  1.00  0.00    -0.014 A 
ATOM     81  C   UNL A   1      38.789  33.313  38.230  1.00  0.00     0.010 A 
ATOM     82  C   UNL A   1      40.344  34.959  37.357  1.00  0.00     0.010 A 
ATOM     83  C   UNL A   1      38.533  34.141  39.326  1.00  0.00     0.020 A 
ATOM     84  C   UNL A   1      40.107  35.779  38.462  1.00  0.00     0.020 A 
ATOM     85  C   UNL A   1      39.197  35.368  39.438  1.00  0.00     0.054 A 
BRANCH  85  86
ATOM     86  S   UNL A   1      38.904  36.391  40.907  1.00  0.00     0.124 S 
ATOM     87  O   UNL A   1      37.831  35.660  41.576  1.00  0.00    -0.237 OA
ATOM     88  O   UNL A   1      40.199  36.363  41.582  1.00  0.00    -0.237 OA
ATOM     89  O   UNL A   1      38.524  37.690  40.354  1.00  0.00    -0.744 OA
ENDBRANCH  85  86
ENDBRANCH  59  80
ENDBRANCH  33  34
ENDBRANCH  26  28
ENDBRANCH  25  26
ENDBRANCH  24  25
ENDBRANCH   1  24
TORSDOF 18
ENDMDL
