MODEL 1
REMARK VINA RESULT:     -10.0      0.000      0.000
REMARK SMILES COc1ccccc1[C@H](C)NC(=O)[C@@H]1CC=CC[C@@H]1C(=O)OCCOCCOC(=O)c1ccc(-c2c3nc(c(-c4ccc(S(=O)(=O)[O-])cc4)c4ccc([nH]4)c(-c4ccc(S(=O)(=O)[O-])cc4)c4nc(c(-c5ccc(S(=O)(=O)[O-])cc5)c5ccc2[nH]5)C=C4)C=C3)cc1
REMARK SMILES IDX 24 1 23 2 22 3 20 4 21 5 19 6 14 7 15 8 16 9 18 10 17 11
REMARK SMILES IDX 12 12 11 13 13 15 9 16 10 17 8 18 3 19 4 20 5 21 7 22 6 23
REMARK SMILES IDX 2 24 1 25 25 26 26 27 27 28 28 29 29 30 30 31 31 32 32 33
REMARK SMILES IDX 90 34 33 35 89 36 34 37 35 38 36 39 83 40 37 41 88 42 82 43
REMARK SMILES IDX 84 44 38 45 87 46 81 47 80 48 39 50 69 51 50 52 68 53 51 54
REMARK SMILES IDX 54 55 67 56 85 57 52 58 53 59 66 61 86 62 55 63 40 64 41 65
REMARK SMILES IDX 49 66 42 67 48 68 43 69 44 70 45 71 46 72 47 73 70 74 71 75
REMARK SMILES IDX 79 76 72 77 78 78 73 79 74 80 75 81 76 82 77 83 56 84 57 85
REMARK SMILES IDX 65 86 58 87 64 88 59 89 60 90 61 91 62 92 63 93
REMARK H PARENT 11 14 84 49 54 60
REMARK Flexibility Score: inf
ROOT
ATOM      1  C   UNL A   1      32.175  27.075  26.674  1.00  0.00     0.202 C 
ENDROOT
BRANCH   1   2
ATOM      2  C   UNL A   1      33.249  26.169  26.073  1.00  0.00     0.261 C 
BRANCH   2   3
ATOM      3  O   UNL A   1      32.961  24.795  26.398  1.00  0.00    -0.463 OA
BRANCH   3   4
ATOM      4  C   UNL A   1      33.889  23.879  26.071  1.00  0.00     0.310 C 
ATOM      5  O   UNL A   1      33.988  22.780  26.612  1.00  0.00    -0.252 OA
BRANCH   4   6
ATOM      6  C   UNL A   1      34.823  24.300  24.937  1.00  0.00     0.115 C 
ATOM      7  C   UNL A   1      34.739  23.691  23.515  1.00  0.00     0.097 C 
ATOM      8  C   UNL A   1      35.588  22.434  23.260  1.00  0.00     0.041 C 
ATOM      9  C   UNL A   1      36.889  22.400  23.984  1.00  0.00    -0.030 C 
ATOM     10  C   UNL A   1      36.273  24.302  25.492  1.00  0.00     0.043 C 
ATOM     11  C   UNL A   1      37.194  23.236  24.980  1.00  0.00    -0.030 C 
BRANCH   7  12
ATOM     12  C   UNL A   1      33.335  23.391  23.004  1.00  0.00     0.224 C 
ATOM     13  N   UNL A   1      32.686  24.271  22.209  1.00  0.00    -0.349 N 
ATOM     14  H   UNL A   1      31.727  24.082  22.095  1.00  0.00     0.164 HD
ATOM     15  O   UNL A   1      32.749  22.337  23.256  1.00  0.00    -0.275 OA
BRANCH  13  16
ATOM     16  C   UNL A   1      33.156  25.450  21.492  1.00  0.00     0.113 C 
ATOM     17  C   UNL A   1      32.518  25.442  20.097  1.00  0.00     0.036 C 
BRANCH  16  18
ATOM     18  C   UNL A   1      32.842  26.730  22.242  1.00  0.00     0.016 A 
ATOM     19  C   UNL A   1      31.603  26.922  22.881  1.00  0.00     0.124 A 
ATOM     20  C   UNL A   1      31.316  28.120  23.544  1.00  0.00     0.047 A 
ATOM     21  C   UNL A   1      32.257  29.147  23.581  1.00  0.00     0.004 A 
ATOM     22  C   UNL A   1      33.781  27.780  22.309  1.00  0.00     0.010 A 
ATOM     23  C   UNL A   1      33.487  28.981  22.956  1.00  0.00     0.001 A 
BRANCH  19  24
ATOM     24  O   UNL A   1      30.567  26.031  22.754  1.00  0.00    -0.496 OA
ATOM     25  C   UNL A   1      29.747  25.957  23.917  1.00  0.00     0.278 C 
ENDBRANCH  19  24
ENDBRANCH  16  18
ENDBRANCH  13  16
ENDBRANCH   7  12
ENDBRANCH   4   6
ENDBRANCH   3   4
ENDBRANCH   2   3
ENDBRANCH   1   2
BRANCH   1  26
ATOM     26  O   UNL A   1      32.662  28.300  27.234  1.00  0.00    -0.374 OA
BRANCH  26  27
ATOM     27  C   UNL A   1      31.725  29.376  27.305  1.00  0.00     0.202 C 
BRANCH  27  28
ATOM     28  C   UNL A   1      32.300  30.773  27.043  1.00  0.00     0.261 C 
BRANCH  28  29
ATOM     29  O   UNL A   1      33.739  30.753  27.009  1.00  0.00    -0.460 OA
BRANCH  29  30
ATOM     30  C   UNL A   1      34.343  31.553  27.914  1.00  0.00     0.338 C 
ATOM     31  O   UNL A   1      33.823  32.473  28.537  1.00  0.00    -0.246 OA
BRANCH  30  32
ATOM     32  C   UNL A   1      35.705  31.073  28.221  1.00  0.00     0.060 A 
ATOM     33  C   UNL A   1      35.827  29.733  28.613  1.00  0.00     0.016 A 
ATOM     34  C   UNL A   1      36.827  31.904  28.201  1.00  0.00     0.016 A 
ATOM     35  C   UNL A   1      37.049  29.241  29.060  1.00  0.00     0.010 A 
ATOM     36  C   UNL A   1      38.057  31.408  28.655  1.00  0.00     0.010 A 
ATOM     37  C   UNL A   1      38.162  30.089  29.131  1.00  0.00    -0.014 A 
BRANCH  37  38
ATOM     38  C   UNL A   1      39.374  29.618  29.849  1.00  0.00     0.031 A 
ATOM     39  C   UNL A   1      39.752  30.274  31.151  1.00  0.00     0.074 A 
ATOM     40  C   UNL A   1      40.086  28.574  29.389  1.00  0.00     0.049 A 
ATOM     41  N   UNL A   1      40.738  29.991  31.965  1.00  0.00    -0.248 NA
ATOM     42  C   UNL A   1      38.906  31.393  31.598  1.00  0.00     0.031 C 
ATOM     43  C   UNL A   1      39.797  27.827  28.166  1.00  0.00     0.029 A 
ATOM     44  N   UNL A   1      41.198  27.956  29.907  1.00  0.00    -0.354 N 
ATOM     45  C   UNL A   1      40.637  30.901  33.012  1.00  0.00     0.074 A 
ATOM     46  C   UNL A   1      39.513  31.763  32.715  1.00  0.00     0.031 C 
ATOM     47  C   UNL A   1      40.708  26.848  28.028  1.00  0.00     0.029 A 
ATOM     48  C   UNL A   1      41.661  26.918  29.135  1.00  0.00     0.049 A 
ATOM     49  H   UNL A   1      41.622  28.231  30.752  1.00  0.00     0.167 HD
ATOM     50  C   UNL A   1      41.404  31.007  34.122  1.00  0.00     0.031 A 
ATOM     51  C   UNL A   1      42.740  26.124  29.293  1.00  0.00     0.031 A 
ATOM     52  C   UNL A   1      42.528  30.154  34.412  1.00  0.00     0.049 A 
ATOM     53  C   UNL A   1      43.618  26.300  30.504  1.00  0.00     0.074 A 
ATOM     54  C   UNL A   1      43.353  30.167  35.523  1.00  0.00     0.029 A 
ATOM     55  N   UNL A   1      42.991  29.145  33.581  1.00  0.00    -0.354 N 
ATOM     56  N   UNL A   1      43.488  27.142  31.501  1.00  0.00    -0.248 NA
ATOM     57  C   UNL A   1      44.781  25.408  30.617  1.00  0.00     0.031 C 
ATOM     58  C   UNL A   1      44.354  29.209  35.335  1.00  0.00     0.029 A 
ATOM     59  C   UNL A   1      44.113  28.552  34.138  1.00  0.00     0.049 A 
ATOM     60  H   UNL A   1      42.584  28.889  32.723  1.00  0.00     0.167 HD
ATOM     61  C   UNL A   1      44.540  26.867  32.370  1.00  0.00     0.074 A 
ATOM     62  C   UNL A   1      45.286  25.770  31.788  1.00  0.00     0.031 C 
ATOM     63  C   UNL A   1      44.854  27.467  33.546  1.00  0.00     0.031 A 
BRANCH  50  64
ATOM     64  C   UNL A   1      41.082  32.118  35.089  1.00  0.00    -0.014 A 
ATOM     65  C   UNL A   1      41.735  33.362  35.023  1.00  0.00     0.010 A 
ATOM     66  C   UNL A   1      40.085  31.920  36.062  1.00  0.00     0.010 A 
ATOM     67  C   UNL A   1      41.427  34.373  35.940  1.00  0.00     0.020 A 
ATOM     68  C   UNL A   1      39.754  32.937  36.962  1.00  0.00     0.020 A 
ATOM     69  C   UNL A   1      40.441  34.151  36.907  1.00  0.00     0.054 A 
BRANCH  69  70
ATOM     70  S   UNL A   1      40.052  35.482  38.076  1.00  0.00     0.124 S 
ATOM     71  O   UNL A   1      39.770  36.599  37.177  1.00  0.00    -0.237 OA
ATOM     72  O   UNL A   1      38.898  34.949  38.797  1.00  0.00    -0.237 OA
ATOM     73  O   UNL A   1      41.271  35.615  38.870  1.00  0.00    -0.744 OA
ENDBRANCH  69  70
ENDBRANCH  50  64
BRANCH  51  74
ATOM     74  C   UNL A   1      43.059  25.103  28.257  1.00  0.00    -0.014 A 
ATOM     75  C   UNL A   1      43.875  25.417  27.157  1.00  0.00     0.010 A 
ATOM     76  C   UNL A   1      42.552  23.796  28.381  1.00  0.00     0.010 A 
ATOM     77  C   UNL A   1      44.175  24.443  26.198  1.00  0.00     0.020 A 
ATOM     78  C   UNL A   1      42.872  22.813  27.441  1.00  0.00     0.020 A 
ATOM     79  C   UNL A   1      43.676  23.146  26.351  1.00  0.00     0.054 A 
BRANCH  79  80
ATOM     80  S   UNL A   1      44.135  21.879  25.135  1.00  0.00     0.124 S 
ATOM     81  O   UNL A   1      45.517  21.589  25.504  1.00  0.00    -0.237 OA
ATOM     82  O   UNL A   1      43.169  20.817  25.406  1.00  0.00    -0.237 OA
ATOM     83  O   UNL A   1      43.958  22.558  23.852  1.00  0.00    -0.744 OA
ENDBRANCH  79  80
ENDBRANCH  51  74
BRANCH  63  84
ATOM     84  C   UNL A   1      46.044  26.934  34.303  1.00  0.00    -0.014 A 
ATOM     85  C   UNL A   1      47.256  27.644  34.353  1.00  0.00     0.010 A 
ATOM     86  C   UNL A   1      45.925  25.733  35.027  1.00  0.00     0.010 A 
ATOM     87  C   UNL A   1      48.338  27.146  35.085  1.00  0.00     0.020 A 
ATOM     88  C   UNL A   1      46.994  25.247  35.784  1.00  0.00     0.020 A 
ATOM     89  C   UNL A   1      48.200  25.950  35.796  1.00  0.00     0.054 A 
BRANCH  89  90
ATOM     90  S   UNL A   1      49.605  25.347  36.773  1.00  0.00     0.124 S 
ATOM     91  O   UNL A   1      49.716  23.962  36.324  1.00  0.00    -0.237 OA
ATOM     92  O   UNL A   1      50.690  26.232  36.356  1.00  0.00    -0.237 OA
ATOM     93  O   UNL A   1      49.166  25.520  38.157  1.00  0.00    -0.744 OA
ENDBRANCH  89  90
ENDBRANCH  63  84
ENDBRANCH  37  38
ENDBRANCH  30  32
ENDBRANCH  29  30
ENDBRANCH  28  29
ENDBRANCH  27  28
ENDBRANCH  26  27
ENDBRANCH   1  26
TORSDOF 21
ENDMDL
MODEL 2
REMARK VINA RESULT:      -9.9      5.057     10.145
REMARK SMILES COc1ccccc1[C@H](C)NC(=O)[C@@H]1CC=CC[C@@H]1C(=O)OCCOCCOC(=O)c1ccc(-c2c3nc(c(-c4ccc(S(=O)(=O)[O-])cc4)c4ccc([nH]4)c(-c4ccc(S(=O)(=O)[O-])cc4)c4nc(c(-c5ccc(S(=O)(=O)[O-])cc5)c5ccc2[nH]5)C=C4)C=C3)cc1
REMARK SMILES IDX 24 1 23 2 22 3 20 4 21 5 19 6 14 7 15 8 16 9 18 10 17 11
REMARK SMILES IDX 12 12 11 13 13 15 9 16 10 17 8 18 3 19 4 20 5 21 7 22 6 23
REMARK SMILES IDX 2 24 1 25 25 26 26 27 27 28 28 29 29 30 30 31 31 32 32 33
REMARK SMILES IDX 90 34 33 35 89 36 34 37 35 38 36 39 83 40 37 41 88 42 82 43
REMARK SMILES IDX 84 44 38 45 87 46 81 47 80 48 39 50 69 51 50 52 68 53 51 54
REMARK SMILES IDX 54 55 67 56 85 57 52 58 53 59 66 61 86 62 55 63 40 64 41 65
REMARK SMILES IDX 49 66 42 67 48 68 43 69 44 70 45 71 46 72 47 73 70 74 71 75
REMARK SMILES IDX 79 76 72 77 78 78 73 79 74 80 75 81 76 82 77 83 56 84 57 85
REMARK SMILES IDX 65 86 58 87 64 88 59 89 60 90 61 91 62 92 63 93
REMARK H PARENT 11 14 84 49 54 60
REMARK Flexibility Score: inf
ROOT
ATOM      1  C   UNL A   1      37.260  22.759  24.969  1.00  0.00     0.202 C 
ENDROOT
BRANCH   1   2
ATOM      2  C   UNL A   1      36.920  23.977  25.827  1.00  0.00     0.261 C 
BRANCH   2   3
ATOM      3  O   UNL A   1      35.558  24.378  25.580  1.00  0.00    -0.463 OA
BRANCH   3   4
ATOM      4  C   UNL A   1      34.589  23.526  25.956  1.00  0.00     0.310 C 
ATOM      5  O   UNL A   1      34.503  23.038  27.081  1.00  0.00    -0.252 OA
BRANCH   4   6
ATOM      6  C   UNL A   1      33.563  23.212  24.867  1.00  0.00     0.115 C 
ATOM      7  C   UNL A   1      32.037  23.204  25.135  1.00  0.00     0.097 C 
ATOM      8  C   UNL A   1      31.430  21.864  25.584  1.00  0.00     0.041 C 
ATOM      9  C   UNL A   1      32.065  20.657  24.984  1.00  0.00    -0.030 C 
ATOM     10  C   UNL A   1      34.038  21.936  24.122  1.00  0.00     0.043 C 
ATOM     11  C   UNL A   1      33.229  20.691  24.331  1.00  0.00    -0.030 C 
BRANCH   7  12
ATOM     12  C   UNL A   1      31.526  24.269  26.097  1.00  0.00     0.224 C 
ATOM     13  N   UNL A   1      31.119  25.475  25.642  1.00  0.00    -0.349 N 
ATOM     14  H   UNL A   1      30.996  26.153  26.344  1.00  0.00     0.164 HD
ATOM     15  O   UNL A   1      31.428  24.074  27.309  1.00  0.00    -0.275 OA
BRANCH  13  16
ATOM     16  C   UNL A   1      30.831  25.949  24.293  1.00  0.00     0.113 C 
ATOM     17  C   UNL A   1      29.432  26.577  24.300  1.00  0.00     0.036 C 
BRANCH  16  18
ATOM     18  C   UNL A   1      31.880  26.926  23.801  1.00  0.00     0.016 A 
ATOM     19  C   UNL A   1      32.677  26.645  22.675  1.00  0.00     0.124 A 
ATOM     20  C   UNL A   1      33.661  27.543  22.251  1.00  0.00     0.047 A 
ATOM     21  C   UNL A   1      33.870  28.736  22.940  1.00  0.00     0.004 A 
ATOM     22  C   UNL A   1      32.103  28.148  24.469  1.00  0.00     0.010 A 
ATOM     23  C   UNL A   1      33.097  29.035  24.055  1.00  0.00     0.001 A 
BRANCH  19  24
ATOM     24  O   UNL A   1      32.646  25.428  22.042  1.00  0.00    -0.496 OA
ATOM     25  C   UNL A   1      32.613  25.537  20.621  1.00  0.00     0.278 C 
ENDBRANCH  19  24
ENDBRANCH  16  18
ENDBRANCH  13  16
ENDBRANCH   7  12
ENDBRANCH   4   6
ENDBRANCH   3   4
ENDBRANCH   2   3
ENDBRANCH   1   2
BRANCH   1  26
ATOM     26  O   UNL A   1      37.550  21.564  25.704  1.00  0.00    -0.374 OA
BRANCH  26  27
ATOM     27  C   UNL A   1      37.862  20.407  24.927  1.00  0.00     0.202 C 
BRANCH  27  28
ATOM     28  C   UNL A   1      39.032  19.559  25.440  1.00  0.00     0.261 C 
BRANCH  28  29
ATOM     29  O   UNL A   1      39.886  20.317  26.317  1.00  0.00    -0.460 OA
BRANCH  29  30
ATOM     30  C   UNL A   1      41.197  19.994  26.256  1.00  0.00     0.338 C 
ATOM     31  O   UNL A   1      41.667  18.906  25.941  1.00  0.00    -0.246 OA
BRANCH  30  32
ATOM     32  C   UNL A   1      42.046  21.188  26.444  1.00  0.00     0.060 A 
ATOM     33  C   UNL A   1      42.351  21.542  27.765  1.00  0.00     0.016 A 
ATOM     34  C   UNL A   1      42.479  21.987  25.383  1.00  0.00     0.016 A 
ATOM     35  C   UNL A   1      43.020  22.732  28.035  1.00  0.00     0.010 A 
ATOM     36  C   UNL A   1      43.149  23.188  25.658  1.00  0.00     0.010 A 
ATOM     37  C   UNL A   1      43.380  23.588  26.987  1.00  0.00    -0.014 A 
BRANCH  37  38
ATOM     38  C   UNL A   1      43.853  24.957  27.312  1.00  0.00     0.031 A 
ATOM     39  C   UNL A   1      45.292  25.315  27.049  1.00  0.00     0.074 A 
ATOM     40  C   UNL A   1      42.998  25.893  27.765  1.00  0.00     0.049 A 
ATOM     41  N   UNL A   1      45.903  26.461  27.212  1.00  0.00    -0.248 NA
ATOM     42  C   UNL A   1      46.155  24.242  26.529  1.00  0.00     0.031 C 
ATOM     43  C   UNL A   1      41.574  25.684  28.018  1.00  0.00     0.029 A 
ATOM     44  N   UNL A   1      43.208  27.212  28.083  1.00  0.00    -0.354 N 
ATOM     45  C   UNL A   1      47.222  26.244  26.825  1.00  0.00     0.074 A 
ATOM     46  C   UNL A   1      47.328  24.852  26.449  1.00  0.00     0.031 C 
ATOM     47  C   UNL A   1      41.035  26.837  28.452  1.00  0.00     0.029 A 
ATOM     48  C   UNL A   1      42.081  27.855  28.536  1.00  0.00     0.049 A 
ATOM     49  H   UNL A   1      44.083  27.655  27.995  1.00  0.00     0.167 HD
ATOM     50  C   UNL A   1      48.249  27.125  26.781  1.00  0.00     0.031 A 
ATOM     51  C   UNL A   1      41.914  29.116  28.983  1.00  0.00     0.031 A 
ATOM     52  C   UNL A   1      48.144  28.509  27.165  1.00  0.00     0.049 A 
ATOM     53  C   UNL A   1      43.085  30.063  28.985  1.00  0.00     0.074 A 
ATOM     54  C   UNL A   1      49.123  29.487  27.132  1.00  0.00     0.029 A 
ATOM     55  N   UNL A   1      46.996  29.109  27.661  1.00  0.00    -0.354 N 
ATOM     56  N   UNL A   1      44.316  29.851  28.584  1.00  0.00    -0.248 NA
ATOM     57  C   UNL A   1      42.841  31.422  29.488  1.00  0.00     0.031 C 
ATOM     58  C   UNL A   1      48.586  30.661  27.669  1.00  0.00     0.029 A 
ATOM     59  C   UNL A   1      47.252  30.435  27.973  1.00  0.00     0.049 A 
ATOM     60  H   UNL A   1      46.129  28.659  27.775  1.00  0.00     0.167 HD
ATOM     61  C   UNL A   1      44.988  31.057  28.766  1.00  0.00     0.074 A 
ATOM     62  C   UNL A   1      44.021  31.996  29.298  1.00  0.00     0.031 C 
ATOM     63  C   UNL A   1      46.285  31.358  28.510  1.00  0.00     0.031 A 
BRANCH  50  64
ATOM     64  C   UNL A   1      49.595  26.605  26.344  1.00  0.00    -0.014 A 
ATOM     65  C   UNL A   1      50.137  26.935  25.089  1.00  0.00     0.010 A 
ATOM     66  C   UNL A   1      50.342  25.796  27.220  1.00  0.00     0.010 A 
ATOM     67  C   UNL A   1      51.382  26.429  24.700  1.00  0.00     0.020 A 
ATOM     68  C   UNL A   1      51.599  25.312  26.847  1.00  0.00     0.020 A 
ATOM     69  C   UNL A   1      52.103  25.617  25.582  1.00  0.00     0.054 A 
BRANCH  69  70
ATOM     70  S   UNL A   1      53.720  24.983  25.059  1.00  0.00     0.124 S 
ATOM     71  O   UNL A   1      53.509  23.539  25.113  1.00  0.00    -0.237 OA
ATOM     72  O   UNL A   1      53.868  25.547  23.719  1.00  0.00    -0.237 OA
ATOM     73  O   UNL A   1      54.642  25.515  26.060  1.00  0.00    -0.744 OA
ENDBRANCH  69  70
ENDBRANCH  50  64
BRANCH  51  74
ATOM     74  C   UNL A   1      40.581  29.546  29.488  1.00  0.00    -0.014 A 
ATOM     75  C   UNL A   1      40.338  29.687  30.865  1.00  0.00     0.010 A 
ATOM     76  C   UNL A   1      39.546  29.834  28.578  1.00  0.00     0.010 A 
ATOM     77  C   UNL A   1      39.083  30.104  31.322  1.00  0.00     0.020 A 
ATOM     78  C   UNL A   1      38.300  30.276  29.030  1.00  0.00     0.020 A 
ATOM     79  C   UNL A   1      38.074  30.402  30.401  1.00  0.00     0.054 A 
BRANCH  79  80
ATOM     80  S   UNL A   1      36.477  31.008  31.012  1.00  0.00     0.124 S 
ATOM     81  O   UNL A   1      35.754  31.266  29.771  1.00  0.00    -0.237 OA
ATOM     82  O   UNL A   1      35.994  29.881  31.806  1.00  0.00    -0.237 OA
ATOM     83  O   UNL A   1      36.837  32.196  31.786  1.00  0.00    -0.744 OA
ENDBRANCH  79  80
ENDBRANCH  51  74
BRANCH  63  84
ATOM     84  C   UNL A   1      46.738  32.772  28.776  1.00  0.00    -0.014 A 
ATOM     85  C   UNL A   1      47.428  33.110  29.953  1.00  0.00     0.010 A 
ATOM     86  C   UNL A   1      46.522  33.764  27.802  1.00  0.00     0.010 A 
ATOM     87  C   UNL A   1      47.864  34.421  30.166  1.00  0.00     0.020 A 
ATOM     88  C   UNL A   1      46.982  35.069  27.997  1.00  0.00     0.020 A 
ATOM     89  C   UNL A   1      47.638  35.392  29.186  1.00  0.00     0.054 A 
BRANCH  89  90
ATOM     90  S   UNL A   1      48.251  37.077  29.467  1.00  0.00     0.124 S 
ATOM     91  O   UNL A   1      48.057  37.694  28.158  1.00  0.00    -0.237 OA
ATOM     92  O   UNL A   1      47.374  37.564  30.529  1.00  0.00    -0.237 OA
ATOM     93  O   UNL A   1      49.645  36.878  29.862  1.00  0.00    -0.744 OA
ENDBRANCH  89  90
ENDBRANCH  63  84
ENDBRANCH  37  38
ENDBRANCH  30  32
ENDBRANCH  29  30
ENDBRANCH  28  29
ENDBRANCH  27  28
ENDBRANCH  26  27
ENDBRANCH   1  26
TORSDOF 21
ENDMDL
MODEL 3
REMARK VINA RESULT:      -9.8      5.159      9.793
REMARK SMILES COc1ccccc1[C@H](C)NC(=O)[C@@H]1CC=CC[C@@H]1C(=O)OCCOCCOC(=O)c1ccc(-c2c3nc(c(-c4ccc(S(=O)(=O)[O-])cc4)c4ccc([nH]4)c(-c4ccc(S(=O)(=O)[O-])cc4)c4nc(c(-c5ccc(S(=O)(=O)[O-])cc5)c5ccc2[nH]5)C=C4)C=C3)cc1
REMARK SMILES IDX 24 1 23 2 22 3 20 4 21 5 19 6 14 7 15 8 16 9 18 10 17 11
REMARK SMILES IDX 12 12 11 13 13 15 9 16 10 17 8 18 3 19 4 20 5 21 7 22 6 23
REMARK SMILES IDX 2 24 1 25 25 26 26 27 27 28 28 29 29 30 30 31 31 32 32 33
REMARK SMILES IDX 90 34 33 35 89 36 34 37 35 38 36 39 83 40 37 41 88 42 82 43
REMARK SMILES IDX 84 44 38 45 87 46 81 47 80 48 39 50 69 51 50 52 68 53 51 54
REMARK SMILES IDX 54 55 67 56 85 57 52 58 53 59 66 61 86 62 55 63 40 64 41 65
REMARK SMILES IDX 49 66 42 67 48 68 43 69 44 70 45 71 46 72 47 73 70 74 71 75
REMARK SMILES IDX 79 76 72 77 78 78 73 79 74 80 75 81 76 82 77 83 56 84 57 85
REMARK SMILES IDX 65 86 58 87 64 88 59 89 60 90 61 91 62 92 63 93
REMARK H PARENT 11 14 84 49 54 60
REMARK Flexibility Score: inf
ROOT
ATOM      1  C   UNL A   1      34.547  29.921  27.297  1.00  0.00     0.202 C 
ENDROOT
BRANCH   1   2
ATOM      2  C   UNL A   1      33.705  28.680  27.003  1.00  0.00     0.261 C 
BRANCH   2   3
ATOM      3  O   UNL A   1      34.070  28.141  25.718  1.00  0.00    -0.463 OA
BRANCH   3   4
ATOM      4  C   UNL A   1      33.339  28.529  24.659  1.00  0.00     0.310 C 
ATOM      5  O   UNL A   1      33.723  29.344  23.823  1.00  0.00    -0.252 OA
BRANCH   4   6
ATOM      6  C   UNL A   1      31.971  27.856  24.551  1.00  0.00     0.115 C 
ATOM      7  C   UNL A   1      31.626  26.840  23.433  1.00  0.00     0.097 C 
ATOM      8  C   UNL A   1      31.035  27.425  22.139  1.00  0.00     0.041 C 
ATOM      9  C   UNL A   1      30.157  28.613  22.332  1.00  0.00    -0.030 C 
ATOM     10  C   UNL A   1      30.887  28.956  24.703  1.00  0.00     0.043 C 
ATOM     11  C   UNL A   1      30.091  29.295  23.479  1.00  0.00    -0.030 C 
BRANCH   7  12
ATOM     12  C   UNL A   1      32.750  25.897  23.023  1.00  0.00     0.224 C 
ATOM     13  N   UNL A   1      32.887  24.687  23.610  1.00  0.00    -0.349 N 
ATOM     14  H   UNL A   1      33.743  24.240  23.423  1.00  0.00     0.164 HD
ATOM     15  O   UNL A   1      33.552  26.171  22.129  1.00  0.00    -0.275 OA
BRANCH  13  16
ATOM     16  C   UNL A   1      31.989  23.928  24.473  1.00  0.00     0.113 C 
ATOM     17  C   UNL A   1      31.168  22.982  23.588  1.00  0.00     0.036 C 
BRANCH  16  18
ATOM     18  C   UNL A   1      32.745  23.171  25.548  1.00  0.00     0.016 A 
ATOM     19  C   UNL A   1      32.240  23.053  26.856  1.00  0.00     0.124 A 
ATOM     20  C   UNL A   1      32.962  22.377  27.846  1.00  0.00     0.047 A 
ATOM     21  C   UNL A   1      34.199  21.808  27.549  1.00  0.00     0.004 A 
ATOM     22  C   UNL A   1      33.991  22.572  25.272  1.00  0.00     0.010 A 
ATOM     23  C   UNL A   1      34.719  21.914  26.265  1.00  0.00     0.001 A 
BRANCH  19  24
ATOM     24  O   UNL A   1      31.114  23.719  27.270  1.00  0.00    -0.496 OA
ATOM     25  C   UNL A   1      29.915  22.978  27.057  1.00  0.00     0.278 C 
ENDBRANCH  19  24
ENDBRANCH  16  18
ENDBRANCH  13  16
ENDBRANCH   7  12
ENDBRANCH   4   6
ENDBRANCH   3   4
ENDBRANCH   2   3
ENDBRANCH   1   2
BRANCH   1  26
ATOM     26  O   UNL A   1      33.802  31.070  27.719  1.00  0.00    -0.374 OA
BRANCH  26  27
ATOM     27  C   UNL A   1      34.556  32.121  28.326  1.00  0.00     0.202 C 
BRANCH  27  28
ATOM     28  C   UNL A   1      35.101  31.822  29.727  1.00  0.00     0.261 C 
BRANCH  28  29
ATOM     29  O   UNL A   1      36.496  31.472  29.686  1.00  0.00    -0.460 OA
BRANCH  29  30
ATOM     30  C   UNL A   1      36.824  30.350  30.364  1.00  0.00     0.338 C 
ATOM     31  O   UNL A   1      36.148  29.791  31.221  1.00  0.00    -0.246 OA
BRANCH  30  32
ATOM     32  C   UNL A   1      38.053  29.740  29.817  1.00  0.00     0.060 A 
ATOM     33  C   UNL A   1      38.981  29.252  30.746  1.00  0.00     0.016 A 
ATOM     34  C   UNL A   1      38.339  29.702  28.450  1.00  0.00     0.016 A 
ATOM     35  C   UNL A   1      40.225  28.797  30.321  1.00  0.00     0.010 A 
ATOM     36  C   UNL A   1      39.595  29.247  28.024  1.00  0.00     0.010 A 
ATOM     37  C   UNL A   1      40.560  28.838  28.962  1.00  0.00    -0.014 A 
BRANCH  37  38
ATOM     38  C   UNL A   1      41.971  28.596  28.566  1.00  0.00     0.031 A 
ATOM     39  C   UNL A   1      42.375  27.220  28.105  1.00  0.00     0.074 A 
ATOM     40  C   UNL A   1      42.863  29.602  28.544  1.00  0.00     0.049 A 
ATOM     41  N   UNL A   1      43.536  26.801  27.669  1.00  0.00    -0.248 NA
ATOM     42  C   UNL A   1      41.333  26.182  28.134  1.00  0.00     0.031 C 
ATOM     43  C   UNL A   1      42.585  30.987  28.924  1.00  0.00     0.029 A 
ATOM     44  N   UNL A   1      44.187  29.613  28.177  1.00  0.00    -0.354 N 
ATOM     45  C   UNL A   1      43.367  25.450  27.383  1.00  0.00     0.074 A 
ATOM     46  C   UNL A   1      42.001  25.115  27.722  1.00  0.00     0.031 C 
ATOM     47  C   UNL A   1      43.705  31.715  28.767  1.00  0.00     0.029 A 
ATOM     48  C   UNL A   1      44.785  30.843  28.307  1.00  0.00     0.049 A 
ATOM     49  H   UNL A   1      44.661  28.814  27.851  1.00  0.00     0.167 HD
ATOM     50  C   UNL A   1      44.264  24.570  26.878  1.00  0.00     0.031 A 
ATOM     51  C   UNL A   1      46.062  31.221  28.095  1.00  0.00     0.031 A 
ATOM     52  C   UNL A   1      45.625  24.904  26.549  1.00  0.00     0.049 A 
ATOM     53  C   UNL A   1      47.060  30.212  27.593  1.00  0.00     0.074 A 
ATOM     54  C   UNL A   1      46.604  24.088  26.009  1.00  0.00     0.029 A 
ATOM     55  N   UNL A   1      46.204  26.150  26.739  1.00  0.00    -0.354 N 
ATOM     56  N   UNL A   1      46.875  28.948  27.295  1.00  0.00    -0.248 NA
ATOM     57  C   UNL A   1      48.436  30.683  27.386  1.00  0.00     0.031 C 
ATOM     58  C   UNL A   1      47.792  24.821  25.933  1.00  0.00     0.029 A 
ATOM     59  C   UNL A   1      47.537  26.115  26.361  1.00  0.00     0.049 A 
ATOM     60  H   UNL A   1      45.737  26.941  27.091  1.00  0.00     0.167 HD
ATOM     61  C   UNL A   1      48.106  28.479  26.845  1.00  0.00     0.074 A 
ATOM     62  C   UNL A   1      49.022  29.600  26.895  1.00  0.00     0.031 C 
ATOM     63  C   UNL A   1      48.443  27.234  26.424  1.00  0.00     0.031 A 
BRANCH  50  64
ATOM     64  C   UNL A   1      43.812  23.144  26.693  1.00  0.00    -0.014 A 
ATOM     65  C   UNL A   1      42.912  22.537  27.586  1.00  0.00     0.010 A 
ATOM     66  C   UNL A   1      44.276  22.410  25.585  1.00  0.00     0.010 A 
ATOM     67  C   UNL A   1      42.518  21.208  27.400  1.00  0.00     0.020 A 
ATOM     68  C   UNL A   1      43.863  21.091  25.379  1.00  0.00     0.020 A 
ATOM     69  C   UNL A   1      43.000  20.492  26.299  1.00  0.00     0.054 A 
BRANCH  69  70
ATOM     70  S   UNL A   1      42.465  18.774  26.073  1.00  0.00     0.124 S 
ATOM     71  O   UNL A   1      41.052  18.941  25.741  1.00  0.00    -0.237 OA
ATOM     72  O   UNL A   1      43.317  18.313  24.980  1.00  0.00    -0.237 OA
ATOM     73  O   UNL A   1      42.730  18.153  27.369  1.00  0.00    -0.744 OA
ENDBRANCH  69  70
ENDBRANCH  50  64
BRANCH  51  74
ATOM     74  C   UNL A   1      46.470  32.624  28.383  1.00  0.00    -0.014 A 
ATOM     75  C   UNL A   1      46.979  32.988  29.641  1.00  0.00     0.010 A 
ATOM     76  C   UNL A   1      46.363  33.605  27.379  1.00  0.00     0.010 A 
ATOM     77  C   UNL A   1      47.369  34.309  29.891  1.00  0.00     0.020 A 
ATOM     78  C   UNL A   1      46.778  34.918  27.616  1.00  0.00     0.020 A 
ATOM     79  C   UNL A   1      47.271  35.263  28.874  1.00  0.00     0.054 A 
BRANCH  79  80
ATOM     80  S   UNL A   1      47.849  36.953  29.197  1.00  0.00     0.124 S 
ATOM     81  O   UNL A   1      49.030  37.039  28.345  1.00  0.00    -0.237 OA
ATOM     82  O   UNL A   1      46.706  37.762  28.781  1.00  0.00    -0.237 OA
ATOM     83  O   UNL A   1      48.112  36.954  30.636  1.00  0.00    -0.744 OA
ENDBRANCH  79  80
ENDBRANCH  51  74
BRANCH  63  84
ATOM     84  C   UNL A   1      49.859  27.017  25.955  1.00  0.00    -0.014 A 
ATOM     85  C   UNL A   1      50.834  26.467  26.805  1.00  0.00     0.010 A 
ATOM     86  C   UNL A   1      50.202  27.312  24.622  1.00  0.00     0.010 A 
ATOM     87  C   UNL A   1      52.135  26.247  26.340  1.00  0.00     0.020 A 
ATOM     88  C   UNL A   1      51.492  27.067  24.145  1.00  0.00     0.020 A 
ATOM     89  C   UNL A   1      52.455  26.549  25.013  1.00  0.00     0.054 A 
BRANCH  89  90
ATOM     90  S   UNL A   1      54.138  26.214  24.423  1.00  0.00     0.124 S 
ATOM     91  O   UNL A   1      53.969  26.269  22.974  1.00  0.00    -0.237 OA
ATOM     92  O   UNL A   1      54.907  27.310  25.008  1.00  0.00    -0.237 OA
ATOM     93  O   UNL A   1      54.440  24.891  24.965  1.00  0.00    -0.744 OA
ENDBRANCH  89  90
ENDBRANCH  63  84
ENDBRANCH  37  38
ENDBRANCH  30  32
ENDBRANCH  29  30
ENDBRANCH  28  29
ENDBRANCH  27  28
ENDBRANCH  26  27
ENDBRANCH   1  26
TORSDOF 21
ENDMDL
