MODEL 1
REMARK VINA RESULT:      -9.7      0.000      0.000
REMARK SMILES C[C@@H](Oc1ccccc1Cl)C(=O)N1CC[C@H](C(=O)OCCOCCOC(=O)c2ccc(-c3c4nc(c(-c5ccc(S(=O)(=O)[O-])cc5)c5ccc([nH]5)c(-c5ccc(S(=O)(=O)[O-])cc5)c5nc(c(-c6ccc(S(=O)(=O)[O-])cc6)c6ccc3[nH]6)C=C5)C=C4)cc2)[C@@H]1C
REMARK SMILES IDX 21 1 20 2 19 3 17 4 18 5 16 6 13 7 14 8 88 9 15 10 89 11
REMARK SMILES IDX 11 12 12 13 2 14 1 15 3 16 4 17 5 18 9 19 6 20 8 21 10 22
REMARK SMILES IDX 7 23 22 24 23 25 24 26 25 27 26 28 27 29 28 30 29 31 87 32
REMARK SMILES IDX 30 33 86 34 31 35 32 36 33 37 80 38 34 39 85 40 79 41 81 42
REMARK SMILES IDX 35 43 84 44 78 45 77 46 36 48 66 49 47 50 65 51 48 52 51 53
REMARK SMILES IDX 64 54 82 55 49 56 50 57 63 59 83 60 52 61 37 62 38 63 46 64
REMARK SMILES IDX 39 65 45 66 40 67 41 68 42 69 43 70 44 71 67 72 68 73 76 74
REMARK SMILES IDX 69 75 75 76 70 77 71 78 72 79 73 80 74 81 53 82 54 83 62 84
REMARK SMILES IDX 55 85 61 86 56 87 57 88 58 89 59 90 60 91
REMARK H PARENT 81 47 51 58
REMARK Flexibility Score: inf
ROOT
ATOM      1  C   UNL A   1      33.962  31.417  27.647  1.00  0.00     0.202 C 
ENDROOT
BRANCH   1   2
ATOM      2  C   UNL A   1      33.927  30.084  26.894  1.00  0.00     0.261 C 
BRANCH   2   3
ATOM      3  O   UNL A   1      32.944  30.132  25.846  1.00  0.00    -0.463 OA
BRANCH   3   4
ATOM      4  C   UNL A   1      32.487  28.929  25.405  1.00  0.00     0.311 C 
ATOM      5  O   UNL A   1      31.994  28.728  24.304  1.00  0.00    -0.252 OA
BRANCH   4   6
ATOM      6  C   UNL A   1      32.681  27.868  26.479  1.00  0.00     0.123 C 
ATOM      7  N   UNL A   1      31.912  25.681  25.880  1.00  0.00    -0.336 N 
ATOM      8  C   UNL A   1      30.754  26.512  26.166  1.00  0.00     0.121 C 
ATOM      9  C   UNL A   1      33.149  26.471  25.986  1.00  0.00     0.096 C 
ATOM     10  C   UNL A   1      31.312  27.585  27.092  1.00  0.00     0.039 C 
ATOM     11  C   UNL A   1      33.981  26.483  24.703  1.00  0.00     0.032 C 
BRANCH   7  12
ATOM     12  C   UNL A   1      31.732  24.318  25.769  1.00  0.00     0.263 C 
ATOM     13  O   UNL A   1      31.786  23.598  26.776  1.00  0.00    -0.271 OA
BRANCH  12  14
ATOM     14  C   UNL A   1      31.562  23.642  24.392  1.00  0.00     0.259 C 
ATOM     15  C   UNL A   1      30.731  24.426  23.390  1.00  0.00     0.064 C 
BRANCH  14  16
ATOM     16  O   UNL A   1      32.846  23.316  23.838  1.00  0.00    -0.479 OA
BRANCH  16  17
ATOM     17  C   UNL A   1      33.209  22.022  24.112  1.00  0.00     0.139 A 
ATOM     18  C   UNL A   1      32.346  20.979  23.763  1.00  0.00     0.048 A 
ATOM     19  C   UNL A   1      34.404  21.745  24.787  1.00  0.00     0.083 A 
ATOM     20  C   UNL A   1      32.709  19.657  24.028  1.00  0.00     0.004 A 
ATOM     21  C   UNL A   1      34.770  20.422  25.036  1.00  0.00     0.024 A 
ATOM     22  Cl  UNL A   1      35.454  23.004  25.324  1.00  0.00    -0.080 Cl
ATOM     23  C   UNL A   1      33.925  19.379  24.651  1.00  0.00     0.002 A 
ENDBRANCH  16  17
ENDBRANCH  14  16
ENDBRANCH  12  14
ENDBRANCH   7  12
ENDBRANCH   4   6
ENDBRANCH   3   4
ENDBRANCH   2   3
ENDBRANCH   1   2
BRANCH   1  24
ATOM     24  O   UNL A   1      35.243  32.035  27.804  1.00  0.00    -0.374 OA
BRANCH  24  25
ATOM     25  C   UNL A   1      35.531  32.649  29.055  1.00  0.00     0.202 C 
BRANCH  25  26
ATOM     26  C   UNL A   1      35.271  31.851  30.337  1.00  0.00     0.261 C 
BRANCH  26  27
ATOM     27  O   UNL A   1      36.473  31.498  31.030  1.00  0.00    -0.460 OA
BRANCH  27  28
ATOM     28  C   UNL A   1      36.879  30.226  30.802  1.00  0.00     0.338 C 
ATOM     29  O   UNL A   1      36.183  29.219  30.789  1.00  0.00    -0.246 OA
BRANCH  28  30
ATOM     30  C   UNL A   1      38.285  30.225  30.373  1.00  0.00     0.060 A 
ATOM     31  C   UNL A   1      38.536  30.245  28.995  1.00  0.00     0.016 A 
ATOM     32  C   UNL A   1      39.335  30.157  31.292  1.00  0.00     0.016 A 
ATOM     33  C   UNL A   1      39.841  30.144  28.528  1.00  0.00     0.010 A 
ATOM     34  C   UNL A   1      40.645  30.043  30.819  1.00  0.00     0.010 A 
ATOM     35  C   UNL A   1      40.896  29.998  29.437  1.00  0.00    -0.014 A 
BRANCH  35  36
ATOM     36  C   UNL A   1      42.237  29.634  28.927  1.00  0.00     0.031 A 
ATOM     37  C   UNL A   1      42.471  28.226  28.455  1.00  0.00     0.074 A 
ATOM     38  C   UNL A   1      43.211  30.557  28.843  1.00  0.00     0.049 A 
ATOM     39  N   UNL A   1      43.558  27.688  27.968  1.00  0.00    -0.248 NA
ATOM     40  C   UNL A   1      41.327  27.303  28.542  1.00  0.00     0.031 C 
ATOM     41  C   UNL A   1      43.080  31.962  29.229  1.00  0.00     0.029 A 
ATOM     42  N   UNL A   1      44.505  30.447  28.402  1.00  0.00    -0.354 N 
ATOM     43  C   UNL A   1      43.233  26.363  27.697  1.00  0.00     0.074 A 
ATOM     44  C   UNL A   1      41.858  26.172  28.101  1.00  0.00     0.031 C 
ATOM     45  C   UNL A   1      44.252  32.584  29.008  1.00  0.00     0.029 A 
ATOM     46  C   UNL A   1      45.219  31.616  28.498  1.00  0.00     0.049 A 
ATOM     47  H   UNL A   1      44.884  29.610  28.050  1.00  0.00     0.167 HD
ATOM     48  C   UNL A   1      44.009  25.397  27.152  1.00  0.00     0.031 A 
ATOM     49  C   UNL A   1      46.513  31.869  28.222  1.00  0.00     0.031 A 
ATOM     50  C   UNL A   1      45.381  25.593  26.767  1.00  0.00     0.049 A 
ATOM     51  C   UNL A   1      47.378  30.758  27.686  1.00  0.00     0.074 A 
ATOM     52  C   UNL A   1      46.253  24.683  26.196  1.00  0.00     0.029 A 
ATOM     53  N   UNL A   1      46.083  26.780  26.918  1.00  0.00    -0.354 N 
ATOM     54  N   UNL A   1      47.051  29.518  27.412  1.00  0.00    -0.248 NA
ATOM     55  C   UNL A   1      48.784  31.086  27.410  1.00  0.00     0.031 C 
ATOM     56  C   UNL A   1      47.500  25.303  26.060  1.00  0.00     0.029 A 
ATOM     57  C   UNL A   1      47.386  26.619  26.481  1.00  0.00     0.049 A 
ATOM     58  H   UNL A   1      45.709  27.615  27.284  1.00  0.00     0.167 HD
ATOM     59  C   UNL A   1      48.202  28.923  26.908  1.00  0.00     0.074 A 
ATOM     60  C   UNL A   1      49.229  29.947  26.900  1.00  0.00     0.031 C 
ATOM     61  C   UNL A   1      48.395  27.648  26.485  1.00  0.00     0.031 A 
BRANCH  48  62
ATOM     62  C   UNL A   1      43.401  24.029  26.982  1.00  0.00    -0.014 A 
ATOM     63  C   UNL A   1      42.808  23.639  25.767  1.00  0.00     0.010 A 
ATOM     64  C   UNL A   1      43.453  23.110  28.044  1.00  0.00     0.010 A 
ATOM     65  C   UNL A   1      42.243  22.367  25.633  1.00  0.00     0.020 A 
ATOM     66  C   UNL A   1      42.915  21.827  27.905  1.00  0.00     0.020 A 
ATOM     67  C   UNL A   1      42.299  21.470  26.704  1.00  0.00     0.054 A 
BRANCH  67  68
ATOM     68  S   UNL A   1      41.579  19.818  26.494  1.00  0.00     0.124 S 
ATOM     69  O   UNL A   1      40.157  20.125  26.358  1.00  0.00    -0.237 OA
ATOM     70  O   UNL A   1      42.236  19.334  25.282  1.00  0.00    -0.237 OA
ATOM     71  O   UNL A   1      41.950  19.119  27.721  1.00  0.00    -0.744 OA
ENDBRANCH  67  68
ENDBRANCH  48  62
BRANCH  49  72
ATOM     72  C   UNL A   1      47.072  33.227  28.464  1.00  0.00    -0.014 A 
ATOM     73  C   UNL A   1      47.156  34.169  27.424  1.00  0.00     0.010 A 
ATOM     74  C   UNL A   1      47.523  33.587  29.748  1.00  0.00     0.010 A 
ATOM     75  C   UNL A   1      47.692  35.439  27.659  1.00  0.00     0.020 A 
ATOM     76  C   UNL A   1      48.032  34.864  29.994  1.00  0.00     0.020 A 
ATOM     77  C   UNL A   1      48.124  35.780  28.945  1.00  0.00     0.054 A 
BRANCH  77  78
ATOM     78  S   UNL A   1      48.767  37.450  29.239  1.00  0.00     0.124 S 
ATOM     79  O   UNL A   1      49.598  37.252  30.423  1.00  0.00    -0.237 OA
ATOM     80  O   UNL A   1      49.488  37.732  28.000  1.00  0.00    -0.237 OA
ATOM     81  O   UNL A   1      47.561  38.248  29.445  1.00  0.00    -0.744 OA
ENDBRANCH  77  78
ENDBRANCH  49  72
BRANCH  61  82
ATOM     82  C   UNL A   1      49.756  27.294  25.945  1.00  0.00    -0.014 A 
ATOM     83  C   UNL A   1      50.074  27.471  24.587  1.00  0.00     0.010 A 
ATOM     84  C   UNL A   1      50.749  26.827  26.826  1.00  0.00     0.010 A 
ATOM     85  C   UNL A   1      51.350  27.153  24.114  1.00  0.00     0.020 A 
ATOM     86  C   UNL A   1      52.034  26.537  26.363  1.00  0.00     0.020 A 
ATOM     87  C   UNL A   1      52.321  26.687  25.005  1.00  0.00     0.054 A 
BRANCH  87  88
ATOM     88  S   UNL A   1      53.981  26.318  24.372  1.00  0.00     0.124 S 
ATOM     89  O   UNL A   1      53.691  25.839  23.023  1.00  0.00    -0.237 OA
ATOM     90  O   UNL A   1      54.649  27.615  24.448  1.00  0.00    -0.237 OA
ATOM     91  O   UNL A   1      54.487  25.306  25.297  1.00  0.00    -0.744 OA
ENDBRANCH  87  88
ENDBRANCH  61  82
ENDBRANCH  35  36
ENDBRANCH  28  30
ENDBRANCH  27  28
ENDBRANCH  26  27
ENDBRANCH  25  26
ENDBRANCH  24  25
ENDBRANCH   1  24
TORSDOF 21
ENDMDL
MODEL 2
REMARK VINA RESULT:      -9.6      1.851      2.396
REMARK SMILES C[C@@H](Oc1ccccc1Cl)C(=O)N1CC[C@H](C(=O)OCCOCCOC(=O)c2ccc(-c3c4nc(c(-c5ccc(S(=O)(=O)[O-])cc5)c5ccc([nH]5)c(-c5ccc(S(=O)(=O)[O-])cc5)c5nc(c(-c6ccc(S(=O)(=O)[O-])cc6)c6ccc3[nH]6)C=C5)C=C4)cc2)[C@@H]1C
REMARK SMILES IDX 21 1 20 2 19 3 17 4 18 5 16 6 13 7 14 8 88 9 15 10 89 11
REMARK SMILES IDX 11 12 12 13 2 14 1 15 3 16 4 17 5 18 9 19 6 20 8 21 10 22
REMARK SMILES IDX 7 23 22 24 23 25 24 26 25 27 26 28 27 29 28 30 29 31 87 32
REMARK SMILES IDX 30 33 86 34 31 35 32 36 33 37 80 38 34 39 85 40 79 41 81 42
REMARK SMILES IDX 35 43 84 44 78 45 77 46 36 48 66 49 47 50 65 51 48 52 51 53
REMARK SMILES IDX 64 54 82 55 49 56 50 57 63 59 83 60 52 61 37 62 38 63 46 64
REMARK SMILES IDX 39 65 45 66 40 67 41 68 42 69 43 70 44 71 67 72 68 73 76 74
REMARK SMILES IDX 69 75 75 76 70 77 71 78 72 79 73 80 74 81 53 82 54 83 62 84
REMARK SMILES IDX 55 85 61 86 56 87 57 88 58 89 59 90 60 91
REMARK H PARENT 81 47 51 58
REMARK Flexibility Score: inf
ROOT
ATOM      1  C   UNL A   1      33.310  30.586  26.500  1.00  0.00     0.202 C 
ENDROOT
BRANCH   1   2
ATOM      2  C   UNL A   1      31.794  30.371  26.507  1.00  0.00     0.261 C 
BRANCH   2   3
ATOM      3  O   UNL A   1      31.490  28.984  26.284  1.00  0.00    -0.463 OA
BRANCH   3   4
ATOM      4  C   UNL A   1      31.178  28.643  25.004  1.00  0.00     0.311 C 
ATOM      5  O   UNL A   1      30.955  29.438  24.102  1.00  0.00    -0.252 OA
BRANCH   4   6
ATOM      6  C   UNL A   1      31.148  27.129  24.856  1.00  0.00     0.123 C 
ATOM      7  N   UNL A   1      32.290  26.286  22.928  1.00  0.00    -0.336 N 
ATOM      8  C   UNL A   1      31.035  26.880  22.494  1.00  0.00     0.121 C 
ATOM      9  C   UNL A   1      32.466  26.461  24.378  1.00  0.00     0.096 C 
ATOM     10  C   UNL A   1      30.161  26.799  23.740  1.00  0.00     0.039 C 
ATOM     11  C   UNL A   1      33.745  27.211  24.753  1.00  0.00     0.032 C 
BRANCH   7  12
ATOM     12  C   UNL A   1      32.991  25.506  22.031  1.00  0.00     0.263 C 
ATOM     13  O   UNL A   1      33.403  25.994  20.969  1.00  0.00    -0.271 OA
BRANCH  12  14
ATOM     14  C   UNL A   1      33.194  23.995  22.272  1.00  0.00     0.259 C 
ATOM     15  C   UNL A   1      33.070  23.126  21.031  1.00  0.00     0.064 C 
BRANCH  14  16
ATOM     16  O   UNL A   1      34.449  23.762  22.929  1.00  0.00    -0.479 OA
BRANCH  16  17
ATOM     17  C   UNL A   1      34.342  22.813  23.914  1.00  0.00     0.139 A 
ATOM     18  C   UNL A   1      33.121  22.644  24.574  1.00  0.00     0.048 A 
ATOM     19  C   UNL A   1      35.456  22.059  24.299  1.00  0.00     0.083 A 
ATOM     20  C   UNL A   1      32.998  21.675  25.572  1.00  0.00     0.004 A 
ATOM     21  C   UNL A   1      35.324  21.080  25.286  1.00  0.00     0.024 A 
ATOM     22  Cl  UNL A   1      37.006  22.299  23.582  1.00  0.00    -0.080 Cl
ATOM     23  C   UNL A   1      34.094  20.885  25.917  1.00  0.00     0.002 A 
ENDBRANCH  16  17
ENDBRANCH  14  16
ENDBRANCH  12  14
ENDBRANCH   7  12
ENDBRANCH   4   6
ENDBRANCH   3   4
ENDBRANCH   2   3
ENDBRANCH   1   2
BRANCH   1  24
ATOM     24  O   UNL A   1      33.908  31.003  27.731  1.00  0.00    -0.374 OA
BRANCH  24  25
ATOM     25  C   UNL A   1      35.328  31.083  27.783  1.00  0.00     0.202 C 
BRANCH  25  26
ATOM     26  C   UNL A   1      36.036  30.670  29.078  1.00  0.00     0.261 C 
BRANCH  26  27
ATOM     27  O   UNL A   1      36.492  29.314  29.058  1.00  0.00    -0.460 OA
BRANCH  27  28
ATOM     28  C   UNL A   1      37.368  29.019  30.047  1.00  0.00     0.338 C 
ATOM     29  O   UNL A   1      37.114  28.842  31.232  1.00  0.00    -0.246 OA
BRANCH  28  30
ATOM     30  C   UNL A   1      38.693  28.747  29.471  1.00  0.00     0.060 A 
ATOM     31  C   UNL A   1      39.651  28.165  30.310  1.00  0.00     0.016 A 
ATOM     32  C   UNL A   1      39.009  29.095  28.156  1.00  0.00     0.016 A 
ATOM     33  C   UNL A   1      40.949  27.976  29.853  1.00  0.00     0.010 A 
ATOM     34  C   UNL A   1      40.318  28.915  27.702  1.00  0.00     0.010 A 
ATOM     35  C   UNL A   1      41.299  28.391  28.562  1.00  0.00    -0.014 A 
BRANCH  35  36
ATOM     36  C   UNL A   1      42.729  28.423  28.182  1.00  0.00     0.031 A 
ATOM     37  C   UNL A   1      43.326  27.213  27.519  1.00  0.00     0.074 A 
ATOM     38  C   UNL A   1      43.466  29.529  28.382  1.00  0.00     0.049 A 
ATOM     39  N   UNL A   1      44.548  27.019  27.098  1.00  0.00    -0.248 NA
ATOM     40  C   UNL A   1      42.424  26.069  27.299  1.00  0.00     0.031 C 
ATOM     41  C   UNL A   1      42.977  30.775  28.973  1.00  0.00     0.029 A 
ATOM     42  N   UNL A   1      44.784  29.781  28.104  1.00  0.00    -0.354 N 
ATOM     43  C   UNL A   1      44.566  25.732  26.571  1.00  0.00     0.074 A 
ATOM     44  C   UNL A   1      43.241  25.181  26.752  1.00  0.00     0.031 C 
ATOM     45  C   UNL A   1      43.988  31.661  29.015  1.00  0.00     0.029 A 
ATOM     46  C   UNL A   1      45.197  31.035  28.485  1.00  0.00     0.049 A 
ATOM     47  H   UNL A   1      45.379  29.127  27.672  1.00  0.00     0.167 HD
ATOM     48  C   UNL A   1      45.592  25.074  25.982  1.00  0.00     0.031 A 
ATOM     49  C   UNL A   1      46.416  31.604  28.429  1.00  0.00     0.031 A 
ATOM     50  C   UNL A   1      46.910  25.626  25.820  1.00  0.00     0.049 A 
ATOM     51  C   UNL A   1      47.561  30.824  27.836  1.00  0.00     0.074 A 
ATOM     52  C   UNL A   1      48.018  25.047  25.228  1.00  0.00     0.029 A 
ATOM     53  N   UNL A   1      47.300  26.883  26.257  1.00  0.00    -0.354 N 
ATOM     54  N   UNL A   1      47.557  29.618  27.321  1.00  0.00    -0.248 NA
ATOM     55  C   UNL A   1      48.871  31.488  27.807  1.00  0.00     0.031 C 
ATOM     56  C   UNL A   1      49.095  25.931  25.362  1.00  0.00     0.029 A 
ATOM     57  C   UNL A   1      48.640  27.088  25.976  1.00  0.00     0.049 A 
ATOM     58  H   UNL A   1      46.711  27.534  26.703  1.00  0.00     0.167 HD
ATOM     59  C   UNL A   1      48.856  29.388  26.882  1.00  0.00     0.074 A 
ATOM     60  C   UNL A   1      49.614  30.587  27.180  1.00  0.00     0.031 C 
ATOM     61  C   UNL A   1      49.377  28.287  26.284  1.00  0.00     0.031 A 
BRANCH  48  62
ATOM     62  C   UNL A   1      45.336  23.667  25.509  1.00  0.00    -0.014 A 
ATOM     63  C   UNL A   1      44.613  23.412  24.329  1.00  0.00     0.010 A 
ATOM     64  C   UNL A   1      45.854  22.584  26.241  1.00  0.00     0.010 A 
ATOM     65  C   UNL A   1      44.382  22.099  23.912  1.00  0.00     0.020 A 
ATOM     66  C   UNL A   1      45.649  21.269  25.812  1.00  0.00     0.020 A 
ATOM     67  C   UNL A   1      44.899  21.035  24.657  1.00  0.00     0.054 A 
BRANCH  67  68
ATOM     68  S   UNL A   1      44.604  19.341  24.079  1.00  0.00     0.124 S 
ATOM     69  O   UNL A   1      44.600  19.515  22.629  1.00  0.00    -0.237 OA
ATOM     70  O   UNL A   1      45.749  18.614  24.621  1.00  0.00    -0.237 OA
ATOM     71  O   UNL A   1      43.314  18.993  24.667  1.00  0.00    -0.744 OA
ENDBRANCH  67  68
ENDBRANCH  48  62
BRANCH  49  72
ATOM     72  C   UNL A   1      46.620  32.978  28.964  1.00  0.00    -0.014 A 
ATOM     73  C   UNL A   1      46.410  34.107  28.153  1.00  0.00     0.010 A 
ATOM     74  C   UNL A   1      47.025  33.163  30.300  1.00  0.00     0.010 A 
ATOM     75  C   UNL A   1      46.614  35.393  28.662  1.00  0.00     0.020 A 
ATOM     76  C   UNL A   1      47.202  34.447  30.820  1.00  0.00     0.020 A 
ATOM     77  C   UNL A   1      47.006  35.555  29.995  1.00  0.00     0.054 A 
BRANCH  77  78
ATOM     78  S   UNL A   1      47.214  37.233  30.649  1.00  0.00     0.124 S 
ATOM     79  O   UNL A   1      48.627  37.245  31.015  1.00  0.00    -0.237 OA
ATOM     80  O   UNL A   1      46.849  38.065  29.504  1.00  0.00    -0.237 OA
ATOM     81  O   UNL A   1      46.276  37.282  31.769  1.00  0.00    -0.744 OA
ENDBRANCH  77  78
ENDBRANCH  49  72
BRANCH  61  82
ATOM     82  C   UNL A   1      50.828  28.339  25.878  1.00  0.00    -0.014 A 
ATOM     83  C   UNL A   1      51.216  28.789  24.604  1.00  0.00     0.010 A 
ATOM     84  C   UNL A   1      51.819  27.979  26.810  1.00  0.00     0.010 A 
ATOM     85  C   UNL A   1      52.569  28.846  24.258  1.00  0.00     0.020 A 
ATOM     86  C   UNL A   1      53.173  28.064  26.478  1.00  0.00     0.020 A 
ATOM     87  C   UNL A   1      53.539  28.482  25.197  1.00  0.00     0.054 A 
BRANCH  87  88
ATOM     88  S   UNL A   1      55.289  28.601  24.736  1.00  0.00     0.124 S 
ATOM     89  O   UNL A   1      55.903  29.038  25.987  1.00  0.00    -0.237 OA
ATOM     90  O   UNL A   1      55.605  27.235  24.324  1.00  0.00    -0.237 OA
ATOM     91  O   UNL A   1      55.298  29.589  23.659  1.00  0.00    -0.744 OA
ENDBRANCH  87  88
ENDBRANCH  61  82
ENDBRANCH  35  36
ENDBRANCH  28  30
ENDBRANCH  27  28
ENDBRANCH  26  27
ENDBRANCH  25  26
ENDBRANCH  24  25
ENDBRANCH   1  24
TORSDOF 21
ENDMDL
MODEL 3
REMARK VINA RESULT:      -9.3      2.643      8.735
REMARK SMILES C[C@@H](Oc1ccccc1Cl)C(=O)N1CC[C@H](C(=O)OCCOCCOC(=O)c2ccc(-c3c4nc(c(-c5ccc(S(=O)(=O)[O-])cc5)c5ccc([nH]5)c(-c5ccc(S(=O)(=O)[O-])cc5)c5nc(c(-c6ccc(S(=O)(=O)[O-])cc6)c6ccc3[nH]6)C=C5)C=C4)cc2)[C@@H]1C
REMARK SMILES IDX 21 1 20 2 19 3 17 4 18 5 16 6 13 7 14 8 88 9 15 10 89 11
REMARK SMILES IDX 11 12 12 13 2 14 1 15 3 16 4 17 5 18 9 19 6 20 8 21 10 22
REMARK SMILES IDX 7 23 22 24 23 25 24 26 25 27 26 28 27 29 28 30 29 31 87 32
REMARK SMILES IDX 30 33 86 34 31 35 32 36 33 37 80 38 34 39 85 40 79 41 81 42
REMARK SMILES IDX 35 43 84 44 78 45 77 46 36 48 66 49 47 50 65 51 48 52 51 53
REMARK SMILES IDX 64 54 82 55 49 56 50 57 63 59 83 60 52 61 37 62 38 63 46 64
REMARK SMILES IDX 39 65 45 66 40 67 41 68 42 69 43 70 44 71 67 72 68 73 76 74
REMARK SMILES IDX 69 75 75 76 70 77 71 78 72 79 73 80 74 81 53 82 54 83 62 84
REMARK SMILES IDX 55 85 61 86 56 87 57 88 58 89 59 90 60 91
REMARK H PARENT 81 47 51 58
REMARK Flexibility Score: inf
ROOT
ATOM      1  C   UNL A   1      40.777  21.513  27.224  1.00  0.00     0.202 C 
ENDROOT
BRANCH   1   2
ATOM      2  C   UNL A   1      39.724  22.575  26.896  1.00  0.00     0.261 C 
BRANCH   2   3
ATOM      3  O   UNL A   1      38.664  21.995  26.115  1.00  0.00    -0.463 OA
BRANCH   3   4
ATOM      4  C   UNL A   1      37.707  22.859  25.681  1.00  0.00     0.311 C 
ATOM      5  O   UNL A   1      37.363  23.876  26.267  1.00  0.00    -0.252 OA
BRANCH   4   6
ATOM      6  C   UNL A   1      37.127  22.378  24.359  1.00  0.00     0.123 C 
ATOM      7  N   UNL A   1      34.808  21.788  24.436  1.00  0.00    -0.336 N 
ATOM      8  C   UNL A   1      35.570  20.736  25.088  1.00  0.00     0.121 C 
ATOM      9  C   UNL A   1      35.698  22.881  24.014  1.00  0.00     0.096 C 
ATOM     10  C   UNL A   1      36.953  20.866  24.460  1.00  0.00     0.039 C 
ATOM     11  C   UNL A   1      35.328  24.239  24.613  1.00  0.00     0.032 C 
BRANCH   7  12
ATOM     12  C   UNL A   1      33.485  21.546  24.127  1.00  0.00     0.263 C 
ATOM     13  O   UNL A   1      33.005  21.967  23.066  1.00  0.00    -0.271 OA
BRANCH  12  14
ATOM     14  C   UNL A   1      32.545  20.840  25.128  1.00  0.00     0.259 C 
ATOM     15  C   UNL A   1      31.602  21.764  25.882  1.00  0.00     0.064 C 
BRANCH  14  16
ATOM     16  O   UNL A   1      31.811  19.797  24.469  1.00  0.00    -0.479 OA
BRANCH  16  17
ATOM     17  C   UNL A   1      32.495  18.608  24.475  1.00  0.00     0.139 A 
ATOM     18  C   UNL A   1      32.902  18.057  25.692  1.00  0.00     0.048 A 
ATOM     19  C   UNL A   1      32.835  17.978  23.272  1.00  0.00     0.083 A 
ATOM     20  C   UNL A   1      33.591  16.842  25.711  1.00  0.00     0.004 A 
ATOM     21  C   UNL A   1      33.509  16.756  23.296  1.00  0.00     0.024 A 
ATOM     22  Cl  UNL A   1      32.439  18.669  21.742  1.00  0.00    -0.080 Cl
ATOM     23  C   UNL A   1      33.881  16.186  24.515  1.00  0.00     0.002 A 
ENDBRANCH  16  17
ENDBRANCH  14  16
ENDBRANCH  12  14
ENDBRANCH   7  12
ENDBRANCH   4   6
ENDBRANCH   3   4
ENDBRANCH   2   3
ENDBRANCH   1   2
BRANCH   1  24
ATOM     24  O   UNL A   1      40.417  20.151  26.980  1.00  0.00    -0.374 OA
BRANCH  24  25
ATOM     25  C   UNL A   1      41.323  19.353  26.224  1.00  0.00     0.202 C 
BRANCH  25  26
ATOM     26  C   UNL A   1      42.787  19.798  26.134  1.00  0.00     0.261 C 
BRANCH  26  27
ATOM     27  O   UNL A   1      43.287  19.806  24.794  1.00  0.00    -0.460 OA
BRANCH  27  28
ATOM     28  C   UNL A   1      44.546  20.293  24.686  1.00  0.00     0.338 C 
ATOM     29  O   UNL A   1      45.490  19.779  24.098  1.00  0.00    -0.246 OA
BRANCH  28  30
ATOM     30  C   UNL A   1      44.598  21.658  25.228  1.00  0.00     0.060 A 
ATOM     31  C   UNL A   1      44.356  22.712  24.338  1.00  0.00     0.016 A 
ATOM     32  C   UNL A   1      44.921  21.908  26.563  1.00  0.00     0.016 A 
ATOM     33  C   UNL A   1      44.489  24.026  24.768  1.00  0.00     0.010 A 
ATOM     34  C   UNL A   1      45.066  23.230  26.991  1.00  0.00     0.010 A 
ATOM     35  C   UNL A   1      44.887  24.291  26.084  1.00  0.00    -0.014 A 
BRANCH  35  36
ATOM     36  C   UNL A   1      45.273  25.670  26.454  1.00  0.00     0.031 A 
ATOM     37  C   UNL A   1      44.220  26.590  27.005  1.00  0.00     0.074 A 
ATOM     38  C   UNL A   1      46.549  26.077  26.344  1.00  0.00     0.049 A 
ATOM     39  N   UNL A   1      44.330  27.832  27.398  1.00  0.00    -0.248 NA
ATOM     40  C   UNL A   1      42.861  26.036  27.134  1.00  0.00     0.031 C 
ATOM     41  C   UNL A   1      47.661  25.254  25.866  1.00  0.00     0.029 A 
ATOM     42  N   UNL A   1      47.125  27.287  26.631  1.00  0.00    -0.354 N 
ATOM     43  C   UNL A   1      43.058  28.211  27.812  1.00  0.00     0.074 A 
ATOM     44  C   UNL A   1      42.186  27.078  27.595  1.00  0.00     0.031 C 
ATOM     45  C   UNL A   1      48.787  25.987  25.891  1.00  0.00     0.029 A 
ATOM     46  C   UNL A   1      48.470  27.336  26.356  1.00  0.00     0.049 A 
ATOM     47  H   UNL A   1      46.623  28.049  27.001  1.00  0.00     0.167 HD
ATOM     48  C   UNL A   1      42.656  29.394  28.333  1.00  0.00     0.031 A 
ATOM     49  C   UNL A   1      49.341  28.359  26.450  1.00  0.00     0.031 A 
ATOM     50  C   UNL A   1      43.528  30.520  28.532  1.00  0.00     0.049 A 
ATOM     51  C   UNL A   1      48.854  29.689  26.964  1.00  0.00     0.074 A 
ATOM     52  C   UNL A   1      43.224  31.761  29.063  1.00  0.00     0.029 A 
ATOM     53  N   UNL A   1      44.875  30.545  28.201  1.00  0.00    -0.354 N 
ATOM     54  N   UNL A   1      47.654  30.025  27.374  1.00  0.00    -0.248 NA
ATOM     55  C   UNL A   1      49.842  30.774  27.039  1.00  0.00     0.031 C 
ATOM     56  C   UNL A   1      44.374  32.556  28.996  1.00  0.00     0.029 A 
ATOM     57  C   UNL A   1      45.410  31.788  28.488  1.00  0.00     0.049 A 
ATOM     58  H   UNL A   1      45.377  29.789  27.818  1.00  0.00     0.167 HD
ATOM     59  C   UNL A   1      47.749  31.352  27.781  1.00  0.00     0.074 A 
ATOM     60  C   UNL A   1      49.128  31.750  27.580  1.00  0.00     0.031 C 
ATOM     61  C   UNL A   1      46.785  32.167  28.278  1.00  0.00     0.031 A 
BRANCH  48  62
ATOM     62  C   UNL A   1      41.198  29.540  28.686  1.00  0.00    -0.014 A 
ATOM     63  C   UNL A   1      40.189  29.304  27.735  1.00  0.00     0.010 A 
ATOM     64  C   UNL A   1      40.834  29.887  29.999  1.00  0.00     0.010 A 
ATOM     65  C   UNL A   1      38.843  29.452  28.082  1.00  0.00     0.020 A 
ATOM     66  C   UNL A   1      39.488  30.008  30.358  1.00  0.00     0.020 A 
ATOM     67  C   UNL A   1      38.501  29.805  29.391  1.00  0.00     0.054 A 
BRANCH  67  68
ATOM     68  S   UNL A   1      36.745  29.966  29.820  1.00  0.00     0.124 S 
ATOM     69  O   UNL A   1      36.094  29.457  28.615  1.00  0.00    -0.237 OA
ATOM     70  O   UNL A   1      36.626  29.119  31.003  1.00  0.00    -0.237 OA
ATOM     71  O   UNL A   1      36.577  31.396  30.060  1.00  0.00    -0.744 OA
ENDBRANCH  67  68
ENDBRANCH  48  62
BRANCH  49  72
ATOM     72  C   UNL A   1      50.757  28.170  26.034  1.00  0.00    -0.014 A 
ATOM     73  C   UNL A   1      51.201  28.597  24.770  1.00  0.00     0.010 A 
ATOM     74  C   UNL A   1      51.676  27.562  26.910  1.00  0.00     0.010 A 
ATOM     75  C   UNL A   1      52.531  28.406  24.383  1.00  0.00     0.020 A 
ATOM     76  C   UNL A   1      53.012  27.395  26.539  1.00  0.00     0.020 A 
ATOM     77  C   UNL A   1      53.430  27.808  25.273  1.00  0.00     0.054 A 
BRANCH  77  78
ATOM     78  S   UNL A   1      55.162  27.618  24.772  1.00  0.00     0.124 S 
ATOM     79  O   UNL A   1      55.424  28.883  24.093  1.00  0.00    -0.237 OA
ATOM     80  O   UNL A   1      55.842  27.433  26.052  1.00  0.00    -0.237 OA
ATOM     81  O   UNL A   1      55.141  26.437  23.911  1.00  0.00    -0.744 OA
ENDBRANCH  77  78
ENDBRANCH  49  72
BRANCH  61  82
ATOM     82  C   UNL A   1      47.193  33.563  28.674  1.00  0.00    -0.014 A 
ATOM     83  C   UNL A   1      47.101  34.636  27.771  1.00  0.00     0.010 A 
ATOM     84  C   UNL A   1      47.626  33.808  29.990  1.00  0.00     0.010 A 
ATOM     85  C   UNL A   1      47.469  35.925  28.168  1.00  0.00     0.020 A 
ATOM     86  C   UNL A   1      47.964  35.101  30.399  1.00  0.00     0.020 A 
ATOM     87  C   UNL A   1      47.898  36.148  29.479  1.00  0.00     0.054 A 
BRANCH  87  88
ATOM     88  S   UNL A   1      48.333  37.837  29.980  1.00  0.00     0.124 S 
ATOM     89  O   UNL A   1      48.442  38.517  28.692  1.00  0.00    -0.237 OA
ATOM     90  O   UNL A   1      47.192  38.231  30.804  1.00  0.00    -0.237 OA
ATOM     91  O   UNL A   1      49.591  37.671  30.706  1.00  0.00    -0.744 OA
ENDBRANCH  87  88
ENDBRANCH  61  82
ENDBRANCH  35  36
ENDBRANCH  28  30
ENDBRANCH  27  28
ENDBRANCH  26  27
ENDBRANCH  25  26
ENDBRANCH  24  25
ENDBRANCH   1  24
TORSDOF 21
ENDMDL
