MODEL 1
REMARK VINA RESULT:     -11.4      0.000      0.000
REMARK SMILES O=C(OCCOCCOC(=O)c1ccc(-c2c3nc(c(-c4ccc(S(=O)(=O)[O-])cc4)c4ccc([nH]4)c(-c4ccc(S(=O)(=O)[O-])cc4)c4nc(c(-c5ccc(S(=O)(=O)[O-])cc5)c5ccc2[nH]5)C=C4)C=C3)cc1)C1=Cc2cc(Cl)cc(Cl)c2O[C@@H]1C(F)(F)F
REMARK SMILES IDX 7 1 6 2 5 3 4 4 3 5 2 6 1 7 72 8 73 9 83 10 74 11 82 12
REMARK SMILES IDX 75 13 81 14 76 15 79 16 77 17 78 18 80 19 84 20 85 21 86 22
REMARK SMILES IDX 87 23 8 24 9 25 10 26 11 27 12 28 13 29 71 30 14 31 70 32
REMARK SMILES IDX 15 33 16 34 17 35 64 36 18 37 69 38 63 39 65 40 19 41 68 42
REMARK SMILES IDX 62 43 61 44 20 46 50 47 31 48 49 49 32 50 35 51 48 52 66 53
REMARK SMILES IDX 33 54 34 55 47 57 67 58 36 59 21 60 22 61 30 62 23 63 29 64
REMARK SMILES IDX 24 65 25 66 26 67 27 68 28 69 51 70 52 71 60 72 53 73 59 74
REMARK SMILES IDX 54 75 55 76 56 77 57 78 58 79 37 80 38 81 46 82 39 83 45 84
REMARK SMILES IDX 40 85 41 86 42 87 43 88 44 89
REMARK H PARENT 65 45 35 56
REMARK Flexibility Score: inf
ROOT
ATOM      1  C   UNL A   1      32.951  29.348  24.473  1.00  0.00     0.202 C 
ENDROOT
BRANCH   1   2
ATOM      2  O   UNL A   1      31.770  28.785  23.894  1.00  0.00    -0.374 OA
BRANCH   2   3
ATOM      3  C   UNL A   1      30.677  27.739  24.363  1.00  0.00     0.202 C 
BRANCH   3   4
ATOM      4  C   UNL A   1      30.485  26.438  26.090  1.00  0.00     0.261 C 
BRANCH   4   5
ATOM      5  O   UNL A   1      31.644  25.797  26.898  1.00  0.00    -0.460 OA
BRANCH   5   6
ATOM      6  C   UNL A   1      31.782  24.490  26.665  1.00  0.00     0.338 C 
ATOM      7  O   UNL A   1      31.598  23.543  27.386  1.00  0.00    -0.246 OA
BRANCH   6   8
ATOM      8  C   UNL A   1      32.516  24.652  25.437  1.00  0.00     0.087 C 
ATOM      9  C   UNL A   1      33.977  24.824  25.720  1.00  0.00     0.027 C 
ATOM     10  C   UNL A   1      31.749  23.137  24.497  1.00  0.00     0.316 C 
ATOM     11  C   UNL A   1      35.223  23.542  25.365  1.00  0.00     0.020 A 
ATOM     12  O   UNL A   1      33.049  21.756  24.178  1.00  0.00    -0.474 OA
ATOM     13  C   UNL A   1      36.506  23.703  25.815  1.00  0.00     0.032 A 
ATOM     14  C   UNL A   1      34.770  21.998  24.711  1.00  0.00     0.146 A 
ATOM     15  C   UNL A   1      37.309  22.548  25.751  1.00  0.00     0.043 A 
ATOM     16  C   UNL A   1      35.578  20.906  24.850  1.00  0.00     0.085 A 
ATOM     17  Cl  UNL A   1      38.953  22.715  26.283  1.00  0.00    -0.084 Cl
ATOM     18  C   UNL A   1      36.865  21.223  25.343  1.00  0.00     0.045 A 
ATOM     19  Cl  UNL A   1      35.003  19.306  24.776  1.00  0.00    -0.080 Cl
BRANCH  10  20
ATOM     20  C   UNL A   1      30.773  23.854  23.494  1.00  0.00     0.430 C 
ATOM     21  F   UNL A   1      29.868  24.672  24.061  1.00  0.00    -0.167 F 
ATOM     22  F   UNL A   1      31.537  24.669  22.705  1.00  0.00    -0.167 F 
ATOM     23  F   UNL A   1      30.147  23.031  22.626  1.00  0.00    -0.167 F 
ENDBRANCH  10  20
ENDBRANCH   6   8
ENDBRANCH   5   6
ENDBRANCH   4   5
ENDBRANCH   3   4
ENDBRANCH   2   3
ENDBRANCH   1   2
BRANCH   1  24
ATOM     24  C   UNL A   1      32.905  29.867  25.902  1.00  0.00     0.261 C 
BRANCH  24  25
ATOM     25  O   UNL A   1      33.995  29.419  26.688  1.00  0.00    -0.460 OA
BRANCH  25  26
ATOM     26  C   UNL A   1      34.426  30.316  27.601  1.00  0.00     0.338 C 
ATOM     27  O   UNL A   1      33.817  31.267  28.056  1.00  0.00    -0.246 OA
BRANCH  26  28
ATOM     28  C   UNL A   1      35.787  29.930  28.004  1.00  0.00     0.060 A 
ATOM     29  C   UNL A   1      36.801  30.009  27.047  1.00  0.00     0.016 A 
ATOM     30  C   UNL A   1      36.070  29.555  29.327  1.00  0.00     0.016 A 
ATOM     31  C   UNL A   1      38.118  29.759  27.423  1.00  0.00     0.010 A 
ATOM     32  C   UNL A   1      37.385  29.310  29.702  1.00  0.00     0.010 A 
ATOM     33  C   UNL A   1      38.408  29.410  28.749  1.00  0.00    -0.014 A 
BRANCH  33  34
ATOM     34  C   UNL A   1      39.764  28.961  29.107  1.00  0.00     0.031 A 
ATOM     35  C   UNL A   1      40.652  29.946  29.800  1.00  0.00     0.074 A 
ATOM     36  C   UNL A   1      40.185  27.718  28.812  1.00  0.00     0.049 A 
ATOM     37  N   UNL A   1      41.875  29.795  30.224  1.00  0.00    -0.248 NA
ATOM     38  C   UNL A   1      40.084  31.285  30.047  1.00  0.00     0.031 C 
ATOM     39  C   UNL A   1      39.391  26.687  28.146  1.00  0.00     0.029 A 
ATOM     40  N   UNL A   1      41.397  27.117  29.029  1.00  0.00    -0.354 N 
ATOM     41  C   UNL A   1      42.220  31.010  30.798  1.00  0.00     0.074 A 
ATOM     42  C   UNL A   1      41.098  31.904  30.631  1.00  0.00     0.031 C 
ATOM     43  C   UNL A   1      40.138  25.579  28.006  1.00  0.00     0.029 A 
ATOM     44  C   UNL A   1      41.472  25.833  28.543  1.00  0.00     0.049 A 
ATOM     45  H   UNL A   1      42.144  27.562  29.490  1.00  0.00     0.167 HD
ATOM     46  C   UNL A   1      43.373  31.344  31.418  1.00  0.00     0.031 A 
ATOM     47  C   UNL A   1      42.510  24.974  28.523  1.00  0.00     0.031 A 
ATOM     48  C   UNL A   1      44.495  30.456  31.537  1.00  0.00     0.049 A 
ATOM     49  C   UNL A   1      43.815  25.406  29.145  1.00  0.00     0.074 A 
ATOM     50  C   UNL A   1      45.709  30.689  32.155  1.00  0.00     0.029 A 
ATOM     51  N   UNL A   1      44.547  29.175  31.009  1.00  0.00    -0.354 N 
ATOM     52  N   UNL A   1      44.106  26.535  29.750  1.00  0.00    -0.248 NA
ATOM     53  C   UNL A   1      44.925  24.446  29.096  1.00  0.00     0.031 C 
ATOM     54  C   UNL A   1      46.523  29.574  31.936  1.00  0.00     0.029 A 
ATOM     55  C   UNL A   1      45.788  28.616  31.255  1.00  0.00     0.049 A 
ATOM     56  H   UNL A   1      43.812  28.730  30.530  1.00  0.00     0.167 HD
ATOM     57  C   UNL A   1      45.421  26.403  30.186  1.00  0.00     0.074 A 
ATOM     58  C   UNL A   1      45.859  25.081  29.791  1.00  0.00     0.031 C 
ATOM     59  C   UNL A   1      46.198  27.293  30.854  1.00  0.00     0.031 A 
BRANCH  46  60
ATOM     60  C   UNL A   1      43.480  32.733  31.978  1.00  0.00    -0.014 A 
ATOM     61  C   UNL A   1      43.098  33.014  33.302  1.00  0.00     0.010 A 
ATOM     62  C   UNL A   1      44.007  33.763  31.180  1.00  0.00     0.010 A 
ATOM     63  C   UNL A   1      43.225  34.308  33.813  1.00  0.00     0.020 A 
ATOM     64  C   UNL A   1      44.163  35.051  31.695  1.00  0.00     0.020 A 
ATOM     65  C   UNL A   1      43.763  35.317  33.007  1.00  0.00     0.054 A 
BRANCH  65  66
ATOM     66  S   UNL A   1      43.971  36.971  33.717  1.00  0.00     0.124 S 
ATOM     67  O   UNL A   1      45.180  36.805  34.520  1.00  0.00    -0.237 OA
ATOM     68  O   UNL A   1      44.118  37.809  32.529  1.00  0.00    -0.237 OA
ATOM     69  O   UNL A   1      42.742  37.180  34.478  1.00  0.00    -0.744 OA
ENDBRANCH  65  66
ENDBRANCH  46  60
BRANCH  47  70
ATOM     70  C   UNL A   1      42.376  23.633  27.884  1.00  0.00    -0.014 A 
ATOM     71  C   UNL A   1      41.844  22.543  28.597  1.00  0.00     0.010 A 
ATOM     72  C   UNL A   1      42.821  23.427  26.565  1.00  0.00     0.010 A 
ATOM     73  C   UNL A   1      41.796  21.270  28.020  1.00  0.00     0.020 A 
ATOM     74  C   UNL A   1      42.744  22.163  25.972  1.00  0.00     0.020 A 
ATOM     75  C   UNL A   1      42.248  21.088  26.711  1.00  0.00     0.054 A 
BRANCH  75  76
ATOM     76  S   UNL A   1      42.162  19.430  25.978  1.00  0.00     0.124 S 
ATOM     77  O   UNL A   1      40.733  19.287  25.717  1.00  0.00    -0.237 OA
ATOM     78  O   UNL A   1      43.012  19.566  24.799  1.00  0.00    -0.237 OA
ATOM     79  O   UNL A   1      42.696  18.564  27.028  1.00  0.00    -0.744 OA
ENDBRANCH  75  76
ENDBRANCH  47  70
BRANCH  59  80
ATOM     80  C   UNL A   1      47.585  26.853  31.242  1.00  0.00    -0.014 A 
ATOM     81  C   UNL A   1      47.815  26.094  32.402  1.00  0.00     0.010 A 
ATOM     82  C   UNL A   1      48.665  27.150  30.390  1.00  0.00     0.010 A 
ATOM     83  C   UNL A   1      49.107  25.668  32.719  1.00  0.00     0.020 A 
ATOM     84  C   UNL A   1      49.950  26.693  30.684  1.00  0.00     0.020 A 
ATOM     85  C   UNL A   1      50.166  25.967  31.856  1.00  0.00     0.054 A 
BRANCH  85  86
ATOM     86  S   UNL A   1      51.823  25.358  32.266  1.00  0.00     0.124 S 
ATOM     87  O   UNL A   1      52.255  26.315  33.282  1.00  0.00    -0.237 OA
ATOM     88  O   UNL A   1      51.556  24.006  32.750  1.00  0.00    -0.237 OA
ATOM     89  O   UNL A   1      52.545  25.429  30.998  1.00  0.00    -0.744 OA
ENDBRANCH  85  86
ENDBRANCH  59  80
ENDBRANCH  33  34
ENDBRANCH  26  28
ENDBRANCH  25  26
ENDBRANCH  24  25
ENDBRANCH   1  24
TORSDOF 18
ENDMDL
MODEL 2
REMARK VINA RESULT:     -11.0      4.583     10.293
REMARK SMILES O=C(OCCOCCOC(=O)c1ccc(-c2c3nc(c(-c4ccc(S(=O)(=O)[O-])cc4)c4ccc([nH]4)c(-c4ccc(S(=O)(=O)[O-])cc4)c4nc(c(-c5ccc(S(=O)(=O)[O-])cc5)c5ccc2[nH]5)C=C4)C=C3)cc1)C1=Cc2cc(Cl)cc(Cl)c2O[C@@H]1C(F)(F)F
REMARK SMILES IDX 7 1 6 2 5 3 4 4 3 5 2 6 1 7 72 8 73 9 83 10 74 11 82 12
REMARK SMILES IDX 75 13 81 14 76 15 79 16 77 17 78 18 80 19 84 20 85 21 86 22
REMARK SMILES IDX 87 23 8 24 9 25 10 26 11 27 12 28 13 29 71 30 14 31 70 32
REMARK SMILES IDX 15 33 16 34 17 35 64 36 18 37 69 38 63 39 65 40 19 41 68 42
REMARK SMILES IDX 62 43 61 44 20 46 50 47 31 48 49 49 32 50 35 51 48 52 66 53
REMARK SMILES IDX 33 54 34 55 47 57 67 58 36 59 21 60 22 61 30 62 23 63 29 64
REMARK SMILES IDX 24 65 25 66 26 67 27 68 28 69 51 70 52 71 60 72 53 73 59 74
REMARK SMILES IDX 54 75 55 76 56 77 57 78 58 79 37 80 38 81 46 82 39 83 45 84
REMARK SMILES IDX 40 85 41 86 42 87 43 88 44 89
REMARK H PARENT 65 45 35 56
REMARK Flexibility Score: inf
ROOT
ATOM      1  C   UNL A   1      40.709  21.935  26.250  1.00  0.00     0.202 C 
ENDROOT
BRANCH   1   2
ATOM      2  O   UNL A   1      39.291  21.762  26.337  1.00  0.00    -0.374 OA
BRANCH   2   3
ATOM      3  C   UNL A   1      38.146  21.338  25.328  1.00  0.00     0.202 C 
BRANCH   3   4
ATOM      4  C   UNL A   1      36.816  22.441  24.015  1.00  0.00     0.261 C 
BRANCH   4   5
ATOM      5  O   UNL A   1      35.275  22.289  23.921  1.00  0.00    -0.460 OA
BRANCH   5   6
ATOM      6  C   UNL A   1      34.655  23.433  23.622  1.00  0.00     0.338 C 
ATOM      7  O   UNL A   1      34.798  24.181  22.689  1.00  0.00    -0.246 OA
BRANCH   6   8
ATOM      8  C   UNL A   1      34.051  23.597  24.919  1.00  0.00     0.087 C 
ATOM      9  C   UNL A   1      34.449  24.912  25.518  1.00  0.00     0.027 C 
ATOM     10  C   UNL A   1      32.240  23.127  24.403  1.00  0.00     0.316 C 
ATOM     11  C   UNL A   1      33.305  26.321  25.689  1.00  0.00     0.020 A 
ATOM     12  O   UNL A   1      31.046  24.630  24.522  1.00  0.00    -0.474 OA
ATOM     13  C   UNL A   1      33.789  27.540  26.079  1.00  0.00     0.032 A 
ATOM     14  C   UNL A   1      31.670  26.233  25.109  1.00  0.00     0.146 A 
ATOM     15  C   UNL A   1      32.900  28.618  25.901  1.00  0.00     0.043 A 
ATOM     16  C   UNL A   1      30.958  27.363  24.825  1.00  0.00     0.085 A 
ATOM     17  Cl  UNL A   1      33.461  30.179  26.411  1.00  0.00    -0.084 Cl
ATOM     18  C   UNL A   1      31.590  28.547  25.270  1.00  0.00     0.045 A 
ATOM     19  Cl  UNL A   1      29.638  27.386  23.752  1.00  0.00    -0.080 Cl
BRANCH  10  20
ATOM     20  C   UNL A   1      32.108  21.683  25.011  1.00  0.00     0.430 C 
ATOM     21  F   UNL A   1      32.499  20.682  24.202  1.00  0.00    -0.167 F 
ATOM     22  F   UNL A   1      32.957  21.619  26.082  1.00  0.00    -0.167 F 
ATOM     23  F   UNL A   1      30.893  21.393  25.524  1.00  0.00    -0.167 F 
ENDBRANCH  10  20
ENDBRANCH   6   8
ENDBRANCH   5   6
ENDBRANCH   4   5
ENDBRANCH   3   4
ENDBRANCH   2   3
ENDBRANCH   1   2
BRANCH   1  24
ATOM     24  C   UNL A   1      41.324  23.264  26.661  1.00  0.00     0.261 C 
BRANCH  24  25
ATOM     25  O   UNL A   1      40.413  24.344  26.575  1.00  0.00    -0.460 OA
BRANCH  25  26
ATOM     26  C   UNL A   1      40.974  25.515  26.206  1.00  0.00     0.338 C 
ATOM     27  O   UNL A   1      41.466  25.798  25.128  1.00  0.00    -0.246 OA
BRANCH  26  28
ATOM     28  C   UNL A   1      40.862  26.447  27.339  1.00  0.00     0.060 A 
ATOM     29  C   UNL A   1      39.830  26.240  28.257  1.00  0.00     0.016 A 
ATOM     30  C   UNL A   1      41.801  27.473  27.526  1.00  0.00     0.016 A 
ATOM     31  C   UNL A   1      39.761  27.033  29.398  1.00  0.00     0.010 A 
ATOM     32  C   UNL A   1      41.734  28.261  28.668  1.00  0.00     0.010 A 
ATOM     33  C   UNL A   1      40.713  28.042  29.603  1.00  0.00    -0.014 A 
BRANCH  33  34
ATOM     34  C   UNL A   1      40.535  29.003  30.705  1.00  0.00     0.031 A 
ATOM     35  C   UNL A   1      41.386  28.815  31.922  1.00  0.00     0.074 A 
ATOM     36  C   UNL A   1      39.636  29.999  30.620  1.00  0.00     0.049 A 
ATOM     37  N   UNL A   1      41.427  29.525  33.014  1.00  0.00    -0.248 NA
ATOM     38  C   UNL A   1      42.317  27.671  31.905  1.00  0.00     0.031 C 
ATOM     39  C   UNL A   1      38.768  30.266  29.474  1.00  0.00     0.029 A 
ATOM     40  N   UNL A   1      39.299  30.969  31.527  1.00  0.00    -0.354 N 
ATOM     41  C   UNL A   1      42.392  28.924  33.809  1.00  0.00     0.074 A 
ATOM     42  C   UNL A   1      42.884  27.767  33.096  1.00  0.00     0.031 C 
ATOM     43  C   UNL A   1      37.994  31.330  29.748  1.00  0.00     0.029 A 
ATOM     44  C   UNL A   1      38.289  31.799  31.098  1.00  0.00     0.049 A 
ATOM     45  H   UNL A   1      39.738  31.065  32.402  1.00  0.00     0.167 HD
ATOM     46  C   UNL A   1      42.834  29.313  35.024  1.00  0.00     0.031 A 
ATOM     47  C   UNL A   1      37.668  32.809  31.739  1.00  0.00     0.031 A 
ATOM     48  C   UNL A   1      42.303  30.441  35.738  1.00  0.00     0.049 A 
ATOM     49  C   UNL A   1      38.123  33.166  33.133  1.00  0.00     0.074 A 
ATOM     50  C   UNL A   1      42.686  30.930  36.972  1.00  0.00     0.029 A 
ATOM     51  N   UNL A   1      41.263  31.240  35.288  1.00  0.00    -0.354 N 
ATOM     52  N   UNL A   1      39.089  32.634  33.846  1.00  0.00    -0.248 NA
ATOM     53  C   UNL A   1      37.417  34.267  33.802  1.00  0.00     0.031 C 
ATOM     54  C   UNL A   1      41.826  31.981  37.302  1.00  0.00     0.029 A 
ATOM     55  C   UNL A   1      40.964  32.199  36.238  1.00  0.00     0.049 A 
ATOM     56  H   UNL A   1      40.806  31.140  34.422  1.00  0.00     0.167 HD
ATOM     57  C   UNL A   1      39.129  33.362  35.032  1.00  0.00     0.074 A 
ATOM     58  C   UNL A   1      38.104  34.380  34.929  1.00  0.00     0.031 C 
ATOM     59  C   UNL A   1      39.940  33.206  36.109  1.00  0.00     0.031 A 
BRANCH  46  60
ATOM     60  C   UNL A   1      43.916  28.490  35.663  1.00  0.00    -0.014 A 
ATOM     61  C   UNL A   1      43.608  27.345  36.420  1.00  0.00     0.010 A 
ATOM     62  C   UNL A   1      45.262  28.845  35.469  1.00  0.00     0.010 A 
ATOM     63  C   UNL A   1      44.628  26.580  36.989  1.00  0.00     0.020 A 
ATOM     64  C   UNL A   1      46.286  28.067  36.011  1.00  0.00     0.020 A 
ATOM     65  C   UNL A   1      45.962  26.943  36.774  1.00  0.00     0.054 A 
BRANCH  65  66
ATOM     66  S   UNL A   1      47.265  25.896  37.475  1.00  0.00     0.124 S 
ATOM     67  O   UNL A   1      47.001  24.613  36.828  1.00  0.00    -0.237 OA
ATOM     68  O   UNL A   1      48.484  26.578  37.043  1.00  0.00    -0.237 OA
ATOM     69  O   UNL A   1      47.007  25.934  38.911  1.00  0.00    -0.744 OA
ENDBRANCH  65  66
ENDBRANCH  46  60
BRANCH  47  70
ATOM     70  C   UNL A   1      36.545  33.545  31.091  1.00  0.00    -0.014 A 
ATOM     71  C   UNL A   1      35.323  33.734  31.762  1.00  0.00     0.010 A 
ATOM     72  C   UNL A   1      36.678  34.028  29.776  1.00  0.00     0.010 A 
ATOM     73  C   UNL A   1      34.247  34.355  31.119  1.00  0.00     0.020 A 
ATOM     74  C   UNL A   1      35.616  34.680  29.141  1.00  0.00     0.020 A 
ATOM     75  C   UNL A   1      34.400  34.822  29.812  1.00  0.00     0.054 A 
BRANCH  75  76
ATOM     76  S   UNL A   1      32.994  35.637  29.003  1.00  0.00     0.124 S 
ATOM     77  O   UNL A   1      32.232  36.132  30.145  1.00  0.00    -0.237 OA
ATOM     78  O   UNL A   1      33.650  36.657  28.190  1.00  0.00    -0.237 OA
ATOM     79  O   UNL A   1      32.361  34.558  28.248  1.00  0.00    -0.744 OA
ENDBRANCH  75  76
ENDBRANCH  47  70
BRANCH  59  80
ATOM     80  C   UNL A   1      39.786  34.184  37.244  1.00  0.00    -0.014 A 
ATOM     81  C   UNL A   1      38.978  33.894  38.357  1.00  0.00     0.010 A 
ATOM     82  C   UNL A   1      40.521  35.384  37.222  1.00  0.00     0.010 A 
ATOM     83  C   UNL A   1      38.883  34.804  39.413  1.00  0.00     0.020 A 
ATOM     84  C   UNL A   1      40.457  36.277  38.293  1.00  0.00     0.020 A 
ATOM     85  C   UNL A   1      39.626  35.988  39.376  1.00  0.00     0.054 A 
BRANCH  85  86
ATOM     86  S   UNL A   1      39.522  37.126  40.783  1.00  0.00     0.124 S 
ATOM     87  O   UNL A   1      40.930  37.332  41.110  1.00  0.00    -0.237 OA
ATOM     88  O   UNL A   1      38.835  38.281  40.209  1.00  0.00    -0.237 OA
ATOM     89  O   UNL A   1      38.754  36.382  41.778  1.00  0.00    -0.744 OA
ENDBRANCH  85  86
ENDBRANCH  59  80
ENDBRANCH  33  34
ENDBRANCH  26  28
ENDBRANCH  25  26
ENDBRANCH  24  25
ENDBRANCH   1  24
TORSDOF 18
ENDMDL
MODEL 3
REMARK VINA RESULT:     -10.9      2.679      3.538
REMARK SMILES O=C(OCCOCCOC(=O)c1ccc(-c2c3nc(c(-c4ccc(S(=O)(=O)[O-])cc4)c4ccc([nH]4)c(-c4ccc(S(=O)(=O)[O-])cc4)c4nc(c(-c5ccc(S(=O)(=O)[O-])cc5)c5ccc2[nH]5)C=C4)C=C3)cc1)C1=Cc2cc(Cl)cc(Cl)c2O[C@@H]1C(F)(F)F
REMARK SMILES IDX 7 1 6 2 5 3 4 4 3 5 2 6 1 7 72 8 73 9 83 10 74 11 82 12
REMARK SMILES IDX 75 13 81 14 76 15 79 16 77 17 78 18 80 19 84 20 85 21 86 22
REMARK SMILES IDX 87 23 8 24 9 25 10 26 11 27 12 28 13 29 71 30 14 31 70 32
REMARK SMILES IDX 15 33 16 34 17 35 64 36 18 37 69 38 63 39 65 40 19 41 68 42
REMARK SMILES IDX 62 43 61 44 20 46 50 47 31 48 49 49 32 50 35 51 48 52 66 53
REMARK SMILES IDX 33 54 34 55 47 57 67 58 36 59 21 60 22 61 30 62 23 63 29 64
REMARK SMILES IDX 24 65 25 66 26 67 27 68 28 69 51 70 52 71 60 72 53 73 59 74
REMARK SMILES IDX 54 75 55 76 56 77 57 78 58 79 37 80 38 81 46 82 39 83 45 84
REMARK SMILES IDX 40 85 41 86 42 87 43 88 44 89
REMARK H PARENT 65 45 35 56
REMARK Flexibility Score: inf
ROOT
ATOM      1  C   UNL A   1      32.369  29.929  25.458  1.00  0.00     0.202 C 
ENDROOT
BRANCH   1   2
ATOM      2  O   UNL A   1      31.135  29.620  24.802  1.00  0.00    -0.374 OA
BRANCH   2   3
ATOM      3  C   UNL A   1      30.622  28.450  23.867  1.00  0.00     0.202 C 
BRANCH   3   4
ATOM      4  C   UNL A   1      31.572  27.189  22.378  1.00  0.00     0.261 C 
BRANCH   4   5
ATOM      5  O   UNL A   1      31.410  25.654  22.227  1.00  0.00    -0.460 OA
BRANCH   5   6
ATOM      6  C   UNL A   1      32.562  24.992  22.356  1.00  0.00     0.338 C 
ATOM      7  O   UNL A   1      33.342  24.608  21.522  1.00  0.00    -0.246 OA
BRANCH   6   8
ATOM      8  C   UNL A   1      32.353  24.632  23.734  1.00  0.00     0.087 C 
ATOM      9  C   UNL A   1      31.772  23.254  23.832  1.00  0.00     0.027 C 
ATOM     10  C   UNL A   1      34.113  25.132  24.382  1.00  0.00     0.316 C 
ATOM     11  C   UNL A   1      32.715  21.811  24.427  1.00  0.00     0.020 A 
ATOM     12  O   UNL A   1      35.131  23.603  24.951  1.00  0.00    -0.474 OA
ATOM     13  C   UNL A   1      32.172  20.559  24.318  1.00  0.00     0.032 A 
ATOM     14  C   UNL A   1      34.387  21.946  24.875  1.00  0.00     0.146 A 
ATOM     15  C   UNL A   1      33.076  19.499  24.528  1.00  0.00     0.043 A 
ATOM     16  C   UNL A   1      35.206  20.853  24.893  1.00  0.00     0.085 A 
ATOM     17  Cl  UNL A   1      32.424  17.893  24.430  1.00  0.00    -0.084 Cl
ATOM     18  C   UNL A   1      34.508  19.631  24.751  1.00  0.00     0.045 A 
ATOM     19  Cl  UNL A   1      36.898  20.955  24.747  1.00  0.00    -0.080 Cl
BRANCH  10  20
ATOM     20  C   UNL A   1      33.796  26.471  25.143  1.00  0.00     0.430 C 
ATOM     21  F   UNL A   1      32.556  26.558  25.659  1.00  0.00    -0.167 F 
ATOM     22  F   UNL A   1      34.630  26.526  26.226  1.00  0.00    -0.167 F 
ATOM     23  F   UNL A   1      34.069  27.597  24.448  1.00  0.00    -0.167 F 
ENDBRANCH  10  20
ENDBRANCH   6   8
ENDBRANCH   5   6
ENDBRANCH   4   5
ENDBRANCH   3   4
ENDBRANCH   2   3
ENDBRANCH   1   2
BRANCH   1  24
ATOM     24  C   UNL A   1      32.345  30.720  26.758  1.00  0.00     0.261 C 
BRANCH  24  25
ATOM     25  O   UNL A   1      33.470  30.468  27.579  1.00  0.00    -0.460 OA
BRANCH  25  26
ATOM     26  C   UNL A   1      34.278  31.535  27.755  1.00  0.00     0.338 C 
ATOM     27  O   UNL A   1      34.034  32.703  27.509  1.00  0.00    -0.246 OA
BRANCH  26  28
ATOM     28  C   UNL A   1      35.536  31.056  28.349  1.00  0.00     0.060 A 
ATOM     29  C   UNL A   1      35.526  29.817  28.993  1.00  0.00     0.016 A 
ATOM     30  C   UNL A   1      36.724  31.792  28.217  1.00  0.00     0.016 A 
ATOM     31  C   UNL A   1      36.720  29.283  29.468  1.00  0.00     0.010 A 
ATOM     32  C   UNL A   1      37.916  31.256  28.687  1.00  0.00     0.010 A 
ATOM     33  C   UNL A   1      37.913  30.002  29.314  1.00  0.00    -0.014 A 
BRANCH  33  34
ATOM     34  C   UNL A   1      39.141  29.534  29.979  1.00  0.00     0.031 A 
ATOM     35  C   UNL A   1      39.565  30.254  31.221  1.00  0.00     0.074 A 
ATOM     36  C   UNL A   1      39.854  28.509  29.480  1.00  0.00     0.049 A 
ATOM     37  N   UNL A   1      40.594  30.031  31.990  1.00  0.00    -0.248 NA
ATOM     38  C   UNL A   1      38.713  31.377  31.655  1.00  0.00     0.031 C 
ATOM     39  C   UNL A   1      39.517  27.743  28.281  1.00  0.00     0.029 A 
ATOM     40  N   UNL A   1      41.021  27.942  29.921  1.00  0.00    -0.354 N 
ATOM     41  C   UNL A   1      40.508  30.975  33.003  1.00  0.00     0.074 A 
ATOM     42  C   UNL A   1      39.355  31.802  32.731  1.00  0.00     0.031 C 
ATOM     43  C   UNL A   1      40.460  26.806  28.080  1.00  0.00     0.029 A 
ATOM     44  C   UNL A   1      41.481  26.926  29.116  1.00  0.00     0.049 A 
ATOM     45  H   UNL A   1      41.486  28.233  30.738  1.00  0.00     0.167 HD
ATOM     46  C   UNL A   1      41.320  31.130  34.071  1.00  0.00     0.031 A 
ATOM     47  C   UNL A   1      42.609  26.195  29.204  1.00  0.00     0.031 A 
ATOM     48  C   UNL A   1      42.488  30.326  34.303  1.00  0.00     0.049 A 
ATOM     49  C   UNL A   1      43.544  26.450  30.361  1.00  0.00     0.074 A 
ATOM     50  C   UNL A   1      43.375  30.391  35.360  1.00  0.00     0.029 A 
ATOM     51  N   UNL A   1      42.939  29.327  33.454  1.00  0.00    -0.354 N 
ATOM     52  N   UNL A   1      43.414  27.299  31.355  1.00  0.00    -0.248 NA
ATOM     53  C   UNL A   1      44.767  25.638  30.419  1.00  0.00     0.031 C 
ATOM     54  C   UNL A   1      44.406  29.480  35.111  1.00  0.00     0.029 A 
ATOM     55  C   UNL A   1      44.116  28.792  33.944  1.00  0.00     0.049 A 
ATOM     56  H   UNL A   1      42.490  29.043  32.626  1.00  0.00     0.167 HD
ATOM     57  C   UNL A   1      44.521  27.096  32.174  1.00  0.00     0.074 A 
ATOM     58  C   UNL A   1      45.296  26.033  31.568  1.00  0.00     0.031 C 
ATOM     59  C   UNL A   1      44.867  27.729  33.323  1.00  0.00     0.031 A 
BRANCH  46  60
ATOM     60  C   UNL A   1      40.986  32.227  35.040  1.00  0.00    -0.014 A 
ATOM     61  C   UNL A   1      40.105  32.006  36.114  1.00  0.00     0.010 A 
ATOM     62  C   UNL A   1      41.594  33.486  34.898  1.00  0.00     0.010 A 
ATOM     63  C   UNL A   1      39.822  33.032  37.018  1.00  0.00     0.020 A 
ATOM     64  C   UNL A   1      41.338  34.506  35.816  1.00  0.00     0.020 A 
ATOM     65  C   UNL A   1      40.447  34.274  36.867  1.00  0.00     0.054 A 
BRANCH  65  66
ATOM     66  S   UNL A   1      40.108  35.567  38.090  1.00  0.00     0.124 S 
ATOM     67  O   UNL A   1      39.799  36.714  37.239  1.00  0.00    -0.237 OA
ATOM     68  O   UNL A   1      38.977  35.013  38.831  1.00  0.00    -0.237 OA
ATOM     69  O   UNL A   1      41.355  35.669  38.843  1.00  0.00    -0.744 OA
ENDBRANCH  65  66
ENDBRANCH  46  60
BRANCH  47  70
ATOM     70  C   UNL A   1      42.934  25.170  28.172  1.00  0.00    -0.014 A 
ATOM     71  C   UNL A   1      42.474  23.846  28.298  1.00  0.00     0.010 A 
ATOM     72  C   UNL A   1      43.746  25.503  27.071  1.00  0.00     0.010 A 
ATOM     73  C   UNL A   1      42.849  22.870  27.369  1.00  0.00     0.020 A 
ATOM     74  C   UNL A   1      44.096  24.538  26.121  1.00  0.00     0.020 A 
ATOM     75  C   UNL A   1      43.660  23.222  26.287  1.00  0.00     0.054 A 
BRANCH  75  76
ATOM     76  S   UNL A   1      44.121  21.942  25.087  1.00  0.00     0.124 S 
ATOM     77  O   UNL A   1      43.161  20.885  25.385  1.00  0.00    -0.237 OA
ATOM     78  O   UNL A   1      43.932  22.627  23.811  1.00  0.00    -0.237 OA
ATOM     79  O   UNL A   1      45.511  21.640  25.425  1.00  0.00    -0.744 OA
ENDBRANCH  75  76
ENDBRANCH  47  70
BRANCH  59  80
ATOM     80  C   UNL A   1      46.112  27.260  34.029  1.00  0.00    -0.014 A 
ATOM     81  C   UNL A   1      46.075  26.211  34.963  1.00  0.00     0.010 A 
ATOM     82  C   UNL A   1      47.351  27.839  33.695  1.00  0.00     0.010 A 
ATOM     83  C   UNL A   1      47.251  25.772  35.576  1.00  0.00     0.020 A 
ATOM     84  C   UNL A   1      48.532  27.378  34.277  1.00  0.00     0.020 A 
ATOM     85  C   UNL A   1      48.473  26.356  35.226  1.00  0.00     0.054 A 
BRANCH  85  86
ATOM     86  S   UNL A   1      49.989  25.732  35.999  1.00  0.00     0.124 S 
ATOM     87  O   UNL A   1      49.461  24.947  37.112  1.00  0.00    -0.237 OA
ATOM     88  O   UNL A   1      50.602  24.960  34.921  1.00  0.00    -0.237 OA
ATOM     89  O   UNL A   1      50.711  26.944  36.380  1.00  0.00    -0.744 OA
ENDBRANCH  85  86
ENDBRANCH  59  80
ENDBRANCH  33  34
ENDBRANCH  26  28
ENDBRANCH  25  26
ENDBRANCH  24  25
ENDBRANCH   1  24
TORSDOF 18
ENDMDL
