MODEL 1
REMARK VINA RESULT:     -10.8      0.000      0.000
REMARK SMILES O=C1NC(=O)/C(=C/c2ccc(OCc3cn(-c4ccc(C(=O)OCCOCCOC(=O)c5ccc(-c6c7nc(c(-c8ccc(S(=O)(=O)[O-])cc8)c8ccc([nH]8)c(-c8ccc(S(=O)(=O)[O-])cc8)c8nc(c(-c9ccc(S(=O)(=O)[O-])cc9)c9ccc6[nH]9)C=C8)C=C7)cc5)cc4)nn3)cc2)S1
REMARK SMILES IDX 25 1 24 2 23 3 21 4 22 5 20 6 17 7 18 8 93 9 19 10 92 11
REMARK SMILES IDX 16 12 14 13 15 14 95 15 94 16 13 17 12 18 11 19 8 20 9 21
REMARK SMILES IDX 97 22 10 23 96 24 7 25 1 26 2 27 3 28 98 29 4 30 6 32 5 33
REMARK SMILES IDX 26 34 27 35 28 36 29 37 30 38 31 39 32 40 33 41 91 42 34 43
REMARK SMILES IDX 90 44 35 45 36 46 37 47 84 48 38 49 89 50 83 51 85 52 39 53
REMARK SMILES IDX 88 54 82 55 81 56 40 58 70 59 51 60 69 61 52 62 55 63 68 64
REMARK SMILES IDX 86 65 53 66 54 67 67 69 87 70 56 71 41 72 42 73 50 74 43 75
REMARK SMILES IDX 49 76 44 77 45 78 46 79 47 80 48 81 71 82 72 83 80 84 73 85
REMARK SMILES IDX 79 86 74 87 75 88 76 89 77 90 78 91 57 92 58 93 66 94 59 95
REMARK SMILES IDX 65 96 60 97 61 98 62 99 63 100 64 101
REMARK H PARENT 3 31 85 57 55 68
REMARK Flexibility Score: inf
ROOT
ATOM      1  C   UNL A   1      39.198  33.442  31.304  1.00  0.00     0.202 C 
ENDROOT
BRANCH   1   2
ATOM      2  C   UNL A   1      38.642  33.269  29.891  1.00  0.00     0.261 C 
BRANCH   2   3
ATOM      3  O   UNL A   1      37.477  32.435  29.845  1.00  0.00    -0.460 OA
BRANCH   3   4
ATOM      4  C   UNL A   1      37.613  31.350  29.049  1.00  0.00     0.338 C 
ATOM      5  O   UNL A   1      38.607  30.655  28.909  1.00  0.00    -0.246 OA
BRANCH   4   6
ATOM      6  C   UNL A   1      36.314  30.983  28.457  1.00  0.00     0.060 A 
ATOM      7  C   UNL A   1      34.074  30.251  26.996  1.00  0.00     0.066 A 
ATOM      8  C   UNL A   1      35.018  29.276  27.348  1.00  0.00     0.029 A 
ATOM      9  C   UNL A   1      34.194  31.565  27.469  1.00  0.00     0.029 A 
ATOM     10  C   UNL A   1      36.156  29.654  28.048  1.00  0.00     0.018 A 
ATOM     11  C   UNL A   1      35.310  31.927  28.229  1.00  0.00     0.018 A 
BRANCH   7  12
ATOM     12  N   UNL A   1      33.079  29.902  26.056  1.00  0.00    -0.220 N 
ATOM     13  C   UNL A   1      31.702  28.787  24.784  1.00  0.00     0.120 A 
ATOM     14  C   UNL A   1      32.962  28.730  25.341  1.00  0.00     0.144 A 
ATOM     15  N   UNL A   1      31.119  29.972  25.144  1.00  0.00    -0.131 NA
ATOM     16  N   UNL A   1      31.956  30.638  25.916  1.00  0.00    -0.062 NA
BRANCH  13  17
ATOM     17  C   UNL A   1      30.920  27.762  24.032  1.00  0.00     0.289 C 
BRANCH  17  18
ATOM     18  O   UNL A   1      30.167  26.842  24.838  1.00  0.00    -0.487 OA
BRANCH  18  19
ATOM     19  C   UNL A   1      30.650  25.571  24.990  1.00  0.00     0.119 A 
ATOM     20  C   UNL A   1      31.345  22.849  25.058  1.00  0.00    -0.024 A 
ATOM     21  C   UNL A   1      31.160  23.496  23.836  1.00  0.00     0.012 A 
ATOM     22  C   UNL A   1      31.272  23.593  26.239  1.00  0.00     0.012 A 
ATOM     23  C   UNL A   1      30.808  24.851  23.805  1.00  0.00     0.047 A 
ATOM     24  C   UNL A   1      30.954  24.953  26.200  1.00  0.00     0.047 A 
BRANCH  20  25
ATOM     25  C   UNL A   1      31.631  21.414  25.111  1.00  0.00     0.029 C 
ATOM     26  O   UNL A   1      36.474  20.041  24.937  1.00  0.00    -0.261 OA
ATOM     27  C   UNL A   1      35.259  20.139  25.048  1.00  0.00     0.290 C 
ATOM     28  N   UNL A   1      34.384  19.104  25.073  1.00  0.00    -0.282 N 
ATOM     29  S   UNL A   1      34.389  21.655  25.118  1.00  0.00    -0.022 SA
ATOM     30  C   UNL A   1      33.051  19.391  25.076  1.00  0.00     0.265 C 
ATOM     31  H   UNL A   1      34.702  18.173  25.090  1.00  0.00     0.174 HD
ATOM     32  C   UNL A   1      32.855  20.864  25.113  1.00  0.00     0.083 C 
ATOM     33  O   UNL A   1      32.160  18.562  24.998  1.00  0.00    -0.268 OA
ENDBRANCH  20  25
ENDBRANCH  18  19
ENDBRANCH  17  18
ENDBRANCH  13  17
ENDBRANCH   7  12
ENDBRANCH   4   6
ENDBRANCH   3   4
ENDBRANCH   2   3
ENDBRANCH   1   2
BRANCH   1  34
ATOM     34  O   UNL A   1      38.794  34.570  32.078  1.00  0.00    -0.374 OA
BRANCH  34  35
ATOM     35  C   UNL A   1      37.912  34.416  33.186  1.00  0.00     0.202 C 
BRANCH  35  36
ATOM     36  C   UNL A   1      36.603  33.663  33.002  1.00  0.00     0.261 C 
BRANCH  36  37
ATOM     37  O   UNL A   1      36.632  32.395  33.629  1.00  0.00    -0.460 OA
BRANCH  37  38
ATOM     38  C   UNL A   1      36.408  31.369  32.776  1.00  0.00     0.338 C 
ATOM     39  O   UNL A   1      35.496  31.261  31.974  1.00  0.00    -0.246 OA
BRANCH  38  40
ATOM     40  C   UNL A   1      37.369  30.306  33.075  1.00  0.00     0.060 A 
ATOM     41  C   UNL A   1      38.490  30.713  33.798  1.00  0.00     0.016 A 
ATOM     42  C   UNL A   1      37.354  29.146  32.288  1.00  0.00     0.016 A 
ATOM     43  C   UNL A   1      39.693  30.146  33.467  1.00  0.00     0.010 A 
ATOM     44  C   UNL A   1      38.560  28.600  31.940  1.00  0.00     0.010 A 
ATOM     45  C   UNL A   1      39.715  29.184  32.451  1.00  0.00    -0.014 A 
BRANCH  45  46
ATOM     46  C   UNL A   1      40.995  28.673  32.027  1.00  0.00     0.031 A 
ATOM     47  C   UNL A   1      41.945  28.670  33.157  1.00  0.00     0.074 A 
ATOM     48  C   UNL A   1      41.201  28.172  30.794  1.00  0.00     0.049 A 
ATOM     49  N   UNL A   1      42.897  29.513  33.375  1.00  0.00    -0.248 NA
ATOM     50  C   UNL A   1      41.613  27.824  34.321  1.00  0.00     0.031 C 
ATOM     51  C   UNL A   1      40.224  27.918  29.731  1.00  0.00     0.029 A 
ATOM     52  N   UNL A   1      42.346  27.681  30.262  1.00  0.00    -0.354 N 
ATOM     53  C   UNL A   1      43.461  29.105  34.577  1.00  0.00     0.074 A 
ATOM     54  C   UNL A   1      42.467  28.295  35.227  1.00  0.00     0.031 C 
ATOM     55  C   UNL A   1      40.774  27.090  28.809  1.00  0.00     0.029 A 
ATOM     56  C   UNL A   1      42.170  26.867  29.147  1.00  0.00     0.049 A 
ATOM     57  H   UNL A   1      43.233  27.885  30.635  1.00  0.00     0.167 HD
ATOM     58  C   UNL A   1      44.810  29.136  34.753  1.00  0.00     0.031 A 
ATOM     59  C   UNL A   1      43.098  26.025  28.613  1.00  0.00     0.031 A 
ATOM     60  C   UNL A   1      45.441  29.987  33.773  1.00  0.00     0.049 A 
ATOM     61  C   UNL A   1      44.422  26.465  29.130  1.00  0.00     0.074 A 
ATOM     62  C   UNL A   1      45.331  31.319  33.426  1.00  0.00     0.029 A 
ATOM     63  N   UNL A   1      46.025  29.356  32.697  1.00  0.00    -0.354 N 
ATOM     64  N   UNL A   1      44.960  27.613  28.823  1.00  0.00    -0.248 NA
ATOM     65  C   UNL A   1      44.894  25.870  30.372  1.00  0.00     0.031 C 
ATOM     66  C   UNL A   1      45.438  31.341  32.004  1.00  0.00     0.029 A 
ATOM     67  C   UNL A   1      45.696  30.043  31.560  1.00  0.00     0.049 A 
ATOM     68  H   UNL A   1      46.585  28.548  32.740  1.00  0.00     0.167 HD
ATOM     69  C   UNL A   1      45.487  28.090  30.016  1.00  0.00     0.074 A 
ATOM     70  C   UNL A   1      45.486  26.937  30.919  1.00  0.00     0.031 C 
ATOM     71  C   UNL A   1      45.591  29.433  30.250  1.00  0.00     0.031 A 
BRANCH  58  72
ATOM     72  C   UNL A   1      45.559  28.019  35.447  1.00  0.00    -0.014 A 
ATOM     73  C   UNL A   1      45.643  26.773  34.798  1.00  0.00     0.010 A 
ATOM     74  C   UNL A   1      45.925  28.050  36.811  1.00  0.00     0.010 A 
ATOM     75  C   UNL A   1      45.972  25.608  35.503  1.00  0.00     0.020 A 
ATOM     76  C   UNL A   1      46.294  26.905  37.513  1.00  0.00     0.020 A 
ATOM     77  C   UNL A   1      46.278  25.684  36.862  1.00  0.00     0.054 A 
BRANCH  77  78
ATOM     78  S   UNL A   1      46.597  24.167  37.788  1.00  0.00     0.124 S 
ATOM     79  O   UNL A   1      47.116  23.285  36.746  1.00  0.00    -0.237 OA
ATOM     80  O   UNL A   1      47.566  24.616  38.783  1.00  0.00    -0.237 OA
ATOM     81  O   UNL A   1      45.284  23.809  38.319  1.00  0.00    -0.744 OA
ENDBRANCH  77  78
ENDBRANCH  58  72
BRANCH  59  82
ATOM     82  C   UNL A   1      42.885  24.672  28.025  1.00  0.00    -0.014 A 
ATOM     83  C   UNL A   1      42.955  23.507  28.818  1.00  0.00     0.010 A 
ATOM     84  C   UNL A   1      42.324  24.544  26.739  1.00  0.00     0.010 A 
ATOM     85  C   UNL A   1      42.427  22.281  28.363  1.00  0.00     0.020 A 
ATOM     86  C   UNL A   1      41.800  23.328  26.279  1.00  0.00     0.020 A 
ATOM     87  C   UNL A   1      41.833  22.205  27.101  1.00  0.00     0.054 A 
BRANCH  87  88
ATOM     88  S   UNL A   1      40.992  20.674  26.586  1.00  0.00     0.124 S 
ATOM     89  O   UNL A   1      41.955  20.085  25.660  1.00  0.00    -0.237 OA
ATOM     90  O   UNL A   1      40.815  19.963  27.849  1.00  0.00    -0.237 OA
ATOM     91  O   UNL A   1      39.754  21.152  25.970  1.00  0.00    -0.744 OA
ENDBRANCH  87  88
ENDBRANCH  59  82
BRANCH  71  92
ATOM     92  C   UNL A   1      45.401  30.383  29.089  1.00  0.00    -0.014 A 
ATOM     93  C   UNL A   1      44.167  30.957  28.719  1.00  0.00     0.010 A 
ATOM     94  C   UNL A   1      46.567  30.828  28.443  1.00  0.00     0.010 A 
ATOM     95  C   UNL A   1      44.108  31.933  27.709  1.00  0.00     0.020 A 
ATOM     96  C   UNL A   1      46.516  31.810  27.454  1.00  0.00     0.020 A 
ATOM     97  C   UNL A   1      45.286  32.352  27.082  1.00  0.00     0.054 A 
BRANCH  97  98
ATOM     98  S   UNL A   1      45.221  33.632  25.797  1.00  0.00     0.124 S 
ATOM     99  O   UNL A   1      46.630  33.958  25.601  1.00  0.00    -0.237 OA
ATOM    100  O   UNL A   1      44.573  32.942  24.683  1.00  0.00    -0.237 OA
ATOM    101  O   UNL A   1      44.420  34.695  26.405  1.00  0.00    -0.744 OA
ENDBRANCH  97  98
ENDBRANCH  71  92
ENDBRANCH  45  46
ENDBRANCH  38  40
ENDBRANCH  37  38
ENDBRANCH  36  37
ENDBRANCH  35  36
ENDBRANCH  34  35
ENDBRANCH   1  34
TORSDOF 22
ENDMDL
MODEL 2
REMARK VINA RESULT:     -10.6      5.480     13.681
REMARK SMILES O=C1NC(=O)/C(=C/c2ccc(OCc3cn(-c4ccc(C(=O)OCCOCCOC(=O)c5ccc(-c6c7nc(c(-c8ccc(S(=O)(=O)[O-])cc8)c8ccc([nH]8)c(-c8ccc(S(=O)(=O)[O-])cc8)c8nc(c(-c9ccc(S(=O)(=O)[O-])cc9)c9ccc6[nH]9)C=C8)C=C7)cc5)cc4)nn3)cc2)S1
REMARK SMILES IDX 25 1 24 2 23 3 21 4 22 5 20 6 17 7 18 8 93 9 19 10 92 11
REMARK SMILES IDX 16 12 14 13 15 14 95 15 94 16 13 17 12 18 11 19 8 20 9 21
REMARK SMILES IDX 97 22 10 23 96 24 7 25 1 26 2 27 3 28 98 29 4 30 6 32 5 33
REMARK SMILES IDX 26 34 27 35 28 36 29 37 30 38 31 39 32 40 33 41 91 42 34 43
REMARK SMILES IDX 90 44 35 45 36 46 37 47 84 48 38 49 89 50 83 51 85 52 39 53
REMARK SMILES IDX 88 54 82 55 81 56 40 58 70 59 51 60 69 61 52 62 55 63 68 64
REMARK SMILES IDX 86 65 53 66 54 67 67 69 87 70 56 71 41 72 42 73 50 74 43 75
REMARK SMILES IDX 49 76 44 77 45 78 46 79 47 80 48 81 71 82 72 83 80 84 73 85
REMARK SMILES IDX 79 86 74 87 75 88 76 89 77 90 78 91 57 92 58 93 66 94 59 95
REMARK SMILES IDX 65 96 60 97 61 98 62 99 63 100 64 101
REMARK H PARENT 3 31 85 57 55 68
REMARK Flexibility Score: inf
ROOT
ATOM      1  C   UNL A   1      35.298  34.595  34.291  1.00  0.00     0.202 C 
ENDROOT
BRANCH   1   2
ATOM      2  C   UNL A   1      36.084  33.284  34.292  1.00  0.00     0.261 C 
BRANCH   2   3
ATOM      3  O   UNL A   1      37.434  33.441  34.748  1.00  0.00    -0.460 OA
BRANCH   3   4
ATOM      4  C   UNL A   1      37.614  33.107  36.047  1.00  0.00     0.338 C 
ATOM      5  O   UNL A   1      37.383  32.031  36.573  1.00  0.00    -0.246 OA
BRANCH   4   6
ATOM      6  C   UNL A   1      38.305  34.195  36.762  1.00  0.00     0.060 A 
ATOM      7  C   UNL A   1      39.948  36.046  38.013  1.00  0.00     0.066 A 
ATOM      8  C   UNL A   1      39.875  36.022  36.613  1.00  0.00     0.029 A 
ATOM      9  C   UNL A   1      39.117  35.222  38.786  1.00  0.00     0.029 A 
ATOM     10  C   UNL A   1      39.080  35.070  35.990  1.00  0.00     0.018 A 
ATOM     11  C   UNL A   1      38.269  34.309  38.153  1.00  0.00     0.018 A 
BRANCH   7  12
ATOM     12  N   UNL A   1      40.963  36.825  38.611  1.00  0.00    -0.220 N 
ATOM     13  C   UNL A   1      42.734  38.055  38.945  1.00  0.00     0.120 A 
ATOM     14  C   UNL A   1      42.253  37.022  38.168  1.00  0.00     0.144 A 
ATOM     15  N   UNL A   1      41.758  38.423  39.832  1.00  0.00    -0.131 NA
ATOM     16  N   UNL A   1      40.690  37.679  39.621  1.00  0.00    -0.062 NA
BRANCH  13  17
ATOM     17  C   UNL A   1      44.003  38.834  38.856  1.00  0.00     0.289 C 
BRANCH  17  18
ATOM     18  O   UNL A   1      44.874  38.479  37.770  1.00  0.00    -0.487 OA
BRANCH  18  19
ATOM     19  C   UNL A   1      45.015  39.365  36.738  1.00  0.00     0.119 A 
ATOM     20  C   UNL A   1      44.927  41.297  34.699  1.00  0.00    -0.024 A 
ATOM     21  C   UNL A   1      44.562  41.635  36.003  1.00  0.00     0.012 A 
ATOM     22  C   UNL A   1      45.423  40.016  34.442  1.00  0.00     0.012 A 
ATOM     23  C   UNL A   1      44.602  40.669  37.015  1.00  0.00     0.047 A 
ATOM     24  C   UNL A   1      45.491  39.066  35.464  1.00  0.00     0.047 A 
BRANCH  20  25
ATOM     25  C   UNL A   1      44.812  42.271  33.611  1.00  0.00     0.029 C 
ATOM     26  O   UNL A   1      41.173  41.491  30.217  1.00  0.00    -0.261 OA
ATOM     27  C   UNL A   1      42.072  41.905  30.938  1.00  0.00     0.290 C 
ATOM     28  N   UNL A   1      42.863  42.973  30.675  1.00  0.00    -0.282 N 
ATOM     29  S   UNL A   1      42.573  41.147  32.432  1.00  0.00    -0.022 SA
ATOM     30  C   UNL A   1      43.901  43.227  31.522  1.00  0.00     0.265 C 
ATOM     31  H   UNL A   1      42.693  43.549  29.895  1.00  0.00     0.174 HD
ATOM     32  C   UNL A   1      43.886  42.248  32.641  1.00  0.00     0.083 C 
ATOM     33  O   UNL A   1      44.745  44.090  31.350  1.00  0.00    -0.268 OA
ENDBRANCH  20  25
ENDBRANCH  18  19
ENDBRANCH  17  18
ENDBRANCH  13  17
ENDBRANCH   7  12
ENDBRANCH   4   6
ENDBRANCH   3   4
ENDBRANCH   2   3
ENDBRANCH   1   2
BRANCH   1  34
ATOM     34  O   UNL A   1      35.477  35.513  33.214  1.00  0.00    -0.374 OA
BRANCH  34  35
ATOM     35  C   UNL A   1      34.446  36.431  32.861  1.00  0.00     0.202 C 
BRANCH  35  36
ATOM     36  C   UNL A   1      33.075  35.903  32.468  1.00  0.00     0.261 C 
BRANCH  36  37
ATOM     37  O   UNL A   1      33.167  34.779  31.613  1.00  0.00    -0.460 OA
BRANCH  37  38
ATOM     38  C   UNL A   1      33.544  35.092  30.353  1.00  0.00     0.338 C 
ATOM     39  O   UNL A   1      33.186  36.053  29.692  1.00  0.00    -0.246 OA
BRANCH  38  40
ATOM     40  C   UNL A   1      34.355  33.991  29.829  1.00  0.00     0.060 A 
ATOM     41  C   UNL A   1      34.611  32.966  30.739  1.00  0.00     0.016 A 
ATOM     42  C   UNL A   1      35.156  34.223  28.703  1.00  0.00     0.016 A 
ATOM     43  C   UNL A   1      35.854  32.389  30.705  1.00  0.00     0.010 A 
ATOM     44  C   UNL A   1      36.406  33.665  28.687  1.00  0.00     0.010 A 
ATOM     45  C   UNL A   1      36.770  32.845  29.750  1.00  0.00    -0.014 A 
BRANCH  45  46
ATOM     46  C   UNL A   1      38.111  32.319  29.790  1.00  0.00     0.031 A 
ATOM     47  C   UNL A   1      38.114  30.892  29.408  1.00  0.00     0.074 A 
ATOM     48  C   UNL A   1      39.185  33.095  30.030  1.00  0.00     0.049 A 
ATOM     49  N   UNL A   1      38.210  29.876  30.198  1.00  0.00    -0.248 NA
ATOM     50  C   UNL A   1      37.659  30.553  28.045  1.00  0.00     0.031 C 
ATOM     51  C   UNL A   1      39.255  34.554  30.156  1.00  0.00     0.029 A 
ATOM     52  N   UNL A   1      40.488  32.732  30.114  1.00  0.00    -0.354 N 
ATOM     53  C   UNL A   1      38.114  28.771  29.363  1.00  0.00     0.074 A 
ATOM     54  C   UNL A   1      37.488  29.237  28.156  1.00  0.00     0.031 C 
ATOM     55  C   UNL A   1      40.545  34.950  30.033  1.00  0.00     0.029 A 
ATOM     56  C   UNL A   1      41.396  33.774  29.956  1.00  0.00     0.049 A 
ATOM     57  H   UNL A   1      40.770  31.803  30.275  1.00  0.00     0.167 HD
ATOM     58  C   UNL A   1      38.899  27.679  29.570  1.00  0.00     0.031 A 
ATOM     59  C   UNL A   1      42.729  33.647  29.702  1.00  0.00     0.031 A 
ATOM     60  C   UNL A   1      39.448  27.680  30.904  1.00  0.00     0.049 A 
ATOM     61  C   UNL A   1      43.104  32.257  30.076  1.00  0.00     0.074 A 
ATOM     62  C   UNL A   1      38.912  27.691  32.177  1.00  0.00     0.029 A 
ATOM     63  N   UNL A   1      40.750  28.110  31.032  1.00  0.00    -0.354 N 
ATOM     64  N   UNL A   1      43.068  31.816  31.303  1.00  0.00    -0.248 NA
ATOM     65  C   UNL A   1      43.017  31.233  29.045  1.00  0.00     0.031 C 
ATOM     66  C   UNL A   1      39.768  28.544  32.932  1.00  0.00     0.029 A 
ATOM     67  C   UNL A   1      40.828  28.942  32.116  1.00  0.00     0.049 A 
ATOM     68  H   UNL A   1      41.498  27.860  30.443  1.00  0.00     0.167 HD
ATOM     69  C   UNL A   1      42.516  30.545  31.209  1.00  0.00     0.074 A 
ATOM     70  C   UNL A   1      42.579  30.209  29.786  1.00  0.00     0.031 C 
ATOM     71  C   UNL A   1      41.792  30.017  32.241  1.00  0.00     0.031 A 
BRANCH  58  72
ATOM     72  C   UNL A   1      39.561  26.932  28.431  1.00  0.00    -0.014 A 
ATOM     73  C   UNL A   1      39.670  25.533  28.530  1.00  0.00     0.010 A 
ATOM     74  C   UNL A   1      40.327  27.560  27.424  1.00  0.00     0.010 A 
ATOM     75  C   UNL A   1      40.576  24.818  27.736  1.00  0.00     0.020 A 
ATOM     76  C   UNL A   1      41.201  26.854  26.599  1.00  0.00     0.020 A 
ATOM     77  C   UNL A   1      41.347  25.491  26.787  1.00  0.00     0.054 A 
BRANCH  77  78
ATOM     78  S   UNL A   1      42.587  24.581  25.841  1.00  0.00     0.124 S 
ATOM     79  O   UNL A   1      41.955  23.273  25.702  1.00  0.00    -0.237 OA
ATOM     80  O   UNL A   1      42.683  25.376  24.620  1.00  0.00    -0.237 OA
ATOM     81  O   UNL A   1      43.769  24.621  26.700  1.00  0.00    -0.744 OA
ENDBRANCH  77  78
ENDBRANCH  58  72
BRANCH  59  82
ATOM     82  C   UNL A   1      43.583  34.489  28.817  1.00  0.00    -0.014 A 
ATOM     83  C   UNL A   1      43.024  35.470  27.971  1.00  0.00     0.010 A 
ATOM     84  C   UNL A   1      44.977  34.532  29.019  1.00  0.00     0.010 A 
ATOM     85  C   UNL A   1      43.820  36.485  27.402  1.00  0.00     0.020 A 
ATOM     86  C   UNL A   1      45.776  35.536  28.455  1.00  0.00     0.020 A 
ATOM     87  C   UNL A   1      45.191  36.523  27.666  1.00  0.00     0.054 A 
BRANCH  87  88
ATOM     88  S   UNL A   1      46.188  37.931  27.083  1.00  0.00     0.124 S 
ATOM     89  O   UNL A   1      46.551  37.518  25.730  1.00  0.00    -0.237 OA
ATOM     90  O   UNL A   1      45.250  39.047  27.171  1.00  0.00    -0.237 OA
ATOM     91  O   UNL A   1      47.299  37.984  28.032  1.00  0.00    -0.744 OA
ENDBRANCH  87  88
ENDBRANCH  59  82
BRANCH  71  92
ATOM     92  C   UNL A   1      41.847  30.706  33.586  1.00  0.00    -0.014 A 
ATOM     93  C   UNL A   1      40.905  31.652  34.039  1.00  0.00     0.010 A 
ATOM     94  C   UNL A   1      42.822  30.247  34.489  1.00  0.00     0.010 A 
ATOM     95  C   UNL A   1      40.960  32.141  35.356  1.00  0.00     0.020 A 
ATOM     96  C   UNL A   1      42.870  30.715  35.801  1.00  0.00     0.020 A 
ATOM     97  C   UNL A   1      41.946  31.668  36.228  1.00  0.00     0.054 A 
BRANCH  97  98
ATOM     98  S   UNL A   1      42.006  32.275  37.938  1.00  0.00     0.124 S 
ATOM     99  O   UNL A   1      42.927  31.339  38.575  1.00  0.00    -0.237 OA
ATOM    100  O   UNL A   1      42.502  33.640  37.782  1.00  0.00    -0.237 OA
ATOM    101  O   UNL A   1      40.617  32.179  38.390  1.00  0.00    -0.744 OA
ENDBRANCH  97  98
ENDBRANCH  71  92
ENDBRANCH  45  46
ENDBRANCH  38  40
ENDBRANCH  37  38
ENDBRANCH  36  37
ENDBRANCH  35  36
ENDBRANCH  34  35
ENDBRANCH   1  34
TORSDOF 22
ENDMDL
MODEL 3
REMARK VINA RESULT:     -10.4      6.958     15.071
REMARK SMILES O=C1NC(=O)/C(=C/c2ccc(OCc3cn(-c4ccc(C(=O)OCCOCCOC(=O)c5ccc(-c6c7nc(c(-c8ccc(S(=O)(=O)[O-])cc8)c8ccc([nH]8)c(-c8ccc(S(=O)(=O)[O-])cc8)c8nc(c(-c9ccc(S(=O)(=O)[O-])cc9)c9ccc6[nH]9)C=C8)C=C7)cc5)cc4)nn3)cc2)S1
REMARK SMILES IDX 25 1 24 2 23 3 21 4 22 5 20 6 17 7 18 8 93 9 19 10 92 11
REMARK SMILES IDX 16 12 14 13 15 14 95 15 94 16 13 17 12 18 11 19 8 20 9 21
REMARK SMILES IDX 97 22 10 23 96 24 7 25 1 26 2 27 3 28 98 29 4 30 6 32 5 33
REMARK SMILES IDX 26 34 27 35 28 36 29 37 30 38 31 39 32 40 33 41 91 42 34 43
REMARK SMILES IDX 90 44 35 45 36 46 37 47 84 48 38 49 89 50 83 51 85 52 39 53
REMARK SMILES IDX 88 54 82 55 81 56 40 58 70 59 51 60 69 61 52 62 55 63 68 64
REMARK SMILES IDX 86 65 53 66 54 67 67 69 87 70 56 71 41 72 42 73 50 74 43 75
REMARK SMILES IDX 49 76 44 77 45 78 46 79 47 80 48 81 71 82 72 83 80 84 73 85
REMARK SMILES IDX 79 86 74 87 75 88 76 89 77 90 78 91 57 92 58 93 66 94 59 95
REMARK SMILES IDX 65 96 60 97 61 98 62 99 63 100 64 101
REMARK H PARENT 3 31 85 57 55 68
REMARK Flexibility Score: inf
ROOT
ATOM      1  C   UNL A   1      35.704  34.278  34.338  1.00  0.00     0.202 C 
ENDROOT
BRANCH   1   2
ATOM      2  C   UNL A   1      36.430  32.933  34.326  1.00  0.00     0.261 C 
BRANCH   2   3
ATOM      3  O   UNL A   1      37.754  33.006  34.872  1.00  0.00    -0.460 OA
BRANCH   3   4
ATOM      4  C   UNL A   1      37.803  32.822  36.212  1.00  0.00     0.338 C 
ATOM      5  O   UNL A   1      37.579  31.791  36.825  1.00  0.00    -0.246 OA
BRANCH   4   6
ATOM      6  C   UNL A   1      38.339  34.025  36.873  1.00  0.00     0.060 A 
ATOM      7  C   UNL A   1      39.713  36.125  38.053  1.00  0.00     0.066 A 
ATOM      8  C   UNL A   1      39.714  35.996  36.657  1.00  0.00     0.029 A 
ATOM      9  C   UNL A   1      38.935  35.272  38.848  1.00  0.00     0.029 A 
ATOM     10  C   UNL A   1      39.056  34.923  36.073  1.00  0.00     0.018 A 
ATOM     11  C   UNL A   1      38.220  34.230  38.249  1.00  0.00     0.018 A 
BRANCH   7  12
ATOM     12  N   UNL A   1      40.609  37.049  38.635  1.00  0.00    -0.220 N 
ATOM     13  C   UNL A   1      41.564  38.467  39.989  1.00  0.00     0.120 A 
ATOM     14  C   UNL A   1      40.329  38.038  39.552  1.00  0.00     0.144 A 
ATOM     15  N   UNL A   1      42.531  37.765  39.321  1.00  0.00    -0.131 NA
ATOM     16  N   UNL A   1      41.945  36.908  38.507  1.00  0.00    -0.062 NA
BRANCH  13  17
ATOM     17  C   UNL A   1      41.940  39.405  41.088  1.00  0.00     0.289 C 
BRANCH  17  18
ATOM     18  O   UNL A   1      40.887  39.738  42.006  1.00  0.00    -0.487 OA
BRANCH  18  19
ATOM     19  C   UNL A   1      40.233  40.927  41.834  1.00  0.00     0.119 A 
ATOM     20  C   UNL A   1      39.252  43.527  41.416  1.00  0.00    -0.024 A 
ATOM     21  C   UNL A   1      40.111  42.943  40.484  1.00  0.00     0.012 A 
ATOM     22  C   UNL A   1      38.814  42.770  42.506  1.00  0.00     0.012 A 
ATOM     23  C   UNL A   1      40.602  41.649  40.698  1.00  0.00     0.047 A 
ATOM     24  C   UNL A   1      39.282  41.468  42.697  1.00  0.00     0.047 A 
BRANCH  20  25
ATOM     25  C   UNL A   1      38.794  44.909  41.250  1.00  0.00     0.029 C 
ATOM     26  O   UNL A   1      41.897  48.548  42.832  1.00  0.00    -0.261 OA
ATOM     27  C   UNL A   1      41.022  47.850  42.336  1.00  0.00     0.290 C 
ATOM     28  N   UNL A   1      39.832  48.294  41.867  1.00  0.00    -0.282 N 
ATOM     29  S   UNL A   1      41.101  46.108  42.203  1.00  0.00    -0.022 SA
ATOM     30  C   UNL A   1      38.916  47.368  41.460  1.00  0.00     0.265 C 
ATOM     31  H   UNL A   1      39.633  49.257  41.820  1.00  0.00     0.174 HD
ATOM     32  C   UNL A   1      39.496  46.004  41.577  1.00  0.00     0.083 C 
ATOM     33  O   UNL A   1      37.775  47.623  41.111  1.00  0.00    -0.268 OA
ENDBRANCH  20  25
ENDBRANCH  18  19
ENDBRANCH  17  18
ENDBRANCH  13  17
ENDBRANCH   7  12
ENDBRANCH   4   6
ENDBRANCH   3   4
ENDBRANCH   2   3
ENDBRANCH   1   2
BRANCH   1  34
ATOM     34  O   UNL A   1      35.851  35.158  33.225  1.00  0.00    -0.374 OA
BRANCH  34  35
ATOM     35  C   UNL A   1      34.853  36.131  32.929  1.00  0.00     0.202 C 
BRANCH  35  36
ATOM     36  C   UNL A   1      33.402  35.698  32.787  1.00  0.00     0.261 C 
BRANCH  36  37
ATOM     37  O   UNL A   1      33.255  34.647  31.851  1.00  0.00    -0.460 OA
BRANCH  37  38
ATOM     38  C   UNL A   1      33.586  35.002  30.588  1.00  0.00     0.338 C 
ATOM     39  O   UNL A   1      33.186  35.970  29.964  1.00  0.00    -0.246 OA
BRANCH  38  40
ATOM     40  C   UNL A   1      34.407  33.936  30.012  1.00  0.00     0.060 A 
ATOM     41  C   UNL A   1      34.663  32.864  30.867  1.00  0.00     0.016 A 
ATOM     42  C   UNL A   1      35.216  34.232  28.907  1.00  0.00     0.016 A 
ATOM     43  C   UNL A   1      35.910  32.296  30.812  1.00  0.00     0.010 A 
ATOM     44  C   UNL A   1      36.470  33.684  28.870  1.00  0.00     0.010 A 
ATOM     45  C   UNL A   1      36.830  32.809  29.890  1.00  0.00    -0.014 A 
BRANCH  45  46
ATOM     46  C   UNL A   1      38.174  32.289  29.913  1.00  0.00     0.031 A 
ATOM     47  C   UNL A   1      38.180  30.868  29.510  1.00  0.00     0.074 A 
ATOM     48  C   UNL A   1      39.246  33.066  30.157  1.00  0.00     0.049 A 
ATOM     49  N   UNL A   1      38.287  29.841  30.284  1.00  0.00    -0.248 NA
ATOM     50  C   UNL A   1      37.717  30.547  28.145  1.00  0.00     0.031 C 
ATOM     51  C   UNL A   1      39.310  34.523  30.304  1.00  0.00     0.029 A 
ATOM     52  N   UNL A   1      40.552  32.708  30.225  1.00  0.00    -0.354 N 
ATOM     53  C   UNL A   1      38.191  28.747  29.433  1.00  0.00     0.074 A 
ATOM     54  C   UNL A   1      37.553  29.229  28.238  1.00  0.00     0.031 C 
ATOM     55  C   UNL A   1      40.597  34.928  30.177  1.00  0.00     0.029 A 
ATOM     56  C   UNL A   1      41.453  33.757  30.076  1.00  0.00     0.049 A 
ATOM     57  H   UNL A   1      40.839  31.778  30.370  1.00  0.00     0.167 HD
ATOM     58  C   UNL A   1      38.982  27.656  29.618  1.00  0.00     0.031 A 
ATOM     59  C   UNL A   1      42.784  33.641  29.810  1.00  0.00     0.031 A 
ATOM     60  C   UNL A   1      39.542  27.641  30.948  1.00  0.00     0.049 A 
ATOM     61  C   UNL A   1      43.169  32.247  30.160  1.00  0.00     0.074 A 
ATOM     62  C   UNL A   1      39.015  27.629  32.225  1.00  0.00     0.029 A 
ATOM     63  N   UNL A   1      40.843  28.075  31.072  1.00  0.00    -0.354 N 
ATOM     64  N   UNL A   1      43.145  31.788  31.381  1.00  0.00    -0.248 NA
ATOM     65  C   UNL A   1      43.079  31.238  29.115  1.00  0.00     0.031 C 
ATOM     66  C   UNL A   1      39.872  28.476  32.987  1.00  0.00     0.029 A 
ATOM     67  C   UNL A   1      40.925  28.891  32.168  1.00  0.00     0.049 A 
ATOM     68  H   UNL A   1      41.587  27.837  30.474  1.00  0.00     0.167 HD
ATOM     69  C   UNL A   1      42.598  30.516  31.273  1.00  0.00     0.074 A 
ATOM     70  C   UNL A   1      42.652  30.201  29.844  1.00  0.00     0.031 C 
ATOM     71  C   UNL A   1      41.884  29.968  32.302  1.00  0.00     0.031 A 
BRANCH  58  72
ATOM     72  C   UNL A   1      39.639  26.930  28.463  1.00  0.00    -0.014 A 
ATOM     73  C   UNL A   1      39.725  25.526  28.525  1.00  0.00     0.010 A 
ATOM     74  C   UNL A   1      40.422  27.571  27.478  1.00  0.00     0.010 A 
ATOM     75  C   UNL A   1      40.624  24.819  27.717  1.00  0.00     0.020 A 
ATOM     76  C   UNL A   1      41.290  26.874  26.640  1.00  0.00     0.020 A 
ATOM     77  C   UNL A   1      41.412  25.504  26.792  1.00  0.00     0.054 A 
BRANCH  77  78
ATOM     78  S   UNL A   1      42.644  24.600  25.829  1.00  0.00     0.124 S 
ATOM     79  O   UNL A   1      43.811  24.664  26.703  1.00  0.00    -0.237 OA
ATOM     80  O   UNL A   1      42.020  23.287  25.694  1.00  0.00    -0.237 OA
ATOM     81  O   UNL A   1      42.741  25.370  24.591  1.00  0.00    -0.744 OA
ENDBRANCH  77  78
ENDBRANCH  58  72
BRANCH  59  82
ATOM     82  C   UNL A   1      43.628  34.500  28.932  1.00  0.00    -0.014 A 
ATOM     83  C   UNL A   1      43.133  35.702  28.384  1.00  0.00     0.010 A 
ATOM     84  C   UNL A   1      45.020  34.288  28.868  1.00  0.00     0.010 A 
ATOM     85  C   UNL A   1      44.003  36.675  27.850  1.00  0.00     0.020 A 
ATOM     86  C   UNL A   1      45.891  35.250  28.337  1.00  0.00     0.020 A 
ATOM     87  C   UNL A   1      45.382  36.450  27.850  1.00  0.00     0.054 A 
BRANCH  87  88
ATOM     88  S   UNL A   1      46.516  37.776  27.331  1.00  0.00     0.124 S 
ATOM     89  O   UNL A   1      46.494  38.675  28.481  1.00  0.00    -0.237 OA
ATOM     90  O   UNL A   1      47.770  37.060  27.113  1.00  0.00    -0.237 OA
ATOM     91  O   UNL A   1      45.892  38.308  26.120  1.00  0.00    -0.744 OA
ENDBRANCH  87  88
ENDBRANCH  59  82
BRANCH  71  92
ATOM     92  C   UNL A   1      41.946  30.638  33.657  1.00  0.00    -0.014 A 
ATOM     93  C   UNL A   1      40.839  31.208  34.318  1.00  0.00     0.010 A 
ATOM     94  C   UNL A   1      43.164  30.540  34.352  1.00  0.00     0.010 A 
ATOM     95  C   UNL A   1      40.962  31.689  35.633  1.00  0.00     0.020 A 
ATOM     96  C   UNL A   1      43.287  30.999  35.663  1.00  0.00     0.020 A 
ATOM     97  C   UNL A   1      42.190  31.582  36.296  1.00  0.00     0.054 A 
BRANCH  97  98
ATOM     98  S   UNL A   1      42.349  32.176  38.003  1.00  0.00     0.124 S 
ATOM     99  O   UNL A   1      43.237  31.185  38.604  1.00  0.00    -0.237 OA
ATOM    100  O   UNL A   1      42.919  33.511  37.832  1.00  0.00    -0.237 OA
ATOM    101  O   UNL A   1      40.976  32.160  38.508  1.00  0.00    -0.744 OA
ENDBRANCH  97  98
ENDBRANCH  71  92
ENDBRANCH  45  46
ENDBRANCH  38  40
ENDBRANCH  37  38
ENDBRANCH  36  37
ENDBRANCH  35  36
ENDBRANCH  34  35
ENDBRANCH   1  34
TORSDOF 22
ENDMDL
