MODEL 1
REMARK VINA RESULT:     -10.5      0.000      0.000
REMARK SMILES CS(=O)(=O)c1ccc(N2N=C(C(=O)OCCOCCOC(=O)c3ccc(-c4c5nc(c(-c6ccc(S(=O)(=O)[O-])cc6)c6ccc([nH]6)c(-c6ccc(S(=O)(=O)[O-])cc6)c6nc(c(-c7ccc(S(=O)(=O)[O-])cc7)c7ccc4[nH]7)C=C6)C=C5)cc3)C[C@H]2c2ccco2)cc1
REMARK SMILES IDX 18 1 17 2 16 3 15 4 14 5 12 6 13 7 11 8 9 9 10 10 84 11
REMARK SMILES IDX 83 12 8 13 5 14 6 15 91 16 7 17 90 18 2 19 1 20 3 21 4 22
REMARK SMILES IDX 85 23 86 24 89 25 87 26 88 27 19 28 20 29 21 30 22 31 23 32
REMARK SMILES IDX 24 33 82 34 25 35 81 36 26 37 27 38 28 39 75 40 29 41 80 42
REMARK SMILES IDX 74 43 76 44 30 45 79 46 73 47 72 48 31 50 61 51 42 52 60 53
REMARK SMILES IDX 43 54 46 55 59 56 77 57 44 58 45 59 58 61 78 62 47 63 32 64
REMARK SMILES IDX 33 65 41 66 34 67 40 68 35 69 36 70 37 71 38 72 39 73 62 74
REMARK SMILES IDX 63 75 71 76 64 77 70 78 65 79 66 80 67 81 68 82 69 83 48 84
REMARK SMILES IDX 49 85 57 86 50 87 56 88 51 89 52 90 53 91 54 92 55 93
REMARK H PARENT 76 49 46 60
REMARK Flexibility Score: inf
ROOT
ATOM      1  C   UNL A   1      42.607  22.089  26.605  1.00  0.00     0.202 C 
ENDROOT
BRANCH   1   2
ATOM      2  O   UNL A   1      42.351  20.876  25.892  1.00  0.00    -0.374 OA
BRANCH   2   3
ATOM      3  C   UNL A   1      41.001  20.397  25.939  1.00  0.00     0.202 C 
BRANCH   3   4
ATOM      4  C   UNL A   1      40.082  21.329  26.730  1.00  0.00     0.261 C 
BRANCH   4   5
ATOM      5  O   UNL A   1      39.005  21.720  25.867  1.00  0.00    -0.459 OA
BRANCH   5   6
ATOM      6  C   UNL A   1      38.459  22.921  26.132  1.00  0.00     0.354 C 
ATOM      7  O   UNL A   1      38.898  23.814  26.828  1.00  0.00    -0.245 OA
BRANCH   6   8
ATOM      8  C   UNL A   1      37.246  23.066  25.253  1.00  0.00     0.148 C 
ATOM      9  N   UNL A   1      35.539  23.906  24.326  1.00  0.00    -0.254 N 
ATOM     10  N   UNL A   1      36.487  24.119  25.285  1.00  0.00    -0.169 NA
ATOM     11  C   UNL A   1      35.487  22.493  23.909  1.00  0.00     0.180 C 
ATOM     12  C   UNL A   1      36.934  22.059  24.190  1.00  0.00     0.101 C 
BRANCH   9  13
ATOM     13  C   UNL A   1      34.435  24.747  24.303  1.00  0.00     0.060 A 
ATOM     14  C   UNL A   1      32.103  26.302  24.222  1.00  0.00     0.067 A 
ATOM     15  C   UNL A   1      32.451  25.633  25.397  1.00  0.00     0.022 A 
ATOM     16  C   UNL A   1      32.911  26.210  23.088  1.00  0.00     0.022 A 
ATOM     17  C   UNL A   1      33.617  24.862  25.433  1.00  0.00     0.029 A 
ATOM     18  C   UNL A   1      34.068  25.430  23.135  1.00  0.00     0.029 A 
BRANCH  14  19
ATOM     19  S   UNL A   1      30.610  27.262  24.187  1.00  0.00     0.175 S 
ATOM     20  C   UNL A   1      30.465  27.862  22.526  1.00  0.00     0.163 C 
ATOM     21  O   UNL A   1      30.823  28.423  25.032  1.00  0.00    -0.224 OA
ATOM     22  O   UNL A   1      29.510  26.350  24.434  1.00  0.00    -0.224 OA
ENDBRANCH  14  19
ENDBRANCH   9  13
BRANCH  11  23
ATOM     23  C   UNL A   1      34.499  21.622  24.637  1.00  0.00     0.128 A 
ATOM     24  C   UNL A   1      33.377  20.926  24.229  1.00  0.00     0.048 A 
ATOM     25  O   UNL A   1      34.678  21.449  25.981  1.00  0.00    -0.467 OA
ATOM     26  C   UNL A   1      32.855  20.293  25.384  1.00  0.00     0.042 A 
ATOM     27  C   UNL A   1      33.687  20.638  26.422  1.00  0.00     0.195 A 
ENDBRANCH  11  23
ENDBRANCH   6   8
ENDBRANCH   5   6
ENDBRANCH   4   5
ENDBRANCH   3   4
ENDBRANCH   2   3
ENDBRANCH   1   2
BRANCH   1  28
ATOM     28  C   UNL A   1      42.756  23.308  25.690  1.00  0.00     0.261 C 
BRANCH  28  29
ATOM     29  O   UNL A   1      41.725  24.273  25.969  1.00  0.00    -0.460 OA
BRANCH  29  30
ATOM     30  C   UNL A   1      42.070  25.565  25.743  1.00  0.00     0.338 C 
ATOM     31  O   UNL A   1      42.279  26.087  24.662  1.00  0.00    -0.246 OA
BRANCH  30  32
ATOM     32  C   UNL A   1      42.013  26.331  27.009  1.00  0.00     0.060 A 
ATOM     33  C   UNL A   1      41.073  25.925  27.963  1.00  0.00     0.016 A 
ATOM     34  C   UNL A   1      42.834  27.437  27.259  1.00  0.00     0.016 A 
ATOM     35  C   UNL A   1      40.922  26.643  29.148  1.00  0.00     0.010 A 
ATOM     36  C   UNL A   1      42.676  28.162  28.446  1.00  0.00     0.010 A 
ATOM     37  C   UNL A   1      41.699  27.783  29.383  1.00  0.00    -0.014 A 
BRANCH  37  38
ATOM     38  C   UNL A   1      41.389  28.646  30.546  1.00  0.00     0.031 A 
ATOM     39  C   UNL A   1      42.239  28.541  31.781  1.00  0.00     0.074 A 
ATOM     40  C   UNL A   1      40.389  29.544  30.493  1.00  0.00     0.049 A 
ATOM     41  N   UNL A   1      42.171  29.229  32.891  1.00  0.00    -0.248 NA
ATOM     42  C   UNL A   1      43.308  27.529  31.760  1.00  0.00     0.031 C 
ATOM     43  C   UNL A   1      39.507  29.765  29.346  1.00  0.00     0.029 A 
ATOM     44  N   UNL A   1      39.951  30.443  31.432  1.00  0.00    -0.354 N 
ATOM     45  C   UNL A   1      43.193  28.743  33.698  1.00  0.00     0.074 A 
ATOM     46  C   UNL A   1      43.849  27.684  32.961  1.00  0.00     0.031 C 
ATOM     47  C   UNL A   1      38.630  30.737  29.653  1.00  0.00     0.029 A 
ATOM     48  C   UNL A   1      38.880  31.197  31.018  1.00  0.00     0.049 A 
ATOM     49  H   UNL A   1      40.366  30.539  32.320  1.00  0.00     0.167 HD
ATOM     50  C   UNL A   1      43.562  29.145  34.937  1.00  0.00     0.031 A 
ATOM     51  C   UNL A   1      38.176  32.144  31.669  1.00  0.00     0.031 A 
ATOM     52  C   UNL A   1      42.904  30.180  35.686  1.00  0.00     0.049 A 
ATOM     53  C   UNL A   1      38.564  32.532  33.069  1.00  0.00     0.074 A 
ATOM     54  C   UNL A   1      43.212  30.659  36.948  1.00  0.00     0.029 A 
ATOM     55  N   UNL A   1      41.801  30.892  35.246  1.00  0.00    -0.354 N 
ATOM     56  N   UNL A   1      39.552  32.081  33.804  1.00  0.00    -0.248 NA
ATOM     57  C   UNL A   1      37.744  33.563  33.724  1.00  0.00     0.031 C 
ATOM     58  C   UNL A   1      42.270  31.639  37.285  1.00  0.00     0.029 A 
ATOM     59  C   UNL A   1      41.398  31.791  36.218  1.00  0.00     0.049 A 
ATOM     60  H   UNL A   1      41.366  30.776  34.370  1.00  0.00     0.167 HD
ATOM     61  C   UNL A   1      39.482  32.784  35.002  1.00  0.00     0.074 A 
ATOM     62  C   UNL A   1      38.361  33.695  34.891  1.00  0.00     0.031 C 
ATOM     63  C   UNL A   1      40.279  32.686  36.095  1.00  0.00     0.031 A 
BRANCH  50  64
ATOM     64  C   UNL A   1      44.724  28.432  35.566  1.00  0.00    -0.014 A 
ATOM     65  C   UNL A   1      46.036  28.908  35.394  1.00  0.00     0.010 A 
ATOM     66  C   UNL A   1      44.502  27.280  36.339  1.00  0.00     0.010 A 
ATOM     67  C   UNL A   1      47.113  28.219  35.955  1.00  0.00     0.020 A 
ATOM     68  C   UNL A   1      45.576  26.597  36.914  1.00  0.00     0.020 A 
ATOM     69  C   UNL A   1      46.878  27.060  36.702  1.00  0.00     0.054 A 
BRANCH  69  70
ATOM     70  S   UNL A   1      48.289  26.176  37.420  1.00  0.00     0.124 S 
ATOM     71  O   UNL A   1      48.578  26.985  38.602  1.00  0.00    -0.237 OA
ATOM     72  O   UNL A   1      47.741  24.849  37.686  1.00  0.00    -0.237 OA
ATOM     73  O   UNL A   1      49.300  26.228  36.366  1.00  0.00    -0.744 OA
ENDBRANCH  69  70
ENDBRANCH  50  64
BRANCH  51  74
ATOM     74  C   UNL A   1      37.016  32.786  31.001  1.00  0.00    -0.014 A 
ATOM     75  C   UNL A   1      35.727  32.686  31.552  1.00  0.00     0.010 A 
ATOM     76  C   UNL A   1      37.201  33.508  29.809  1.00  0.00     0.010 A 
ATOM     77  C   UNL A   1      34.640  33.295  30.919  1.00  0.00     0.020 A 
ATOM     78  C   UNL A   1      36.119  34.131  29.182  1.00  0.00     0.020 A 
ATOM     79  C   UNL A   1      34.843  34.013  29.737  1.00  0.00     0.054 A 
BRANCH  79  80
ATOM     80  S   UNL A   1      33.436  34.855  28.957  1.00  0.00     0.124 S 
ATOM     81  O   UNL A   1      33.040  33.896  27.932  1.00  0.00    -0.237 OA
ATOM     82  O   UNL A   1      32.503  35.017  30.070  1.00  0.00    -0.237 OA
ATOM     83  O   UNL A   1      34.023  36.100  28.464  1.00  0.00    -0.744 OA
ENDBRANCH  79  80
ENDBRANCH  51  74
BRANCH  63  84
ATOM     84  C   UNL A   1      39.977  33.594  37.253  1.00  0.00    -0.014 A 
ATOM     85  C   UNL A   1      40.535  34.883  37.324  1.00  0.00     0.010 A 
ATOM     86  C   UNL A   1      39.081  33.175  38.253  1.00  0.00     0.010 A 
ATOM     87  C   UNL A   1      40.218  35.731  38.388  1.00  0.00     0.020 A 
ATOM     88  C   UNL A   1      38.750  34.026  39.311  1.00  0.00     0.020 A 
ATOM     89  C   UNL A   1      39.330  35.296  39.378  1.00  0.00     0.054 A 
BRANCH  89  90
ATOM     90  S   UNL A   1      38.891  36.427  40.727  1.00  0.00     0.124 S 
ATOM     91  O   UNL A   1      40.179  36.629  41.384  1.00  0.00    -0.237 OA
ATOM     92  O   UNL A   1      38.356  37.588  40.020  1.00  0.00    -0.237 OA
ATOM     93  O   UNL A   1      37.908  35.671  41.500  1.00  0.00    -0.744 OA
ENDBRANCH  89  90
ENDBRANCH  63  84
ENDBRANCH  37  38
ENDBRANCH  30  32
ENDBRANCH  29  30
ENDBRANCH  28  29
ENDBRANCH   1  28
TORSDOF 20
ENDMDL
MODEL 2
REMARK VINA RESULT:     -10.4      0.787      8.002
REMARK SMILES CS(=O)(=O)c1ccc(N2N=C(C(=O)OCCOCCOC(=O)c3ccc(-c4c5nc(c(-c6ccc(S(=O)(=O)[O-])cc6)c6ccc([nH]6)c(-c6ccc(S(=O)(=O)[O-])cc6)c6nc(c(-c7ccc(S(=O)(=O)[O-])cc7)c7ccc4[nH]7)C=C6)C=C5)cc3)C[C@H]2c2ccco2)cc1
REMARK SMILES IDX 18 1 17 2 16 3 15 4 14 5 12 6 13 7 11 8 9 9 10 10 84 11
REMARK SMILES IDX 83 12 8 13 5 14 6 15 91 16 7 17 90 18 2 19 1 20 3 21 4 22
REMARK SMILES IDX 85 23 86 24 89 25 87 26 88 27 19 28 20 29 21 30 22 31 23 32
REMARK SMILES IDX 24 33 82 34 25 35 81 36 26 37 27 38 28 39 75 40 29 41 80 42
REMARK SMILES IDX 74 43 76 44 30 45 79 46 73 47 72 48 31 50 61 51 42 52 60 53
REMARK SMILES IDX 43 54 46 55 59 56 77 57 44 58 45 59 58 61 78 62 47 63 32 64
REMARK SMILES IDX 33 65 41 66 34 67 40 68 35 69 36 70 37 71 38 72 39 73 62 74
REMARK SMILES IDX 63 75 71 76 64 77 70 78 65 79 66 80 67 81 68 82 69 83 48 84
REMARK SMILES IDX 49 85 57 86 50 87 56 88 51 89 52 90 53 91 54 92 55 93
REMARK H PARENT 76 49 46 60
REMARK Flexibility Score: inf
ROOT
ATOM      1  C   UNL A   1      42.937  21.755  26.598  1.00  0.00     0.202 C 
ENDROOT
BRANCH   1   2
ATOM      2  O   UNL A   1      41.921  21.538  25.615  1.00  0.00    -0.374 OA
BRANCH   2   3
ATOM      3  C   UNL A   1      40.705  20.949  26.094  1.00  0.00     0.202 C 
BRANCH   3   4
ATOM      4  C   UNL A   1      39.835  21.954  26.852  1.00  0.00     0.261 C 
BRANCH   4   5
ATOM      5  O   UNL A   1      38.623  22.136  26.105  1.00  0.00    -0.459 OA
BRANCH   5   6
ATOM      6  C   UNL A   1      38.062  23.355  26.203  1.00  0.00     0.354 C 
ATOM      7  O   UNL A   1      38.428  24.304  26.867  1.00  0.00    -0.245 OA
BRANCH   6   8
ATOM      8  C   UNL A   1      36.960  23.426  25.182  1.00  0.00     0.148 C 
ATOM      9  N   UNL A   1      35.305  24.141  24.073  1.00  0.00    -0.254 N 
ATOM     10  N   UNL A   1      36.100  24.398  25.153  1.00  0.00    -0.169 NA
ATOM     11  C   UNL A   1      35.449  22.751  23.603  1.00  0.00     0.180 C 
ATOM     12  C   UNL A   1      36.887  22.446  24.052  1.00  0.00     0.101 C 
BRANCH   9  13
ATOM     13  C   UNL A   1      34.134  24.873  23.938  1.00  0.00     0.060 A 
ATOM     14  C   UNL A   1      31.868  26.492  23.606  1.00  0.00     0.067 A 
ATOM     15  C   UNL A   1      32.393  25.798  22.513  1.00  0.00     0.022 A 
ATOM     16  C   UNL A   1      32.457  26.380  24.866  1.00  0.00     0.022 A 
ATOM     17  C   UNL A   1      33.520  24.990  22.686  1.00  0.00     0.029 A 
ATOM     18  C   UNL A   1      33.589  25.576  25.022  1.00  0.00     0.029 A 
BRANCH  14  19
ATOM     19  S   UNL A   1      30.446  27.528  23.367  1.00  0.00     0.175 S 
ATOM     20  C   UNL A   1      30.798  29.031  24.238  1.00  0.00     0.163 C 
ATOM     21  O   UNL A   1      29.333  26.900  24.055  1.00  0.00    -0.224 OA
ATOM     22  O   UNL A   1      30.375  27.834  21.952  1.00  0.00    -0.224 OA
ENDBRANCH  14  19
ENDBRANCH   9  13
BRANCH  11  23
ATOM     23  C   UNL A   1      34.472  21.756  24.165  1.00  0.00     0.128 A 
ATOM     24  C   UNL A   1      33.091  21.724  24.231  1.00  0.00     0.048 A 
ATOM     25  O   UNL A   1      34.981  20.635  24.759  1.00  0.00    -0.467 OA
ATOM     26  C   UNL A   1      32.748  20.518  24.891  1.00  0.00     0.042 A 
ATOM     27  C   UNL A   1      33.934  19.889  25.185  1.00  0.00     0.195 A 
ENDBRANCH  11  23
ENDBRANCH   6   8
ENDBRANCH   5   6
ENDBRANCH   4   5
ENDBRANCH   3   4
ENDBRANCH   2   3
ENDBRANCH   1   2
BRANCH   1  28
ATOM     28  C   UNL A   1      43.628  23.115  26.462  1.00  0.00     0.261 C 
BRANCH  28  29
ATOM     29  O   UNL A   1      42.656  24.150  26.227  1.00  0.00    -0.460 OA
BRANCH  29  30
ATOM     30  C   UNL A   1      43.165  25.400  26.099  1.00  0.00     0.338 C 
ATOM     31  O   UNL A   1      43.827  25.828  25.170  1.00  0.00    -0.246 OA
BRANCH  30  32
ATOM     32  C   UNL A   1      42.673  26.261  27.199  1.00  0.00     0.060 A 
ATOM     33  C   UNL A   1      43.261  27.523  27.339  1.00  0.00     0.016 A 
ATOM     34  C   UNL A   1      41.680  25.845  28.094  1.00  0.00     0.016 A 
ATOM     35  C   UNL A   1      42.891  28.356  28.393  1.00  0.00     0.010 A 
ATOM     36  C   UNL A   1      41.315  26.680  29.157  1.00  0.00     0.010 A 
ATOM     37  C   UNL A   1      41.939  27.927  29.326  1.00  0.00    -0.014 A 
BRANCH  37  38
ATOM     38  C   UNL A   1      41.705  28.734  30.547  1.00  0.00     0.031 A 
ATOM     39  C   UNL A   1      40.547  29.692  30.578  1.00  0.00     0.074 A 
ATOM     40  C   UNL A   1      42.487  28.588  31.631  1.00  0.00     0.049 A 
ATOM     41  N   UNL A   1      40.136  30.458  31.555  1.00  0.00    -0.248 NA
ATOM     42  C   UNL A   1      39.745  29.796  29.348  1.00  0.00     0.031 C 
ATOM     43  C   UNL A   1      43.625  27.675  31.741  1.00  0.00     0.029 A 
ATOM     44  N   UNL A   1      42.435  29.209  32.854  1.00  0.00    -0.354 N 
ATOM     45  C   UNL A   1      39.022  31.128  31.064  1.00  0.00     0.074 A 
ATOM     46  C   UNL A   1      38.838  30.699  29.694  1.00  0.00     0.031 C 
ATOM     47  C   UNL A   1      44.166  27.799  32.965  1.00  0.00     0.029 A 
ATOM     48  C   UNL A   1      43.422  28.806  33.720  1.00  0.00     0.049 A 
ATOM     49  H   UNL A   1      41.753  29.880  33.089  1.00  0.00     0.167 HD
ATOM     50  C   UNL A   1      38.218  32.016  31.695  1.00  0.00     0.031 A 
ATOM     51  C   UNL A   1      43.699  29.210  34.975  1.00  0.00     0.031 A 
ATOM     52  C   UNL A   1      38.404  32.465  33.047  1.00  0.00     0.049 A 
ATOM     53  C   UNL A   1      42.828  30.243  35.637  1.00  0.00     0.074 A 
ATOM     54  C   UNL A   1      37.635  33.359  33.772  1.00  0.00     0.029 A 
ATOM     55  N   UNL A   1      39.438  32.062  33.876  1.00  0.00    -0.354 N 
ATOM     56  N   UNL A   1      41.762  30.844  35.165  1.00  0.00    -0.248 NA
ATOM     57  C   UNL A   1      43.197  30.646  37.002  1.00  0.00     0.031 C 
ATOM     58  C   UNL A   1      38.226  33.522  35.031  1.00  0.00     0.029 A 
ATOM     59  C   UNL A   1      39.343  32.703  35.098  1.00  0.00     0.049 A 
ATOM     60  H   UNL A   1      40.138  31.414  33.632  1.00  0.00     0.167 HD
ATOM     61  C   UNL A   1      41.324  31.685  36.183  1.00  0.00     0.074 A 
ATOM     62  C   UNL A   1      42.233  31.510  37.296  1.00  0.00     0.031 C 
ATOM     63  C   UNL A   1      40.258  32.524  36.193  1.00  0.00     0.031 A 
BRANCH  50  64
ATOM     64  C   UNL A   1      37.071  32.576  30.905  1.00  0.00    -0.014 A 
ATOM     65  C   UNL A   1      35.811  31.952  30.926  1.00  0.00     0.010 A 
ATOM     66  C   UNL A   1      37.253  33.739  30.138  1.00  0.00     0.010 A 
ATOM     67  C   UNL A   1      34.760  32.461  30.161  1.00  0.00     0.020 A 
ATOM     68  C   UNL A   1      36.199  34.261  29.383  1.00  0.00     0.020 A 
ATOM     69  C   UNL A   1      34.964  33.606  29.384  1.00  0.00     0.054 A 
BRANCH  69  70
ATOM     70  S   UNL A   1      33.588  34.253  28.394  1.00  0.00     0.124 S 
ATOM     71  O   UNL A   1      34.258  35.259  27.574  1.00  0.00    -0.237 OA
ATOM     72  O   UNL A   1      33.119  33.070  27.677  1.00  0.00    -0.237 OA
ATOM     73  O   UNL A   1      32.663  34.778  29.394  1.00  0.00    -0.744 OA
ENDBRANCH  69  70
ENDBRANCH  50  64
BRANCH  51  74
ATOM     74  C   UNL A   1      44.870  28.640  35.689  1.00  0.00    -0.014 A 
ATOM     75  C   UNL A   1      44.733  27.489  36.484  1.00  0.00     0.010 A 
ATOM     76  C   UNL A   1      46.132  29.248  35.568  1.00  0.00     0.010 A 
ATOM     77  C   UNL A   1      45.841  26.957  37.151  1.00  0.00     0.020 A 
ATOM     78  C   UNL A   1      47.244  28.710  36.221  1.00  0.00     0.020 A 
ATOM     79  C   UNL A   1      47.089  27.572  37.015  1.00  0.00     0.054 A 
BRANCH  79  80
ATOM     80  S   UNL A   1      48.534  26.836  37.832  1.00  0.00     0.124 S 
ATOM     81  O   UNL A   1      48.282  27.152  39.234  1.00  0.00    -0.237 OA
ATOM     82  O   UNL A   1      48.424  25.425  37.469  1.00  0.00    -0.237 OA
ATOM     83  O   UNL A   1      49.659  27.540  37.219  1.00  0.00    -0.744 OA
ENDBRANCH  79  80
ENDBRANCH  51  74
BRANCH  63  84
ATOM     84  C   UNL A   1      40.010  33.307  37.451  1.00  0.00    -0.014 A 
ATOM     85  C   UNL A   1      39.119  32.835  38.431  1.00  0.00     0.010 A 
ATOM     86  C   UNL A   1      40.717  34.501  37.681  1.00  0.00     0.010 A 
ATOM     87  C   UNL A   1      38.923  33.555  39.612  1.00  0.00     0.020 A 
ATOM     88  C   UNL A   1      40.535  35.216  38.867  1.00  0.00     0.020 A 
ATOM     89  C   UNL A   1      39.630  34.744  39.822  1.00  0.00     0.054 A 
BRANCH  89  90
ATOM     90  S   UNL A   1      39.401  35.642  41.381  1.00  0.00     0.124 S 
ATOM     91  O   UNL A   1      40.780  35.883  41.797  1.00  0.00    -0.237 OA
ATOM     92  O   UNL A   1      38.653  36.828  40.970  1.00  0.00    -0.237 OA
ATOM     93  O   UNL A   1      38.653  34.700  42.211  1.00  0.00    -0.744 OA
ENDBRANCH  89  90
ENDBRANCH  63  84
ENDBRANCH  37  38
ENDBRANCH  30  32
ENDBRANCH  29  30
ENDBRANCH  28  29
ENDBRANCH   1  28
TORSDOF 20
ENDMDL
MODEL 3
REMARK VINA RESULT:     -10.3      2.143      3.245
REMARK SMILES CS(=O)(=O)c1ccc(N2N=C(C(=O)OCCOCCOC(=O)c3ccc(-c4c5nc(c(-c6ccc(S(=O)(=O)[O-])cc6)c6ccc([nH]6)c(-c6ccc(S(=O)(=O)[O-])cc6)c6nc(c(-c7ccc(S(=O)(=O)[O-])cc7)c7ccc4[nH]7)C=C6)C=C5)cc3)C[C@H]2c2ccco2)cc1
REMARK SMILES IDX 18 1 17 2 16 3 15 4 14 5 12 6 13 7 11 8 9 9 10 10 84 11
REMARK SMILES IDX 83 12 8 13 5 14 6 15 91 16 7 17 90 18 2 19 1 20 3 21 4 22
REMARK SMILES IDX 85 23 86 24 89 25 87 26 88 27 19 28 20 29 21 30 22 31 23 32
REMARK SMILES IDX 24 33 82 34 25 35 81 36 26 37 27 38 28 39 75 40 29 41 80 42
REMARK SMILES IDX 74 43 76 44 30 45 79 46 73 47 72 48 31 50 61 51 42 52 60 53
REMARK SMILES IDX 43 54 46 55 59 56 77 57 44 58 45 59 58 61 78 62 47 63 32 64
REMARK SMILES IDX 33 65 41 66 34 67 40 68 35 69 36 70 37 71 38 72 39 73 62 74
REMARK SMILES IDX 63 75 71 76 64 77 70 78 65 79 66 80 67 81 68 82 69 83 48 84
REMARK SMILES IDX 49 85 57 86 50 87 56 88 51 89 52 90 53 91 54 92 55 93
REMARK H PARENT 76 49 46 60
REMARK Flexibility Score: inf
ROOT
ATOM      1  C   UNL A   1      43.543  18.916  25.811  1.00  0.00     0.202 C 
ENDROOT
BRANCH   1   2
ATOM      2  O   UNL A   1      42.492  19.408  26.648  1.00  0.00    -0.374 OA
BRANCH   2   3
ATOM      3  C   UNL A   1      41.261  19.724  25.984  1.00  0.00     0.202 C 
BRANCH   3   4
ATOM      4  C   UNL A   1      40.413  20.718  26.779  1.00  0.00     0.261 C 
BRANCH   4   5
ATOM      5  O   UNL A   1      39.340  21.156  25.932  1.00  0.00    -0.459 OA
BRANCH   5   6
ATOM      6  C   UNL A   1      38.812  22.353  26.241  1.00  0.00     0.354 C 
ATOM      7  O   UNL A   1      39.275  23.223  26.951  1.00  0.00    -0.245 OA
BRANCH   6   8
ATOM      8  C   UNL A   1      37.581  22.533  25.394  1.00  0.00     0.148 C 
ATOM      9  N   UNL A   1      35.917  23.443  24.454  1.00  0.00    -0.254 N 
ATOM     10  N   UNL A   1      36.920  23.649  25.358  1.00  0.00    -0.169 NA
ATOM     11  C   UNL A   1      35.725  22.010  24.166  1.00  0.00     0.180 C 
ATOM     12  C   UNL A   1      37.138  21.472  24.436  1.00  0.00     0.101 C 
BRANCH   9  13
ATOM     13  C   UNL A   1      34.893  24.376  24.393  1.00  0.00     0.060 A 
ATOM     14  C   UNL A   1      32.939  26.378  24.193  1.00  0.00     0.067 A 
ATOM     15  C   UNL A   1      33.206  25.556  23.096  1.00  0.00     0.022 A 
ATOM     16  C   UNL A   1      33.631  26.207  25.392  1.00  0.00     0.022 A 
ATOM     17  C   UNL A   1      34.179  24.557  23.203  1.00  0.00     0.029 A 
ATOM     18  C   UNL A   1      34.606  25.212  25.482  1.00  0.00     0.029 A 
BRANCH  14  19
ATOM     19  S   UNL A   1      31.714  27.654  24.035  1.00  0.00     0.175 S 
ATOM     20  C   UNL A   1      32.571  29.063  23.386  1.00  0.00     0.163 C 
ATOM     21  O   UNL A   1      31.286  28.010  25.376  1.00  0.00    -0.224 OA
ATOM     22  O   UNL A   1      30.760  27.209  23.039  1.00  0.00    -0.224 OA
ENDBRANCH  14  19
ENDBRANCH   9  13
BRANCH  11  23
ATOM     23  C   UNL A   1      34.695  21.299  25.001  1.00  0.00     0.128 A 
ATOM     24  C   UNL A   1      34.297  21.426  26.318  1.00  0.00     0.048 A 
ATOM     25  O   UNL A   1      33.974  20.302  24.403  1.00  0.00    -0.467 OA
ATOM     26  C   UNL A   1      33.278  20.463  26.527  1.00  0.00     0.042 A 
ATOM     27  C   UNL A   1      33.115  19.811  25.328  1.00  0.00     0.195 A 
ENDBRANCH  11  23
ENDBRANCH   6   8
ENDBRANCH   5   6
ENDBRANCH   4   5
ENDBRANCH   3   4
ENDBRANCH   2   3
ENDBRANCH   1   2
BRANCH   1  28
ATOM     28  C   UNL A   1      44.210  20.010  24.974  1.00  0.00     0.261 C 
BRANCH  28  29
ATOM     29  O   UNL A   1      44.369  21.210  25.753  1.00  0.00    -0.460 OA
BRANCH  29  30
ATOM     30  C   UNL A   1      43.891  22.339  25.174  1.00  0.00     0.338 C 
ATOM     31  O   UNL A   1      43.678  22.519  23.988  1.00  0.00    -0.246 OA
BRANCH  30  32
ATOM     32  C   UNL A   1      43.503  23.315  26.218  1.00  0.00     0.060 A 
ATOM     33  C   UNL A   1      43.926  24.639  26.049  1.00  0.00     0.016 A 
ATOM     34  C   UNL A   1      42.765  22.953  27.352  1.00  0.00     0.016 A 
ATOM     35  C   UNL A   1      43.651  25.593  27.027  1.00  0.00     0.010 A 
ATOM     36  C   UNL A   1      42.497  23.911  28.337  1.00  0.00     0.010 A 
ATOM     37  C   UNL A   1      42.963  25.228  28.191  1.00  0.00    -0.014 A 
BRANCH  37  38
ATOM     38  C   UNL A   1      42.856  26.199  29.304  1.00  0.00     0.031 A 
ATOM     39  C   UNL A   1      43.908  26.198  30.379  1.00  0.00     0.074 A 
ATOM     40  C   UNL A   1      41.860  27.102  29.341  1.00  0.00     0.049 A 
ATOM     41  N   UNL A   1      44.032  26.987  31.414  1.00  0.00    -0.248 NA
ATOM     42  C   UNL A   1      44.960  25.173  30.268  1.00  0.00     0.031 C 
ATOM     43  C   UNL A   1      40.793  27.228  28.347  1.00  0.00     0.029 A 
ATOM     44  N   UNL A   1      41.589  28.091  30.253  1.00  0.00    -0.354 N 
ATOM     45  C   UNL A   1      45.179  26.564  32.074  1.00  0.00     0.074 A 
ATOM     46  C   UNL A   1      45.700  25.431  31.337  1.00  0.00     0.031 C 
ATOM     47  C   UNL A   1      39.980  28.236  28.709  1.00  0.00     0.029 A 
ATOM     48  C   UNL A   1      40.461  28.817  29.961  1.00  0.00     0.049 A 
ATOM     49  H   UNL A   1      42.152  28.263  31.043  1.00  0.00     0.167 HD
ATOM     50  C   UNL A   1      45.756  27.074  33.187  1.00  0.00     0.031 A 
ATOM     51  C   UNL A   1      39.878  29.830  30.632  1.00  0.00     0.031 A 
ATOM     52  C   UNL A   1      45.236  28.183  33.938  1.00  0.00     0.049 A 
ATOM     53  C   UNL A   1      40.502  30.341  31.902  1.00  0.00     0.074 A 
ATOM     54  C   UNL A   1      45.756  28.773  35.077  1.00  0.00     0.029 A 
ATOM     55  N   UNL A   1      44.071  28.866  33.630  1.00  0.00    -0.354 N 
ATOM     56  N   UNL A   1      41.603  29.947  32.494  1.00  0.00    -0.248 NA
ATOM     57  C   UNL A   1      39.805  31.439  32.588  1.00  0.00     0.031 C 
ATOM     58  C   UNL A   1      44.884  29.792  35.479  1.00  0.00     0.029 A 
ATOM     59  C   UNL A   1      43.841  29.857  34.568  1.00  0.00     0.049 A 
ATOM     60  H   UNL A   1      43.491  28.675  32.858  1.00  0.00     0.167 HD
ATOM     61  C   UNL A   1      41.740  30.759  33.615  1.00  0.00     0.074 A 
ATOM     62  C   UNL A   1      40.615  31.671  33.614  1.00  0.00     0.031 C 
ATOM     63  C   UNL A   1      42.714  30.752  34.558  1.00  0.00     0.031 A 
BRANCH  50  64
ATOM     64  C   UNL A   1      47.012  26.407  33.670  1.00  0.00    -0.014 A 
ATOM     65  C   UNL A   1      46.951  25.334  34.576  1.00  0.00     0.010 A 
ATOM     66  C   UNL A   1      48.262  26.854  33.210  1.00  0.00     0.010 A 
ATOM     67  C   UNL A   1      48.126  24.742  35.046  1.00  0.00     0.020 A 
ATOM     68  C   UNL A   1      49.438  26.254  33.665  1.00  0.00     0.020 A 
ATOM     69  C   UNL A   1      49.363  25.214  34.596  1.00  0.00     0.054 A 
BRANCH  69  70
ATOM     70  S   UNL A   1      50.879  24.436  35.218  1.00  0.00     0.124 S 
ATOM     71  O   UNL A   1      50.504  24.106  36.591  1.00  0.00    -0.237 OA
ATOM     72  O   UNL A   1      51.051  23.295  34.322  1.00  0.00    -0.237 OA
ATOM     73  O   UNL A   1      51.885  25.487  35.082  1.00  0.00    -0.744 OA
ENDBRANCH  69  70
ENDBRANCH  50  64
BRANCH  51  74
ATOM     74  C   UNL A   1      38.618  30.423  30.118  1.00  0.00    -0.014 A 
ATOM     75  C   UNL A   1      37.398  29.737  30.249  1.00  0.00     0.010 A 
ATOM     76  C   UNL A   1      38.635  31.685  29.498  1.00  0.00     0.010 A 
ATOM     77  C   UNL A   1      36.215  30.303  29.764  1.00  0.00     0.020 A 
ATOM     78  C   UNL A   1      37.453  32.260  29.027  1.00  0.00     0.020 A 
ATOM     79  C   UNL A   1      36.251  31.562  29.156  1.00  0.00     0.054 A 
BRANCH  79  80
ATOM     80  S   UNL A   1      34.700  32.317  28.588  1.00  0.00     0.124 S 
ATOM     81  O   UNL A   1      34.156  32.859  29.829  1.00  0.00    -0.237 OA
ATOM     82  O   UNL A   1      35.161  33.303  27.613  1.00  0.00    -0.237 OA
ATOM     83  O   UNL A   1      33.967  31.188  28.018  1.00  0.00    -0.744 OA
ENDBRANCH  79  80
ENDBRANCH  51  74
BRANCH  63  84
ATOM     84  C   UNL A   1      42.615  31.768  35.661  1.00  0.00    -0.014 A 
ATOM     85  C   UNL A   1      42.022  31.440  36.892  1.00  0.00     0.010 A 
ATOM     86  C   UNL A   1      43.171  33.047  35.482  1.00  0.00     0.010 A 
ATOM     87  C   UNL A   1      41.968  32.382  37.922  1.00  0.00     0.020 A 
ATOM     88  C   UNL A   1      43.133  33.987  36.515  1.00  0.00     0.020 A 
ATOM     89  C   UNL A   1      42.520  33.652  37.726  1.00  0.00     0.054 A 
BRANCH  89  90
ATOM     90  S   UNL A   1      42.486  34.848  39.090  1.00  0.00     0.124 S 
ATOM     91  O   UNL A   1      41.054  34.977  39.344  1.00  0.00    -0.237 OA
ATOM     92  O   UNL A   1      43.252  34.174  40.136  1.00  0.00    -0.237 OA
ATOM     93  O   UNL A   1      43.128  36.032  38.522  1.00  0.00    -0.744 OA
ENDBRANCH  89  90
ENDBRANCH  63  84
ENDBRANCH  37  38
ENDBRANCH  30  32
ENDBRANCH  29  30
ENDBRANCH  28  29
ENDBRANCH   1  28
TORSDOF 20
ENDMDL
