MODEL 1
REMARK VINA RESULT:     -11.5      0.000      0.000
REMARK SMILES Cc1ccc(Nc2c(Cl)cc(Cl)cc2Cl)c(CC(=O)OCCOCCOC(=O)c2ccc(-c3c4nc(c(-c5ccc(S(=O)(=O)[O-])cc5)c5ccc([nH]5)c(-c5ccc(S(=O)(=O)[O-])cc5)c5nc(c(-c6ccc(S(=O)(=O)[O-])cc6)c6ccc3[nH]6)C=C5)C=C4)cc2)c1
REMARK SMILES IDX 23 1 22 2 21 3 20 4 18 5 19 6 17 7 16 8 1 9 2 10 3 11 89 12
REMARK SMILES IDX 4 13 5 14 6 15 7 17 8 18 14 19 9 20 10 21 13 22 15 23 11 24
REMARK SMILES IDX 12 25 24 26 25 27 26 28 27 29 28 30 29 31 30 32 88 33 31 34
REMARK SMILES IDX 87 35 32 36 33 37 34 38 81 39 35 40 86 41 80 42 82 43 36 44
REMARK SMILES IDX 85 45 79 46 78 47 37 49 67 50 48 51 66 52 49 53 52 54 65 55
REMARK SMILES IDX 83 56 50 57 51 58 64 60 84 61 53 62 38 63 39 64 47 65 40 66
REMARK SMILES IDX 46 67 41 68 42 69 43 70 44 71 45 72 68 73 69 74 77 75 70 76
REMARK SMILES IDX 76 77 71 78 72 79 73 80 74 81 75 82 54 83 55 84 63 85 56 86
REMARK SMILES IDX 62 87 57 88 58 89 59 90 60 91 61 92
REMARK H PARENT 6 16 82 48 52 59
REMARK Flexibility Score: inf
ROOT
ATOM      1  O   UNL A   1      35.937  20.955  25.255  1.00  0.00    -0.374 OA
ENDROOT
BRANCH   1   2
ATOM      2  C   UNL A   1      34.928  21.551  24.469  1.00  0.00     0.202 C 
BRANCH   2   3
ATOM      3  C   UNL A   1      35.509  22.844  23.942  1.00  0.00     0.261 C 
BRANCH   3   4
ATOM      4  O   UNL A   1      34.943  23.252  22.708  1.00  0.00    -0.463 OA
BRANCH   4   5
ATOM      5  C   UNL A   1      33.609  23.572  22.682  1.00  0.00     0.310 C 
ATOM      6  O   UNL A   1      32.681  22.845  22.394  1.00  0.00    -0.252 OA
BRANCH   5   7
ATOM      7  C   UNL A   1      33.420  25.038  23.049  1.00  0.00     0.160 C 
BRANCH   7   8
ATOM      8  C   UNL A   1      32.540  25.149  24.282  1.00  0.00    -0.013 A 
ATOM      9  C   UNL A   1      32.621  23.065  27.489  1.00  0.00     0.044 C 
ATOM     10  C   UNL A   1      32.152  24.003  26.417  1.00  0.00    -0.051 A 
ATOM     11  C   UNL A   1      30.817  24.384  26.340  1.00  0.00     0.005 A 
ATOM     12  C   UNL A   1      33.019  24.443  25.421  1.00  0.00     0.009 A 
ATOM     13  C   UNL A   1      30.355  25.147  25.259  1.00  0.00     0.026 A 
ATOM     14  C   UNL A   1      31.186  25.537  24.192  1.00  0.00     0.042 A 
BRANCH  14  15
ATOM     15  N   UNL A   1      30.675  26.247  23.067  1.00  0.00    -0.353 N 
ATOM     16  H   UNL A   1      30.730  25.773  22.206  1.00  0.00     0.167 HD
BRANCH  15  17
ATOM     17  C   UNL A   1      30.095  27.547  23.016  1.00  0.00     0.076 A 
ATOM     18  C   UNL A   1      28.715  27.772  23.169  1.00  0.00     0.067 A 
ATOM     19  C   UNL A   1      30.868  28.660  22.617  1.00  0.00     0.067 A 
ATOM     20  Cl  UNL A   1      27.703  26.663  24.041  1.00  0.00    -0.082 Cl
ATOM     21  C   UNL A   1      28.114  28.944  22.706  1.00  0.00     0.043 A 
ATOM     22  C   UNL A   1      30.273  29.817  22.102  1.00  0.00     0.043 A 
ATOM     23  Cl  UNL A   1      32.581  28.690  22.857  1.00  0.00    -0.082 Cl
ATOM     24  C   UNL A   1      28.890  29.931  22.112  1.00  0.00     0.044 A 
ATOM     25  Cl  UNL A   1      28.132  31.327  21.454  1.00  0.00    -0.084 Cl
ENDBRANCH  15  17
ENDBRANCH  14  15
ENDBRANCH   7   8
ENDBRANCH   5   7
ENDBRANCH   4   5
ENDBRANCH   3   4
ENDBRANCH   2   3
ENDBRANCH   1   2
BRANCH   1  26
ATOM     26  C   UNL A   1      37.119  20.632  24.570  1.00  0.00     0.202 C 
BRANCH  26  27
ATOM     27  C   UNL A   1      38.293  20.846  25.513  1.00  0.00     0.261 C 
BRANCH  27  28
ATOM     28  O   UNL A   1      38.528  22.248  25.805  1.00  0.00    -0.460 OA
BRANCH  28  29
ATOM     29  C   UNL A   1      39.417  22.533  26.806  1.00  0.00     0.338 C 
ATOM     30  O   UNL A   1      40.119  21.688  27.340  1.00  0.00    -0.246 OA
BRANCH  29  31
ATOM     31  C   UNL A   1      39.604  23.994  26.998  1.00  0.00     0.060 A 
ATOM     32  C   UNL A   1      40.230  24.781  26.018  1.00  0.00     0.016 A 
ATOM     33  C   UNL A   1      39.305  24.534  28.247  1.00  0.00     0.016 A 
ATOM     34  C   UNL A   1      40.710  26.057  26.346  1.00  0.00     0.010 A 
ATOM     35  C   UNL A   1      39.876  25.740  28.595  1.00  0.00     0.010 A 
ATOM     36  C   UNL A   1      40.596  26.504  27.658  1.00  0.00    -0.014 A 
BRANCH  36  37
ATOM     37  C   UNL A   1      41.158  27.733  28.217  1.00  0.00     0.031 A 
ATOM     38  C   UNL A   1      40.220  28.848  28.486  1.00  0.00     0.074 A 
ATOM     39  C   UNL A   1      42.410  27.772  28.732  1.00  0.00     0.049 A 
ATOM     40  N   UNL A   1      40.583  29.980  28.968  1.00  0.00    -0.248 NA
ATOM     41  C   UNL A   1      38.782  28.806  28.204  1.00  0.00     0.031 C 
ATOM     42  C   UNL A   1      42.923  28.617  29.816  1.00  0.00     0.029 A 
ATOM     43  N   UNL A   1      43.528  27.041  28.397  1.00  0.00    -0.354 N 
ATOM     44  C   UNL A   1      39.459  30.619  29.419  1.00  0.00     0.074 A 
ATOM     45  C   UNL A   1      38.357  29.920  28.810  1.00  0.00     0.031 C 
ATOM     46  C   UNL A   1      44.266  28.533  29.858  1.00  0.00     0.029 A 
ATOM     47  C   UNL A   1      44.684  27.742  28.712  1.00  0.00     0.049 A 
ATOM     48  H   UNL A   1      43.511  26.144  27.991  1.00  0.00     0.167 HD
ATOM     49  C   UNL A   1      39.620  31.580  30.367  1.00  0.00     0.031 A 
ATOM     50  C   UNL A   1      45.540  28.120  27.716  1.00  0.00     0.031 A 
ATOM     51  C   UNL A   1      41.044  31.916  30.536  1.00  0.00     0.049 A 
ATOM     52  C   UNL A   1      45.466  29.630  27.535  1.00  0.00     0.074 A 
ATOM     53  C   UNL A   1      41.980  31.734  31.538  1.00  0.00     0.029 A 
ATOM     54  N   UNL A   1      41.772  32.254  29.398  1.00  0.00    -0.354 N 
ATOM     55  N   UNL A   1      44.586  30.365  28.162  1.00  0.00    -0.248 NA
ATOM     56  C   UNL A   1      46.328  30.443  26.685  1.00  0.00     0.031 C 
ATOM     57  C   UNL A   1      43.281  31.925  30.963  1.00  0.00     0.029 A 
ATOM     58  C   UNL A   1      43.133  32.265  29.628  1.00  0.00     0.049 A 
ATOM     59  H   UNL A   1      41.363  32.461  28.527  1.00  0.00     0.167 HD
ATOM     60  C   UNL A   1      44.765  31.682  27.898  1.00  0.00     0.074 A 
ATOM     61  C   UNL A   1      45.824  31.678  26.896  1.00  0.00     0.031 C 
ATOM     62  C   UNL A   1      44.038  32.649  28.540  1.00  0.00     0.031 A 
BRANCH  49  63
ATOM     63  C   UNL A   1      38.514  32.110  31.251  1.00  0.00    -0.014 A 
ATOM     64  C   UNL A   1      38.273  33.497  31.283  1.00  0.00     0.010 A 
ATOM     65  C   UNL A   1      37.739  31.326  32.134  1.00  0.00     0.010 A 
ATOM     66  C   UNL A   1      37.322  34.069  32.144  1.00  0.00     0.020 A 
ATOM     67  C   UNL A   1      36.765  31.881  32.981  1.00  0.00     0.020 A 
ATOM     68  C   UNL A   1      36.570  33.256  32.988  1.00  0.00     0.054 A 
BRANCH  68  69
ATOM     69  S   UNL A   1      35.357  34.016  34.099  1.00  0.00     0.124 S 
ATOM     70  O   UNL A   1      34.106  33.397  33.666  1.00  0.00    -0.237 OA
ATOM     71  O   UNL A   1      35.838  33.612  35.417  1.00  0.00    -0.237 OA
ATOM     72  O   UNL A   1      35.470  35.445  33.812  1.00  0.00    -0.744 OA
ENDBRANCH  68  69
ENDBRANCH  49  63
BRANCH  50  73
ATOM     73  C   UNL A   1      45.668  27.028  26.684  1.00  0.00    -0.014 A 
ATOM     74  C   UNL A   1      46.367  25.863  27.101  1.00  0.00     0.010 A 
ATOM     75  C   UNL A   1      44.711  26.881  25.660  1.00  0.00     0.010 A 
ATOM     76  C   UNL A   1      46.008  24.586  26.637  1.00  0.00     0.020 A 
ATOM     77  C   UNL A   1      44.357  25.597  25.188  1.00  0.00     0.020 A 
ATOM     78  C   UNL A   1      44.979  24.455  25.707  1.00  0.00     0.054 A 
BRANCH  78  79
ATOM     79  S   UNL A   1      44.332  22.781  25.345  1.00  0.00     0.124 S 
ATOM     80  O   UNL A   1      43.248  22.654  26.311  1.00  0.00    -0.237 OA
ATOM     81  O   UNL A   1      43.911  22.889  23.948  1.00  0.00    -0.237 OA
ATOM     82  O   UNL A   1      45.488  21.920  25.572  1.00  0.00    -0.744 OA
ENDBRANCH  78  79
ENDBRANCH  50  73
BRANCH  62  83
ATOM     83  C   UNL A   1      44.093  34.094  28.146  1.00  0.00    -0.014 A 
ATOM     84  C   UNL A   1      43.401  34.611  27.046  1.00  0.00     0.010 A 
ATOM     85  C   UNL A   1      44.888  34.988  28.897  1.00  0.00     0.010 A 
ATOM     86  C   UNL A   1      43.369  35.987  26.810  1.00  0.00     0.020 A 
ATOM     87  C   UNL A   1      44.901  36.356  28.646  1.00  0.00     0.020 A 
ATOM     88  C   UNL A   1      44.100  36.851  27.629  1.00  0.00     0.054 A 
BRANCH  88  89
ATOM     89  S   UNL A   1      44.013  38.625  27.327  1.00  0.00     0.124 S 
ATOM     90  O   UNL A   1      45.223  38.872  26.547  1.00  0.00    -0.237 OA
ATOM     91  O   UNL A   1      42.756  38.742  26.591  1.00  0.00    -0.237 OA
ATOM     92  O   UNL A   1      44.009  39.208  28.667  1.00  0.00    -0.744 OA
ENDBRANCH  88  89
ENDBRANCH  62  83
ENDBRANCH  36  37
ENDBRANCH  29  31
ENDBRANCH  28  29
ENDBRANCH  27  28
ENDBRANCH  26  27
ENDBRANCH   1  26
TORSDOF 20
ENDMDL
MODEL 2
REMARK VINA RESULT:     -11.3      4.404     10.734
REMARK SMILES Cc1ccc(Nc2c(Cl)cc(Cl)cc2Cl)c(CC(=O)OCCOCCOC(=O)c2ccc(-c3c4nc(c(-c5ccc(S(=O)(=O)[O-])cc5)c5ccc([nH]5)c(-c5ccc(S(=O)(=O)[O-])cc5)c5nc(c(-c6ccc(S(=O)(=O)[O-])cc6)c6ccc3[nH]6)C=C5)C=C4)cc2)c1
REMARK SMILES IDX 23 1 22 2 21 3 20 4 18 5 19 6 17 7 16 8 1 9 2 10 3 11 89 12
REMARK SMILES IDX 4 13 5 14 6 15 7 17 8 18 14 19 9 20 10 21 13 22 15 23 11 24
REMARK SMILES IDX 12 25 24 26 25 27 26 28 27 29 28 30 29 31 30 32 88 33 31 34
REMARK SMILES IDX 87 35 32 36 33 37 34 38 81 39 35 40 86 41 80 42 82 43 36 44
REMARK SMILES IDX 85 45 79 46 78 47 37 49 67 50 48 51 66 52 49 53 52 54 65 55
REMARK SMILES IDX 83 56 50 57 51 58 64 60 84 61 53 62 38 63 39 64 47 65 40 66
REMARK SMILES IDX 46 67 41 68 42 69 43 70 44 71 45 72 68 73 69 74 77 75 70 76
REMARK SMILES IDX 76 77 71 78 72 79 73 80 74 81 75 82 54 83 55 84 63 85 56 86
REMARK SMILES IDX 62 87 57 88 58 89 59 90 60 91 61 92
REMARK H PARENT 6 16 82 48 52 59
REMARK Flexibility Score: inf
ROOT
ATOM      1  O   UNL A   1      32.716  28.858  27.226  1.00  0.00    -0.374 OA
ENDROOT
BRANCH   1   2
ATOM      2  C   UNL A   1      33.542  28.017  26.451  1.00  0.00     0.202 C 
BRANCH   2   3
ATOM      3  C   UNL A   1      32.711  26.799  26.114  1.00  0.00     0.261 C 
BRANCH   3   4
ATOM      4  O   UNL A   1      32.861  26.371  24.771  1.00  0.00    -0.463 OA
BRANCH   4   5
ATOM      5  C   UNL A   1      33.643  25.271  24.525  1.00  0.00     0.310 C 
ATOM      6  O   UNL A   1      34.164  24.956  23.476  1.00  0.00    -0.252 OA
BRANCH   5   7
ATOM      7  C   UNL A   1      33.764  24.429  25.788  1.00  0.00     0.160 C 
BRANCH   7   8
ATOM      8  C   UNL A   1      34.921  23.455  25.647  1.00  0.00    -0.013 A 
ATOM      9  C   UNL A   1      38.674  24.117  25.978  1.00  0.00     0.044 C 
ATOM     10  C   UNL A   1      37.375  23.448  25.640  1.00  0.00    -0.051 A 
ATOM     11  C   UNL A   1      37.335  22.378  24.754  1.00  0.00     0.005 A 
ATOM     12  C   UNL A   1      36.168  23.938  26.132  1.00  0.00     0.009 A 
ATOM     13  C   UNL A   1      36.109  21.846  24.333  1.00  0.00     0.026 A 
ATOM     14  C   UNL A   1      34.870  22.371  24.745  1.00  0.00     0.042 A 
BRANCH  14  15
ATOM     15  N   UNL A   1      33.637  21.861  24.242  1.00  0.00    -0.353 N 
ATOM     16  H   UNL A   1      33.128  22.475  23.665  1.00  0.00     0.167 HD
BRANCH  15  17
ATOM     17  C   UNL A   1      33.041  20.586  24.460  1.00  0.00     0.076 A 
ATOM     18  C   UNL A   1      33.098  19.920  25.698  1.00  0.00     0.067 A 
ATOM     19  C   UNL A   1      32.525  19.843  23.375  1.00  0.00     0.067 A 
ATOM     20  Cl  UNL A   1      33.297  20.786  27.189  1.00  0.00    -0.082 Cl
ATOM     21  C   UNL A   1      32.902  18.540  25.791  1.00  0.00     0.043 A 
ATOM     22  C   UNL A   1      32.377  18.454  23.444  1.00  0.00     0.043 A 
ATOM     23  Cl  UNL A   1      31.939  20.632  21.952  1.00  0.00    -0.082 Cl
ATOM     24  C   UNL A   1      32.611  17.805  24.648  1.00  0.00     0.044 A 
ATOM     25  Cl  UNL A   1      32.470  16.095  24.752  1.00  0.00    -0.084 Cl
ENDBRANCH  15  17
ENDBRANCH  14  15
ENDBRANCH   7   8
ENDBRANCH   5   7
ENDBRANCH   4   5
ENDBRANCH   3   4
ENDBRANCH   2   3
ENDBRANCH   1   2
BRANCH   1  26
ATOM     26  C   UNL A   1      32.401  30.095  26.641  1.00  0.00     0.202 C 
BRANCH  26  27
ATOM     27  C   UNL A   1      33.114  31.189  27.421  1.00  0.00     0.261 C 
BRANCH  27  28
ATOM     28  O   UNL A   1      34.554  31.148  27.252  1.00  0.00    -0.460 OA
BRANCH  28  29
ATOM     29  C   UNL A   1      35.315  31.586  28.302  1.00  0.00     0.338 C 
ATOM     30  O   UNL A   1      35.057  32.594  28.942  1.00  0.00    -0.246 OA
BRANCH  29  31
ATOM     31  C   UNL A   1      36.329  30.585  28.722  1.00  0.00     0.060 A 
ATOM     32  C   UNL A   1      36.194  29.874  29.925  1.00  0.00     0.016 A 
ATOM     33  C   UNL A   1      37.507  30.498  27.984  1.00  0.00     0.016 A 
ATOM     34  C   UNL A   1      37.300  29.210  30.475  1.00  0.00     0.010 A 
ATOM     35  C   UNL A   1      38.618  29.941  28.582  1.00  0.00     0.010 A 
ATOM     36  C   UNL A   1      38.531  29.309  29.836  1.00  0.00    -0.014 A 
BRANCH  36  37
ATOM     37  C   UNL A   1      39.815  28.809  30.328  1.00  0.00     0.031 A 
ATOM     38  C   UNL A   1      40.330  27.556  29.729  1.00  0.00     0.074 A 
ATOM     39  C   UNL A   1      40.637  29.581  31.077  1.00  0.00     0.049 A 
ATOM     40  N   UNL A   1      41.438  27.008  30.075  1.00  0.00    -0.248 NA
ATOM     41  C   UNL A   1      39.626  26.776  28.706  1.00  0.00     0.031 C 
ATOM     42  C   UNL A   1      42.102  29.548  31.149  1.00  0.00     0.029 A 
ATOM     43  N   UNL A   1      40.339  30.596  31.958  1.00  0.00    -0.354 N 
ATOM     44  C   UNL A   1      41.774  26.103  29.103  1.00  0.00     0.074 A 
ATOM     45  C   UNL A   1      40.567  25.896  28.345  1.00  0.00     0.031 C 
ATOM     46  C   UNL A   1      42.521  30.295  32.188  1.00  0.00     0.029 A 
ATOM     47  C   UNL A   1      41.337  30.724  32.915  1.00  0.00     0.049 A 
ATOM     48  H   UNL A   1      39.529  31.155  31.916  1.00  0.00     0.167 HD
ATOM     49  C   UNL A   1      43.084  25.756  28.993  1.00  0.00     0.031 A 
ATOM     50  C   UNL A   1      41.048  30.497  34.230  1.00  0.00     0.031 A 
ATOM     51  C   UNL A   1      43.856  26.254  30.145  1.00  0.00     0.049 A 
ATOM     52  C   UNL A   1      41.708  29.198  34.673  1.00  0.00     0.074 A 
ATOM     53  C   UNL A   1      44.833  27.217  30.324  1.00  0.00     0.029 A 
ATOM     54  N   UNL A   1      43.394  25.945  31.421  1.00  0.00    -0.354 N 
ATOM     55  N   UNL A   1      42.312  28.400  33.832  1.00  0.00    -0.248 NA
ATOM     56  C   UNL A   1      41.771  28.679  36.034  1.00  0.00     0.031 C 
ATOM     57  C   UNL A   1      44.911  27.508  31.727  1.00  0.00     0.029 A 
ATOM     58  C   UNL A   1      44.016  26.692  32.402  1.00  0.00     0.049 A 
ATOM     59  H   UNL A   1      42.702  25.270  31.604  1.00  0.00     0.167 HD
ATOM     60  C   UNL A   1      42.884  27.351  34.470  1.00  0.00     0.074 A 
ATOM     61  C   UNL A   1      42.447  27.525  35.851  1.00  0.00     0.031 C 
ATOM     62  C   UNL A   1      43.674  26.450  33.807  1.00  0.00     0.031 A 
BRANCH  49  63
ATOM     63  C   UNL A   1      43.701  25.100  27.780  1.00  0.00    -0.014 A 
ATOM     64  C   UNL A   1      44.155  23.770  27.879  1.00  0.00     0.010 A 
ATOM     65  C   UNL A   1      43.948  25.747  26.549  1.00  0.00     0.010 A 
ATOM     66  C   UNL A   1      44.816  23.126  26.822  1.00  0.00     0.020 A 
ATOM     67  C   UNL A   1      44.584  25.107  25.471  1.00  0.00     0.020 A 
ATOM     68  C   UNL A   1      45.025  23.798  25.619  1.00  0.00     0.054 A 
BRANCH  68  69
ATOM     69  S   UNL A   1      45.891  22.952  24.272  1.00  0.00     0.124 S 
ATOM     70  O   UNL A   1      46.884  23.943  23.867  1.00  0.00    -0.237 OA
ATOM     71  O   UNL A   1      46.420  21.762  24.933  1.00  0.00    -0.237 OA
ATOM     72  O   UNL A   1      44.839  22.695  23.289  1.00  0.00    -0.744 OA
ENDBRANCH  68  69
ENDBRANCH  49  63
BRANCH  50  73
ATOM     73  C   UNL A   1      39.694  31.062  34.582  1.00  0.00    -0.014 A 
ATOM     74  C   UNL A   1      39.649  32.464  34.805  1.00  0.00     0.010 A 
ATOM     75  C   UNL A   1      38.511  30.434  34.146  1.00  0.00     0.010 A 
ATOM     76  C   UNL A   1      38.526  33.228  34.448  1.00  0.00     0.020 A 
ATOM     77  C   UNL A   1      37.378  31.203  33.795  1.00  0.00     0.020 A 
ATOM     78  C   UNL A   1      37.406  32.598  33.911  1.00  0.00     0.054 A 
BRANCH  78  79
ATOM     79  S   UNL A   1      36.082  33.632  33.182  1.00  0.00     0.124 S 
ATOM     80  O   UNL A   1      36.638  34.975  33.305  1.00  0.00    -0.237 OA
ATOM     81  O   UNL A   1      35.986  33.122  31.815  1.00  0.00    -0.237 OA
ATOM     82  O   UNL A   1      34.929  33.343  34.027  1.00  0.00    -0.744 OA
ENDBRANCH  78  79
ENDBRANCH  50  73
BRANCH  62  83
ATOM     83  C   UNL A   1      44.176  25.192  34.448  1.00  0.00    -0.014 A 
ATOM     84  C   UNL A   1      43.561  23.949  34.271  1.00  0.00     0.010 A 
ATOM     85  C   UNL A   1      45.312  25.246  35.286  1.00  0.00     0.010 A 
ATOM     86  C   UNL A   1      44.151  22.786  34.771  1.00  0.00     0.020 A 
ATOM     87  C   UNL A   1      45.886  24.101  35.828  1.00  0.00     0.020 A 
ATOM     88  C   UNL A   1      45.325  22.870  35.524  1.00  0.00     0.054 A 
BRANCH  88  89
ATOM     89  S   UNL A   1      46.088  21.353  36.126  1.00  0.00     0.124 S 
ATOM     90  O   UNL A   1      47.488  21.535  35.751  1.00  0.00    -0.237 OA
ATOM     91  O   UNL A   1      45.806  21.425  37.557  1.00  0.00    -0.237 OA
ATOM     92  O   UNL A   1      45.385  20.297  35.402  1.00  0.00    -0.744 OA
ENDBRANCH  88  89
ENDBRANCH  62  83
ENDBRANCH  36  37
ENDBRANCH  29  31
ENDBRANCH  28  29
ENDBRANCH  27  28
ENDBRANCH  26  27
ENDBRANCH   1  26
TORSDOF 20
ENDMDL
MODEL 3
REMARK VINA RESULT:     -11.3      3.966      9.837
REMARK SMILES Cc1ccc(Nc2c(Cl)cc(Cl)cc2Cl)c(CC(=O)OCCOCCOC(=O)c2ccc(-c3c4nc(c(-c5ccc(S(=O)(=O)[O-])cc5)c5ccc([nH]5)c(-c5ccc(S(=O)(=O)[O-])cc5)c5nc(c(-c6ccc(S(=O)(=O)[O-])cc6)c6ccc3[nH]6)C=C5)C=C4)cc2)c1
REMARK SMILES IDX 23 1 22 2 21 3 20 4 18 5 19 6 17 7 16 8 1 9 2 10 3 11 89 12
REMARK SMILES IDX 4 13 5 14 6 15 7 17 8 18 14 19 9 20 10 21 13 22 15 23 11 24
REMARK SMILES IDX 12 25 24 26 25 27 26 28 27 29 28 30 29 31 30 32 88 33 31 34
REMARK SMILES IDX 87 35 32 36 33 37 34 38 81 39 35 40 86 41 80 42 82 43 36 44
REMARK SMILES IDX 85 45 79 46 78 47 37 49 67 50 48 51 66 52 49 53 52 54 65 55
REMARK SMILES IDX 83 56 50 57 51 58 64 60 84 61 53 62 38 63 39 64 47 65 40 66
REMARK SMILES IDX 46 67 41 68 42 69 43 70 44 71 45 72 68 73 69 74 77 75 70 76
REMARK SMILES IDX 76 77 71 78 72 79 73 80 74 81 75 82 54 83 55 84 63 85 56 86
REMARK SMILES IDX 62 87 57 88 58 89 59 90 60 91 61 92
REMARK H PARENT 6 16 82 48 52 59
REMARK Flexibility Score: inf
ROOT
ATOM      1  O   UNL A   1      32.669  28.257  26.296  1.00  0.00    -0.374 OA
ENDROOT
BRANCH   1   2
ATOM      2  C   UNL A   1      33.640  27.669  25.458  1.00  0.00     0.202 C 
BRANCH   2   3
ATOM      3  C   UNL A   1      33.611  26.186  25.752  1.00  0.00     0.261 C 
BRANCH   3   4
ATOM      4  O   UNL A   1      34.486  25.433  24.929  1.00  0.00    -0.463 OA
BRANCH   4   5
ATOM      5  C   UNL A   1      34.813  24.161  25.325  1.00  0.00     0.310 C 
ATOM      6  O   UNL A   1      34.976  23.760  26.458  1.00  0.00    -0.252 OA
BRANCH   5   7
ATOM      7  C   UNL A   1      34.987  23.266  24.105  1.00  0.00     0.160 C 
BRANCH   7   8
ATOM      8  C   UNL A   1      33.785  22.349  23.965  1.00  0.00    -0.013 A 
ATOM      9  C   UNL A   1      33.554  18.580  24.576  1.00  0.00     0.044 C 
ATOM     10  C   UNL A   1      33.219  19.965  24.110  1.00  0.00    -0.051 A 
ATOM     11  C   UNL A   1      32.238  20.175  23.148  1.00  0.00     0.005 A 
ATOM     12  C   UNL A   1      33.943  21.067  24.561  1.00  0.00     0.009 A 
ATOM     13  C   UNL A   1      32.024  21.453  22.615  1.00  0.00     0.026 A 
ATOM     14  C   UNL A   1      32.794  22.571  22.986  1.00  0.00     0.042 A 
BRANCH  14  15
ATOM     15  N   UNL A   1      32.608  23.844  22.372  1.00  0.00    -0.353 N 
ATOM     16  H   UNL A   1      33.033  23.957  21.491  1.00  0.00     0.167 HD
BRANCH  15  17
ATOM     17  C   UNL A   1      31.891  24.976  22.857  1.00  0.00     0.076 A 
ATOM     18  C   UNL A   1      30.810  24.866  23.751  1.00  0.00     0.067 A 
ATOM     19  C   UNL A   1      32.118  26.256  22.306  1.00  0.00     0.067 A 
ATOM     20  Cl  UNL A   1      30.648  23.510  24.821  1.00  0.00    -0.082 Cl
ATOM     21  C   UNL A   1      29.869  25.890  23.882  1.00  0.00     0.043 A 
ATOM     22  C   UNL A   1      31.156  27.269  22.388  1.00  0.00     0.043 A 
ATOM     23  Cl  UNL A   1      33.646  26.669  21.607  1.00  0.00    -0.082 Cl
ATOM     24  C   UNL A   1      30.013  27.059  23.145  1.00  0.00     0.044 A 
ATOM     25  Cl  UNL A   1      28.799  28.274  23.235  1.00  0.00    -0.084 Cl
ENDBRANCH  15  17
ENDBRANCH  14  15
ENDBRANCH   7   8
ENDBRANCH   5   7
ENDBRANCH   4   5
ENDBRANCH   3   4
ENDBRANCH   2   3
ENDBRANCH   1   2
BRANCH   1  26
ATOM     26  C   UNL A   1      32.109  29.454  25.819  1.00  0.00     0.202 C 
BRANCH  26  27
ATOM     27  C   UNL A   1      32.634  30.600  26.670  1.00  0.00     0.261 C 
BRANCH  27  28
ATOM     28  O   UNL A   1      33.665  30.180  27.600  1.00  0.00    -0.460 OA
BRANCH  28  29
ATOM     29  C   UNL A   1      34.854  30.858  27.556  1.00  0.00     0.338 C 
ATOM     30  O   UNL A   1      34.938  32.048  27.293  1.00  0.00    -0.246 OA
BRANCH  29  31
ATOM     31  C   UNL A   1      35.983  30.055  28.091  1.00  0.00     0.060 A 
ATOM     32  C   UNL A   1      35.903  29.438  29.350  1.00  0.00     0.016 A 
ATOM     33  C   UNL A   1      37.190  30.076  27.396  1.00  0.00     0.016 A 
ATOM     34  C   UNL A   1      37.070  28.991  29.987  1.00  0.00     0.010 A 
ATOM     35  C   UNL A   1      38.344  29.739  28.071  1.00  0.00     0.010 A 
ATOM     36  C   UNL A   1      38.299  29.212  29.374  1.00  0.00    -0.014 A 
BRANCH  36  37
ATOM     37  C   UNL A   1      39.620  28.948  29.943  1.00  0.00     0.031 A 
ATOM     38  C   UNL A   1      40.297  27.694  29.537  1.00  0.00     0.074 A 
ATOM     39  C   UNL A   1      40.326  29.914  30.578  1.00  0.00     0.049 A 
ATOM     40  N   UNL A   1      41.452  27.340  29.966  1.00  0.00    -0.248 NA
ATOM     41  C   UNL A   1      39.717  26.696  28.632  1.00  0.00     0.031 C 
ATOM     42  C   UNL A   1      41.782  30.069  30.666  1.00  0.00     0.029 A 
ATOM     43  N   UNL A   1      39.886  31.000  31.300  1.00  0.00    -0.354 N 
ATOM     44  C   UNL A   1      41.919  26.353  29.139  1.00  0.00     0.074 A 
ATOM     45  C   UNL A   1      40.764  25.894  28.410  1.00  0.00     0.031 C 
ATOM     46  C   UNL A   1      42.082  31.003  31.589  1.00  0.00     0.029 A 
ATOM     47  C   UNL A   1      40.837  31.384  32.236  1.00  0.00     0.049 A 
ATOM     48  H   UNL A   1      39.017  31.445  31.172  1.00  0.00     0.167 HD
ATOM     49  C   UNL A   1      43.263  26.156  29.091  1.00  0.00     0.031 A 
ATOM     50  C   UNL A   1      40.545  31.315  33.568  1.00  0.00     0.031 A 
ATOM     51  C   UNL A   1      43.941  26.904  30.163  1.00  0.00     0.049 A 
ATOM     52  C   UNL A   1      41.344  30.183  34.200  1.00  0.00     0.074 A 
ATOM     53  C   UNL A   1      44.791  27.995  30.208  1.00  0.00     0.029 A 
ATOM     54  N   UNL A   1      43.487  26.727  31.468  1.00  0.00    -0.354 N 
ATOM     55  N   UNL A   1      42.059  29.352  33.489  1.00  0.00    -0.248 NA
ATOM     56  C   UNL A   1      41.434  29.875  35.623  1.00  0.00     0.031 C 
ATOM     57  C   UNL A   1      44.798  28.490  31.555  1.00  0.00     0.029 A 
ATOM     58  C   UNL A   1      43.990  27.677  32.334  1.00  0.00     0.049 A 
ATOM     59  H   UNL A   1      42.876  26.006  31.742  1.00  0.00     0.167 HD
ATOM     60  C   UNL A   1      42.736  28.483  34.276  1.00  0.00     0.074 A 
ATOM     61  C   UNL A   1      42.247  28.797  35.614  1.00  0.00     0.031 C 
ATOM     62  C   UNL A   1      43.645  27.599  33.757  1.00  0.00     0.031 A 
BRANCH  49  63
ATOM     63  C   UNL A   1      43.985  25.413  27.990  1.00  0.00    -0.014 A 
ATOM     64  C   UNL A   1      43.860  25.870  26.664  1.00  0.00     0.010 A 
ATOM     65  C   UNL A   1      44.721  24.221  28.167  1.00  0.00     0.010 A 
ATOM     66  C   UNL A   1      44.428  25.182  25.580  1.00  0.00     0.020 A 
ATOM     67  C   UNL A   1      45.321  23.537  27.096  1.00  0.00     0.020 A 
ATOM     68  C   UNL A   1      45.160  24.018  25.803  1.00  0.00     0.054 A 
BRANCH  68  69
ATOM     69  S   UNL A   1      45.876  23.139  24.389  1.00  0.00     0.124 S 
ATOM     70  O   UNL A   1      46.403  21.927  25.009  1.00  0.00    -0.237 OA
ATOM     71  O   UNL A   1      44.721  22.950  23.516  1.00  0.00    -0.237 OA
ATOM     72  O   UNL A   1      46.888  24.063  23.881  1.00  0.00    -0.744 OA
ENDBRANCH  68  69
ENDBRANCH  49  63
BRANCH  50  73
ATOM     73  C   UNL A   1      39.125  31.755  33.824  1.00  0.00    -0.014 A 
ATOM     74  C   UNL A   1      38.867  33.141  33.649  1.00  0.00     0.010 A 
ATOM     75  C   UNL A   1      38.047  30.865  33.648  1.00  0.00     0.010 A 
ATOM     76  C   UNL A   1      37.635  33.602  33.157  1.00  0.00     0.020 A 
ATOM     77  C   UNL A   1      36.804  31.331  33.161  1.00  0.00     0.020 A 
ATOM     78  C   UNL A   1      36.618  32.690  32.881  1.00  0.00     0.054 A 
BRANCH  78  79
ATOM     79  S   UNL A   1      35.141  33.273  31.968  1.00  0.00     0.124 S 
ATOM     80  O   UNL A   1      35.720  34.209  31.012  1.00  0.00    -0.237 OA
ATOM     81  O   UNL A   1      34.611  32.039  31.387  1.00  0.00    -0.237 OA
ATOM     82  O   UNL A   1      34.314  33.863  33.014  1.00  0.00    -0.744 OA
ENDBRANCH  78  79
ENDBRANCH  50  73
BRANCH  62  83
ATOM     83  C   UNL A   1      44.277  26.516  34.578  1.00  0.00    -0.014 A 
ATOM     84  C   UNL A   1      45.614  26.549  34.983  1.00  0.00     0.010 A 
ATOM     85  C   UNL A   1      43.506  25.394  34.957  1.00  0.00     0.010 A 
ATOM     86  C   UNL A   1      46.113  25.590  35.867  1.00  0.00     0.020 A 
ATOM     87  C   UNL A   1      44.003  24.408  35.802  1.00  0.00     0.020 A 
ATOM     88  C   UNL A   1      45.294  24.541  36.290  1.00  0.00     0.054 A 
BRANCH  88  89
ATOM     89  S   UNL A   1      45.947  23.337  37.460  1.00  0.00     0.124 S 
ATOM     90  O   UNL A   1      47.366  23.682  37.507  1.00  0.00    -0.237 OA
ATOM     91  O   UNL A   1      45.184  23.649  38.667  1.00  0.00    -0.237 OA
ATOM     92  O   UNL A   1      45.643  22.048  36.843  1.00  0.00    -0.744 OA
ENDBRANCH  88  89
ENDBRANCH  62  83
ENDBRANCH  36  37
ENDBRANCH  29  31
ENDBRANCH  28  29
ENDBRANCH  27  28
ENDBRANCH  26  27
ENDBRANCH   1  26
TORSDOF 20
ENDMDL
