MODEL 1
REMARK VINA RESULT:     -10.8      0.000      0.000
REMARK SMILES Cc1ccc(Nc2nc(C(=O)OCCOCCOC(=O)c3ccc(-c4c5nc(c(-c6ccc(S(=O)(=O)[O-])cc6)c6ccc([nH]6)c(-c6ccc(S(=O)(=O)[O-])cc6)c6nc(c(-c7ccc(S(=O)(=O)[O-])cc7)c7ccc4[nH]7)C=C6)C=C5)cc3)cs2)cc1
REMARK SMILES IDX 16 1 15 2 14 3 13 4 12 5 10 6 11 7 9 8 7 9 8 10 82 11 81 12
REMARK SMILES IDX 6 13 5 15 1 16 2 17 3 18 84 19 4 20 83 21 17 22 18 23 19 24
REMARK SMILES IDX 20 25 21 26 22 27 80 28 23 29 79 30 24 31 25 32 26 33 73 34
REMARK SMILES IDX 27 35 78 36 72 37 74 38 28 39 77 40 71 41 70 42 29 44 59 45
REMARK SMILES IDX 40 46 58 47 41 48 44 49 57 50 75 51 42 52 43 53 56 55 76 56
REMARK SMILES IDX 45 57 30 58 31 59 39 60 32 61 38 62 33 63 34 64 35 65 36 66
REMARK SMILES IDX 37 67 60 68 61 69 69 70 62 71 68 72 63 73 64 74 65 75 66 76
REMARK SMILES IDX 67 77 46 78 47 79 55 80 48 81 54 82 49 83 50 84 51 85 52 86
REMARK SMILES IDX 53 87
REMARK H PARENT 6 14 74 43 44 54
REMARK Flexibility Score: inf
ROOT
ATOM      1  C   UNL A   1      31.762  29.489  26.118  1.00  0.00     0.202 C 
ENDROOT
BRANCH   1   2
ATOM      2  O   UNL A   1      31.590  28.531  25.084  1.00  0.00    -0.374 OA
BRANCH   2   3
ATOM      3  C   UNL A   1      31.087  29.061  23.857  1.00  0.00     0.202 C 
BRANCH   3   4
ATOM      4  C   UNL A   1      31.938  28.508  22.745  1.00  0.00     0.261 C 
BRANCH   4   5
ATOM      5  O   UNL A   1      31.949  27.079  22.734  1.00  0.00    -0.458 OA
BRANCH   5   6
ATOM      6  C   UNL A   1      33.099  26.449  22.367  1.00  0.00     0.357 C 
ATOM      7  O   UNL A   1      33.754  26.645  21.349  1.00  0.00    -0.244 OA
BRANCH   6   8
ATOM      8  C   UNL A   1      33.529  25.591  23.460  1.00  0.00     0.161 A 
ATOM      9  C   UNL A   1      34.510  23.755  24.253  1.00  0.00     0.187 A 
ATOM     10  N   UNL A   1      34.399  24.542  23.216  1.00  0.00    -0.213 NA
ATOM     11  S   UNL A   1      33.543  24.227  25.599  1.00  0.00    -0.104 S 
ATOM     12  C   UNL A   1      33.050  25.641  24.753  1.00  0.00     0.104 A 
BRANCH   9  13
ATOM     13  N   UNL A   1      35.300  22.659  24.285  1.00  0.00    -0.332 N 
ATOM     14  H   UNL A   1      34.976  21.846  23.832  1.00  0.00     0.169 HD
BRANCH  13  15
ATOM     15  C   UNL A   1      36.555  22.604  24.922  1.00  0.00     0.040 A 
ATOM     16  C   UNL A   1      40.297  22.298  27.071  1.00  0.00     0.044 C 
ATOM     17  C   UNL A   1      39.029  22.403  26.281  1.00  0.00    -0.051 A 
ATOM     18  C   UNL A   1      38.304  23.595  26.307  1.00  0.00     0.005 A 
ATOM     19  C   UNL A   1      38.550  21.337  25.512  1.00  0.00     0.005 A 
ATOM     20  C   UNL A   1      37.092  23.693  25.625  1.00  0.00     0.026 A 
ATOM     21  C   UNL A   1      37.327  21.439  24.836  1.00  0.00     0.026 A 
ENDBRANCH  13  15
ENDBRANCH   9  13
ENDBRANCH   6   8
ENDBRANCH   5   6
ENDBRANCH   4   5
ENDBRANCH   3   4
ENDBRANCH   2   3
ENDBRANCH   1   2
BRANCH   1  22
ATOM     22  C   UNL A   1      33.223  29.880  26.398  1.00  0.00     0.261 C 
BRANCH  22  23
ATOM     23  O   UNL A   1      33.291  30.650  27.610  1.00  0.00    -0.460 OA
BRANCH  23  24
ATOM     24  C   UNL A   1      34.416  31.408  27.748  1.00  0.00     0.338 C 
ATOM     25  O   UNL A   1      34.471  32.602  27.524  1.00  0.00    -0.246 OA
BRANCH  24  26
ATOM     26  C   UNL A   1      35.546  30.531  28.162  1.00  0.00     0.060 A 
ATOM     27  C   UNL A   1      35.554  29.899  29.418  1.00  0.00     0.016 A 
ATOM     28  C   UNL A   1      36.687  30.489  27.359  1.00  0.00     0.016 A 
ATOM     29  C   UNL A   1      36.733  29.304  29.902  1.00  0.00     0.010 A 
ATOM     30  C   UNL A   1      37.857  29.961  27.864  1.00  0.00     0.010 A 
ATOM     31  C   UNL A   1      37.900  29.374  29.140  1.00  0.00    -0.014 A 
BRANCH  31  32
ATOM     32  C   UNL A   1      39.255  29.023  29.583  1.00  0.00     0.031 A 
ATOM     33  C   UNL A   1      39.873  27.754  29.125  1.00  0.00     0.074 A 
ATOM     34  C   UNL A   1      40.058  29.968  30.125  1.00  0.00     0.049 A 
ATOM     35  N   UNL A   1      40.965  27.264  29.607  1.00  0.00    -0.248 NA
ATOM     36  C   UNL A   1      39.296  26.915  28.080  1.00  0.00     0.031 C 
ATOM     37  C   UNL A   1      41.519  30.011  30.122  1.00  0.00     0.029 A 
ATOM     38  N   UNL A   1      39.701  31.071  30.896  1.00  0.00    -0.354 N 
ATOM     39  C   UNL A   1      41.416  26.311  28.722  1.00  0.00     0.074 A 
ATOM     40  C   UNL A   1      40.291  26.054  27.854  1.00  0.00     0.031 C 
ATOM     41  C   UNL A   1      41.939  30.906  31.030  1.00  0.00     0.029 A 
ATOM     42  C   UNL A   1      40.769  31.376  31.750  1.00  0.00     0.049 A 
ATOM     43  H   UNL A   1      38.845  31.555  30.849  1.00  0.00     0.167 HD
ATOM     44  C   UNL A   1      42.737  25.968  28.726  1.00  0.00     0.031 A 
ATOM     45  C   UNL A   1      40.587  31.412  33.096  1.00  0.00     0.031 A 
ATOM     46  C   UNL A   1      43.475  26.671  29.791  1.00  0.00     0.049 A 
ATOM     47  C   UNL A   1      41.414  30.336  33.744  1.00  0.00     0.074 A 
ATOM     48  C   UNL A   1      44.411  27.692  29.781  1.00  0.00     0.029 A 
ATOM     49  N   UNL A   1      43.058  26.545  31.119  1.00  0.00    -0.354 N 
ATOM     50  N   UNL A   1      41.897  29.325  33.071  1.00  0.00    -0.248 NA
ATOM     51  C   UNL A   1      41.834  30.322  35.139  1.00  0.00     0.031 C 
ATOM     52  C   UNL A   1      44.504  28.220  31.100  1.00  0.00     0.029 A 
ATOM     53  C   UNL A   1      43.653  27.500  31.923  1.00  0.00     0.049 A 
ATOM     54  H   UNL A   1      42.424  25.864  31.439  1.00  0.00     0.167 HD
ATOM     55  C   UNL A   1      42.720  28.588  33.863  1.00  0.00     0.074 A 
ATOM     56  C   UNL A   1      42.626  29.232  35.163  1.00  0.00     0.031 C 
ATOM     57  C   UNL A   1      43.419  27.524  33.369  1.00  0.00     0.031 A 
BRANCH  44  58
ATOM     58  C   UNL A   1      43.411  25.200  27.596  1.00  0.00    -0.014 A 
ATOM     59  C   UNL A   1      43.661  23.817  27.720  1.00  0.00     0.010 A 
ATOM     60  C   UNL A   1      43.848  25.784  26.390  1.00  0.00     0.010 A 
ATOM     61  C   UNL A   1      44.363  23.088  26.739  1.00  0.00     0.020 A 
ATOM     62  C   UNL A   1      44.582  25.084  25.420  1.00  0.00     0.020 A 
ATOM     63  C   UNL A   1      44.836  23.733  25.599  1.00  0.00     0.054 A 
BRANCH  63  64
ATOM     64  S   UNL A   1      45.754  22.799  24.346  1.00  0.00     0.124 S 
ATOM     65  O   UNL A   1      46.672  23.801  23.810  1.00  0.00    -0.237 OA
ATOM     66  O   UNL A   1      46.370  21.737  25.137  1.00  0.00    -0.237 OA
ATOM     67  O   UNL A   1      44.717  22.354  23.415  1.00  0.00    -0.744 OA
ENDBRANCH  63  64
ENDBRANCH  44  58
BRANCH  45  68
ATOM     68  C   UNL A   1      39.251  31.968  33.482  1.00  0.00    -0.014 A 
ATOM     69  C   UNL A   1      39.084  33.362  33.287  1.00  0.00     0.010 A 
ATOM     70  C   UNL A   1      38.098  31.162  33.517  1.00  0.00     0.010 A 
ATOM     71  C   UNL A   1      37.833  33.907  32.965  1.00  0.00     0.020 A 
ATOM     72  C   UNL A   1      36.838  31.710  33.200  1.00  0.00     0.020 A 
ATOM     73  C   UNL A   1      36.726  33.066  32.871  1.00  0.00     0.054 A 
BRANCH  73  74
ATOM     74  S   UNL A   1      35.217  33.716  32.075  1.00  0.00     0.124 S 
ATOM     75  O   UNL A   1      34.157  33.021  32.796  1.00  0.00    -0.237 OA
ATOM     76  O   UNL A   1      35.314  35.152  32.336  1.00  0.00    -0.237 OA
ATOM     77  O   UNL A   1      35.383  33.340  30.674  1.00  0.00    -0.744 OA
ENDBRANCH  73  74
ENDBRANCH  45  68
BRANCH  57  78
ATOM     78  C   UNL A   1      44.026  26.433  34.211  1.00  0.00    -0.014 A 
ATOM     79  C   UNL A   1      43.320  25.299  34.639  1.00  0.00     0.010 A 
ATOM     80  C   UNL A   1      45.421  26.448  34.446  1.00  0.00     0.010 A 
ATOM     81  C   UNL A   1      43.963  24.252  35.306  1.00  0.00     0.020 A 
ATOM     82  C   UNL A   1      46.084  25.384  35.060  1.00  0.00     0.020 A 
ATOM     83  C   UNL A   1      45.342  24.297  35.505  1.00  0.00     0.054 A 
BRANCH  83  84
ATOM     84  S   UNL A   1      46.163  22.883  36.273  1.00  0.00     0.124 S 
ATOM     85  O   UNL A   1      47.421  22.830  35.534  1.00  0.00    -0.237 OA
ATOM     86  O   UNL A   1      46.273  23.295  37.671  1.00  0.00    -0.237 OA
ATOM     87  O   UNL A   1      45.244  21.775  36.029  1.00  0.00    -0.744 OA
ENDBRANCH  83  84
ENDBRANCH  57  78
ENDBRANCH  31  32
ENDBRANCH  24  26
ENDBRANCH  23  24
ENDBRANCH  22  23
ENDBRANCH   1  22
TORSDOF 19
ENDMDL
MODEL 2
REMARK VINA RESULT:     -10.5      6.549      9.935
REMARK SMILES Cc1ccc(Nc2nc(C(=O)OCCOCCOC(=O)c3ccc(-c4c5nc(c(-c6ccc(S(=O)(=O)[O-])cc6)c6ccc([nH]6)c(-c6ccc(S(=O)(=O)[O-])cc6)c6nc(c(-c7ccc(S(=O)(=O)[O-])cc7)c7ccc4[nH]7)C=C6)C=C5)cc3)cs2)cc1
REMARK SMILES IDX 16 1 15 2 14 3 13 4 12 5 10 6 11 7 9 8 7 9 8 10 82 11 81 12
REMARK SMILES IDX 6 13 5 15 1 16 2 17 3 18 84 19 4 20 83 21 17 22 18 23 19 24
REMARK SMILES IDX 20 25 21 26 22 27 80 28 23 29 79 30 24 31 25 32 26 33 73 34
REMARK SMILES IDX 27 35 78 36 72 37 74 38 28 39 77 40 71 41 70 42 29 44 59 45
REMARK SMILES IDX 40 46 58 47 41 48 44 49 57 50 75 51 42 52 43 53 56 55 76 56
REMARK SMILES IDX 45 57 30 58 31 59 39 60 32 61 38 62 33 63 34 64 35 65 36 66
REMARK SMILES IDX 37 67 60 68 61 69 69 70 62 71 68 72 63 73 64 74 65 75 66 76
REMARK SMILES IDX 67 77 46 78 47 79 55 80 48 81 54 82 49 83 50 84 51 85 52 86
REMARK SMILES IDX 53 87
REMARK H PARENT 6 14 74 43 44 54
REMARK Flexibility Score: inf
ROOT
ATOM      1  C   UNL A   1      35.433  34.395  33.435  1.00  0.00     0.202 C 
ENDROOT
BRANCH   1   2
ATOM      2  O   UNL A   1      35.304  35.750  33.028  1.00  0.00    -0.374 OA
BRANCH   2   3
ATOM      3  C   UNL A   1      34.120  36.401  33.489  1.00  0.00     0.202 C 
BRANCH   3   4
ATOM      4  C   UNL A   1      33.284  36.723  32.278  1.00  0.00     0.261 C 
BRANCH   4   5
ATOM      5  O   UNL A   1      33.088  35.584  31.439  1.00  0.00    -0.458 OA
BRANCH   5   6
ATOM      6  C   UNL A   1      33.102  35.769  30.091  1.00  0.00     0.357 C 
ATOM      7  O   UNL A   1      32.720  36.762  29.480  1.00  0.00    -0.244 OA
BRANCH   6   8
ATOM      8  C   UNL A   1      33.793  34.648  29.474  1.00  0.00     0.161 A 
ATOM      9  C   UNL A   1      34.820  32.673  29.570  1.00  0.00     0.187 A 
ATOM     10  N   UNL A   1      34.009  33.485  30.194  1.00  0.00    -0.213 NA
ATOM     11  S   UNL A   1      35.397  33.278  28.063  1.00  0.00    -0.104 S 
ATOM     12  C   UNL A   1      34.387  34.661  28.228  1.00  0.00     0.104 A 
BRANCH   9  13
ATOM     13  N   UNL A   1      35.193  31.467  30.050  1.00  0.00    -0.332 N 
ATOM     14  H   UNL A   1      34.584  30.706  29.905  1.00  0.00     0.169 HD
BRANCH  13  15
ATOM     15  C   UNL A   1      36.396  31.226  30.744  1.00  0.00     0.040 A 
ATOM     16  C   UNL A   1      40.093  30.741  32.936  1.00  0.00     0.044 C 
ATOM     17  C   UNL A   1      38.800  30.860  32.191  1.00  0.00    -0.051 A 
ATOM     18  C   UNL A   1      38.816  30.912  30.797  1.00  0.00     0.005 A 
ATOM     19  C   UNL A   1      37.569  30.915  32.855  1.00  0.00     0.005 A 
ATOM     20  C   UNL A   1      37.627  31.081  30.088  1.00  0.00     0.026 A 
ATOM     21  C   UNL A   1      36.379  31.093  32.137  1.00  0.00     0.026 A 
ENDBRANCH  13  15
ENDBRANCH   9  13
ENDBRANCH   6   8
ENDBRANCH   5   6
ENDBRANCH   4   5
ENDBRANCH   3   4
ENDBRANCH   2   3
ENDBRANCH   1   2
BRANCH   1  22
ATOM     22  C   UNL A   1      36.287  34.180  34.697  1.00  0.00     0.261 C 
BRANCH  22  23
ATOM     23  O   UNL A   1      37.540  34.866  34.552  1.00  0.00    -0.460 OA
BRANCH  23  24
ATOM     24  C   UNL A   1      38.628  34.054  34.414  1.00  0.00     0.338 C 
ATOM     25  O   UNL A   1      38.932  33.175  35.197  1.00  0.00    -0.246 OA
BRANCH  24  26
ATOM     26  C   UNL A   1      39.384  34.455  33.195  1.00  0.00     0.060 A 
ATOM     27  C   UNL A   1      38.764  34.484  31.932  1.00  0.00     0.016 A 
ATOM     28  C   UNL A   1      40.765  34.626  33.292  1.00  0.00     0.016 A 
ATOM     29  C   UNL A   1      39.543  34.596  30.766  1.00  0.00     0.010 A 
ATOM     30  C   UNL A   1      41.528  34.672  32.144  1.00  0.00     0.010 A 
ATOM     31  C   UNL A   1      40.934  34.646  30.872  1.00  0.00    -0.014 A 
BRANCH  31  32
ATOM     32  C   UNL A   1      41.898  34.527  29.771  1.00  0.00     0.031 A 
ATOM     33  C   UNL A   1      42.588  33.236  29.533  1.00  0.00     0.074 A 
ATOM     34  C   UNL A   1      41.924  35.459  28.789  1.00  0.00     0.049 A 
ATOM     35  N   UNL A   1      43.586  33.084  28.729  1.00  0.00    -0.248 NA
ATOM     36  C   UNL A   1      42.215  31.994  30.202  1.00  0.00     0.031 C 
ATOM     37  C   UNL A   1      42.358  35.288  27.404  1.00  0.00     0.029 A 
ATOM     38  N   UNL A   1      41.642  36.819  28.876  1.00  0.00    -0.354 N 
ATOM     39  C   UNL A   1      43.722  31.736  28.490  1.00  0.00     0.074 A 
ATOM     40  C   UNL A   1      42.925  31.099  29.511  1.00  0.00     0.031 C 
ATOM     41  C   UNL A   1      42.551  36.494  26.847  1.00  0.00     0.029 A 
ATOM     42  C   UNL A   1      42.380  37.487  27.892  1.00  0.00     0.049 A 
ATOM     43  H   UNL A   1      41.027  37.241  29.520  1.00  0.00     0.167 HD
ATOM     44  C   UNL A   1      44.364  31.319  27.359  1.00  0.00     0.031 A 
ATOM     45  C   UNL A   1      43.240  38.484  28.230  1.00  0.00     0.031 A 
ATOM     46  C   UNL A   1      44.890  32.458  26.586  1.00  0.00     0.049 A 
ATOM     47  C   UNL A   1      44.645  38.076  27.883  1.00  0.00     0.074 A 
ATOM     48  C   UNL A   1      44.524  33.036  25.381  1.00  0.00     0.029 A 
ATOM     49  N   UNL A   1      45.766  33.360  27.195  1.00  0.00    -0.354 N 
ATOM     50  N   UNL A   1      44.977  36.832  27.662  1.00  0.00    -0.248 NA
ATOM     51  C   UNL A   1      45.762  38.990  27.680  1.00  0.00     0.031 C 
ATOM     52  C   UNL A   1      45.137  34.319  25.302  1.00  0.00     0.029 A 
ATOM     53  C   UNL A   1      45.903  34.511  26.440  1.00  0.00     0.049 A 
ATOM     54  H   UNL A   1      46.226  33.197  28.050  1.00  0.00     0.167 HD
ATOM     55  C   UNL A   1      46.264  36.761  27.229  1.00  0.00     0.074 A 
ATOM     56  C   UNL A   1      46.729  38.138  27.286  1.00  0.00     0.031 C 
ATOM     57  C   UNL A   1      46.824  35.577  26.845  1.00  0.00     0.031 A 
BRANCH  44  58
ATOM     58  C   UNL A   1      44.281  29.897  26.820  1.00  0.00    -0.014 A 
ATOM     59  C   UNL A   1      43.031  29.319  26.512  1.00  0.00     0.010 A 
ATOM     60  C   UNL A   1      45.396  29.059  26.616  1.00  0.00     0.010 A 
ATOM     61  C   UNL A   1      42.902  27.978  26.099  1.00  0.00     0.020 A 
ATOM     62  C   UNL A   1      45.286  27.711  26.243  1.00  0.00     0.020 A 
ATOM     63  C   UNL A   1      44.034  27.174  25.984  1.00  0.00     0.054 A 
BRANCH  63  64
ATOM     64  S   UNL A   1      43.867  25.444  25.470  1.00  0.00     0.124 S 
ATOM     65  O   UNL A   1      43.798  24.737  26.747  1.00  0.00    -0.237 OA
ATOM     66  O   UNL A   1      42.630  25.467  24.694  1.00  0.00    -0.237 OA
ATOM     67  O   UNL A   1      45.080  25.193  24.693  1.00  0.00    -0.744 OA
ENDBRANCH  63  64
ENDBRANCH  44  58
BRANCH  45  68
ATOM     68  C   UNL A   1      42.730  39.325  29.359  1.00  0.00    -0.014 A 
ATOM     69  C   UNL A   1      43.528  39.336  30.531  1.00  0.00     0.010 A 
ATOM     70  C   UNL A   1      41.867  40.415  29.137  1.00  0.00     0.010 A 
ATOM     71  C   UNL A   1      43.594  40.466  31.356  1.00  0.00     0.020 A 
ATOM     72  C   UNL A   1      41.927  41.550  29.971  1.00  0.00     0.020 A 
ATOM     73  C   UNL A   1      42.831  41.589  31.039  1.00  0.00     0.054 A 
BRANCH  73  74
ATOM     74  S   UNL A   1      43.225  43.161  31.879  1.00  0.00     0.124 S 
ATOM     75  O   UNL A   1      42.425  43.076  33.096  1.00  0.00    -0.237 OA
ATOM     76  O   UNL A   1      44.671  43.064  32.074  1.00  0.00    -0.237 OA
ATOM     77  O   UNL A   1      42.806  44.175  30.916  1.00  0.00    -0.744 OA
ENDBRANCH  73  74
ENDBRANCH  45  68
BRANCH  57  78
ATOM     78  C   UNL A   1      48.304  35.324  26.735  1.00  0.00    -0.014 A 
ATOM     79  C   UNL A   1      49.184  35.373  27.827  1.00  0.00     0.010 A 
ATOM     80  C   UNL A   1      48.826  34.844  25.511  1.00  0.00     0.010 A 
ATOM     81  C   UNL A   1      50.525  35.001  27.696  1.00  0.00     0.020 A 
ATOM     82  C   UNL A   1      50.148  34.417  25.382  1.00  0.00     0.020 A 
ATOM     83  C   UNL A   1      50.997  34.518  26.477  1.00  0.00     0.054 A 
BRANCH  83  84
ATOM     84  S   UNL A   1      52.706  33.944  26.364  1.00  0.00     0.124 S 
ATOM     85  O   UNL A   1      53.440  35.085  26.903  1.00  0.00    -0.237 OA
ATOM     86  O   UNL A   1      52.700  32.748  27.205  1.00  0.00    -0.237 OA
ATOM     87  O   UNL A   1      52.894  33.693  24.938  1.00  0.00    -0.744 OA
ENDBRANCH  83  84
ENDBRANCH  57  78
ENDBRANCH  31  32
ENDBRANCH  24  26
ENDBRANCH  23  24
ENDBRANCH  22  23
ENDBRANCH   1  22
TORSDOF 19
ENDMDL
MODEL 3
REMARK VINA RESULT:     -10.5      1.454      2.136
REMARK SMILES Cc1ccc(Nc2nc(C(=O)OCCOCCOC(=O)c3ccc(-c4c5nc(c(-c6ccc(S(=O)(=O)[O-])cc6)c6ccc([nH]6)c(-c6ccc(S(=O)(=O)[O-])cc6)c6nc(c(-c7ccc(S(=O)(=O)[O-])cc7)c7ccc4[nH]7)C=C6)C=C5)cc3)cs2)cc1
REMARK SMILES IDX 16 1 15 2 14 3 13 4 12 5 10 6 11 7 9 8 7 9 8 10 82 11 81 12
REMARK SMILES IDX 6 13 5 15 1 16 2 17 3 18 84 19 4 20 83 21 17 22 18 23 19 24
REMARK SMILES IDX 20 25 21 26 22 27 80 28 23 29 79 30 24 31 25 32 26 33 73 34
REMARK SMILES IDX 27 35 78 36 72 37 74 38 28 39 77 40 71 41 70 42 29 44 59 45
REMARK SMILES IDX 40 46 58 47 41 48 44 49 57 50 75 51 42 52 43 53 56 55 76 56
REMARK SMILES IDX 45 57 30 58 31 59 39 60 32 61 38 62 33 63 34 64 35 65 36 66
REMARK SMILES IDX 37 67 60 68 61 69 69 70 62 71 68 72 63 73 64 74 65 75 66 76
REMARK SMILES IDX 67 77 46 78 47 79 55 80 48 81 54 82 49 83 50 84 51 85 52 86
REMARK SMILES IDX 53 87
REMARK H PARENT 6 14 74 43 44 54
REMARK Flexibility Score: inf
ROOT
ATOM      1  C   UNL A   1      31.636  30.230  25.645  1.00  0.00     0.202 C 
ENDROOT
BRANCH   1   2
ATOM      2  O   UNL A   1      31.233  29.612  24.431  1.00  0.00    -0.374 OA
BRANCH   2   3
ATOM      3  C   UNL A   1      31.431  28.198  24.388  1.00  0.00     0.202 C 
BRANCH   3   4
ATOM      4  C   UNL A   1      31.979  27.862  23.026  1.00  0.00     0.261 C 
BRANCH   4   5
ATOM      5  O   UNL A   1      31.926  26.460  22.754  1.00  0.00    -0.458 OA
BRANCH   5   6
ATOM      6  C   UNL A   1      33.095  25.810  22.502  1.00  0.00     0.357 C 
ATOM      7  O   UNL A   1      33.851  25.996  21.555  1.00  0.00    -0.244 OA
BRANCH   6   8
ATOM      8  C   UNL A   1      33.399  24.945  23.631  1.00  0.00     0.161 A 
ATOM      9  C   UNL A   1      32.977  23.190  24.937  1.00  0.00     0.187 A 
ATOM     10  N   UNL A   1      32.743  23.734  23.772  1.00  0.00    -0.213 NA
ATOM     11  S   UNL A   1      34.001  24.129  25.957  1.00  0.00    -0.104 S 
ATOM     12  C   UNL A   1      34.225  25.268  24.688  1.00  0.00     0.104 A 
BRANCH   9  13
ATOM     13  N   UNL A   1      32.463  22.004  25.330  1.00  0.00    -0.332 N 
ATOM     14  H   UNL A   1      31.644  22.016  25.877  1.00  0.00     0.169 HD
BRANCH  13  15
ATOM     15  C   UNL A   1      33.023  20.752  25.009  1.00  0.00     0.040 A 
ATOM     16  C   UNL A   1      34.701  16.833  24.271  1.00  0.00     0.044 C 
ATOM     17  C   UNL A   1      34.103  18.191  24.476  1.00  0.00    -0.051 A 
ATOM     18  C   UNL A   1      34.944  19.291  24.642  1.00  0.00     0.005 A 
ATOM     19  C   UNL A   1      32.718  18.389  24.503  1.00  0.00     0.005 A 
ATOM     20  C   UNL A   1      34.407  20.553  24.892  1.00  0.00     0.026 A 
ATOM     21  C   UNL A   1      32.185  19.658  24.763  1.00  0.00     0.026 A 
ENDBRANCH  13  15
ENDBRANCH   9  13
ENDBRANCH   6   8
ENDBRANCH   5   6
ENDBRANCH   4   5
ENDBRANCH   3   4
ENDBRANCH   2   3
ENDBRANCH   1   2
BRANCH   1  22
ATOM     22  C   UNL A   1      33.100  29.974  26.044  1.00  0.00     0.261 C 
BRANCH  22  23
ATOM     23  O   UNL A   1      33.293  30.336  27.421  1.00  0.00    -0.460 OA
BRANCH  23  24
ATOM     24  C   UNL A   1      34.347  31.170  27.654  1.00  0.00     0.338 C 
ATOM     25  O   UNL A   1      34.328  32.371  27.463  1.00  0.00    -0.246 OA
BRANCH  24  26
ATOM     26  C   UNL A   1      35.510  30.366  28.124  1.00  0.00     0.060 A 
ATOM     27  C   UNL A   1      35.575  29.887  29.445  1.00  0.00     0.016 A 
ATOM     28  C   UNL A   1      36.621  30.248  27.289  1.00  0.00     0.016 A 
ATOM     29  C   UNL A   1      36.784  29.371  29.950  1.00  0.00     0.010 A 
ATOM     30  C   UNL A   1      37.819  29.801  27.807  1.00  0.00     0.010 A 
ATOM     31  C   UNL A   1      37.920  29.370  29.140  1.00  0.00    -0.014 A 
BRANCH  31  32
ATOM     32  C   UNL A   1      39.297  29.094  29.569  1.00  0.00     0.031 A 
ATOM     33  C   UNL A   1      39.957  27.831  29.159  1.00  0.00     0.074 A 
ATOM     34  C   UNL A   1      40.072  30.096  30.047  1.00  0.00     0.049 A 
ATOM     35  N   UNL A   1      41.077  27.408  29.639  1.00  0.00    -0.248 NA
ATOM     36  C   UNL A   1      39.394  26.919  28.168  1.00  0.00     0.031 C 
ATOM     37  C   UNL A   1      41.529  30.197  30.010  1.00  0.00     0.029 A 
ATOM     38  N   UNL A   1      39.686  31.221  30.772  1.00  0.00    -0.354 N 
ATOM     39  C   UNL A   1      41.549  26.433  28.790  1.00  0.00     0.074 A 
ATOM     40  C   UNL A   1      40.419  26.089  27.961  1.00  0.00     0.031 C 
ATOM     41  C   UNL A   1      41.931  31.152  30.864  1.00  0.00     0.029 A 
ATOM     42  C   UNL A   1      40.757  31.609  31.587  1.00  0.00     0.049 A 
ATOM     43  H   UNL A   1      38.810  31.667  30.722  1.00  0.00     0.167 HD
ATOM     44  C   UNL A   1      42.883  26.143  28.782  1.00  0.00     0.031 A 
ATOM     45  C   UNL A   1      40.602  31.703  32.933  1.00  0.00     0.031 A 
ATOM     46  C   UNL A   1      43.613  26.926  29.794  1.00  0.00     0.049 A 
ATOM     47  C   UNL A   1      41.485  30.694  33.613  1.00  0.00     0.074 A 
ATOM     48  C   UNL A   1      44.506  27.982  29.715  1.00  0.00     0.029 A 
ATOM     49  N   UNL A   1      43.229  26.848  31.136  1.00  0.00    -0.354 N 
ATOM     50  N   UNL A   1      41.995  29.671  32.979  1.00  0.00    -0.248 NA
ATOM     51  C   UNL A   1      41.934  30.764  34.998  1.00  0.00     0.031 C 
ATOM     52  C   UNL A   1      44.605  28.576  31.005  1.00  0.00     0.029 A 
ATOM     53  C   UNL A   1      43.801  27.864  31.880  1.00  0.00     0.049 A 
ATOM     54  H   UNL A   1      42.630  26.158  31.503  1.00  0.00     0.167 HD
ATOM     55  C   UNL A   1      42.864  29.007  33.786  1.00  0.00     0.074 A 
ATOM     56  C   UNL A   1      42.770  29.709  35.056  1.00  0.00     0.031 C 
ATOM     57  C   UNL A   1      43.595  27.949  33.329  1.00  0.00     0.031 A 
BRANCH  44  58
ATOM     58  C   UNL A   1      43.565  25.349  27.675  1.00  0.00    -0.014 A 
ATOM     59  C   UNL A   1      44.486  24.327  27.989  1.00  0.00     0.010 A 
ATOM     60  C   UNL A   1      43.363  25.573  26.298  1.00  0.00     0.010 A 
ATOM     61  C   UNL A   1      45.206  23.631  26.998  1.00  0.00     0.020 A 
ATOM     62  C   UNL A   1      44.098  24.917  25.298  1.00  0.00     0.020 A 
ATOM     63  C   UNL A   1      45.019  23.944  25.654  1.00  0.00     0.054 A 
BRANCH  63  64
ATOM     64  S   UNL A   1      45.958  23.062  24.379  1.00  0.00     0.124 S 
ATOM     65  O   UNL A   1      46.451  21.891  25.099  1.00  0.00    -0.237 OA
ATOM     66  O   UNL A   1      44.940  22.798  23.366  1.00  0.00    -0.237 OA
ATOM     67  O   UNL A   1      46.991  24.019  23.983  1.00  0.00    -0.744 OA
ENDBRANCH  63  64
ENDBRANCH  44  58
BRANCH  45  68
ATOM     68  C   UNL A   1      39.253  32.223  33.322  1.00  0.00    -0.014 A 
ATOM     69  C   UNL A   1      39.001  33.582  33.005  1.00  0.00     0.010 A 
ATOM     70  C   UNL A   1      38.148  31.366  33.481  1.00  0.00     0.010 A 
ATOM     71  C   UNL A   1      37.711  34.028  32.687  1.00  0.00     0.020 A 
ATOM     72  C   UNL A   1      36.849  31.815  33.168  1.00  0.00     0.020 A 
ATOM     73  C   UNL A   1      36.649  33.126  32.719  1.00  0.00     0.054 A 
BRANCH  73  74
ATOM     74  S   UNL A   1      35.078  33.619  31.930  1.00  0.00     0.124 S 
ATOM     75  O   UNL A   1      35.404  33.546  30.510  1.00  0.00    -0.237 OA
ATOM     76  O   UNL A   1      34.148  32.597  32.411  1.00  0.00    -0.237 OA
ATOM     77  O   UNL A   1      34.838  34.958  32.457  1.00  0.00    -0.744 OA
ENDBRANCH  73  74
ENDBRANCH  45  68
BRANCH  57  78
ATOM     78  C   UNL A   1      44.263  26.925  34.207  1.00  0.00    -0.014 A 
ATOM     79  C   UNL A   1      45.448  27.165  34.919  1.00  0.00     0.010 A 
ATOM     80  C   UNL A   1      43.586  25.712  34.478  1.00  0.00     0.010 A 
ATOM     81  C   UNL A   1      45.956  26.227  35.823  1.00  0.00     0.020 A 
ATOM     82  C   UNL A   1      44.053  24.794  35.420  1.00  0.00     0.020 A 
ATOM     83  C   UNL A   1      45.251  25.052  36.074  1.00  0.00     0.054 A 
BRANCH  83  84
ATOM     84  S   UNL A   1      45.874  23.908  37.325  1.00  0.00     0.124 S 
ATOM     85  O   UNL A   1      45.183  24.372  38.525  1.00  0.00    -0.237 OA
ATOM     86  O   UNL A   1      45.442  22.607  36.816  1.00  0.00    -0.237 OA
ATOM     87  O   UNL A   1      47.317  24.127  37.307  1.00  0.00    -0.744 OA
ENDBRANCH  83  84
ENDBRANCH  57  78
ENDBRANCH  31  32
ENDBRANCH  24  26
ENDBRANCH  23  24
ENDBRANCH  22  23
ENDBRANCH   1  22
TORSDOF 19
ENDMDL
