MODEL 1
REMARK VINA RESULT:     -11.2      0.000      0.000
REMARK SMILES [NH3+][C@H]1CN(C(=O)OCC2c3ccccc3-c3ccccc32)C[C@@H]1C(=O)OCCOCCOC(=O)c1ccc(-c2c3nc(c(-c4ccc(S(=O)(=O)[O-])cc4)c4ccc([nH]4)c(-c4ccc(S(=O)(=O)[O-])cc4)c4nc(c(-c5ccc(S(=O)(=O)[O-])cc5)c5ccc2[nH]5)C=C4)C=C3)cc1
REMARK SMILES IDX 28 1 27 2 26 3 24 4 25 5 23 6 2 7 3 8 4 9 22 10 1 11 5 15
REMARK SMILES IDX 6 16 7 17 8 18 9 19 10 20 21 21 11 22 15 23 16 24 20 25
REMARK SMILES IDX 12 26 14 27 17 28 19 29 13 30 18 31 29 32 30 33 31 34 32 35
REMARK SMILES IDX 33 36 34 37 35 38 36 39 94 40 37 41 93 42 38 43 39 44 40 45
REMARK SMILES IDX 87 46 41 47 92 48 86 49 88 50 42 51 91 52 85 53 84 54 43 56
REMARK SMILES IDX 73 57 54 58 72 59 55 60 58 61 71 62 89 63 56 64 57 65 70 67
REMARK SMILES IDX 90 68 59 69 44 70 45 71 53 72 46 73 52 74 47 75 48 76 49 77
REMARK SMILES IDX 50 78 51 79 74 80 75 81 83 82 76 83 82 84 77 85 78 86 79 87
REMARK SMILES IDX 80 88 81 89 60 90 61 91 69 92 62 93 68 94 63 95 64 96 65 97
REMARK SMILES IDX 66 98 67 99
REMARK H PARENT 1 12 1 13 1 14 88 55 58 66
REMARK Flexibility Score: inf
ROOT
ATOM      1  C   UNL A   1      33.339  30.843  27.494  1.00  0.00     0.202 C 
ENDROOT
BRANCH   1   2
ATOM      2  C   UNL A   1      33.172  30.044  26.199  1.00  0.00     0.261 C 
BRANCH   2   3
ATOM      3  O   UNL A   1      31.807  29.652  25.955  1.00  0.00    -0.463 OA
BRANCH   3   4
ATOM      4  C   UNL A   1      31.633  28.670  25.034  1.00  0.00     0.316 C 
ATOM      5  O   UNL A   1      31.274  27.526  25.290  1.00  0.00    -0.252 OA
BRANCH   4   6
ATOM      6  C   UNL A   1      31.934  29.103  23.617  1.00  0.00     0.178 C 
ATOM      7  C   UNL A   1      30.724  28.888  22.702  1.00  0.00     0.216 C 
ATOM      8  C   UNL A   1      30.978  27.483  22.105  1.00  0.00     0.188 C 
ATOM      9  N   UNL A   1      32.422  27.321  22.143  1.00  0.00    -0.301 N 
ATOM     10  C   UNL A   1      33.060  28.357  22.922  1.00  0.00     0.145 C 
BRANCH   7  11
ATOM     11  N   UNL A   1      30.691  29.916  21.644  1.00  0.00    -0.353 N 
ATOM     12  H   UNL A   1      29.729  30.053  21.331  1.00  0.00     0.344 HD
ATOM     13  H   UNL A   1      31.265  29.612  20.856  1.00  0.00     0.344 HD
ATOM     14  H   UNL A   1      31.058  30.794  22.011  1.00  0.00     0.344 HD
ENDBRANCH   7  11
BRANCH   9  15
ATOM     15  C   UNL A   1      33.150  26.286  21.625  1.00  0.00     0.410 C 
ATOM     16  O   UNL A   1      32.952  25.850  20.494  1.00  0.00    -0.224 OA
BRANCH  15  17
ATOM     17  O   UNL A   1      34.084  25.792  22.480  1.00  0.00    -0.448 OA
BRANCH  17  18
ATOM     18  C   UNL A   1      33.818  24.456  22.982  1.00  0.00     0.248 C 
BRANCH  18  19
ATOM     19  C   UNL A   1      34.437  24.250  24.375  1.00  0.00     0.088 C 
ATOM     20  C   UNL A   1      33.458  23.833  25.475  1.00  0.00    -0.029 A 
ATOM     21  C   UNL A   1      35.462  23.117  24.443  1.00  0.00    -0.029 A 
ATOM     22  C   UNL A   1      32.267  24.432  25.863  1.00  0.00     0.005 A 
ATOM     23  C   UNL A   1      33.955  22.710  26.169  1.00  0.00    -0.014 A 
ATOM     24  C   UNL A   1      35.174  22.265  25.532  1.00  0.00    -0.014 A 
ATOM     25  C   UNL A   1      36.558  22.886  23.625  1.00  0.00     0.005 A 
ATOM     26  C   UNL A   1      31.579  23.908  26.959  1.00  0.00     0.000 A 
ATOM     27  C   UNL A   1      33.277  22.194  27.264  1.00  0.00     0.009 A 
ATOM     28  C   UNL A   1      35.991  21.185  25.823  1.00  0.00     0.009 A 
ATOM     29  C   UNL A   1      37.373  21.786  23.910  1.00  0.00     0.000 A 
ATOM     30  C   UNL A   1      32.084  22.804  27.660  1.00  0.00     0.001 A 
ATOM     31  C   UNL A   1      37.098  20.949  25.003  1.00  0.00     0.001 A 
ENDBRANCH  18  19
ENDBRANCH  17  18
ENDBRANCH  15  17
ENDBRANCH   9  15
ENDBRANCH   4   6
ENDBRANCH   3   4
ENDBRANCH   2   3
ENDBRANCH   1   2
BRANCH   1  32
ATOM     32  O   UNL A   1      34.469  31.704  27.611  1.00  0.00    -0.374 OA
BRANCH  32  33
ATOM     33  C   UNL A   1      34.813  32.184  28.907  1.00  0.00     0.202 C 
BRANCH  33  34
ATOM     34  C   UNL A   1      36.023  31.562  29.623  1.00  0.00     0.261 C 
BRANCH  34  35
ATOM     35  O   UNL A   1      36.438  30.302  29.070  1.00  0.00    -0.460 OA
BRANCH  35  36
ATOM     36  C   UNL A   1      37.085  29.491  29.945  1.00  0.00     0.338 C 
ATOM     37  O   UNL A   1      36.647  29.037  30.989  1.00  0.00    -0.246 OA
BRANCH  36  38
ATOM     38  C   UNL A   1      38.369  29.044  29.375  1.00  0.00     0.060 A 
ATOM     39  C   UNL A   1      39.278  28.420  30.238  1.00  0.00     0.016 A 
ATOM     40  C   UNL A   1      38.724  29.330  28.057  1.00  0.00     0.016 A 
ATOM     41  C   UNL A   1      40.566  28.123  29.799  1.00  0.00     0.010 A 
ATOM     42  C   UNL A   1      40.018  29.029  27.616  1.00  0.00     0.010 A 
ATOM     43  C   UNL A   1      40.959  28.462  28.497  1.00  0.00    -0.014 A 
BRANCH  43  44
ATOM     44  C   UNL A   1      42.390  28.357  28.116  1.00  0.00     0.031 A 
ATOM     45  C   UNL A   1      43.302  29.534  28.347  1.00  0.00     0.074 A 
ATOM     46  C   UNL A   1      42.887  27.210  27.615  1.00  0.00     0.049 A 
ATOM     47  N   UNL A   1      44.574  29.663  28.072  1.00  0.00    -0.248 NA
ATOM     48  C   UNL A   1      42.698  30.724  28.970  1.00  0.00     0.031 C 
ATOM     49  C   UNL A   1      42.121  25.983  27.394  1.00  0.00     0.029 A 
ATOM     50  N   UNL A   1      44.157  26.892  27.203  1.00  0.00    -0.354 N 
ATOM     51  C   UNL A   1      44.921  30.948  28.475  1.00  0.00     0.074 A 
ATOM     52  C   UNL A   1      43.717  31.569  28.984  1.00  0.00     0.031 C 
ATOM     53  C   UNL A   1      42.938  25.046  26.883  1.00  0.00     0.029 A 
ATOM     54  C   UNL A   1      44.271  25.617  26.702  1.00  0.00     0.049 A 
ATOM     55  H   UNL A   1      44.914  27.518  27.259  1.00  0.00     0.167 HD
ATOM     56  C   UNL A   1      46.131  31.555  28.432  1.00  0.00     0.031 A 
ATOM     57  C   UNL A   1      45.322  24.987  26.139  1.00  0.00     0.031 A 
ATOM     58  C   UNL A   1      47.325  30.936  27.914  1.00  0.00     0.049 A 
ATOM     59  C   UNL A   1      46.640  25.710  26.027  1.00  0.00     0.074 A 
ATOM     60  C   UNL A   1      48.603  31.463  27.839  1.00  0.00     0.029 A 
ATOM     61  N   UNL A   1      47.388  29.659  27.376  1.00  0.00    -0.354 N 
ATOM     62  N   UNL A   1      46.956  26.918  26.431  1.00  0.00    -0.248 NA
ATOM     63  C   UNL A   1      47.745  24.980  25.390  1.00  0.00     0.031 C 
ATOM     64  C   UNL A   1      49.422  30.531  27.195  1.00  0.00     0.029 A 
ATOM     65  C   UNL A   1      48.674  29.393  26.938  1.00  0.00     0.049 A 
ATOM     66  H   UNL A   1      46.629  29.034  27.314  1.00  0.00     0.167 HD
ATOM     67  C   UNL A   1      48.304  27.081  26.125  1.00  0.00     0.074 A 
ATOM     68  C   UNL A   1      48.745  25.842  25.517  1.00  0.00     0.031 C 
ATOM     69  C   UNL A   1      49.103  28.157  26.333  1.00  0.00     0.031 A 
BRANCH  56  70
ATOM     70  C   UNL A   1      46.220  32.978  28.923  1.00  0.00    -0.014 A 
ATOM     71  C   UNL A   1      46.471  33.272  30.277  1.00  0.00     0.010 A 
ATOM     72  C   UNL A   1      46.094  34.039  28.008  1.00  0.00     0.010 A 
ATOM     73  C   UNL A   1      46.556  34.599  30.709  1.00  0.00     0.020 A 
ATOM     74  C   UNL A   1      46.209  35.366  28.430  1.00  0.00     0.020 A 
ATOM     75  C   UNL A   1      46.423  35.638  29.783  1.00  0.00     0.054 A 
BRANCH  75  76
ATOM     76  S   UNL A   1      46.563  37.349  30.368  1.00  0.00     0.124 S 
ATOM     77  O   UNL A   1      47.979  37.432  30.721  1.00  0.00    -0.237 OA
ATOM     78  O   UNL A   1      46.163  38.121  29.195  1.00  0.00    -0.237 OA
ATOM     79  O   UNL A   1      45.638  37.409  31.497  1.00  0.00    -0.744 OA
ENDBRANCH  75  76
ENDBRANCH  56  70
BRANCH  57  80
ATOM     80  C   UNL A   1      45.166  23.602  25.616  1.00  0.00    -0.014 A 
ATOM     81  C   UNL A   1      44.787  23.371  24.282  1.00  0.00     0.010 A 
ATOM     82  C   UNL A   1      45.397  22.498  26.460  1.00  0.00     0.010 A 
ATOM     83  C   UNL A   1      44.626  22.066  23.807  1.00  0.00     0.020 A 
ATOM     84  C   UNL A   1      45.270  21.193  25.979  1.00  0.00     0.020 A 
ATOM     85  C   UNL A   1      44.874  20.985  24.658  1.00  0.00     0.054 A 
BRANCH  85  86
ATOM     86  S   UNL A   1      44.711  19.301  24.003  1.00  0.00     0.124 S 
ATOM     87  O   UNL A   1      44.453  19.547  22.588  1.00  0.00    -0.237 OA
ATOM     88  O   UNL A   1      46.011  18.715  24.319  1.00  0.00    -0.237 OA
ATOM     89  O   UNL A   1      43.588  18.747  24.758  1.00  0.00    -0.744 OA
ENDBRANCH  85  86
ENDBRANCH  57  80
BRANCH  69  90
ATOM     90  C   UNL A   1      50.553  28.035  25.938  1.00  0.00    -0.014 A 
ATOM     91  C   UNL A   1      51.530  27.592  26.848  1.00  0.00     0.010 A 
ATOM     92  C   UNL A   1      50.934  28.316  24.612  1.00  0.00     0.010 A 
ATOM     93  C   UNL A   1      52.864  27.467  26.449  1.00  0.00     0.020 A 
ATOM     94  C   UNL A   1      52.260  28.159  24.200  1.00  0.00     0.020 A 
ATOM     95  C   UNL A   1      53.220  27.750  25.126  1.00  0.00     0.054 A 
BRANCH  95  96
ATOM     96  S   UNL A   1      54.950  27.538  24.624  1.00  0.00     0.124 S 
ATOM     97  O   UNL A   1      55.241  28.817  23.985  1.00  0.00    -0.237 OA
ATOM     98  O   UNL A   1      55.625  27.302  25.897  1.00  0.00    -0.237 OA
ATOM     99  O   UNL A   1      54.912  26.387  23.723  1.00  0.00    -0.744 OA
ENDBRANCH  95  96
ENDBRANCH  69  90
ENDBRANCH  43  44
ENDBRANCH  36  38
ENDBRANCH  35  36
ENDBRANCH  34  35
ENDBRANCH  33  34
ENDBRANCH  32  33
ENDBRANCH   1  32
TORSDOF 22
ENDMDL
MODEL 2
REMARK VINA RESULT:     -11.1      2.020      2.858
REMARK SMILES [NH3+][C@H]1CN(C(=O)OCC2c3ccccc3-c3ccccc32)C[C@@H]1C(=O)OCCOCCOC(=O)c1ccc(-c2c3nc(c(-c4ccc(S(=O)(=O)[O-])cc4)c4ccc([nH]4)c(-c4ccc(S(=O)(=O)[O-])cc4)c4nc(c(-c5ccc(S(=O)(=O)[O-])cc5)c5ccc2[nH]5)C=C4)C=C3)cc1
REMARK SMILES IDX 28 1 27 2 26 3 24 4 25 5 23 6 2 7 3 8 4 9 22 10 1 11 5 15
REMARK SMILES IDX 6 16 7 17 8 18 9 19 10 20 21 21 11 22 15 23 16 24 20 25
REMARK SMILES IDX 12 26 14 27 17 28 19 29 13 30 18 31 29 32 30 33 31 34 32 35
REMARK SMILES IDX 33 36 34 37 35 38 36 39 94 40 37 41 93 42 38 43 39 44 40 45
REMARK SMILES IDX 87 46 41 47 92 48 86 49 88 50 42 51 91 52 85 53 84 54 43 56
REMARK SMILES IDX 73 57 54 58 72 59 55 60 58 61 71 62 89 63 56 64 57 65 70 67
REMARK SMILES IDX 90 68 59 69 44 70 45 71 53 72 46 73 52 74 47 75 48 76 49 77
REMARK SMILES IDX 50 78 51 79 74 80 75 81 83 82 76 83 82 84 77 85 78 86 79 87
REMARK SMILES IDX 80 88 81 89 60 90 61 91 69 92 62 93 68 94 63 95 64 96 65 97
REMARK SMILES IDX 66 98 67 99
REMARK H PARENT 1 12 1 13 1 14 88 55 58 66
REMARK Flexibility Score: inf
ROOT
ATOM      1  C   UNL A   1      31.969  29.963  26.119  1.00  0.00     0.202 C 
ENDROOT
BRANCH   1   2
ATOM      2  C   UNL A   1      31.695  29.130  24.864  1.00  0.00     0.261 C 
BRANCH   2   3
ATOM      3  O   UNL A   1      31.183  27.817  25.163  1.00  0.00    -0.463 OA
BRANCH   3   4
ATOM      4  C   UNL A   1      30.582  27.171  24.132  1.00  0.00     0.316 C 
ATOM      5  O   UNL A   1      30.292  27.684  23.057  1.00  0.00    -0.252 OA
BRANCH   4   6
ATOM      6  C   UNL A   1      30.276  25.718  24.420  1.00  0.00     0.178 C 
ATOM      7  C   UNL A   1      30.897  25.272  25.748  1.00  0.00     0.216 C 
ATOM      8  C   UNL A   1      32.263  24.683  25.319  1.00  0.00     0.188 C 
ATOM      9  N   UNL A   1      32.060  24.241  23.949  1.00  0.00    -0.301 N 
ATOM     10  C   UNL A   1      30.807  24.716  23.409  1.00  0.00     0.145 C 
BRANCH   7  11
ATOM     11  N   UNL A   1      30.055  24.245  26.390  1.00  0.00    -0.353 N 
ATOM     12  H   UNL A   1      29.749  24.578  27.305  1.00  0.00     0.344 HD
ATOM     13  H   UNL A   1      30.593  23.385  26.503  1.00  0.00     0.344 HD
ATOM     14  H   UNL A   1      29.239  24.060  25.805  1.00  0.00     0.344 HD
ENDBRANCH   7  11
BRANCH   9  15
ATOM     15  C   UNL A   1      32.944  23.551  23.165  1.00  0.00     0.410 C 
ATOM     16  O   UNL A   1      33.657  24.112  22.337  1.00  0.00    -0.224 OA
BRANCH  15  17
ATOM     17  O   UNL A   1      32.936  22.210  23.382  1.00  0.00    -0.448 OA
BRANCH  17  18
ATOM     18  C   UNL A   1      32.373  21.793  24.653  1.00  0.00     0.248 C 
BRANCH  18  19
ATOM     19  C   UNL A   1      33.335  20.863  25.411  1.00  0.00     0.088 C 
ATOM     20  C   UNL A   1      33.457  19.443  24.852  1.00  0.00    -0.029 A 
ATOM     21  C   UNL A   1      34.795  21.319  25.388  1.00  0.00    -0.029 A 
ATOM     22  C   UNL A   1      32.457  18.523  24.569  1.00  0.00     0.005 A 
ATOM     23  C   UNL A   1      34.816  19.099  24.690  1.00  0.00    -0.014 A 
ATOM     24  C   UNL A   1      35.633  20.248  25.009  1.00  0.00    -0.014 A 
ATOM     25  C   UNL A   1      35.322  22.563  25.701  1.00  0.00     0.005 A 
ATOM     26  C   UNL A   1      32.823  17.248  24.134  1.00  0.00     0.000 A 
ATOM     27  C   UNL A   1      35.181  17.829  24.268  1.00  0.00     0.009 A 
ATOM     28  C   UNL A   1      37.008  20.408  24.955  1.00  0.00     0.009 A 
ATOM     29  C   UNL A   1      36.709  22.728  25.631  1.00  0.00     0.000 A 
ATOM     30  C   UNL A   1      34.175  16.900  23.994  1.00  0.00     0.001 A 
ATOM     31  C   UNL A   1      37.544  21.659  25.271  1.00  0.00     0.001 A 
ENDBRANCH  18  19
ENDBRANCH  17  18
ENDBRANCH  15  17
ENDBRANCH   9  15
ENDBRANCH   4   6
ENDBRANCH   3   4
ENDBRANCH   2   3
ENDBRANCH   1   2
BRANCH   1  32
ATOM     32  O   UNL A   1      33.316  30.337  26.396  1.00  0.00    -0.374 OA
BRANCH  32  33
ATOM     33  C   UNL A   1      33.597  30.945  27.653  1.00  0.00     0.202 C 
BRANCH  33  34
ATOM     34  C   UNL A   1      35.059  31.018  28.123  1.00  0.00     0.261 C 
BRANCH  34  35
ATOM     35  O   UNL A   1      35.589  29.758  28.565  1.00  0.00    -0.460 OA
BRANCH  35  36
ATOM     36  C   UNL A   1      36.316  29.826  29.709  1.00  0.00     0.338 C 
ATOM     37  O   UNL A   1      35.894  29.770  30.853  1.00  0.00    -0.246 OA
BRANCH  36  38
ATOM     38  C   UNL A   1      37.757  29.780  29.404  1.00  0.00     0.060 A 
ATOM     39  C   UNL A   1      38.130  29.610  28.065  1.00  0.00     0.016 A 
ATOM     40  C   UNL A   1      38.720  29.787  30.413  1.00  0.00     0.016 A 
ATOM     41  C   UNL A   1      39.466  29.397  27.734  1.00  0.00     0.010 A 
ATOM     42  C   UNL A   1      40.063  29.575  30.079  1.00  0.00     0.010 A 
ATOM     43  C   UNL A   1      40.437  29.337  28.742  1.00  0.00    -0.014 A 
BRANCH  43  44
ATOM     44  C   UNL A   1      41.810  28.881  28.407  1.00  0.00     0.031 A 
ATOM     45  C   UNL A   1      42.940  29.877  28.419  1.00  0.00     0.074 A 
ATOM     46  C   UNL A   1      42.060  27.584  28.142  1.00  0.00     0.049 A 
ATOM     47  N   UNL A   1      44.206  29.699  28.141  1.00  0.00    -0.248 NA
ATOM     48  C   UNL A   1      42.597  31.259  28.796  1.00  0.00     0.031 C 
ATOM     49  C   UNL A   1      41.063  26.513  28.150  1.00  0.00     0.029 A 
ATOM     50  N   UNL A   1      43.232  26.950  27.814  1.00  0.00    -0.354 N 
ATOM     51  C   UNL A   1      44.807  30.943  28.295  1.00  0.00     0.074 A 
ATOM     52  C   UNL A   1      43.762  31.874  28.660  1.00  0.00     0.031 C 
ATOM     53  C   UNL A   1      41.667  25.354  27.839  1.00  0.00     0.029 A 
ATOM     54  C   UNL A   1      43.082  25.606  27.569  1.00  0.00     0.049 A 
ATOM     55  H   UNL A   1      44.099  27.414  27.759  1.00  0.00     0.167 HD
ATOM     56  C   UNL A   1      46.112  31.280  28.152  1.00  0.00     0.031 A 
ATOM     57  C   UNL A   1      43.975  24.686  27.151  1.00  0.00     0.031 A 
ATOM     58  C   UNL A   1      47.147  30.351  27.778  1.00  0.00     0.049 A 
ATOM     59  C   UNL A   1      45.405  25.101  26.919  1.00  0.00     0.074 A 
ATOM     60  C   UNL A   1      48.502  30.592  27.620  1.00  0.00     0.029 A 
ATOM     61  N   UNL A   1      46.946  29.008  27.495  1.00  0.00    -0.354 N 
ATOM     62  N   UNL A   1      45.961  26.277  27.088  1.00  0.00    -0.248 NA
ATOM     63  C   UNL A   1      46.330  24.060  26.449  1.00  0.00     0.031 C 
ATOM     64  C   UNL A   1      49.106  29.411  27.177  1.00  0.00     0.029 A 
ATOM     65  C   UNL A   1      48.143  28.416  27.134  1.00  0.00     0.049 A 
ATOM     66  H   UNL A   1      46.078  28.545  27.545  1.00  0.00     0.167 HD
ATOM     67  C   UNL A   1      47.307  26.110  26.774  1.00  0.00     0.074 A 
ATOM     68  C   UNL A   1      47.482  24.716  26.421  1.00  0.00     0.031 C 
ATOM     69  C   UNL A   1      48.307  27.027  26.782  1.00  0.00     0.031 A 
BRANCH  56  70
ATOM     70  C   UNL A   1      46.490  32.724  28.363  1.00  0.00    -0.014 A 
ATOM     71  C   UNL A   1      46.903  33.199  29.622  1.00  0.00     0.010 A 
ATOM     72  C   UNL A   1      46.473  33.614  27.272  1.00  0.00     0.010 A 
ATOM     73  C   UNL A   1      47.255  34.541  29.793  1.00  0.00     0.020 A 
ATOM     74  C   UNL A   1      46.855  34.949  27.432  1.00  0.00     0.020 A 
ATOM     75  C   UNL A   1      47.228  35.408  28.696  1.00  0.00     0.054 A 
BRANCH  75  76
ATOM     76  S   UNL A   1      47.714  37.138  28.943  1.00  0.00     0.124 S 
ATOM     77  O   UNL A   1      47.439  37.718  27.630  1.00  0.00    -0.237 OA
ATOM     78  O   UNL A   1      46.825  37.569  30.017  1.00  0.00    -0.237 OA
ATOM     79  O   UNL A   1      49.128  37.055  29.300  1.00  0.00    -0.744 OA
ENDBRANCH  75  76
ENDBRANCH  56  70
BRANCH  57  80
ATOM     80  C   UNL A   1      43.538  23.285  26.901  1.00  0.00    -0.014 A 
ATOM     81  C   UNL A   1      43.403  22.792  25.591  1.00  0.00     0.010 A 
ATOM     82  C   UNL A   1      43.250  22.431  27.984  1.00  0.00     0.010 A 
ATOM     83  C   UNL A   1      42.974  21.480  25.369  1.00  0.00     0.020 A 
ATOM     84  C   UNL A   1      42.853  21.110  27.765  1.00  0.00     0.020 A 
ATOM     85  C   UNL A   1      42.707  20.645  26.458  1.00  0.00     0.054 A 
BRANCH  85  86
ATOM     86  S   UNL A   1      42.204  18.931  26.144  1.00  0.00     0.124 S 
ATOM     87  O   UNL A   1      42.441  18.302  27.439  1.00  0.00    -0.237 OA
ATOM     88  O   UNL A   1      40.803  19.082  25.759  1.00  0.00    -0.237 OA
ATOM     89  O   UNL A   1      43.095  18.504  25.068  1.00  0.00    -0.744 OA
ENDBRANCH  85  86
ENDBRANCH  57  80
BRANCH  69  90
ATOM     90  C   UNL A   1      49.695  26.549  26.437  1.00  0.00    -0.014 A 
ATOM     91  C   UNL A   1      50.519  25.927  27.391  1.00  0.00     0.010 A 
ATOM     92  C   UNL A   1      50.159  26.676  25.114  1.00  0.00     0.010 A 
ATOM     93  C   UNL A   1      51.793  25.473  27.038  1.00  0.00     0.020 A 
ATOM     94  C   UNL A   1      51.419  26.192  24.748  1.00  0.00     0.020 A 
ATOM     95  C   UNL A   1      52.234  25.608  25.718  1.00  0.00     0.054 A 
BRANCH  95  96
ATOM     96  S   UNL A   1      53.874  24.971  25.277  1.00  0.00     0.124 S 
ATOM     97  O   UNL A   1      53.629  23.534  25.189  1.00  0.00    -0.237 OA
ATOM     98  O   UNL A   1      54.147  25.641  24.009  1.00  0.00    -0.237 OA
ATOM     99  O   UNL A   1      54.721  25.390  26.392  1.00  0.00    -0.744 OA
ENDBRANCH  95  96
ENDBRANCH  69  90
ENDBRANCH  43  44
ENDBRANCH  36  38
ENDBRANCH  35  36
ENDBRANCH  34  35
ENDBRANCH  33  34
ENDBRANCH  32  33
ENDBRANCH   1  32
TORSDOF 22
ENDMDL
MODEL 3
REMARK VINA RESULT:     -11.0      1.617      8.005
REMARK SMILES [NH3+][C@H]1CN(C(=O)OCC2c3ccccc3-c3ccccc32)C[C@@H]1C(=O)OCCOCCOC(=O)c1ccc(-c2c3nc(c(-c4ccc(S(=O)(=O)[O-])cc4)c4ccc([nH]4)c(-c4ccc(S(=O)(=O)[O-])cc4)c4nc(c(-c5ccc(S(=O)(=O)[O-])cc5)c5ccc2[nH]5)C=C4)C=C3)cc1
REMARK SMILES IDX 28 1 27 2 26 3 24 4 25 5 23 6 2 7 3 8 4 9 22 10 1 11 5 15
REMARK SMILES IDX 6 16 7 17 8 18 9 19 10 20 21 21 11 22 15 23 16 24 20 25
REMARK SMILES IDX 12 26 14 27 17 28 19 29 13 30 18 31 29 32 30 33 31 34 32 35
REMARK SMILES IDX 33 36 34 37 35 38 36 39 94 40 37 41 93 42 38 43 39 44 40 45
REMARK SMILES IDX 87 46 41 47 92 48 86 49 88 50 42 51 91 52 85 53 84 54 43 56
REMARK SMILES IDX 73 57 54 58 72 59 55 60 58 61 71 62 89 63 56 64 57 65 70 67
REMARK SMILES IDX 90 68 59 69 44 70 45 71 53 72 46 73 52 74 47 75 48 76 49 77
REMARK SMILES IDX 50 78 51 79 74 80 75 81 83 82 76 83 82 84 77 85 78 86 79 87
REMARK SMILES IDX 80 88 81 89 60 90 61 91 69 92 62 93 68 94 63 95 64 96 65 97
REMARK SMILES IDX 66 98 67 99
REMARK H PARENT 1 12 1 13 1 14 88 55 58 66
REMARK Flexibility Score: inf
ROOT
ATOM      1  C   UNL A   1      33.036  30.415  26.842  1.00  0.00     0.202 C 
ENDROOT
BRANCH   1   2
ATOM      2  C   UNL A   1      31.956  29.341  27.001  1.00  0.00     0.261 C 
BRANCH   2   3
ATOM      3  O   UNL A   1      31.608  28.709  25.754  1.00  0.00    -0.463 OA
BRANCH   3   4
ATOM      4  C   UNL A   1      32.649  28.235  25.024  1.00  0.00     0.316 C 
ATOM      5  O   UNL A   1      33.529  27.499  25.455  1.00  0.00    -0.252 OA
BRANCH   4   6
ATOM      6  C   UNL A   1      32.650  28.706  23.587  1.00  0.00     0.178 C 
ATOM      7  C   UNL A   1      31.246  28.629  22.976  1.00  0.00     0.216 C 
ATOM      8  C   UNL A   1      31.232  27.236  22.301  1.00  0.00     0.188 C 
ATOM      9  N   UNL A   1      32.625  26.960  21.995  1.00  0.00    -0.301 N 
ATOM     10  C   UNL A   1      33.514  27.907  22.628  1.00  0.00     0.145 C 
BRANCH   7  11
ATOM     11  N   UNL A   1      31.058  29.702  21.982  1.00  0.00    -0.353 N 
ATOM     12  H   UNL A   1      31.953  30.159  21.801  1.00  0.00     0.344 HD
ATOM     13  H   UNL A   1      30.394  30.388  22.343  1.00  0.00     0.344 HD
ATOM     14  H   UNL A   1      30.698  29.304  21.115  1.00  0.00     0.344 HD
ENDBRANCH   7  11
BRANCH   9  15
ATOM     15  C   UNL A   1      33.122  25.895  21.294  1.00  0.00     0.410 C 
ATOM     16  O   UNL A   1      32.946  25.770  20.085  1.00  0.00    -0.224 OA
BRANCH  15  17
ATOM     17  O   UNL A   1      33.801  25.003  22.062  1.00  0.00    -0.448 OA
BRANCH  17  18
ATOM     18  C   UNL A   1      33.328  23.633  21.982  1.00  0.00     0.248 C 
BRANCH  18  19
ATOM     19  C   UNL A   1      33.470  22.914  23.334  1.00  0.00     0.088 C 
ATOM     20  C   UNL A   1      34.859  22.981  23.974  1.00  0.00    -0.029 A 
ATOM     21  C   UNL A   1      32.600  23.498  24.448  1.00  0.00    -0.029 A 
ATOM     22  C   UNL A   1      36.092  22.647  23.430  1.00  0.00     0.005 A 
ATOM     23  C   UNL A   1      34.757  23.396  25.318  1.00  0.00    -0.014 A 
ATOM     24  C   UNL A   1      33.378  23.722  25.606  1.00  0.00    -0.014 A 
ATOM     25  C   UNL A   1      31.242  23.779  24.435  1.00  0.00     0.005 A 
ATOM     26  C   UNL A   1      37.225  22.718  24.243  1.00  0.00     0.000 A 
ATOM     27  C   UNL A   1      35.880  23.457  26.130  1.00  0.00     0.009 A 
ATOM     28  C   UNL A   1      32.799  24.212  26.765  1.00  0.00     0.009 A 
ATOM     29  C   UNL A   1      30.663  24.289  25.600  1.00  0.00     0.000 A 
ATOM     30  C   UNL A   1      37.118  23.111  25.585  1.00  0.00     0.001 A 
ATOM     31  C   UNL A   1      31.431  24.494  26.757  1.00  0.00     0.001 A 
ENDBRANCH  18  19
ENDBRANCH  17  18
ENDBRANCH  15  17
ENDBRANCH   9  15
ENDBRANCH   4   6
ENDBRANCH   3   4
ENDBRANCH   2   3
ENDBRANCH   1   2
BRANCH   1  32
ATOM     32  O   UNL A   1      33.778  30.797  27.998  1.00  0.00    -0.374 OA
BRANCH  32  33
ATOM     33  C   UNL A   1      34.842  31.730  27.831  1.00  0.00     0.202 C 
BRANCH  33  34
ATOM     34  C   UNL A   1      35.192  32.661  29.004  1.00  0.00     0.261 C 
BRANCH  34  35
ATOM     35  O   UNL A   1      36.546  32.525  29.466  1.00  0.00    -0.460 OA
BRANCH  35  36
ATOM     36  C   UNL A   1      36.750  31.477  30.304  1.00  0.00     0.338 C 
ATOM     37  O   UNL A   1      35.999  31.076  31.177  1.00  0.00    -0.246 OA
BRANCH  36  38
ATOM     38  C   UNL A   1      37.950  30.723  29.897  1.00  0.00     0.060 A 
ATOM     39  C   UNL A   1      38.989  30.607  30.829  1.00  0.00     0.016 A 
ATOM     40  C   UNL A   1      38.106  30.241  28.597  1.00  0.00     0.016 A 
ATOM     41  C   UNL A   1      40.208  30.049  30.450  1.00  0.00     0.010 A 
ATOM     42  C   UNL A   1      39.330  29.678  28.218  1.00  0.00     0.010 A 
ATOM     43  C   UNL A   1      40.402  29.618  29.131  1.00  0.00    -0.014 A 
BRANCH  43  44
ATOM     44  C   UNL A   1      41.766  29.245  28.678  1.00  0.00     0.031 A 
ATOM     45  C   UNL A   1      42.041  27.822  28.267  1.00  0.00     0.074 A 
ATOM     46  C   UNL A   1      42.739  30.171  28.586  1.00  0.00     0.049 A 
ATOM     47  N   UNL A   1      43.159  27.278  27.860  1.00  0.00    -0.248 NA
ATOM     48  C   UNL A   1      40.904  26.888  28.323  1.00  0.00     0.031 C 
ATOM     49  C   UNL A   1      42.585  31.592  28.902  1.00  0.00     0.029 A 
ATOM     50  N   UNL A   1      44.050  30.053  28.198  1.00  0.00    -0.354 N 
ATOM     51  C   UNL A   1      42.865  25.939  27.624  1.00  0.00     0.074 A 
ATOM     52  C   UNL A   1      41.472  25.746  27.964  1.00  0.00     0.031 C 
ATOM     53  C   UNL A   1      43.759  32.212  28.697  1.00  0.00     0.029 A 
ATOM     54  C   UNL A   1      44.756  31.229  28.276  1.00  0.00     0.049 A 
ATOM     55  H   UNL A   1      44.447  29.206  27.892  1.00  0.00     0.167 HD
ATOM     56  C   UNL A   1      43.679  24.960  27.160  1.00  0.00     0.031 A 
ATOM     57  C   UNL A   1      46.063  31.483  28.058  1.00  0.00     0.031 A 
ATOM     58  C   UNL A   1      45.069  25.154  26.834  1.00  0.00     0.049 A 
ATOM     59  C   UNL A   1      46.968  30.361  27.622  1.00  0.00     0.074 A 
ATOM     60  C   UNL A   1      45.974  24.228  26.344  1.00  0.00     0.029 A 
ATOM     61  N   UNL A   1      45.757  26.350  26.970  1.00  0.00    -0.354 N 
ATOM     62  N   UNL A   1      46.671  29.105  27.384  1.00  0.00    -0.248 NA
ATOM     63  C   UNL A   1      48.385  30.693  27.415  1.00  0.00     0.031 C 
ATOM     64  C   UNL A   1      47.224  24.848  26.249  1.00  0.00     0.029 A 
ATOM     65  C   UNL A   1      47.081  26.179  26.605  1.00  0.00     0.049 A 
ATOM     66  H   UNL A   1      45.361  27.197  27.281  1.00  0.00     0.167 HD
ATOM     67  C   UNL A   1      47.857  28.505  26.971  1.00  0.00     0.074 A 
ATOM     68  C   UNL A   1      48.870  29.540  26.976  1.00  0.00     0.031 C 
ATOM     69  C   UNL A   1      48.083  27.215  26.615  1.00  0.00     0.031 A 
BRANCH  56  70
ATOM     70  C   UNL A   1      43.098  23.576  27.015  1.00  0.00    -0.014 A 
ATOM     71  C   UNL A   1      43.248  22.607  28.025  1.00  0.00     0.010 A 
ATOM     72  C   UNL A   1      42.351  23.252  25.867  1.00  0.00     0.010 A 
ATOM     73  C   UNL A   1      42.696  21.332  27.871  1.00  0.00     0.020 A 
ATOM     74  C   UNL A   1      41.771  21.989  25.724  1.00  0.00     0.020 A 
ATOM     75  C   UNL A   1      41.961  21.031  26.721  1.00  0.00     0.054 A 
BRANCH  75  76
ATOM     76  S   UNL A   1      41.234  19.377  26.561  1.00  0.00     0.124 S 
ATOM     77  O   UNL A   1      40.114  19.626  25.657  1.00  0.00    -0.237 OA
ATOM     78  O   UNL A   1      42.333  18.599  25.997  1.00  0.00    -0.237 OA
ATOM     79  O   UNL A   1      40.861  19.025  27.929  1.00  0.00    -0.744 OA
ENDBRANCH  75  76
ENDBRANCH  56  70
BRANCH  57  80
ATOM     80  C   UNL A   1      46.599  32.855  28.273  1.00  0.00    -0.014 A 
ATOM     81  C   UNL A   1      47.060  33.262  29.538  1.00  0.00     0.010 A 
ATOM     82  C   UNL A   1      46.649  33.770  27.203  1.00  0.00     0.010 A 
ATOM     83  C   UNL A   1      47.545  34.560  29.731  1.00  0.00     0.020 A 
ATOM     84  C   UNL A   1      47.164  35.055  27.385  1.00  0.00     0.020 A 
ATOM     85  C   UNL A   1      47.599  35.446  28.652  1.00  0.00     0.054 A 
BRANCH  85  86
ATOM     86  S   UNL A   1      48.282  37.106  28.916  1.00  0.00     0.124 S 
ATOM     87  O   UNL A   1      47.737  37.456  30.223  1.00  0.00    -0.237 OA
ATOM     88  O   UNL A   1      49.722  36.862  28.873  1.00  0.00    -0.237 OA
ATOM     89  O   UNL A   1      47.755  37.876  27.791  1.00  0.00    -0.744 OA
ENDBRANCH  85  86
ENDBRANCH  57  80
BRANCH  69  90
ATOM     90  C   UNL A   1      49.474  26.851  26.161  1.00  0.00    -0.014 A 
ATOM     91  C   UNL A   1      50.382  26.201  27.015  1.00  0.00     0.010 A 
ATOM     92  C   UNL A   1      49.858  27.117  24.833  1.00  0.00     0.010 A 
ATOM     93  C   UNL A   1      51.658  25.855  26.561  1.00  0.00     0.020 A 
ATOM     94  C   UNL A   1      51.120  26.741  24.364  1.00  0.00     0.020 A 
ATOM     95  C   UNL A   1      52.018  26.126  25.237  1.00  0.00     0.054 A 
BRANCH  95  96
ATOM     96  S   UNL A   1      53.664  25.627  24.661  1.00  0.00     0.124 S 
ATOM     97  O   UNL A   1      53.639  26.051  23.264  1.00  0.00    -0.237 OA
ATOM     98  O   UNL A   1      54.553  26.390  25.534  1.00  0.00    -0.237 OA
ATOM     99  O   UNL A   1      53.683  24.181  24.872  1.00  0.00    -0.744 OA
ENDBRANCH  95  96
ENDBRANCH  69  90
ENDBRANCH  43  44
ENDBRANCH  36  38
ENDBRANCH  35  36
ENDBRANCH  34  35
ENDBRANCH  33  34
ENDBRANCH  32  33
ENDBRANCH   1  32
TORSDOF 22
ENDMDL
