MODEL 1
REMARK VINA RESULT:      -9.8      0.000      0.000
REMARK SMILES C[C@H](C(=O)OCCOCCOC(=O)c1ccc(-c2c3nc(c(-c4ccc(S(=O)(=O)[O-])cc4)c4ccc([nH]4)c(-c4ccc(S(=O)(=O)[O-])cc4)c4nc(c(-c5ccc(S(=O)(=O)[O-])cc5)c5ccc2[nH]5)C=C4)C=C3)cc1)c1ccc2c(c1)OCCO2
REMARK SMILES IDX 9 1 8 2 7 3 6 4 5 5 3 6 4 7 2 8 1 9 74 10 75 11 79 12 76 13
REMARK SMILES IDX 78 14 77 15 80 16 83 17 81 18 82 19 10 20 11 21 12 22 13 23
REMARK SMILES IDX 14 24 15 25 73 26 16 27 72 28 17 29 18 30 19 31 66 32 20 33
REMARK SMILES IDX 71 34 65 35 67 36 21 37 70 38 64 39 63 40 22 42 52 43 33 44
REMARK SMILES IDX 51 45 34 46 37 47 50 48 68 49 35 50 36 51 49 53 69 54 38 55
REMARK SMILES IDX 23 56 24 57 32 58 25 59 31 60 26 61 27 62 28 63 29 64 30 65
REMARK SMILES IDX 53 66 54 67 62 68 55 69 61 70 56 71 57 72 58 73 59 74 60 75
REMARK SMILES IDX 39 76 40 77 48 78 41 79 47 80 42 81 43 82 44 83 45 84 46 85
REMARK H PARENT 67 41 37 52
REMARK Flexibility Score: inf
ROOT
ATOM      1  C   UNL A   1      31.748  30.227  25.737  1.00  0.00     0.202 C 
ENDROOT
BRANCH   1   2
ATOM      2  O   UNL A   1      32.459  29.352  24.860  1.00  0.00    -0.374 OA
BRANCH   2   3
ATOM      3  C   UNL A   1      31.761  28.198  24.382  1.00  0.00     0.202 C 
BRANCH   3   4
ATOM      4  C   UNL A   1      31.212  27.274  25.469  1.00  0.00     0.261 C 
BRANCH   4   5
ATOM      5  O   UNL A   1      30.541  26.162  24.850  1.00  0.00    -0.463 OA
BRANCH   5   6
ATOM      6  C   UNL A   1      30.534  25.012  25.564  1.00  0.00     0.313 C 
ATOM      7  O   UNL A   1      30.202  24.932  26.744  1.00  0.00    -0.252 OA
BRANCH   6   8
ATOM      8  C   UNL A   1      30.906  23.786  24.754  1.00  0.00     0.126 C 
ATOM      9  C   UNL A   1      30.844  24.163  23.261  1.00  0.00     0.025 C 
BRANCH   8  10
ATOM     10  C   UNL A   1      32.158  22.985  25.133  1.00  0.00    -0.030 A 
ATOM     11  C   UNL A   1      32.351  21.704  24.578  1.00  0.00     0.009 A 
ATOM     12  C   UNL A   1      33.251  23.611  25.757  1.00  0.00     0.055 A 
ATOM     13  C   UNL A   1      33.635  21.164  24.463  1.00  0.00     0.051 A 
ATOM     14  C   UNL A   1      34.535  23.132  25.539  1.00  0.00     0.161 A 
ATOM     15  C   UNL A   1      34.722  21.940  24.842  1.00  0.00     0.161 A 
ATOM     16  O   UNL A   1      35.559  23.979  25.877  1.00  0.00    -0.486 OA
ATOM     17  O   UNL A   1      35.962  21.594  24.361  1.00  0.00    -0.486 OA
ATOM     18  C   UNL A   1      36.765  23.737  25.138  1.00  0.00     0.271 C 
ATOM     19  C   UNL A   1      36.578  22.820  23.935  1.00  0.00     0.271 C 
ENDBRANCH   8  10
ENDBRANCH   6   8
ENDBRANCH   5   6
ENDBRANCH   4   5
ENDBRANCH   3   4
ENDBRANCH   2   3
ENDBRANCH   1   2
BRANCH   1  20
ATOM     20  C   UNL A   1      32.469  30.640  27.024  1.00  0.00     0.261 C 
BRANCH  20  21
ATOM     21  O   UNL A   1      33.884  30.414  26.954  1.00  0.00    -0.460 OA
BRANCH  21  22
ATOM     22  C   UNL A   1      34.592  30.973  27.963  1.00  0.00     0.338 C 
ATOM     23  O   UNL A   1      34.208  31.842  28.739  1.00  0.00    -0.246 OA
BRANCH  22  24
ATOM     24  C   UNL A   1      35.872  30.268  28.141  1.00  0.00     0.060 A 
ATOM     25  C   UNL A   1      36.136  29.727  29.406  1.00  0.00     0.016 A 
ATOM     26  C   UNL A   1      36.826  30.191  27.123  1.00  0.00     0.016 A 
ATOM     27  C   UNL A   1      37.377  29.159  29.677  1.00  0.00     0.010 A 
ATOM     28  C   UNL A   1      38.077  29.630  27.401  1.00  0.00     0.010 A 
ATOM     29  C   UNL A   1      38.369  29.147  28.689  1.00  0.00    -0.014 A 
BRANCH  29  30
ATOM     30  C   UNL A   1      39.753  28.766  29.060  1.00  0.00     0.031 A 
ATOM     31  C   UNL A   1      40.602  29.752  29.815  1.00  0.00     0.074 A 
ATOM     32  C   UNL A   1      40.228  27.541  28.773  1.00  0.00     0.049 A 
ATOM     33  N   UNL A   1      41.830  29.627  30.246  1.00  0.00    -0.248 NA
ATOM     34  C   UNL A   1      39.982  31.051  30.127  1.00  0.00     0.031 C 
ATOM     35  C   UNL A   1      39.485  26.486  28.086  1.00  0.00     0.029 A 
ATOM     36  N   UNL A   1      41.455  26.981  29.028  1.00  0.00    -0.354 N 
ATOM     37  C   UNL A   1      42.133  30.827  30.878  1.00  0.00     0.074 A 
ATOM     38  C   UNL A   1      40.971  31.679  30.748  1.00  0.00     0.031 C 
ATOM     39  C   UNL A   1      40.275  25.405  27.968  1.00  0.00     0.029 A 
ATOM     40  C   UNL A   1      41.586  25.703  28.543  1.00  0.00     0.049 A 
ATOM     41  H   UNL A   1      42.173  27.451  29.511  1.00  0.00     0.167 HD
ATOM     42  C   UNL A   1      43.273  31.187  31.515  1.00  0.00     0.031 A 
ATOM     43  C   UNL A   1      42.648  24.873  28.547  1.00  0.00     0.031 A 
ATOM     44  C   UNL A   1      44.434  30.345  31.626  1.00  0.00     0.049 A 
ATOM     45  C   UNL A   1      43.931  25.320  29.197  1.00  0.00     0.074 A 
ATOM     46  C   UNL A   1      45.636  30.616  32.254  1.00  0.00     0.029 A 
ATOM     47  N   UNL A   1      44.542  29.072  31.087  1.00  0.00    -0.354 N 
ATOM     48  N   UNL A   1      44.194  26.451  29.808  1.00  0.00    -0.248 NA
ATOM     49  C   UNL A   1      45.056  24.376  29.166  1.00  0.00     0.031 C 
ATOM     50  C   UNL A   1      46.490  29.525  32.051  1.00  0.00     0.029 A 
ATOM     51  C   UNL A   1      45.798  28.552  31.346  1.00  0.00     0.049 A 
ATOM     52  H   UNL A   1      43.829  28.606  30.593  1.00  0.00     0.167 HD
ATOM     53  C   UNL A   1      45.508  26.344  30.254  1.00  0.00     0.074 A 
ATOM     54  C   UNL A   1      45.979  25.034  29.854  1.00  0.00     0.031 C 
ATOM     55  C   UNL A   1      46.255  27.248  30.936  1.00  0.00     0.031 A 
BRANCH  42  56
ATOM     56  C   UNL A   1      43.326  32.568  32.110  1.00  0.00    -0.014 A 
ATOM     57  C   UNL A   1      42.830  32.826  33.401  1.00  0.00     0.010 A 
ATOM     58  C   UNL A   1      43.902  33.621  31.376  1.00  0.00     0.010 A 
ATOM     59  C   UNL A   1      42.871  34.119  33.930  1.00  0.00     0.020 A 
ATOM     60  C   UNL A   1      43.968  34.911  31.911  1.00  0.00     0.020 A 
ATOM     61  C   UNL A   1      43.435  35.154  33.179  1.00  0.00     0.054 A 
BRANCH  61  62
ATOM     62  S   UNL A   1      43.485  36.822  33.892  1.00  0.00     0.124 S 
ATOM     63  O   UNL A   1      42.245  36.858  34.661  1.00  0.00    -0.237 OA
ATOM     64  O   UNL A   1      44.714  36.797  34.683  1.00  0.00    -0.237 OA
ATOM     65  O   UNL A   1      43.519  37.698  32.724  1.00  0.00    -0.744 OA
ENDBRANCH  61  62
ENDBRANCH  42  56
BRANCH  43  66
ATOM     66  C   UNL A   1      42.546  23.540  27.894  1.00  0.00    -0.014 A 
ATOM     67  C   UNL A   1      42.817  23.385  26.524  1.00  0.00     0.010 A 
ATOM     68  C   UNL A   1      42.188  22.411  28.654  1.00  0.00     0.010 A 
ATOM     69  C   UNL A   1      42.724  22.125  25.923  1.00  0.00     0.020 A 
ATOM     70  C   UNL A   1      42.118  21.147  28.063  1.00  0.00     0.020 A 
ATOM     71  C   UNL A   1      42.379  21.013  26.697  1.00  0.00     0.054 A 
BRANCH  71  72
ATOM     72  S   UNL A   1      42.327  19.379  25.912  1.00  0.00     0.124 S 
ATOM     73  O   UNL A   1      40.922  19.267  25.534  1.00  0.00    -0.237 OA
ATOM     74  O   UNL A   1      43.271  19.528  24.807  1.00  0.00    -0.237 OA
ATOM     75  O   UNL A   1      42.765  18.476  26.975  1.00  0.00    -0.744 OA
ENDBRANCH  71  72
ENDBRANCH  43  66
BRANCH  55  76
ATOM     76  C   UNL A   1      47.653  26.844  31.322  1.00  0.00    -0.014 A 
ATOM     77  C   UNL A   1      47.911  26.178  32.533  1.00  0.00     0.010 A 
ATOM     78  C   UNL A   1      48.716  27.085  30.432  1.00  0.00     0.010 A 
ATOM     79  C   UNL A   1      49.212  25.787  32.861  1.00  0.00     0.020 A 
ATOM     80  C   UNL A   1      50.014  26.672  30.743  1.00  0.00     0.020 A 
ATOM     81  C   UNL A   1      50.256  26.037  31.964  1.00  0.00     0.054 A 
BRANCH  81  82
ATOM     82  S   UNL A   1      51.929  25.481  32.391  1.00  0.00     0.124 S 
ATOM     83  O   UNL A   1      52.742  26.171  31.394  1.00  0.00    -0.237 OA
ATOM     84  O   UNL A   1      52.084  25.953  33.765  1.00  0.00    -0.237 OA
ATOM     85  O   UNL A   1      51.860  24.028  32.243  1.00  0.00    -0.744 OA
ENDBRANCH  81  82
ENDBRANCH  55  76
ENDBRANCH  29  30
ENDBRANCH  22  24
ENDBRANCH  21  22
ENDBRANCH  20  21
ENDBRANCH   1  20
TORSDOF 18
ENDMDL
MODEL 2
REMARK VINA RESULT:      -9.8      4.426     10.910
REMARK SMILES C[C@H](C(=O)OCCOCCOC(=O)c1ccc(-c2c3nc(c(-c4ccc(S(=O)(=O)[O-])cc4)c4ccc([nH]4)c(-c4ccc(S(=O)(=O)[O-])cc4)c4nc(c(-c5ccc(S(=O)(=O)[O-])cc5)c5ccc2[nH]5)C=C4)C=C3)cc1)c1ccc2c(c1)OCCO2
REMARK SMILES IDX 9 1 8 2 7 3 6 4 5 5 3 6 4 7 2 8 1 9 74 10 75 11 79 12 76 13
REMARK SMILES IDX 78 14 77 15 80 16 83 17 81 18 82 19 10 20 11 21 12 22 13 23
REMARK SMILES IDX 14 24 15 25 73 26 16 27 72 28 17 29 18 30 19 31 66 32 20 33
REMARK SMILES IDX 71 34 65 35 67 36 21 37 70 38 64 39 63 40 22 42 52 43 33 44
REMARK SMILES IDX 51 45 34 46 37 47 50 48 68 49 35 50 36 51 49 53 69 54 38 55
REMARK SMILES IDX 23 56 24 57 32 58 25 59 31 60 26 61 27 62 28 63 29 64 30 65
REMARK SMILES IDX 53 66 54 67 62 68 55 69 61 70 56 71 57 72 58 73 59 74 60 75
REMARK SMILES IDX 39 76 40 77 48 78 41 79 47 80 42 81 43 82 44 83 45 84 46 85
REMARK H PARENT 67 41 37 52
REMARK Flexibility Score: inf
ROOT
ATOM      1  C   UNL A   1      43.881  23.184  24.294  1.00  0.00     0.202 C 
ENDROOT
BRANCH   1   2
ATOM      2  O   UNL A   1      44.410  21.868  24.132  1.00  0.00    -0.374 OA
BRANCH   2   3
ATOM      3  C   UNL A   1      44.589  21.086  25.318  1.00  0.00     0.202 C 
BRANCH   3   4
ATOM      4  C   UNL A   1      43.914  19.715  25.299  1.00  0.00     0.261 C 
BRANCH   4   5
ATOM      5  O   UNL A   1      42.497  19.884  25.485  1.00  0.00    -0.463 OA
BRANCH   5   6
ATOM      6  C   UNL A   1      42.023  19.553  26.708  1.00  0.00     0.313 C 
ATOM      7  O   UNL A   1      42.557  18.741  27.461  1.00  0.00    -0.252 OA
BRANCH   6   8
ATOM      8  C   UNL A   1      40.793  20.336  27.122  1.00  0.00     0.126 C 
ATOM      9  C   UNL A   1      41.260  21.598  27.871  1.00  0.00     0.025 C 
BRANCH   8  10
ATOM     10  C   UNL A   1      39.693  20.608  26.088  1.00  0.00    -0.030 A 
ATOM     11  C   UNL A   1      39.079  19.523  25.433  1.00  0.00     0.009 A 
ATOM     12  C   UNL A   1      39.074  21.868  26.011  1.00  0.00     0.055 A 
ATOM     13  C   UNL A   1      37.790  19.646  24.905  1.00  0.00     0.051 A 
ATOM     14  C   UNL A   1      37.754  21.963  25.594  1.00  0.00     0.161 A 
ATOM     15  C   UNL A   1      37.101  20.836  25.097  1.00  0.00     0.161 A 
ATOM     16  O   UNL A   1      37.116  23.143  25.875  1.00  0.00    -0.486 OA
ATOM     17  O   UNL A   1      35.734  20.822  24.955  1.00  0.00    -0.486 OA
ATOM     18  C   UNL A   1      35.690  23.010  25.979  1.00  0.00     0.271 C 
ATOM     19  C   UNL A   1      35.211  21.564  26.066  1.00  0.00     0.271 C 
ENDBRANCH   8  10
ENDBRANCH   6   8
ENDBRANCH   5   6
ENDBRANCH   4   5
ENDBRANCH   3   4
ENDBRANCH   2   3
ENDBRANCH   1   2
BRANCH   1  20
ATOM     20  C   UNL A   1      43.410  23.565  25.701  1.00  0.00     0.261 C 
BRANCH  20  21
ATOM     21  O   UNL A   1      43.142  24.969  25.826  1.00  0.00    -0.460 OA
BRANCH  21  22
ATOM     22  C   UNL A   1      41.871  25.268  26.183  1.00  0.00     0.338 C 
ATOM     23  O   UNL A   1      40.842  24.865  25.651  1.00  0.00    -0.246 OA
BRANCH  22  24
ATOM     24  C   UNL A   1      41.861  26.028  27.444  1.00  0.00     0.060 A 
ATOM     25  C   UNL A   1      40.793  25.798  28.322  1.00  0.00     0.016 A 
ATOM     26  C   UNL A   1      42.827  26.993  27.739  1.00  0.00     0.016 A 
ATOM     27  C   UNL A   1      40.656  26.571  29.471  1.00  0.00     0.010 A 
ATOM     28  C   UNL A   1      42.680  27.777  28.888  1.00  0.00     0.010 A 
ATOM     29  C   UNL A   1      41.574  27.594  29.737  1.00  0.00    -0.014 A 
BRANCH  29  30
ATOM     30  C   UNL A   1      41.282  28.561  30.821  1.00  0.00     0.031 A 
ATOM     31  C   UNL A   1      42.121  28.531  32.069  1.00  0.00     0.074 A 
ATOM     32  C   UNL A   1      40.316  29.486  30.676  1.00  0.00     0.049 A 
ATOM     33  N   UNL A   1      42.048  29.286  33.135  1.00  0.00    -0.248 NA
ATOM     34  C   UNL A   1      43.187  27.515  32.122  1.00  0.00     0.031 C 
ATOM     35  C   UNL A   1      39.468  29.644  29.496  1.00  0.00     0.029 A 
ATOM     36  N   UNL A   1      39.890  30.470  31.533  1.00  0.00    -0.354 N 
ATOM     37  C   UNL A   1      43.053  28.839  33.985  1.00  0.00     0.074 A 
ATOM     38  C   UNL A   1      43.702  27.727  33.325  1.00  0.00     0.031 C 
ATOM     39  C   UNL A   1      38.616  30.662  29.705  1.00  0.00     0.029 A 
ATOM     40  C   UNL A   1      38.840  31.206  31.043  1.00  0.00     0.049 A 
ATOM     41  H   UNL A   1      40.298  30.631  32.414  1.00  0.00     0.167 HD
ATOM     42  C   UNL A   1      43.408  29.313  35.203  1.00  0.00     0.031 A 
ATOM     43  C   UNL A   1      38.126  32.196  31.617  1.00  0.00     0.031 A 
ATOM     44  C   UNL A   1      42.747  30.406  35.865  1.00  0.00     0.049 A 
ATOM     45  C   UNL A   1      38.491  32.662  33.002  1.00  0.00     0.074 A 
ATOM     46  C   UNL A   1      43.035  30.965  37.098  1.00  0.00     0.029 A 
ATOM     47  N   UNL A   1      41.662  31.100  35.354  1.00  0.00    -0.354 N 
ATOM     48  N   UNL A   1      39.457  32.241  33.784  1.00  0.00    -0.248 NA
ATOM     49  C   UNL A   1      37.676  33.740  33.577  1.00  0.00     0.031 C 
ATOM     50  C   UNL A   1      42.088  31.964  37.355  1.00  0.00     0.029 A 
ATOM     51  C   UNL A   1      41.249  32.066  36.256  1.00  0.00     0.049 A 
ATOM     52  H   UNL A   1      41.245  30.932  34.478  1.00  0.00     0.167 HD
ATOM     53  C   UNL A   1      39.379  33.020  34.934  1.00  0.00     0.074 A 
ATOM     54  C   UNL A   1      38.281  33.944  34.739  1.00  0.00     0.031 C 
ATOM     55  C   UNL A   1      40.150  32.976  36.050  1.00  0.00     0.031 A 
BRANCH  42  56
ATOM     56  C   UNL A   1      44.543  28.623  35.909  1.00  0.00    -0.014 A 
ATOM     57  C   UNL A   1      45.875  29.038  35.728  1.00  0.00     0.010 A 
ATOM     58  C   UNL A   1      44.273  27.559  36.788  1.00  0.00     0.010 A 
ATOM     59  C   UNL A   1      46.919  28.374  36.378  1.00  0.00     0.020 A 
ATOM     60  C   UNL A   1      45.312  26.907  37.459  1.00  0.00     0.020 A 
ATOM     61  C   UNL A   1      46.630  27.309  37.236  1.00  0.00     0.054 A 
BRANCH  61  62
ATOM     62  S   UNL A   1      48.001  26.469  38.076  1.00  0.00     0.124 S 
ATOM     63  O   UNL A   1      48.741  27.593  38.643  1.00  0.00    -0.237 OA
ATOM     64  O   UNL A   1      47.313  25.618  39.044  1.00  0.00    -0.237 OA
ATOM     65  O   UNL A   1      48.683  25.756  36.999  1.00  0.00    -0.744 OA
ENDBRANCH  61  62
ENDBRANCH  42  56
BRANCH  43  66
ATOM     66  C   UNL A   1      36.981  32.801  30.884  1.00  0.00    -0.014 A 
ATOM     67  C   UNL A   1      35.656  32.464  31.212  1.00  0.00     0.010 A 
ATOM     68  C   UNL A   1      37.217  33.735  29.858  1.00  0.00     0.010 A 
ATOM     69  C   UNL A   1      34.587  33.043  30.520  1.00  0.00     0.020 A 
ATOM     70  C   UNL A   1      36.151  34.335  29.182  1.00  0.00     0.020 A 
ATOM     71  C   UNL A   1      34.842  33.978  29.512  1.00  0.00     0.054 A 
BRANCH  71  72
ATOM     72  S   UNL A   1      33.440  34.766  28.672  1.00  0.00     0.124 S 
ATOM     73  O   UNL A   1      32.523  35.016  29.779  1.00  0.00    -0.237 OA
ATOM     74  O   UNL A   1      34.054  35.951  28.077  1.00  0.00    -0.237 OA
ATOM     75  O   UNL A   1      33.005  33.753  27.712  1.00  0.00    -0.744 OA
ENDBRANCH  71  72
ENDBRANCH  43  66
BRANCH  55  76
ATOM     76  C   UNL A   1      39.855  33.974  37.138  1.00  0.00    -0.014 A 
ATOM     77  C   UNL A   1      39.176  33.595  38.310  1.00  0.00     0.010 A 
ATOM     78  C   UNL A   1      40.314  35.298  37.009  1.00  0.00     0.010 A 
ATOM     79  C   UNL A   1      38.937  34.530  39.321  1.00  0.00     0.020 A 
ATOM     80  C   UNL A   1      40.100  36.229  38.028  1.00  0.00     0.020 A 
ATOM     81  C   UNL A   1      39.399  35.842  39.172  1.00  0.00     0.054 A 
BRANCH  81  82
ATOM     82  S   UNL A   1      39.115  37.027  40.516  1.00  0.00     0.124 S 
ATOM     83  O   UNL A   1      40.477  37.371  40.911  1.00  0.00    -0.237 OA
ATOM     84  O   UNL A   1      38.363  38.091  39.855  1.00  0.00    -0.237 OA
ATOM     85  O   UNL A   1      38.356  36.258  41.502  1.00  0.00    -0.744 OA
ENDBRANCH  81  82
ENDBRANCH  55  76
ENDBRANCH  29  30
ENDBRANCH  22  24
ENDBRANCH  21  22
ENDBRANCH  20  21
ENDBRANCH   1  20
TORSDOF 18
ENDMDL
MODEL 3
REMARK VINA RESULT:      -9.6      1.287      2.040
REMARK SMILES C[C@H](C(=O)OCCOCCOC(=O)c1ccc(-c2c3nc(c(-c4ccc(S(=O)(=O)[O-])cc4)c4ccc([nH]4)c(-c4ccc(S(=O)(=O)[O-])cc4)c4nc(c(-c5ccc(S(=O)(=O)[O-])cc5)c5ccc2[nH]5)C=C4)C=C3)cc1)c1ccc2c(c1)OCCO2
REMARK SMILES IDX 9 1 8 2 7 3 6 4 5 5 3 6 4 7 2 8 1 9 74 10 75 11 79 12 76 13
REMARK SMILES IDX 78 14 77 15 80 16 83 17 81 18 82 19 10 20 11 21 12 22 13 23
REMARK SMILES IDX 14 24 15 25 73 26 16 27 72 28 17 29 18 30 19 31 66 32 20 33
REMARK SMILES IDX 71 34 65 35 67 36 21 37 70 38 64 39 63 40 22 42 52 43 33 44
REMARK SMILES IDX 51 45 34 46 37 47 50 48 68 49 35 50 36 51 49 53 69 54 38 55
REMARK SMILES IDX 23 56 24 57 32 58 25 59 31 60 26 61 27 62 28 63 29 64 30 65
REMARK SMILES IDX 53 66 54 67 62 68 55 69 61 70 56 71 57 72 58 73 59 74 60 75
REMARK SMILES IDX 39 76 40 77 48 78 41 79 47 80 42 81 43 82 44 83 45 84 46 85
REMARK H PARENT 67 41 37 52
REMARK Flexibility Score: inf
ROOT
ATOM      1  C   UNL A   1      31.928  29.930  25.949  1.00  0.00     0.202 C 
ENDROOT
BRANCH   1   2
ATOM      2  O   UNL A   1      31.840  28.588  25.467  1.00  0.00    -0.374 OA
BRANCH   2   3
ATOM      3  C   UNL A   1      32.793  27.648  25.975  1.00  0.00     0.202 C 
BRANCH   3   4
ATOM      4  C   UNL A   1      32.256  26.234  26.193  1.00  0.00     0.261 C 
BRANCH   4   5
ATOM      5  O   UNL A   1      32.968  25.321  25.340  1.00  0.00    -0.463 OA
BRANCH   5   6
ATOM      6  C   UNL A   1      32.270  24.235  24.932  1.00  0.00     0.313 C 
ATOM      7  O   UNL A   1      31.057  24.224  24.742  1.00  0.00    -0.252 OA
BRANCH   6   8
ATOM      8  C   UNL A   1      33.135  23.023  24.646  1.00  0.00     0.126 C 
ATOM      9  C   UNL A   1      34.148  22.878  25.796  1.00  0.00     0.025 C 
BRANCH   8  10
ATOM     10  C   UNL A   1      32.467  21.701  24.246  1.00  0.00    -0.030 A 
ATOM     11  C   UNL A   1      32.296  21.402  22.880  1.00  0.00     0.009 A 
ATOM     12  C   UNL A   1      32.313  20.661  25.179  1.00  0.00     0.055 A 
ATOM     13  C   UNL A   1      32.187  20.076  22.449  1.00  0.00     0.051 A 
ATOM     14  C   UNL A   1      32.324  19.342  24.748  1.00  0.00     0.161 A 
ATOM     15  C   UNL A   1      32.319  19.058  23.383  1.00  0.00     0.161 A 
ATOM     16  O   UNL A   1      32.524  18.394  25.717  1.00  0.00    -0.486 OA
ATOM     17  O   UNL A   1      32.622  17.797  22.927  1.00  0.00    -0.486 OA
ATOM     18  C   UNL A   1      33.099  17.178  25.214  1.00  0.00     0.271 C 
ATOM     19  C   UNL A   1      33.649  17.297  23.797  1.00  0.00     0.271 C 
ENDBRANCH   8  10
ENDBRANCH   6   8
ENDBRANCH   5   6
ENDBRANCH   4   5
ENDBRANCH   3   4
ENDBRANCH   2   3
ENDBRANCH   1   2
BRANCH   1  20
ATOM     20  C   UNL A   1      32.713  30.140  27.247  1.00  0.00     0.261 C 
BRANCH  20  21
ATOM     21  O   UNL A   1      34.051  30.602  27.008  1.00  0.00    -0.460 OA
BRANCH  21  22
ATOM     22  C   UNL A   1      34.710  31.012  28.116  1.00  0.00     0.338 C 
ATOM     23  O   UNL A   1      34.287  31.763  28.989  1.00  0.00    -0.246 OA
BRANCH  22  24
ATOM     24  C   UNL A   1      35.985  30.289  28.250  1.00  0.00     0.060 A 
ATOM     25  C   UNL A   1      36.304  29.782  29.517  1.00  0.00     0.016 A 
ATOM     26  C   UNL A   1      36.884  30.163  27.188  1.00  0.00     0.016 A 
ATOM     27  C   UNL A   1      37.547  29.198  29.741  1.00  0.00     0.010 A 
ATOM     28  C   UNL A   1      38.137  29.587  27.419  1.00  0.00     0.010 A 
ATOM     29  C   UNL A   1      38.487  29.137  28.705  1.00  0.00    -0.014 A 
BRANCH  29  30
ATOM     30  C   UNL A   1      39.880  28.741  29.017  1.00  0.00     0.031 A 
ATOM     31  C   UNL A   1      40.779  29.726  29.714  1.00  0.00     0.074 A 
ATOM     32  C   UNL A   1      40.324  27.505  28.729  1.00  0.00     0.049 A 
ATOM     33  N   UNL A   1      42.024  29.590  30.088  1.00  0.00    -0.248 NA
ATOM     34  C   UNL A   1      40.194  31.040  30.032  1.00  0.00     0.031 C 
ATOM     35  C   UNL A   1      39.534  26.449  28.097  1.00  0.00     0.029 A 
ATOM     36  N   UNL A   1      41.553  26.930  28.935  1.00  0.00    -0.354 N 
ATOM     37  C   UNL A   1      42.374  30.795  30.684  1.00  0.00     0.074 A 
ATOM     38  C   UNL A   1      41.220  31.663  30.594  1.00  0.00     0.031 C 
ATOM     39  C   UNL A   1      40.301  25.354  27.960  1.00  0.00     0.029 A 
ATOM     40  C   UNL A   1      41.642  25.642  28.467  1.00  0.00     0.049 A 
ATOM     41  H   UNL A   1      42.300  27.396  29.375  1.00  0.00     0.167 HD
ATOM     42  C   UNL A   1      43.548  31.148  31.260  1.00  0.00     0.031 A 
ATOM     43  C   UNL A   1      42.691  24.796  28.435  1.00  0.00     0.031 A 
ATOM     44  C   UNL A   1      44.701  30.290  31.330  1.00  0.00     0.049 A 
ATOM     45  C   UNL A   1      44.010  25.233  29.016  1.00  0.00     0.074 A 
ATOM     46  C   UNL A   1      45.936  30.553  31.897  1.00  0.00     0.029 A 
ATOM     47  N   UNL A   1      44.764  29.007  30.809  1.00  0.00    -0.354 N 
ATOM     48  N   UNL A   1      44.318  26.371  29.594  1.00  0.00    -0.248 NA
ATOM     49  C   UNL A   1      45.118  24.272  28.948  1.00  0.00     0.031 C 
ATOM     50  C   UNL A   1      46.763  29.446  31.672  1.00  0.00     0.029 A 
ATOM     51  C   UNL A   1      46.024  28.472  31.017  1.00  0.00     0.049 A 
ATOM     52  H   UNL A   1      44.022  28.544  30.358  1.00  0.00     0.167 HD
ATOM     53  C   UNL A   1      45.650  26.250  29.979  1.00  0.00     0.074 A 
ATOM     54  C   UNL A   1      46.082  24.927  29.580  1.00  0.00     0.031 C 
ATOM     55  C   UNL A   1      46.442  27.154  30.609  1.00  0.00     0.031 A 
BRANCH  42  56
ATOM     56  C   UNL A   1      43.650  32.538  31.827  1.00  0.00    -0.014 A 
ATOM     57  C   UNL A   1      44.126  33.609  31.051  1.00  0.00     0.010 A 
ATOM     58  C   UNL A   1      43.240  32.782  33.151  1.00  0.00     0.010 A 
ATOM     59  C   UNL A   1      44.232  34.891  31.600  1.00  0.00     0.020 A 
ATOM     60  C   UNL A   1      43.320  34.067  33.696  1.00  0.00     0.020 A 
ATOM     61  C   UNL A   1      43.832  35.109  32.922  1.00  0.00     0.054 A 
BRANCH  61  62
ATOM     62  S   UNL A   1      43.969  36.783  33.608  1.00  0.00     0.124 S 
ATOM     63  O   UNL A   1      43.019  36.734  34.716  1.00  0.00    -0.237 OA
ATOM     64  O   UNL A   1      45.377  36.860  33.991  1.00  0.00    -0.237 OA
ATOM     65  O   UNL A   1      43.582  37.647  32.495  1.00  0.00    -0.744 OA
ENDBRANCH  61  62
ENDBRANCH  42  56
BRANCH  43  66
ATOM     66  C   UNL A   1      42.538  23.454  27.811  1.00  0.00    -0.014 A 
ATOM     67  C   UNL A   1      42.697  23.280  26.425  1.00  0.00     0.010 A 
ATOM     68  C   UNL A   1      42.246  22.335  28.613  1.00  0.00     0.010 A 
ATOM     69  C   UNL A   1      42.557  22.012  25.851  1.00  0.00     0.020 A 
ATOM     70  C   UNL A   1      42.131  21.063  28.047  1.00  0.00     0.020 A 
ATOM     71  C   UNL A   1      42.279  20.911  26.666  1.00  0.00     0.054 A 
BRANCH  71  72
ATOM     72  S   UNL A   1      42.166  19.266  25.911  1.00  0.00     0.124 S 
ATOM     73  O   UNL A   1      42.631  18.402  26.991  1.00  0.00    -0.237 OA
ATOM     74  O   UNL A   1      40.746  19.165  25.583  1.00  0.00    -0.237 OA
ATOM     75  O   UNL A   1      43.056  19.360  24.755  1.00  0.00    -0.744 OA
ENDBRANCH  71  72
ENDBRANCH  43  66
BRANCH  55  76
ATOM     76  C   UNL A   1      47.850  26.735  30.935  1.00  0.00    -0.014 A 
ATOM     77  C   UNL A   1      48.914  27.007  30.057  1.00  0.00     0.010 A 
ATOM     78  C   UNL A   1      48.121  26.109  32.166  1.00  0.00     0.010 A 
ATOM     79  C   UNL A   1      50.219  26.634  30.391  1.00  0.00     0.020 A 
ATOM     80  C   UNL A   1      49.427  25.759  32.516  1.00  0.00     0.020 A 
ATOM     81  C   UNL A   1      50.467  26.011  31.618  1.00  0.00     0.054 A 
BRANCH  81  82
ATOM     82  S   UNL A   1      52.175  25.577  32.049  1.00  0.00     0.124 S 
ATOM     83  O   UNL A   1      52.895  25.929  30.829  1.00  0.00    -0.237 OA
ATOM     84  O   UNL A   1      52.442  26.428  33.206  1.00  0.00    -0.237 OA
ATOM     85  O   UNL A   1      52.106  24.145  32.340  1.00  0.00    -0.744 OA
ENDBRANCH  81  82
ENDBRANCH  55  76
ENDBRANCH  29  30
ENDBRANCH  22  24
ENDBRANCH  21  22
ENDBRANCH  20  21
ENDBRANCH   1  20
TORSDOF 18
ENDMDL
