MODEL 1
REMARK VINA RESULT:      -9.3      0.000      0.000
REMARK SMILES CC(=O)N[C@H](CC(=O)NCC(=O)OCCOCCOC(=O)c1ccc(-c2c3nc(c(-c4ccc(S(=O)(=O)[O-])cc4)c4ccc([nH]4)c(-c4ccc(S(=O)(=O)[O-])cc4)c4nc(c(-c5ccc(S(=O)(=O)[O-])cc5)c5ccc2[nH]5)C=C4)C=C3)cc1)c1cccs1
REMARK SMILES IDX 15 1 14 2 13 3 11 4 12 5 10 6 9 7 7 8 8 9 6 11 5 12 4 13
REMARK SMILES IDX 1 14 2 15 3 16 82 18 83 19 86 20 84 21 85 22 16 23 17 24
REMARK SMILES IDX 18 25 19 26 20 27 21 28 22 29 23 30 81 31 24 32 80 33 25 34
REMARK SMILES IDX 26 35 27 36 74 37 28 38 79 39 73 40 75 41 29 42 78 43 72 44
REMARK SMILES IDX 71 45 30 47 60 48 41 49 59 50 42 51 45 52 58 53 76 54 43 55
REMARK SMILES IDX 44 56 57 58 77 59 46 60 31 61 32 62 40 63 33 64 39 65 34 66
REMARK SMILES IDX 35 67 36 68 37 69 38 70 61 71 62 72 70 73 63 74 69 75 64 76
REMARK SMILES IDX 65 77 66 78 67 79 68 80 47 81 48 82 56 83 49 84 55 85 50 86
REMARK SMILES IDX 51 87 52 88 53 89 54 90
REMARK H PARENT 9 10 4 17 75 46 45 57
REMARK Flexibility Score: inf
ROOT
ATOM      1  C   UNL A   1      36.499  22.153  24.810  1.00  0.00     0.202 C 
ENDROOT
BRANCH   1   2
ATOM      2  C   UNL A   1      35.055  22.647  24.676  1.00  0.00     0.261 C 
BRANCH   2   3
ATOM      3  O   UNL A   1      34.593  22.459  23.326  1.00  0.00    -0.462 OA
BRANCH   3   4
ATOM      4  C   UNL A   1      33.855  23.470  22.795  1.00  0.00     0.325 C 
ATOM      5  O   UNL A   1      33.545  23.580  21.616  1.00  0.00    -0.250 OA
BRANCH   4   6
ATOM      6  C   UNL A   1      33.336  24.422  23.876  1.00  0.00     0.238 C 
BRANCH   6   7
ATOM      7  N   UNL A   1      33.759  25.813  23.772  1.00  0.00    -0.345 N 
ATOM      8  C   UNL A   1      33.124  26.874  23.203  1.00  0.00     0.222 C 
ATOM      9  O   UNL A   1      33.652  27.981  23.291  1.00  0.00    -0.275 OA
ATOM     10  H   UNL A   1      34.635  26.015  24.172  1.00  0.00     0.164 HD
BRANCH   8  11
ATOM     11  C   UNL A   1      31.791  26.679  22.514  1.00  0.00     0.130 C 
BRANCH  11  12
ATOM     12  C   UNL A   1      30.626  27.081  23.424  1.00  0.00     0.131 C 
BRANCH  12  13
ATOM     13  N   UNL A   1      31.039  27.413  24.787  1.00  0.00    -0.348 N 
ATOM     14  C   UNL A   1      30.073  25.465  25.968  1.00  0.00     0.114 C 
ATOM     15  C   UNL A   1      30.788  26.786  25.968  1.00  0.00     0.217 C 
ATOM     16  O   UNL A   1      31.169  27.298  27.020  1.00  0.00    -0.275 OA
ATOM     17  H   UNL A   1      31.590  28.226  24.863  1.00  0.00     0.164 HD
ENDBRANCH  12  13
BRANCH  12  18
ATOM     18  C   UNL A   1      29.871  28.264  22.849  1.00  0.00     0.027 A 
ATOM     19  C   UNL A   1      30.393  29.376  22.213  1.00  0.00     0.017 A 
ATOM     20  S   UNL A   1      28.159  28.382  22.988  1.00  0.00    -0.147 S 
ATOM     21  C   UNL A   1      29.390  30.322  21.852  1.00  0.00     0.012 A 
ATOM     22  C   UNL A   1      28.130  29.903  22.214  1.00  0.00     0.065 A 
ENDBRANCH  12  18
ENDBRANCH  11  12
ENDBRANCH   8  11
ENDBRANCH   6   7
ENDBRANCH   4   6
ENDBRANCH   3   4
ENDBRANCH   2   3
ENDBRANCH   1   2
BRANCH   1  23
ATOM     23  O   UNL A   1      37.156  22.458  26.042  1.00  0.00    -0.374 OA
BRANCH  23  24
ATOM     24  C   UNL A   1      38.507  22.905  25.995  1.00  0.00     0.202 C 
BRANCH  24  25
ATOM     25  C   UNL A   1      38.793  24.363  26.373  1.00  0.00     0.261 C 
BRANCH  25  26
ATOM     26  O   UNL A   1      40.140  24.582  26.822  1.00  0.00    -0.460 OA
BRANCH  26  27
ATOM     27  C   UNL A   1      40.558  25.860  26.668  1.00  0.00     0.338 C 
ATOM     28  O   UNL A   1      41.169  26.317  25.707  1.00  0.00    -0.246 OA
BRANCH  27  29
ATOM     29  C   UNL A   1      40.061  26.737  27.743  1.00  0.00     0.060 A 
ATOM     30  C   UNL A   1      40.565  28.044  27.767  1.00  0.00     0.016 A 
ATOM     31  C   UNL A   1      39.252  26.271  28.783  1.00  0.00     0.016 A 
ATOM     32  C   UNL A   1      40.349  28.855  28.875  1.00  0.00     0.010 A 
ATOM     33  C   UNL A   1      39.040  27.090  29.902  1.00  0.00     0.010 A 
ATOM     34  C   UNL A   1      39.639  28.361  29.977  1.00  0.00    -0.014 A 
BRANCH  34  35
ATOM     35  C   UNL A   1      39.722  29.112  31.255  1.00  0.00     0.031 A 
ATOM     36  C   UNL A   1      40.898  28.869  32.168  1.00  0.00     0.074 A 
ATOM     37  C   UNL A   1      38.830  30.075  31.548  1.00  0.00     0.049 A 
ATOM     38  N   UNL A   1      41.234  29.492  33.269  1.00  0.00    -0.248 NA
ATOM     39  C   UNL A   1      41.820  27.787  31.786  1.00  0.00     0.031 C 
ATOM     40  C   UNL A   1      37.680  30.443  30.724  1.00  0.00     0.029 A 
ATOM     41  N   UNL A   1      38.771  30.938  32.614  1.00  0.00    -0.354 N 
ATOM     42  C   UNL A   1      42.402  28.879  33.710  1.00  0.00     0.074 A 
ATOM     43  C   UNL A   1      42.699  27.814  32.778  1.00  0.00     0.031 C 
ATOM     44  C   UNL A   1      37.033  31.465  31.312  1.00  0.00     0.029 A 
ATOM     45  C   UNL A   1      37.715  31.815  32.556  1.00  0.00     0.049 A 
ATOM     46  H   UNL A   1      39.424  30.929  33.351  1.00  0.00     0.167 HD
ATOM     47  C   UNL A   1      43.167  29.177  34.788  1.00  0.00     0.031 A 
ATOM     48  C   UNL A   1      37.344  32.792  33.407  1.00  0.00     0.031 A 
ATOM     49  C   UNL A   1      42.873  30.232  35.721  1.00  0.00     0.049 A 
ATOM     50  C   UNL A   1      38.184  33.076  34.624  1.00  0.00     0.074 A 
ATOM     51  C   UNL A   1      43.595  30.620  36.837  1.00  0.00     0.029 A 
ATOM     52  N   UNL A   1      41.767  31.064  35.651  1.00  0.00    -0.354 N 
ATOM     53  N   UNL A   1      39.299  32.503  35.009  1.00  0.00    -0.248 NA
ATOM     54  C   UNL A   1      37.722  34.153  35.511  1.00  0.00     0.031 C 
ATOM     55  C   UNL A   1      42.899  31.657  37.468  1.00  0.00     0.029 A 
ATOM     56  C   UNL A   1      41.774  31.951  36.714  1.00  0.00     0.049 A 
ATOM     57  H   UNL A   1      41.078  31.029  34.949  1.00  0.00     0.167 HD
ATOM     58  C   UNL A   1      39.691  33.175  36.163  1.00  0.00     0.074 A 
ATOM     59  C   UNL A   1      38.698  34.200  36.408  1.00  0.00     0.031 C 
ATOM     60  C   UNL A   1      40.779  32.967  36.946  1.00  0.00     0.031 A 
BRANCH  47  61
ATOM     61  C   UNL A   1      44.382  28.322  35.032  1.00  0.00    -0.014 A 
ATOM     62  C   UNL A   1      45.639  28.669  34.505  1.00  0.00     0.010 A 
ATOM     63  C   UNL A   1      44.267  27.165  35.824  1.00  0.00     0.010 A 
ATOM     64  C   UNL A   1      46.750  27.852  34.730  1.00  0.00     0.020 A 
ATOM     65  C   UNL A   1      45.382  26.359  36.072  1.00  0.00     0.020 A 
ATOM     66  C   UNL A   1      46.613  26.698  35.507  1.00  0.00     0.054 A 
BRANCH  66  67
ATOM     67  S   UNL A   1      48.072  25.659  35.793  1.00  0.00     0.124 S 
ATOM     68  O   UNL A   1      47.468  24.348  36.022  1.00  0.00    -0.237 OA
ATOM     69  O   UNL A   1      48.817  25.798  34.544  1.00  0.00    -0.237 OA
ATOM     70  O   UNL A   1      48.705  26.265  36.962  1.00  0.00    -0.744 OA
ENDBRANCH  66  67
ENDBRANCH  47  61
BRANCH  48  71
ATOM     71  C   UNL A   1      36.117  33.589  33.130  1.00  0.00    -0.014 A 
ATOM     72  C   UNL A   1      36.206  34.875  32.570  1.00  0.00     0.010 A 
ATOM     73  C   UNL A   1      34.849  33.059  33.431  1.00  0.00     0.010 A 
ATOM     74  C   UNL A   1      35.050  35.624  32.332  1.00  0.00     0.020 A 
ATOM     75  C   UNL A   1      33.691  33.795  33.172  1.00  0.00     0.020 A 
ATOM     76  C   UNL A   1      33.799  35.078  32.633  1.00  0.00     0.054 A 
BRANCH  76  77
ATOM     77  S   UNL A   1      32.309  36.046  32.270  1.00  0.00     0.124 S 
ATOM     78  O   UNL A   1      32.443  37.169  33.193  1.00  0.00    -0.237 OA
ATOM     79  O   UNL A   1      32.476  36.365  30.854  1.00  0.00    -0.237 OA
ATOM     80  O   UNL A   1      31.220  35.117  32.565  1.00  0.00    -0.744 OA
ENDBRANCH  76  77
ENDBRANCH  48  71
BRANCH  60  81
ATOM     81  C   UNL A   1      40.980  33.895  38.115  1.00  0.00    -0.014 A 
ATOM     82  C   UNL A   1      40.477  33.586  39.390  1.00  0.00     0.010 A 
ATOM     83  C   UNL A   1      41.715  35.081  37.937  1.00  0.00     0.010 A 
ATOM     84  C   UNL A   1      40.669  34.469  40.458  1.00  0.00     0.020 A 
ATOM     85  C   UNL A   1      41.931  35.953  39.006  1.00  0.00     0.020 A 
ATOM     86  C   UNL A   1      41.389  35.651  40.257  1.00  0.00     0.054 A 
BRANCH  86  87
ATOM     87  S   UNL A   1      41.642  36.774  41.659  1.00  0.00     0.124 S 
ATOM     88  O   UNL A   1      43.025  37.198  41.461  1.00  0.00    -0.237 OA
ATOM     89  O   UNL A   1      40.630  37.804  41.436  1.00  0.00    -0.237 OA
ATOM     90  O   UNL A   1      41.410  35.925  42.826  1.00  0.00    -0.744 OA
ENDBRANCH  86  87
ENDBRANCH  60  81
ENDBRANCH  34  35
ENDBRANCH  27  29
ENDBRANCH  26  27
ENDBRANCH  25  26
ENDBRANCH  24  25
ENDBRANCH  23  24
ENDBRANCH   1  23
TORSDOF 22
ENDMDL
MODEL 2
REMARK VINA RESULT:      -9.1      4.749      9.374
REMARK SMILES CC(=O)N[C@H](CC(=O)NCC(=O)OCCOCCOC(=O)c1ccc(-c2c3nc(c(-c4ccc(S(=O)(=O)[O-])cc4)c4ccc([nH]4)c(-c4ccc(S(=O)(=O)[O-])cc4)c4nc(c(-c5ccc(S(=O)(=O)[O-])cc5)c5ccc2[nH]5)C=C4)C=C3)cc1)c1cccs1
REMARK SMILES IDX 15 1 14 2 13 3 11 4 12 5 10 6 9 7 7 8 8 9 6 11 5 12 4 13
REMARK SMILES IDX 1 14 2 15 3 16 82 18 83 19 86 20 84 21 85 22 16 23 17 24
REMARK SMILES IDX 18 25 19 26 20 27 21 28 22 29 23 30 81 31 24 32 80 33 25 34
REMARK SMILES IDX 26 35 27 36 74 37 28 38 79 39 73 40 75 41 29 42 78 43 72 44
REMARK SMILES IDX 71 45 30 47 60 48 41 49 59 50 42 51 45 52 58 53 76 54 43 55
REMARK SMILES IDX 44 56 57 58 77 59 46 60 31 61 32 62 40 63 33 64 39 65 34 66
REMARK SMILES IDX 35 67 36 68 37 69 38 70 61 71 62 72 70 73 63 74 69 75 64 76
REMARK SMILES IDX 65 77 66 78 67 79 68 80 47 81 48 82 56 83 49 84 55 85 50 86
REMARK SMILES IDX 51 87 52 88 53 89 54 90
REMARK H PARENT 9 10 4 17 75 46 45 57
REMARK Flexibility Score: inf
ROOT
ATOM      1  C   UNL A   1      31.593  28.432  24.870  1.00  0.00     0.202 C 
ENDROOT
BRANCH   1   2
ATOM      2  C   UNL A   1      30.408  27.919  24.045  1.00  0.00     0.261 C 
BRANCH   2   3
ATOM      3  O   UNL A   1      30.769  26.701  23.370  1.00  0.00    -0.462 OA
BRANCH   3   4
ATOM      4  C   UNL A   1      30.279  25.549  23.903  1.00  0.00     0.325 C 
ATOM      5  O   UNL A   1      30.169  24.483  23.310  1.00  0.00    -0.250 OA
BRANCH   4   6
ATOM      6  C   UNL A   1      29.982  25.697  25.397  1.00  0.00     0.238 C 
BRANCH   6   7
ATOM      7  N   UNL A   1      30.243  24.528  26.227  1.00  0.00    -0.345 N 
ATOM      8  C   UNL A   1      31.427  24.032  26.684  1.00  0.00     0.222 C 
ATOM      9  O   UNL A   1      31.397  23.056  27.431  1.00  0.00    -0.275 OA
ATOM     10  H   UNL A   1      29.445  24.021  26.500  1.00  0.00     0.164 HD
BRANCH   8  11
ATOM     11  C   UNL A   1      32.728  24.698  26.294  1.00  0.00     0.130 C 
BRANCH  11  12
ATOM     12  C   UNL A   1      33.346  24.039  25.057  1.00  0.00     0.131 C 
BRANCH  12  13
ATOM     13  N   UNL A   1      33.462  24.942  23.912  1.00  0.00    -0.348 N 
ATOM     14  C   UNL A   1      33.366  23.269  22.091  1.00  0.00     0.114 C 
ATOM     15  C   UNL A   1      33.535  24.679  22.579  1.00  0.00     0.217 C 
ATOM     16  O   UNL A   1      33.718  25.603  21.788  1.00  0.00    -0.275 OA
ATOM     17  H   UNL A   1      33.491  25.898  24.144  1.00  0.00     0.164 HD
ENDBRANCH  12  13
BRANCH  12  18
ATOM     18  C   UNL A   1      34.722  23.482  25.369  1.00  0.00     0.027 A 
ATOM     19  C   UNL A   1      35.925  24.164  25.410  1.00  0.00     0.017 A 
ATOM     20  S   UNL A   1      34.957  21.804  25.674  1.00  0.00    -0.147 S 
ATOM     21  C   UNL A   1      37.031  23.308  25.681  1.00  0.00     0.012 A 
ATOM     22  C   UNL A   1      36.643  21.999  25.848  1.00  0.00     0.065 A 
ENDBRANCH  12  18
ENDBRANCH  11  12
ENDBRANCH   8  11
ENDBRANCH   6   7
ENDBRANCH   4   6
ENDBRANCH   3   4
ENDBRANCH   2   3
ENDBRANCH   1   2
BRANCH   1  23
ATOM     23  O   UNL A   1      31.319  28.740  26.238  1.00  0.00    -0.374 OA
BRANCH  23  24
ATOM     24  C   UNL A   1      31.700  30.022  26.731  1.00  0.00     0.202 C 
BRANCH  24  25
ATOM     25  C   UNL A   1      33.138  30.489  26.477  1.00  0.00     0.261 C 
BRANCH  25  26
ATOM     26  O   UNL A   1      33.986  30.374  27.630  1.00  0.00    -0.460 OA
BRANCH  26  27
ATOM     27  C   UNL A   1      34.814  29.304  27.586  1.00  0.00     0.338 C 
ATOM     28  O   UNL A   1      34.618  28.254  26.981  1.00  0.00    -0.246 OA
BRANCH  27  29
ATOM     29  C   UNL A   1      36.107  29.578  28.237  1.00  0.00     0.060 A 
ATOM     30  C   UNL A   1      37.171  29.924  27.393  1.00  0.00     0.016 A 
ATOM     31  C   UNL A   1      36.326  29.362  29.600  1.00  0.00     0.016 A 
ATOM     32  C   UNL A   1      38.470  29.955  27.885  1.00  0.00     0.010 A 
ATOM     33  C   UNL A   1      37.639  29.389  30.093  1.00  0.00     0.010 A 
ATOM     34  C   UNL A   1      38.720  29.625  29.224  1.00  0.00    -0.014 A 
BRANCH  34  35
ATOM     35  C   UNL A   1      40.121  29.336  29.622  1.00  0.00     0.031 A 
ATOM     36  C   UNL A   1      40.730  28.011  29.235  1.00  0.00     0.074 A 
ATOM     37  C   UNL A   1      40.877  30.275  30.218  1.00  0.00     0.049 A 
ATOM     38  N   UNL A   1      41.963  27.594  29.372  1.00  0.00    -0.248 NA
ATOM     39  C   UNL A   1      39.833  27.031  28.601  1.00  0.00     0.031 C 
ATOM     40  C   UNL A   1      40.423  31.612  30.598  1.00  0.00     0.029 A 
ATOM     41  N   UNL A   1      42.199  30.251  30.586  1.00  0.00    -0.354 N 
ATOM     42  C   UNL A   1      41.989  26.307  28.846  1.00  0.00     0.074 A 
ATOM     43  C   UNL A   1      40.643  25.999  28.416  1.00  0.00     0.031 C 
ATOM     44  C   UNL A   1      41.454  32.285  31.137  1.00  0.00     0.029 A 
ATOM     45  C   UNL A   1      42.636  31.424  31.152  1.00  0.00     0.049 A 
ATOM     46  H   UNL A   1      42.780  29.466  30.456  1.00  0.00     0.167 HD
ATOM     47  C   UNL A   1      43.038  25.459  28.720  1.00  0.00     0.031 A 
ATOM     48  C   UNL A   1      43.851  31.768  31.622  1.00  0.00     0.031 A 
ATOM     49  C   UNL A   1      44.377  25.759  29.151  1.00  0.00     0.049 A 
ATOM     50  C   UNL A   1      44.992  30.790  31.516  1.00  0.00     0.074 A 
ATOM     51  C   UNL A   1      45.510  24.969  29.055  1.00  0.00     0.029 A 
ATOM     52  N   UNL A   1      44.765  26.941  29.763  1.00  0.00    -0.354 N 
ATOM     53  N   UNL A   1      45.003  29.589  30.989  1.00  0.00    -0.248 NA
ATOM     54  C   UNL A   1      46.290  31.227  32.050  1.00  0.00     0.031 C 
ATOM     55  C   UNL A   1      46.573  25.655  29.653  1.00  0.00     0.029 A 
ATOM     56  C   UNL A   1      46.114  26.895  30.070  1.00  0.00     0.049 A 
ATOM     57  H   UNL A   1      44.168  27.701  29.952  1.00  0.00     0.167 HD
ATOM     58  C   UNL A   1      46.316  29.141  31.097  1.00  0.00     0.074 A 
ATOM     59  C   UNL A   1      47.070  30.203  31.732  1.00  0.00     0.031 C 
ATOM     60  C   UNL A   1      46.852  27.959  30.700  1.00  0.00     0.031 A 
BRANCH  47  61
ATOM     61  C   UNL A   1      42.765  24.105  28.120  1.00  0.00    -0.014 A 
ATOM     62  C   UNL A   1      42.956  23.862  26.748  1.00  0.00     0.010 A 
ATOM     63  C   UNL A   1      42.335  23.053  28.949  1.00  0.00     0.010 A 
ATOM     64  C   UNL A   1      42.680  22.602  26.209  1.00  0.00     0.020 A 
ATOM     65  C   UNL A   1      42.082  21.786  28.417  1.00  0.00     0.020 A 
ATOM     66  C   UNL A   1      42.238  21.573  27.046  1.00  0.00     0.054 A 
BRANCH  66  67
ATOM     67  S   UNL A   1      41.897  19.945  26.324  1.00  0.00     0.124 S 
ATOM     68  O   UNL A   1      42.743  19.961  25.132  1.00  0.00    -0.237 OA
ATOM     69  O   UNL A   1      42.319  19.028  27.380  1.00  0.00    -0.237 OA
ATOM     70  O   UNL A   1      40.459  19.974  26.067  1.00  0.00    -0.744 OA
ENDBRANCH  66  67
ENDBRANCH  47  61
BRANCH  48  71
ATOM     71  C   UNL A   1      44.057  33.110  32.231  1.00  0.00    -0.014 A 
ATOM     72  C   UNL A   1      44.870  34.068  31.601  1.00  0.00     0.010 A 
ATOM     73  C   UNL A   1      43.440  33.433  33.454  1.00  0.00     0.010 A 
ATOM     74  C   UNL A   1      45.073  35.320  32.190  1.00  0.00     0.020 A 
ATOM     75  C   UNL A   1      43.622  34.691  34.033  1.00  0.00     0.020 A 
ATOM     76  C   UNL A   1      44.447  35.623  33.402  1.00  0.00     0.054 A 
BRANCH  76  77
ATOM     77  S   UNL A   1      44.685  37.270  34.125  1.00  0.00     0.124 S 
ATOM     78  O   UNL A   1      43.618  38.037  33.489  1.00  0.00    -0.237 OA
ATOM     79  O   UNL A   1      44.519  37.016  35.554  1.00  0.00    -0.237 OA
ATOM     80  O   UNL A   1      46.042  37.627  33.718  1.00  0.00    -0.744 OA
ENDBRANCH  76  77
ENDBRANCH  48  71
BRANCH  60  81
ATOM     81  C   UNL A   1      48.333  27.769  30.897  1.00  0.00    -0.014 A 
ATOM     82  C   UNL A   1      49.259  28.164  29.917  1.00  0.00     0.010 A 
ATOM     83  C   UNL A   1      48.804  27.215  32.101  1.00  0.00     0.010 A 
ATOM     84  C   UNL A   1      50.629  27.968  30.119  1.00  0.00     0.020 A 
ATOM     85  C   UNL A   1      50.173  27.041  32.318  1.00  0.00     0.020 A 
ATOM     86  C   UNL A   1      51.077  27.401  31.317  1.00  0.00     0.054 A 
BRANCH  86  87
ATOM     87  S   UNL A   1      52.859  27.172  31.567  1.00  0.00     0.124 S 
ATOM     88  O   UNL A   1      53.179  28.267  32.479  1.00  0.00    -0.237 OA
ATOM     89  O   UNL A   1      52.936  25.832  32.142  1.00  0.00    -0.237 OA
ATOM     90  O   UNL A   1      53.415  27.298  30.221  1.00  0.00    -0.744 OA
ENDBRANCH  86  87
ENDBRANCH  60  81
ENDBRANCH  34  35
ENDBRANCH  27  29
ENDBRANCH  26  27
ENDBRANCH  25  26
ENDBRANCH  24  25
ENDBRANCH  23  24
ENDBRANCH   1  23
TORSDOF 22
ENDMDL
MODEL 3
REMARK VINA RESULT:      -8.9      6.619     11.446
REMARK SMILES CC(=O)N[C@H](CC(=O)NCC(=O)OCCOCCOC(=O)c1ccc(-c2c3nc(c(-c4ccc(S(=O)(=O)[O-])cc4)c4ccc([nH]4)c(-c4ccc(S(=O)(=O)[O-])cc4)c4nc(c(-c5ccc(S(=O)(=O)[O-])cc5)c5ccc2[nH]5)C=C4)C=C3)cc1)c1cccs1
REMARK SMILES IDX 15 1 14 2 13 3 11 4 12 5 10 6 9 7 7 8 8 9 6 11 5 12 4 13
REMARK SMILES IDX 1 14 2 15 3 16 82 18 83 19 86 20 84 21 85 22 16 23 17 24
REMARK SMILES IDX 18 25 19 26 20 27 21 28 22 29 23 30 81 31 24 32 80 33 25 34
REMARK SMILES IDX 26 35 27 36 74 37 28 38 79 39 73 40 75 41 29 42 78 43 72 44
REMARK SMILES IDX 71 45 30 47 60 48 41 49 59 50 42 51 45 52 58 53 76 54 43 55
REMARK SMILES IDX 44 56 57 58 77 59 46 60 31 61 32 62 40 63 33 64 39 65 34 66
REMARK SMILES IDX 35 67 36 68 37 69 38 70 61 71 62 72 70 73 63 74 69 75 64 76
REMARK SMILES IDX 65 77 66 78 67 79 68 80 47 81 48 82 56 83 49 84 55 85 50 86
REMARK SMILES IDX 51 87 52 88 53 89 54 90
REMARK H PARENT 9 10 4 17 75 46 45 57
REMARK Flexibility Score: inf
ROOT
ATOM      1  C   UNL A   1      35.986  21.810  24.893  1.00  0.00     0.202 C 
ENDROOT
BRANCH   1   2
ATOM      2  C   UNL A   1      34.516  21.416  25.074  1.00  0.00     0.261 C 
BRANCH   2   3
ATOM      3  O   UNL A   1      33.669  22.555  24.836  1.00  0.00    -0.462 OA
BRANCH   3   4
ATOM      4  C   UNL A   1      33.735  23.557  25.754  1.00  0.00     0.325 C 
ATOM      5  O   UNL A   1      33.555  23.430  26.958  1.00  0.00    -0.250 OA
BRANCH   4   6
ATOM      6  C   UNL A   1      34.186  24.876  25.121  1.00  0.00     0.238 C 
BRANCH   6   7
ATOM      7  N   UNL A   1      33.881  25.054  23.708  1.00  0.00    -0.345 N 
ATOM      8  C   UNL A   1      33.700  26.200  22.995  1.00  0.00     0.222 C 
ATOM      9  O   UNL A   1      33.511  26.105  21.783  1.00  0.00    -0.275 OA
ATOM     10  H   UNL A   1      33.792  24.222  23.190  1.00  0.00     0.164 HD
BRANCH   8  11
ATOM     11  C   UNL A   1      33.765  27.542  23.689  1.00  0.00     0.130 C 
BRANCH  11  12
ATOM     12  C   UNL A   1      32.689  27.666  24.773  1.00  0.00     0.131 C 
BRANCH  12  13
ATOM     13  N   UNL A   1      32.797  28.892  25.563  1.00  0.00    -0.348 N 
ATOM     14  C   UNL A   1      31.689  28.114  27.633  1.00  0.00     0.114 C 
ATOM     15  C   UNL A   1      32.333  29.189  26.807  1.00  0.00     0.217 C 
ATOM     16  O   UNL A   1      32.466  30.330  27.248  1.00  0.00    -0.275 OA
ATOM     17  H   UNL A   1      33.287  29.624  25.122  1.00  0.00     0.164 HD
ENDBRANCH  12  13
BRANCH  12  18
ATOM     18  C   UNL A   1      31.300  27.606  24.168  1.00  0.00     0.027 A 
ATOM     19  C   UNL A   1      30.695  28.532  23.337  1.00  0.00     0.017 A 
ATOM     20  S   UNL A   1      30.228  26.306  24.523  1.00  0.00    -0.147 S 
ATOM     21  C   UNL A   1      29.356  28.177  23.004  1.00  0.00     0.012 A 
ATOM     22  C   UNL A   1      28.978  26.987  23.582  1.00  0.00     0.065 A 
ENDBRANCH  12  18
ENDBRANCH  11  12
ENDBRANCH   8  11
ENDBRANCH   6   7
ENDBRANCH   4   6
ENDBRANCH   3   4
ENDBRANCH   2   3
ENDBRANCH   1   2
BRANCH   1  23
ATOM     23  O   UNL A   1      36.915  21.201  25.794  1.00  0.00    -0.374 OA
BRANCH  23  24
ATOM     24  C   UNL A   1      38.245  20.970  25.339  1.00  0.00     0.202 C 
BRANCH  24  25
ATOM     25  C   UNL A   1      39.397  21.527  26.182  1.00  0.00     0.261 C 
BRANCH  25  26
ATOM     26  O   UNL A   1      40.081  20.521  26.947  1.00  0.00    -0.460 OA
BRANCH  26  27
ATOM     27  C   UNL A   1      41.237  20.105  26.378  1.00  0.00     0.338 C 
ATOM     28  O   UNL A   1      41.417  19.048  25.781  1.00  0.00    -0.246 OA
BRANCH  27  29
ATOM     29  C   UNL A   1      42.275  21.150  26.408  1.00  0.00     0.060 A 
ATOM     30  C   UNL A   1      42.604  21.668  27.668  1.00  0.00     0.016 A 
ATOM     31  C   UNL A   1      42.806  21.720  25.248  1.00  0.00     0.016 A 
ATOM     32  C   UNL A   1      43.380  22.817  27.769  1.00  0.00     0.010 A 
ATOM     33  C   UNL A   1      43.585  22.882  25.353  1.00  0.00     0.010 A 
ATOM     34  C   UNL A   1      43.822  23.468  26.610  1.00  0.00    -0.014 A 
BRANCH  34  35
ATOM     35  C   UNL A   1      44.343  24.852  26.742  1.00  0.00     0.031 A 
ATOM     36  C   UNL A   1      43.396  25.949  27.162  1.00  0.00     0.074 A 
ATOM     37  C   UNL A   1      45.654  25.113  26.601  1.00  0.00     0.049 A 
ATOM     38  N   UNL A   1      43.654  27.199  27.453  1.00  0.00    -0.248 NA
ATOM     39  C   UNL A   1      41.974  25.588  27.279  1.00  0.00     0.031 C 
ATOM     40  C   UNL A   1      46.679  24.131  26.248  1.00  0.00     0.029 A 
ATOM     41  N   UNL A   1      46.352  26.284  26.764  1.00  0.00    -0.354 N 
ATOM     42  C   UNL A   1      42.431  27.772  27.784  1.00  0.00     0.074 A 
ATOM     43  C   UNL A   1      41.426  26.743  27.627  1.00  0.00     0.031 C 
ATOM     44  C   UNL A   1      47.878  24.740  26.231  1.00  0.00     0.029 A 
ATOM     45  C   UNL A   1      47.704  26.154  26.559  1.00  0.00     0.049 A 
ATOM     46  H   UNL A   1      45.922  27.137  27.005  1.00  0.00     0.167 HD
ATOM     47  C   UNL A   1      42.164  29.036  28.192  1.00  0.00     0.031 A 
ATOM     48  C   UNL A   1      48.690  27.070  26.633  1.00  0.00     0.031 A 
ATOM     49  C   UNL A   1      43.158  30.064  28.344  1.00  0.00     0.049 A 
ATOM     50  C   UNL A   1      48.363  28.482  27.042  1.00  0.00     0.074 A 
ATOM     51  C   UNL A   1      42.988  31.372  28.764  1.00  0.00     0.029 A 
ATOM     52  N   UNL A   1      44.509  29.902  28.079  1.00  0.00    -0.354 N 
ATOM     53  N   UNL A   1      47.204  28.997  27.378  1.00  0.00    -0.248 NA
ATOM     54  C   UNL A   1      49.484  29.431  27.102  1.00  0.00     0.031 C 
ATOM     55  C   UNL A   1      44.229  32.015  28.707  1.00  0.00     0.029 A 
ATOM     56  C   UNL A   1      45.182  31.091  28.305  1.00  0.00     0.049 A 
ATOM     57  H   UNL A   1      44.929  29.065  27.774  1.00  0.00     0.167 HD
ATOM     58  C   UNL A   1      47.463  30.319  27.723  1.00  0.00     0.074 A 
ATOM     59  C   UNL A   1      48.889  30.523  27.562  1.00  0.00     0.031 C 
ATOM     60  C   UNL A   1      46.601  31.279  28.142  1.00  0.00     0.031 A 
BRANCH  47  61
ATOM     61  C   UNL A   1      40.726  29.385  28.468  1.00  0.00    -0.014 A 
ATOM     62  C   UNL A   1      39.766  29.403  27.439  1.00  0.00     0.010 A 
ATOM     63  C   UNL A   1      40.324  29.676  29.784  1.00  0.00     0.010 A 
ATOM     64  C   UNL A   1      38.441  29.747  27.716  1.00  0.00     0.020 A 
ATOM     65  C   UNL A   1      38.993  29.996  30.068  1.00  0.00     0.020 A 
ATOM     66  C   UNL A   1      38.063  30.048  29.028  1.00  0.00     0.054 A 
BRANCH  66  67
ATOM     67  S   UNL A   1      36.334  30.481  29.362  1.00  0.00     0.124 S 
ATOM     68  O   UNL A   1      36.235  31.809  28.760  1.00  0.00    -0.237 OA
ATOM     69  O   UNL A   1      35.597  29.424  28.674  1.00  0.00    -0.237 OA
ATOM     70  O   UNL A   1      36.244  30.450  30.820  1.00  0.00    -0.744 OA
ENDBRANCH  66  67
ENDBRANCH  47  61
BRANCH  48  71
ATOM     71  C   UNL A   1      50.091  26.676  26.322  1.00  0.00    -0.014 A 
ATOM     72  C   UNL A   1      50.950  26.214  27.334  1.00  0.00     0.010 A 
ATOM     73  C   UNL A   1      50.573  26.767  25.003  1.00  0.00     0.010 A 
ATOM     74  C   UNL A   1      52.271  25.865  27.036  1.00  0.00     0.020 A 
ATOM     75  C   UNL A   1      51.885  26.395  24.698  1.00  0.00     0.020 A 
ATOM     76  C   UNL A   1      52.729  25.957  25.719  1.00  0.00     0.054 A 
BRANCH  76  77
ATOM     77  S   UNL A   1      54.431  25.452  25.345  1.00  0.00     0.124 S 
ATOM     78  O   UNL A   1      54.280  24.017  25.123  1.00  0.00    -0.237 OA
ATOM     79  O   UNL A   1      54.744  26.247  24.160  1.00  0.00    -0.237 OA
ATOM     80  O   UNL A   1      55.169  25.827  26.549  1.00  0.00    -0.744 OA
ENDBRANCH  76  77
ENDBRANCH  48  71
BRANCH  60  81
ATOM     81  C   UNL A   1      47.179  32.622  28.501  1.00  0.00    -0.014 A 
ATOM     82  C   UNL A   1      47.246  33.666  27.563  1.00  0.00     0.010 A 
ATOM     83  C   UNL A   1      47.632  32.850  29.814  1.00  0.00     0.010 A 
ATOM     84  C   UNL A   1      47.796  34.902  27.919  1.00  0.00     0.020 A 
ATOM     85  C   UNL A   1      48.158  34.091  30.181  1.00  0.00     0.020 A 
ATOM     86  C   UNL A   1      48.255  35.104  29.225  1.00  0.00     0.054 A 
BRANCH  86  87
ATOM     87  S   UNL A   1      48.949  36.719  29.672  1.00  0.00     0.124 S 
ATOM     88  O   UNL A   1      48.185  37.623  28.816  1.00  0.00    -0.237 OA
ATOM     89  O   UNL A   1      48.661  36.812  31.101  1.00  0.00    -0.237 OA
ATOM     90  O   UNL A   1      50.366  36.591  29.336  1.00  0.00    -0.744 OA
ENDBRANCH  86  87
ENDBRANCH  60  81
ENDBRANCH  34  35
ENDBRANCH  27  29
ENDBRANCH  26  27
ENDBRANCH  25  26
ENDBRANCH  24  25
ENDBRANCH  23  24
ENDBRANCH   1  23
TORSDOF 22
ENDMDL
