MODEL 1
REMARK VINA RESULT:     -10.4      0.000      0.000
REMARK SMILES Cc1nc(=O)[nH]c(C)c1CC(=O)N1CC[C@H](C(=O)OCCOCCOC(=O)c2ccc(-c3c4nc(c(-c5ccc(S(=O)(=O)[O-])cc5)c5ccc([nH]5)c(-c5ccc(S(=O)(=O)[O-])cc5)c5nc(c(-c6ccc(S(=O)(=O)[O-])cc6)c6ccc3[nH]6)C=C5)C=C4)cc2)[C@@H]1C
REMARK SMILES IDX 22 1 21 2 20 3 19 4 17 5 18 6 16 7 13 8 14 9 88 10 15 11
REMARK SMILES IDX 89 12 11 13 12 14 10 15 9 16 1 17 2 18 3 19 4 20 7 21 5 22
REMARK SMILES IDX 6 23 8 24 23 26 24 27 25 28 26 29 27 30 28 31 29 32 87 33
REMARK SMILES IDX 30 34 86 35 31 36 32 37 33 38 80 39 34 40 85 41 79 42 81 43
REMARK SMILES IDX 35 44 84 45 78 46 77 47 36 49 66 50 47 51 65 52 48 53 51 54
REMARK SMILES IDX 64 55 82 56 49 57 50 58 63 60 83 61 52 62 37 63 38 64 46 65
REMARK SMILES IDX 39 66 45 67 40 68 41 69 42 70 43 71 44 72 67 73 68 74 76 75
REMARK SMILES IDX 69 76 75 77 70 78 71 79 72 80 73 81 74 82 53 83 54 84 62 85
REMARK SMILES IDX 55 86 61 87 56 88 57 89 58 90 59 91 60 92
REMARK H PARENT 6 25 81 48 51 59
REMARK Flexibility Score: inf
ROOT
ATOM      1  O   UNL A   1      37.530  21.497  25.222  1.00  0.00    -0.374 OA
ENDROOT
BRANCH   1   2
ATOM      2  C   UNL A   1      36.256  21.976  25.655  1.00  0.00     0.202 C 
BRANCH   2   3
ATOM      3  C   UNL A   1      35.055  21.085  25.321  1.00  0.00     0.261 C 
BRANCH   3   4
ATOM      4  O   UNL A   1      33.882  21.532  26.025  1.00  0.00    -0.463 OA
BRANCH   4   5
ATOM      5  C   UNL A   1      32.704  21.559  25.366  1.00  0.00     0.311 C 
ATOM      6  O   UNL A   1      31.941  20.604  25.271  1.00  0.00    -0.252 OA
BRANCH   5   7
ATOM      7  C   UNL A   1      32.333  22.938  24.844  1.00  0.00     0.123 C 
ATOM      8  N   UNL A   1      32.795  24.484  23.093  1.00  0.00    -0.339 N 
ATOM      9  C   UNL A   1      33.880  24.627  24.039  1.00  0.00     0.121 C 
ATOM     10  C   UNL A   1      32.123  23.199  23.336  1.00  0.00     0.096 C 
ATOM     11  C   UNL A   1      33.299  24.043  25.314  1.00  0.00     0.039 C 
ATOM     12  C   UNL A   1      32.651  22.156  22.355  1.00  0.00     0.032 C 
BRANCH   8  13
ATOM     13  C   UNL A   1      32.664  25.378  22.053  1.00  0.00     0.227 C 
ATOM     14  O   UNL A   1      33.359  25.247  21.037  1.00  0.00    -0.275 OA
BRANCH  13  15
ATOM     15  C   UNL A   1      31.843  26.673  22.192  1.00  0.00     0.139 C 
BRANCH  15  16
ATOM     16  C   UNL A   1      32.116  27.606  23.327  1.00  0.00     0.002 A 
ATOM     17  C   UNL A   1      30.174  26.589  24.791  1.00  0.00     0.067 C 
ATOM     18  C   UNL A   1      31.252  27.633  24.557  1.00  0.00     0.049 A 
ATOM     19  N   UNL A   1      31.316  28.541  25.476  1.00  0.00    -0.198 NA
ATOM     20  C   UNL A   1      32.251  29.528  25.373  1.00  0.00     0.345 A 
ATOM     21  C   UNL A   1      33.117  28.508  23.348  1.00  0.00     0.022 A 
ATOM     22  O   UNL A   1      32.284  30.488  26.138  1.00  0.00    -0.246 OA
ATOM     23  N   UNL A   1      33.163  29.433  24.359  1.00  0.00    -0.310 N 
ATOM     24  C   UNL A   1      34.158  28.693  22.275  1.00  0.00     0.065 C 
ATOM     25  H   UNL A   1      33.909  30.076  24.356  1.00  0.00     0.171 HD
ENDBRANCH  15  16
ENDBRANCH  13  15
ENDBRANCH   8  13
ENDBRANCH   5   7
ENDBRANCH   4   5
ENDBRANCH   3   4
ENDBRANCH   2   3
ENDBRANCH   1   2
BRANCH   1  26
ATOM     26  C   UNL A   1      37.640  20.094  25.004  1.00  0.00     0.202 C 
BRANCH  26  27
ATOM     27  C   UNL A   1      38.940  19.420  25.453  1.00  0.00     0.261 C 
BRANCH  27  28
ATOM     28  O   UNL A   1      39.786  20.318  26.191  1.00  0.00    -0.460 OA
BRANCH  28  29
ATOM     29  C   UNL A   1      41.094  19.966  26.206  1.00  0.00     0.338 C 
ATOM     30  O   UNL A   1      41.570  18.887  25.900  1.00  0.00    -0.246 OA
BRANCH  29  31
ATOM     31  C   UNL A   1      41.928  21.150  26.482  1.00  0.00     0.060 A 
ATOM     32  C   UNL A   1      42.198  21.452  27.823  1.00  0.00     0.016 A 
ATOM     33  C   UNL A   1      42.369  21.991  25.460  1.00  0.00     0.016 A 
ATOM     34  C   UNL A   1      42.885  22.618  28.151  1.00  0.00     0.010 A 
ATOM     35  C   UNL A   1      43.049  23.168  25.792  1.00  0.00     0.010 A 
ATOM     36  C   UNL A   1      43.289  23.499  27.140  1.00  0.00    -0.014 A 
BRANCH  36  37
ATOM     37  C   UNL A   1      43.886  24.810  27.492  1.00  0.00     0.031 A 
ATOM     38  C   UNL A   1      42.993  25.931  27.951  1.00  0.00     0.074 A 
ATOM     39  C   UNL A   1      45.215  24.996  27.394  1.00  0.00     0.049 A 
ATOM     40  N   UNL A   1      43.300  27.175  28.212  1.00  0.00    -0.248 NA
ATOM     41  C   UNL A   1      41.569  25.609  28.138  1.00  0.00     0.031 C 
ATOM     42  C   UNL A   1      46.187  23.973  27.005  1.00  0.00     0.029 A 
ATOM     43  N   UNL A   1      45.976  26.121  27.596  1.00  0.00    -0.354 N 
ATOM     44  C   UNL A   1      42.107  27.791  28.571  1.00  0.00     0.074 A 
ATOM     45  C   UNL A   1      41.069  26.787  28.485  1.00  0.00     0.031 C 
ATOM     46  C   UNL A   1      47.412  24.524  26.975  1.00  0.00     0.029 A 
ATOM     47  C   UNL A   1      47.306  25.946  27.294  1.00  0.00     0.049 A 
ATOM     48  H   UNL A   1      45.605  26.972  27.925  1.00  0.00     0.167 HD
ATOM     49  C   UNL A   1      41.898  29.080  28.931  1.00  0.00     0.031 A 
ATOM     50  C   UNL A   1      48.315  26.838  27.239  1.00  0.00     0.031 A 
ATOM     51  C   UNL A   1      42.939  30.073  29.013  1.00  0.00     0.049 A 
ATOM     52  C   UNL A   1      48.040  28.281  27.576  1.00  0.00     0.074 A 
ATOM     53  C   UNL A   1      42.831  31.395  29.409  1.00  0.00     0.029 A 
ATOM     54  N   UNL A   1      44.268  29.862  28.682  1.00  0.00    -0.354 N 
ATOM     55  N   UNL A   1      46.915  28.840  27.955  1.00  0.00    -0.248 NA
ATOM     56  C   UNL A   1      49.172  29.214  27.480  1.00  0.00     0.031 C 
ATOM     57  C   UNL A   1      44.078  32.003  29.242  1.00  0.00     0.029 A 
ATOM     58  C   UNL A   1      44.982  31.040  28.819  1.00  0.00     0.049 A 
ATOM     59  H   UNL A   1      44.648  29.002  28.391  1.00  0.00     0.167 HD
ATOM     60  C   UNL A   1      47.212  30.182  28.167  1.00  0.00     0.074 A 
ATOM     61  C   UNL A   1      48.625  30.348  27.898  1.00  0.00     0.031 C 
ATOM     62  C   UNL A   1      46.388  31.191  28.548  1.00  0.00     0.031 A 
BRANCH  49  63
ATOM     63  C   UNL A   1      40.488  29.520  29.225  1.00  0.00    -0.014 A 
ATOM     64  C   UNL A   1      40.093  29.916  30.514  1.00  0.00     0.010 A 
ATOM     65  C   UNL A   1      39.568  29.629  28.164  1.00  0.00     0.010 A 
ATOM     66  C   UNL A   1      38.801  30.404  30.738  1.00  0.00     0.020 A 
ATOM     67  C   UNL A   1      38.287  30.141  28.379  1.00  0.00     0.020 A 
ATOM     68  C   UNL A   1      37.909  30.520  29.667  1.00  0.00     0.054 A 
BRANCH  68  69
ATOM     69  S   UNL A   1      36.265  31.221  29.977  1.00  0.00     0.124 S 
ATOM     70  O   UNL A   1      36.536  32.655  29.944  1.00  0.00    -0.237 OA
ATOM     71  O   UNL A   1      35.482  30.703  28.858  1.00  0.00    -0.237 OA
ATOM     72  O   UNL A   1      35.901  30.688  31.288  1.00  0.00    -0.744 OA
ENDBRANCH  68  69
ENDBRANCH  49  63
BRANCH  50  73
ATOM     73  C   UNL A   1      49.668  26.410  26.785  1.00  0.00    -0.014 A 
ATOM     74  C   UNL A   1      49.999  26.379  25.419  1.00  0.00     0.010 A 
ATOM     75  C   UNL A   1      50.627  25.994  27.728  1.00  0.00     0.010 A 
ATOM     76  C   UNL A   1      51.246  25.902  25.003  1.00  0.00     0.020 A 
ATOM     77  C   UNL A   1      51.887  25.553  27.320  1.00  0.00     0.020 A 
ATOM     78  C   UNL A   1      52.181  25.490  25.957  1.00  0.00     0.054 A 
BRANCH  78  79
ATOM     79  S   UNL A   1      53.794  24.880  25.396  1.00  0.00     0.124 S 
ATOM     80  O   UNL A   1      54.074  25.762  24.267  1.00  0.00    -0.237 OA
ATOM     81  O   UNL A   1      54.631  25.076  26.576  1.00  0.00    -0.237 OA
ATOM     82  O   UNL A   1      53.528  23.486  25.049  1.00  0.00    -0.744 OA
ENDBRANCH  78  79
ENDBRANCH  50  73
BRANCH  62  83
ATOM     83  C   UNL A   1      46.996  32.558  28.729  1.00  0.00    -0.014 A 
ATOM     84  C   UNL A   1      47.564  32.950  29.954  1.00  0.00     0.010 A 
ATOM     85  C   UNL A   1      47.052  33.444  27.637  1.00  0.00     0.010 A 
ATOM     86  C   UNL A   1      48.145  34.212  30.094  1.00  0.00     0.020 A 
ATOM     87  C   UNL A   1      47.663  34.695  27.761  1.00  0.00     0.020 A 
ATOM     88  C   UNL A   1      48.194  35.077  28.995  1.00  0.00     0.054 A 
BRANCH  88  89
ATOM     89  S   UNL A   1      48.996  36.691  29.190  1.00  0.00     0.124 S 
ATOM     90  O   UNL A   1      49.621  36.563  30.504  1.00  0.00    -0.237 OA
ATOM     91  O   UNL A   1      49.917  36.729  28.057  1.00  0.00    -0.237 OA
ATOM     92  O   UNL A   1      47.888  37.641  29.118  1.00  0.00    -0.744 OA
ENDBRANCH  88  89
ENDBRANCH  62  83
ENDBRANCH  36  37
ENDBRANCH  29  31
ENDBRANCH  28  29
ENDBRANCH  27  28
ENDBRANCH  26  27
ENDBRANCH   1  26
TORSDOF 20
ENDMDL
MODEL 2
REMARK VINA RESULT:     -10.3      2.425      8.009
REMARK SMILES Cc1nc(=O)[nH]c(C)c1CC(=O)N1CC[C@H](C(=O)OCCOCCOC(=O)c2ccc(-c3c4nc(c(-c5ccc(S(=O)(=O)[O-])cc5)c5ccc([nH]5)c(-c5ccc(S(=O)(=O)[O-])cc5)c5nc(c(-c6ccc(S(=O)(=O)[O-])cc6)c6ccc3[nH]6)C=C5)C=C4)cc2)[C@@H]1C
REMARK SMILES IDX 22 1 21 2 20 3 19 4 17 5 18 6 16 7 13 8 14 9 88 10 15 11
REMARK SMILES IDX 89 12 11 13 12 14 10 15 9 16 1 17 2 18 3 19 4 20 7 21 5 22
REMARK SMILES IDX 6 23 8 24 23 26 24 27 25 28 26 29 27 30 28 31 29 32 87 33
REMARK SMILES IDX 30 34 86 35 31 36 32 37 33 38 80 39 34 40 85 41 79 42 81 43
REMARK SMILES IDX 35 44 84 45 78 46 77 47 36 49 66 50 47 51 65 52 48 53 51 54
REMARK SMILES IDX 64 55 82 56 49 57 50 58 63 60 83 61 52 62 37 63 38 64 46 65
REMARK SMILES IDX 39 66 45 67 40 68 41 69 42 70 43 71 44 72 67 73 68 74 76 75
REMARK SMILES IDX 69 76 75 77 70 78 71 79 72 80 73 81 74 82 53 83 54 84 62 85
REMARK SMILES IDX 55 86 61 87 56 88 57 89 58 90 59 91 60 92
REMARK H PARENT 6 25 81 48 51 59
REMARK Flexibility Score: inf
ROOT
ATOM      1  O   UNL A   1      33.377  30.582  26.477  1.00  0.00    -0.374 OA
ENDROOT
BRANCH   1   2
ATOM      2  C   UNL A   1      31.971  30.832  26.458  1.00  0.00     0.202 C 
BRANCH   2   3
ATOM      3  C   UNL A   1      31.232  30.418  25.182  1.00  0.00     0.261 C 
BRANCH   3   4
ATOM      4  O   UNL A   1      30.987  29.000  25.177  1.00  0.00    -0.463 OA
BRANCH   4   5
ATOM      5  C   UNL A   1      31.371  28.282  24.100  1.00  0.00     0.311 C 
ATOM      6  O   UNL A   1      31.589  28.757  22.992  1.00  0.00    -0.252 OA
BRANCH   5   7
ATOM      7  C   UNL A   1      31.637  26.817  24.412  1.00  0.00     0.123 C 
ATOM      8  N   UNL A   1      33.356  25.170  24.425  1.00  0.00    -0.339 N 
ATOM      9  C   UNL A   1      32.924  25.275  23.048  1.00  0.00     0.121 C 
ATOM     10  C   UNL A   1      32.919  26.371  25.150  1.00  0.00     0.096 C 
ATOM     11  C   UNL A   1      31.549  25.909  23.171  1.00  0.00     0.039 C 
ATOM     12  C   UNL A   1      34.075  27.365  25.230  1.00  0.00     0.032 C 
BRANCH   8  13
ATOM     13  C   UNL A   1      34.214  24.160  24.802  1.00  0.00     0.227 C 
ATOM     14  O   UNL A   1      34.889  24.278  25.833  1.00  0.00    -0.275 OA
BRANCH  13  15
ATOM     15  C   UNL A   1      34.536  22.976  23.872  1.00  0.00     0.139 C 
BRANCH  15  16
ATOM     16  C   UNL A   1      34.057  21.605  24.224  1.00  0.00     0.002 A 
ATOM     17  C   UNL A   1      31.769  21.947  22.960  1.00  0.00     0.067 C 
ATOM     18  C   UNL A   1      32.677  21.130  23.862  1.00  0.00     0.049 A 
ATOM     19  N   UNL A   1      32.140  20.041  24.305  1.00  0.00    -0.198 NA
ATOM     20  C   UNL A   1      32.866  19.223  25.121  1.00  0.00     0.345 A 
ATOM     21  C   UNL A   1      34.783  20.696  24.904  1.00  0.00     0.022 A 
ATOM     22  O   UNL A   1      32.377  18.244  25.678  1.00  0.00    -0.246 OA
ATOM     23  N   UNL A   1      34.180  19.539  25.327  1.00  0.00    -0.310 N 
ATOM     24  C   UNL A   1      36.204  20.874  25.370  1.00  0.00     0.065 C 
ATOM     25  H   UNL A   1      34.734  18.887  25.815  1.00  0.00     0.171 HD
ENDBRANCH  15  16
ENDBRANCH  13  15
ENDBRANCH   8  13
ENDBRANCH   5   7
ENDBRANCH   4   5
ENDBRANCH   3   4
ENDBRANCH   2   3
ENDBRANCH   1   2
BRANCH   1  26
ATOM     26  C   UNL A   1      34.020  30.664  27.746  1.00  0.00     0.202 C 
BRANCH  26  27
ATOM     27  C   UNL A   1      35.537  30.871  27.745  1.00  0.00     0.261 C 
BRANCH  27  28
ATOM     28  O   UNL A   1      36.250  29.629  27.865  1.00  0.00    -0.460 OA
BRANCH  28  29
ATOM     29  C   UNL A   1      36.999  29.522  28.990  1.00  0.00     0.338 C 
ATOM     30  O   UNL A   1      36.607  29.579  30.143  1.00  0.00    -0.246 OA
BRANCH  29  31
ATOM     31  C   UNL A   1      38.378  29.137  28.639  1.00  0.00     0.060 A 
ATOM     32  C   UNL A   1      39.182  28.615  29.660  1.00  0.00     0.016 A 
ATOM     33  C   UNL A   1      38.898  29.354  27.362  1.00  0.00     0.016 A 
ATOM     34  C   UNL A   1      40.525  28.337  29.416  1.00  0.00     0.010 A 
ATOM     35  C   UNL A   1      40.250  29.085  27.124  1.00  0.00     0.010 A 
ATOM     36  C   UNL A   1      41.076  28.599  28.155  1.00  0.00    -0.014 A 
BRANCH  36  37
ATOM     37  C   UNL A   1      42.534  28.446  27.936  1.00  0.00     0.031 A 
ATOM     38  C   UNL A   1      43.445  29.620  28.173  1.00  0.00     0.074 A 
ATOM     39  C   UNL A   1      43.036  27.269  27.519  1.00  0.00     0.049 A 
ATOM     40  N   UNL A   1      44.729  29.725  27.949  1.00  0.00    -0.248 NA
ATOM     41  C   UNL A   1      42.829  30.834  28.734  1.00  0.00     0.031 C 
ATOM     42  C   UNL A   1      42.260  26.048  27.300  1.00  0.00     0.029 A 
ATOM     43  N   UNL A   1      44.321  26.913  27.189  1.00  0.00    -0.354 N 
ATOM     44  C   UNL A   1      45.072  31.022  28.317  1.00  0.00     0.074 A 
ATOM     45  C   UNL A   1      43.860  31.668  28.771  1.00  0.00     0.031 C 
ATOM     46  C   UNL A   1      43.081  25.084  26.849  1.00  0.00     0.029 A 
ATOM     47  C   UNL A   1      44.428  25.632  26.703  1.00  0.00     0.049 A 
ATOM     48  H   UNL A   1      45.091  27.518  27.290  1.00  0.00     0.167 HD
ATOM     49  C   UNL A   1      46.287  31.617  28.273  1.00  0.00     0.031 A 
ATOM     50  C   UNL A   1      45.480  24.988  26.160  1.00  0.00     0.031 A 
ATOM     51  C   UNL A   1      47.489  30.965  27.818  1.00  0.00     0.049 A 
ATOM     52  C   UNL A   1      46.805  25.700  26.057  1.00  0.00     0.074 A 
ATOM     53  C   UNL A   1      48.775  31.474  27.776  1.00  0.00     0.029 A 
ATOM     54  N   UNL A   1      47.553  29.675  27.316  1.00  0.00    -0.354 N 
ATOM     55  N   UNL A   1      47.123  26.910  26.450  1.00  0.00    -0.248 NA
ATOM     56  C   UNL A   1      47.913  24.956  25.440  1.00  0.00     0.031 C 
ATOM     57  C   UNL A   1      49.602  30.521  27.176  1.00  0.00     0.029 A 
ATOM     58  C   UNL A   1      48.847  29.387  26.918  1.00  0.00     0.049 A 
ATOM     59  H   UNL A   1      46.791  29.055  27.252  1.00  0.00     0.167 HD
ATOM     60  C   UNL A   1      48.473  27.062  26.150  1.00  0.00     0.074 A 
ATOM     61  C   UNL A   1      48.917  25.814  25.567  1.00  0.00     0.031 C 
ATOM     62  C   UNL A   1      49.275  28.140  26.338  1.00  0.00     0.031 A 
BRANCH  49  63
ATOM     63  C   UNL A   1      46.389  33.063  28.682  1.00  0.00    -0.014 A 
ATOM     64  C   UNL A   1      46.601  33.437  30.020  1.00  0.00     0.010 A 
ATOM     65  C   UNL A   1      46.368  34.061  27.688  1.00  0.00     0.010 A 
ATOM     66  C   UNL A   1      46.780  34.783  30.357  1.00  0.00     0.020 A 
ATOM     67  C   UNL A   1      46.573  35.403  28.017  1.00  0.00     0.020 A 
ATOM     68  C   UNL A   1      46.772  35.756  29.352  1.00  0.00     0.054 A 
BRANCH  68  69
ATOM     69  S   UNL A   1      47.076  37.484  29.812  1.00  0.00     0.124 S 
ATOM     70  O   UNL A   1      48.337  37.386  30.541  1.00  0.00    -0.237 OA
ATOM     71  O   UNL A   1      47.149  38.151  28.515  1.00  0.00    -0.237 OA
ATOM     72  O   UNL A   1      45.914  37.837  30.626  1.00  0.00    -0.744 OA
ENDBRANCH  68  69
ENDBRANCH  49  63
BRANCH  50  73
ATOM     73  C   UNL A   1      45.313  23.614  25.610  1.00  0.00    -0.014 A 
ATOM     74  C   UNL A   1      44.980  23.407  24.260  1.00  0.00     0.010 A 
ATOM     75  C   UNL A   1      45.453  22.496  26.456  1.00  0.00     0.010 A 
ATOM     76  C   UNL A   1      44.752  22.115  23.777  1.00  0.00     0.020 A 
ATOM     77  C   UNL A   1      45.264  21.202  25.969  1.00  0.00     0.020 A 
ATOM     78  C   UNL A   1      44.893  21.021  24.636  1.00  0.00     0.054 A 
BRANCH  78  79
ATOM     79  S   UNL A   1      44.597  19.354  23.986  1.00  0.00     0.124 S 
ATOM     80  O   UNL A   1      45.840  18.671  24.327  1.00  0.00    -0.237 OA
ATOM     81  O   UNL A   1      43.415  18.931  24.733  1.00  0.00    -0.237 OA
ATOM     82  O   UNL A   1      44.379  19.580  22.558  1.00  0.00    -0.744 OA
ENDBRANCH  78  79
ENDBRANCH  50  73
BRANCH  62  83
ATOM     83  C   UNL A   1      50.723  28.011  25.940  1.00  0.00    -0.014 A 
ATOM     84  C   UNL A   1      51.707  27.634  26.870  1.00  0.00     0.010 A 
ATOM     85  C   UNL A   1      51.095  28.213  24.597  1.00  0.00     0.010 A 
ATOM     86  C   UNL A   1      53.040  27.495  26.475  1.00  0.00     0.020 A 
ATOM     87  C   UNL A   1      52.421  28.042  24.190  1.00  0.00     0.020 A 
ATOM     88  C   UNL A   1      53.388  27.697  25.135  1.00  0.00     0.054 A 
BRANCH  88  89
ATOM     89  S   UNL A   1      55.117  27.464  24.639  1.00  0.00     0.124 S 
ATOM     90  O   UNL A   1      54.976  26.924  23.289  1.00  0.00    -0.237 OA
ATOM     91  O   UNL A   1      55.657  28.819  24.721  1.00  0.00    -0.237 OA
ATOM     92  O   UNL A   1      55.641  26.530  25.632  1.00  0.00    -0.744 OA
ENDBRANCH  88  89
ENDBRANCH  62  83
ENDBRANCH  36  37
ENDBRANCH  29  31
ENDBRANCH  28  29
ENDBRANCH  27  28
ENDBRANCH  26  27
ENDBRANCH   1  26
TORSDOF 20
ENDMDL
MODEL 3
REMARK VINA RESULT:     -10.2      2.168      8.696
REMARK SMILES Cc1nc(=O)[nH]c(C)c1CC(=O)N1CC[C@H](C(=O)OCCOCCOC(=O)c2ccc(-c3c4nc(c(-c5ccc(S(=O)(=O)[O-])cc5)c5ccc([nH]5)c(-c5ccc(S(=O)(=O)[O-])cc5)c5nc(c(-c6ccc(S(=O)(=O)[O-])cc6)c6ccc3[nH]6)C=C5)C=C4)cc2)[C@@H]1C
REMARK SMILES IDX 22 1 21 2 20 3 19 4 17 5 18 6 16 7 13 8 14 9 88 10 15 11
REMARK SMILES IDX 89 12 11 13 12 14 10 15 9 16 1 17 2 18 3 19 4 20 7 21 5 22
REMARK SMILES IDX 6 23 8 24 23 26 24 27 25 28 26 29 27 30 28 31 29 32 87 33
REMARK SMILES IDX 30 34 86 35 31 36 32 37 33 38 80 39 34 40 85 41 79 42 81 43
REMARK SMILES IDX 35 44 84 45 78 46 77 47 36 49 66 50 47 51 65 52 48 53 51 54
REMARK SMILES IDX 64 55 82 56 49 57 50 58 63 60 83 61 52 62 37 63 38 64 46 65
REMARK SMILES IDX 39 66 45 67 40 68 41 69 42 70 43 71 44 72 67 73 68 74 76 75
REMARK SMILES IDX 69 76 75 77 70 78 71 79 72 80 73 81 74 82 53 83 54 84 62 85
REMARK SMILES IDX 55 86 61 87 56 88 57 89 58 90 59 91 60 92
REMARK H PARENT 6 25 81 48 51 59
REMARK Flexibility Score: inf
ROOT
ATOM      1  O   UNL A   1      33.699  31.365  27.822  1.00  0.00    -0.374 OA
ENDROOT
BRANCH   1   2
ATOM      2  C   UNL A   1      32.564  31.351  26.954  1.00  0.00     0.202 C 
BRANCH   2   3
ATOM      3  C   UNL A   1      32.074  29.969  26.511  1.00  0.00     0.261 C 
BRANCH   3   4
ATOM      4  O   UNL A   1      32.691  29.589  25.267  1.00  0.00    -0.463 OA
BRANCH   4   5
ATOM      5  C   UNL A   1      32.052  28.705  24.473  1.00  0.00     0.311 C 
ATOM      6  O   UNL A   1      32.055  28.744  23.248  1.00  0.00    -0.252 OA
BRANCH   5   7
ATOM      7  C   UNL A   1      31.413  27.555  25.237  1.00  0.00     0.123 C 
ATOM      8  N   UNL A   1      31.565  25.206  25.593  1.00  0.00    -0.339 N 
ATOM      9  C   UNL A   1      30.864  25.368  24.338  1.00  0.00     0.121 C 
ATOM     10  C   UNL A   1      32.270  26.457  25.905  1.00  0.00     0.096 C 
ATOM     11  C   UNL A   1      30.354  26.797  24.416  1.00  0.00     0.039 C 
ATOM     12  C   UNL A   1      33.731  26.338  25.477  1.00  0.00     0.032 C 
BRANCH   8  13
ATOM     13  C   UNL A   1      31.648  23.962  26.180  1.00  0.00     0.227 C 
ATOM     14  O   UNL A   1      31.395  23.831  27.385  1.00  0.00    -0.275 OA
BRANCH  13  15
ATOM     15  C   UNL A   1      32.262  22.756  25.446  1.00  0.00     0.139 C 
BRANCH  15  16
ATOM     16  C   UNL A   1      33.747  22.605  25.380  1.00  0.00     0.002 A 
ATOM     17  C   UNL A   1      33.842  23.420  22.875  1.00  0.00     0.067 C 
ATOM     18  C   UNL A   1      34.512  22.838  24.107  1.00  0.00     0.049 A 
ATOM     19  N   UNL A   1      35.758  22.536  23.937  1.00  0.00    -0.198 NA
ATOM     20  C   UNL A   1      36.464  22.010  24.979  1.00  0.00     0.345 A 
ATOM     21  C   UNL A   1      34.521  22.228  26.417  1.00  0.00     0.022 A 
ATOM     22  O   UNL A   1      37.608  21.584  24.852  1.00  0.00    -0.246 OA
ATOM     23  N   UNL A   1      35.845  21.948  26.196  1.00  0.00    -0.310 N 
ATOM     24  C   UNL A   1      34.043  21.956  27.819  1.00  0.00     0.065 C 
ATOM     25  H   UNL A   1      36.391  21.682  26.972  1.00  0.00     0.171 HD
ENDBRANCH  15  16
ENDBRANCH  13  15
ENDBRANCH   8  13
ENDBRANCH   5   7
ENDBRANCH   4   5
ENDBRANCH   3   4
ENDBRANCH   2   3
ENDBRANCH   1   2
BRANCH   1  26
ATOM     26  C   UNL A   1      34.336  32.625  28.012  1.00  0.00     0.202 C 
BRANCH  26  27
ATOM     27  C   UNL A   1      35.203  32.784  29.264  1.00  0.00     0.261 C 
BRANCH  27  28
ATOM     28  O   UNL A   1      35.385  31.536  29.955  1.00  0.00    -0.460 OA
BRANCH  28  29
ATOM     29  C   UNL A   1      36.309  31.577  30.945  1.00  0.00     0.338 C 
ATOM     30  O   UNL A   1      36.146  31.961  32.091  1.00  0.00    -0.246 OA
BRANCH  29  31
ATOM     31  C   UNL A   1      37.546  30.909  30.502  1.00  0.00     0.060 A 
ATOM     32  C   UNL A   1      38.474  30.547  31.488  1.00  0.00     0.016 A 
ATOM     33  C   UNL A   1      37.830  30.711  29.150  1.00  0.00     0.016 A 
ATOM     34  C   UNL A   1      39.707  30.014  31.122  1.00  0.00     0.010 A 
ATOM     35  C   UNL A   1      39.075  30.187  28.785  1.00  0.00     0.010 A 
ATOM     36  C   UNL A   1      40.028  29.859  29.768  1.00  0.00    -0.014 A 
BRANCH  36  37
ATOM     37  C   UNL A   1      41.393  29.434  29.372  1.00  0.00     0.031 A 
ATOM     38  C   UNL A   1      42.498  30.453  29.315  1.00  0.00     0.074 A 
ATOM     39  C   UNL A   1      41.637  28.148  29.058  1.00  0.00     0.049 A 
ATOM     40  N   UNL A   1      43.731  30.310  28.902  1.00  0.00    -0.248 NA
ATOM     41  C   UNL A   1      42.172  31.811  29.781  1.00  0.00     0.031 C 
ATOM     42  C   UNL A   1      40.659  27.061  29.121  1.00  0.00     0.029 A 
ATOM     43  N   UNL A   1      42.783  27.542  28.606  1.00  0.00    -0.354 N 
ATOM     44  C   UNL A   1      44.322  31.562  29.036  1.00  0.00     0.074 A 
ATOM     45  C   UNL A   1      43.310  32.455  29.559  1.00  0.00     0.031 C 
ATOM     46  C   UNL A   1      41.241  25.926  28.700  1.00  0.00     0.029 A 
ATOM     47  C   UNL A   1      42.614  26.214  28.293  1.00  0.00     0.049 A 
ATOM     48  H   UNL A   1      43.643  28.013  28.515  1.00  0.00     0.167 HD
ATOM     49  C   UNL A   1      45.590  31.931  28.741  1.00  0.00     0.031 A 
ATOM     50  C   UNL A   1      43.456  25.340  27.705  1.00  0.00     0.031 A 
ATOM     51  C   UNL A   1      46.591  31.035  28.219  1.00  0.00     0.049 A 
ATOM     52  C   UNL A   1      44.841  25.798  27.322  1.00  0.00     0.074 A 
ATOM     53  C   UNL A   1      47.917  31.307  27.929  1.00  0.00     0.029 A 
ATOM     54  N   UNL A   1      46.377  29.704  27.898  1.00  0.00    -0.354 N 
ATOM     55  N   UNL A   1      45.398  26.973  27.494  1.00  0.00    -0.248 NA
ATOM     56  C   UNL A   1      45.710  24.810  26.667  1.00  0.00     0.031 C 
ATOM     57  C   UNL A   1      48.482  30.164  27.359  1.00  0.00     0.029 A 
ATOM     58  C   UNL A   1      47.532  29.154  27.369  1.00  0.00     0.049 A 
ATOM     59  H   UNL A   1      45.529  29.221  28.027  1.00  0.00     0.167 HD
ATOM     60  C   UNL A   1      46.691  26.855  26.992  1.00  0.00     0.074 A 
ATOM     61  C   UNL A   1      46.840  25.490  26.533  1.00  0.00     0.031 C 
ATOM     62  C   UNL A   1      47.667  27.794  26.915  1.00  0.00     0.031 A 
BRANCH  49  63
ATOM     63  C   UNL A   1      45.975  33.376  28.927  1.00  0.00    -0.014 A 
ATOM     64  C   UNL A   1      45.815  34.320  27.898  1.00  0.00     0.010 A 
ATOM     65  C   UNL A   1      46.414  33.811  30.192  1.00  0.00     0.010 A 
ATOM     66  C   UNL A   1      46.097  35.670  28.128  1.00  0.00     0.020 A 
ATOM     67  C   UNL A   1      46.671  35.163  30.433  1.00  0.00     0.020 A 
ATOM     68  C   UNL A   1      46.516  36.084  29.397  1.00  0.00     0.054 A 
BRANCH  68  69
ATOM     69  S   UNL A   1      46.808  37.851  29.683  1.00  0.00     0.124 S 
ATOM     70  O   UNL A   1      47.917  38.126  28.774  1.00  0.00    -0.237 OA
ATOM     71  O   UNL A   1      45.528  38.449  29.312  1.00  0.00    -0.237 OA
ATOM     72  O   UNL A   1      47.138  37.924  31.105  1.00  0.00    -0.744 OA
ENDBRANCH  68  69
ENDBRANCH  49  63
BRANCH  50  73
ATOM     73  C   UNL A   1      42.997  23.961  27.381  1.00  0.00    -0.014 A 
ATOM     74  C   UNL A   1      43.117  22.917  28.315  1.00  0.00     0.010 A 
ATOM     75  C   UNL A   1      42.466  23.679  26.107  1.00  0.00     0.010 A 
ATOM     76  C   UNL A   1      42.752  21.613  27.969  1.00  0.00     0.020 A 
ATOM     77  C   UNL A   1      42.065  22.385  25.771  1.00  0.00     0.020 A 
ATOM     78  C   UNL A   1      42.231  21.355  26.697  1.00  0.00     0.054 A 
BRANCH  78  79
ATOM     79  S   UNL A   1      41.760  19.656  26.272  1.00  0.00     0.124 S 
ATOM     80  O   UNL A   1      42.594  19.394  25.104  1.00  0.00    -0.237 OA
ATOM     81  O   UNL A   1      42.115  18.920  27.482  1.00  0.00    -0.237 OA
ATOM     82  O   UNL A   1      40.326  19.757  26.006  1.00  0.00    -0.744 OA
ENDBRANCH  78  79
ENDBRANCH  50  73
BRANCH  62  83
ATOM     83  C   UNL A   1      48.996  27.373  26.342  1.00  0.00    -0.014 A 
ATOM     84  C   UNL A   1      50.049  26.949  27.172  1.00  0.00     0.010 A 
ATOM     85  C   UNL A   1      49.173  27.346  24.946  1.00  0.00     0.010 A 
ATOM     86  C   UNL A   1      51.265  26.539  26.619  1.00  0.00     0.020 A 
ATOM     87  C   UNL A   1      50.376  26.903  24.387  1.00  0.00     0.020 A 
ATOM     88  C   UNL A   1      51.420  26.516  25.229  1.00  0.00     0.054 A 
BRANCH  88  89
ATOM     89  S   UNL A   1      52.991  25.935  24.536  1.00  0.00     0.124 S 
ATOM     90  O   UNL A   1      52.797  26.164  23.107  1.00  0.00    -0.237 OA
ATOM     91  O   UNL A   1      53.967  26.806  25.185  1.00  0.00    -0.237 OA
ATOM     92  O   UNL A   1      53.052  24.532  24.939  1.00  0.00    -0.744 OA
ENDBRANCH  88  89
ENDBRANCH  62  83
ENDBRANCH  36  37
ENDBRANCH  29  31
ENDBRANCH  28  29
ENDBRANCH  27  28
ENDBRANCH  26  27
ENDBRANCH   1  26
TORSDOF 20
ENDMDL
