MODEL 1
REMARK VINA RESULT:     -11.4      0.000      0.000
REMARK SMILES O=C(OCCOCCOC(=O)c1nc(NC[C@H]2c3ccccc3CSc3ccccc32)c2ccccc2n1)c1ccc(-c2c3nc(c(-c4ccc(S(=O)(=O)[O-])cc4)c4ccc([nH]4)c(-c4ccc(S(=O)(=O)[O-])cc4)c4nc(c(-c5ccc(S(=O)(=O)[O-])cc5)c5ccc2[nH]5)C=C4)C=C3)cc1
REMARK SMILES IDX 6 1 5 2 4 3 3 4 2 5 1 6 39 7 40 8 98 9 41 10 97 11 42 12
REMARK SMILES IDX 43 13 44 14 91 15 45 16 96 17 90 18 92 19 46 20 95 21 89 22
REMARK SMILES IDX 88 23 47 25 77 26 58 27 76 28 59 29 62 30 75 31 93 32 60 33
REMARK SMILES IDX 61 34 74 36 94 37 63 38 48 39 49 40 57 41 50 42 56 43 51 44
REMARK SMILES IDX 52 45 53 46 54 47 55 48 78 49 79 50 87 51 80 52 86 53 81 54
REMARK SMILES IDX 82 55 83 56 84 57 85 58 64 59 65 60 73 61 66 62 72 63 67 64
REMARK SMILES IDX 68 65 69 66 70 67 71 68 7 69 8 70 9 71 10 72 11 73 12 74
REMARK SMILES IDX 13 75 38 76 14 77 37 78 32 79 36 80 33 81 35 82 34 83 15 84
REMARK SMILES IDX 16 86 17 87 18 88 31 89 19 90 23 91 26 92 30 93 20 94 22 95
REMARK SMILES IDX 24 96 25 97 27 98 29 99 21 100 28 101
REMARK H PARENT 92 24 62 35 15 85
REMARK Flexibility Score: inf
ROOT
ATOM      1  O   UNL A   1      41.529  19.558  25.711  1.00  0.00    -0.374 OA
ENDROOT
BRANCH   1   2
ATOM      2  C   UNL A   1      42.661  19.118  26.460  1.00  0.00     0.202 C 
BRANCH   2   3
ATOM      3  C   UNL A   1      43.519  18.130  25.676  1.00  0.00     0.261 C 
BRANCH   3   4
ATOM      4  O   UNL A   1      44.650  18.786  25.094  1.00  0.00    -0.460 OA
BRANCH   4   5
ATOM      5  C   UNL A   1      44.666  19.855  24.266  1.00  0.00     0.338 C 
ATOM      6  O   UNL A   1      44.457  19.630  23.073  1.00  0.00    -0.246 OA
BRANCH   5   7
ATOM      7  C   UNL A   1      44.971  21.283  24.657  1.00  0.00     0.060 A 
ATOM      8  C   UNL A   1      45.417  21.463  25.981  1.00  0.00     0.016 A 
ATOM      9  C   UNL A   1      44.795  22.441  23.889  1.00  0.00     0.016 A 
ATOM     10  C   UNL A   1      45.618  22.735  26.524  1.00  0.00     0.010 A 
ATOM     11  C   UNL A   1      44.999  23.719  24.421  1.00  0.00     0.010 A 
ATOM     12  C   UNL A   1      45.392  23.873  25.746  1.00  0.00    -0.014 A 
BRANCH  12  13
ATOM     13  C   UNL A   1      45.656  25.220  26.285  1.00  0.00     0.031 A 
ATOM     14  C   UNL A   1      47.032  25.813  26.237  1.00  0.00     0.074 A 
ATOM     15  C   UNL A   1      44.623  25.883  26.837  1.00  0.00     0.049 A 
ATOM     16  N   UNL A   1      47.404  27.031  26.531  1.00  0.00    -0.248 NA
ATOM     17  C   UNL A   1      48.133  24.933  25.815  1.00  0.00     0.031 C 
ATOM     18  C   UNL A   1      43.268  25.344  26.975  1.00  0.00     0.029 A 
ATOM     19  N   UNL A   1      44.540  27.142  27.364  1.00  0.00    -0.354 N 
ATOM     20  C   UNL A   1      48.774  27.075  26.304  1.00  0.00     0.074 A 
ATOM     21  C   UNL A   1      49.180  25.747  25.900  1.00  0.00     0.031 C 
ATOM     22  C   UNL A   1      42.475  26.284  27.507  1.00  0.00     0.029 A 
ATOM     23  C   UNL A   1      43.267  27.485  27.756  1.00  0.00     0.049 A 
ATOM     24  H   UNL A   1      45.314  27.744  27.453  1.00  0.00     0.167 HD
ATOM     25  C   UNL A   1      49.602  28.142  26.410  1.00  0.00     0.031 A 
ATOM     26  C   UNL A   1      42.785  28.652  28.223  1.00  0.00     0.031 A 
ATOM     27  C   UNL A   1      49.157  29.446  26.837  1.00  0.00     0.049 A 
ATOM     28  C   UNL A   1      43.717  29.826  28.306  1.00  0.00     0.074 A 
ATOM     29  C   UNL A   1      49.893  30.613  26.939  1.00  0.00     0.029 A 
ATOM     30  N   UNL A   1      47.863  29.754  27.235  1.00  0.00    -0.354 N 
ATOM     31  N   UNL A   1      44.993  29.879  28.004  1.00  0.00    -0.248 NA
ATOM     32  C   UNL A   1      43.145  31.100  28.757  1.00  0.00     0.031 C 
ATOM     33  C   UNL A   1      49.062  31.609  27.456  1.00  0.00     0.029 A 
ATOM     34  C   UNL A   1      47.786  31.086  27.603  1.00  0.00     0.049 A 
ATOM     35  H   UNL A   1      47.111  29.119  27.253  1.00  0.00     0.167 HD
ATOM     36  C   UNL A   1      45.374  31.199  28.203  1.00  0.00     0.074 A 
ATOM     37  C   UNL A   1      44.188  31.912  28.635  1.00  0.00     0.031 C 
ATOM     38  C   UNL A   1      46.592  31.770  28.039  1.00  0.00     0.031 A 
BRANCH  25  39
ATOM     39  C   UNL A   1      51.053  27.985  26.029  1.00  0.00    -0.014 A 
ATOM     40  C   UNL A   1      51.462  28.197  24.699  1.00  0.00     0.010 A 
ATOM     41  C   UNL A   1      51.981  27.461  26.948  1.00  0.00     0.010 A 
ATOM     42  C   UNL A   1      52.749  27.838  24.281  1.00  0.00     0.020 A 
ATOM     43  C   UNL A   1      53.278  27.126  26.542  1.00  0.00     0.020 A 
ATOM     44  C   UNL A   1      53.643  27.288  25.204  1.00  0.00     0.054 A 
BRANCH  44  45
ATOM     45  S   UNL A   1      55.279  26.753  24.626  1.00  0.00     0.124 S 
ATOM     46  O   UNL A   1      55.151  26.879  23.177  1.00  0.00    -0.237 OA
ATOM     47  O   UNL A   1      56.174  27.713  25.267  1.00  0.00    -0.237 OA
ATOM     48  O   UNL A   1      55.389  25.384  25.127  1.00  0.00    -0.744 OA
ENDBRANCH  44  45
ENDBRANCH  25  39
BRANCH  26  49
ATOM     49  C   UNL A   1      41.330  28.762  28.515  1.00  0.00    -0.014 A 
ATOM     50  C   UNL A   1      40.425  29.161  27.512  1.00  0.00     0.010 A 
ATOM     51  C   UNL A   1      40.861  28.595  29.829  1.00  0.00     0.010 A 
ATOM     52  C   UNL A   1      39.094  29.445  27.829  1.00  0.00     0.020 A 
ATOM     53  C   UNL A   1      39.521  28.850  30.145  1.00  0.00     0.020 A 
ATOM     54  C   UNL A   1      38.656  29.304  29.148  1.00  0.00     0.054 A 
BRANCH  54  55
ATOM     55  S   UNL A   1      36.942  29.744  29.550  1.00  0.00     0.124 S 
ATOM     56  O   UNL A   1      37.003  31.203  29.562  1.00  0.00    -0.237 OA
ATOM     57  O   UNL A   1      36.193  29.154  28.444  1.00  0.00    -0.237 OA
ATOM     58  O   UNL A   1      36.724  29.117  30.852  1.00  0.00    -0.744 OA
ENDBRANCH  54  55
ENDBRANCH  26  49
BRANCH  38  59
ATOM     59  C   UNL A   1      46.719  33.242  28.328  1.00  0.00    -0.014 A 
ATOM     60  C   UNL A   1      47.073  33.669  29.621  1.00  0.00     0.010 A 
ATOM     61  C   UNL A   1      46.382  34.199  27.355  1.00  0.00     0.010 A 
ATOM     62  C   UNL A   1      47.063  35.027  29.945  1.00  0.00     0.020 A 
ATOM     63  C   UNL A   1      46.402  35.560  27.667  1.00  0.00     0.020 A 
ATOM     64  C   UNL A   1      46.720  35.964  28.967  1.00  0.00     0.054 A 
BRANCH  64  65
ATOM     65  S   UNL A   1      46.706  37.723  29.405  1.00  0.00     0.124 S 
ATOM     66  O   UNL A   1      46.162  37.697  30.759  1.00  0.00    -0.237 OA
ATOM     67  O   UNL A   1      48.116  38.094  29.298  1.00  0.00    -0.237 OA
ATOM     68  O   UNL A   1      45.836  38.319  28.392  1.00  0.00    -0.744 OA
ENDBRANCH  64  65
ENDBRANCH  38  59
ENDBRANCH  12  13
ENDBRANCH   5   7
ENDBRANCH   4   5
ENDBRANCH   3   4
ENDBRANCH   2   3
ENDBRANCH   1   2
BRANCH   1  69
ATOM     69  C   UNL A   1      40.404  19.973  26.491  1.00  0.00     0.202 C 
BRANCH  69  70
ATOM     70  C   UNL A   1      40.055  21.427  26.172  1.00  0.00     0.261 C 
BRANCH  70  71
ATOM     71  O   UNL A   1      38.712  21.491  25.668  1.00  0.00    -0.457 OA
BRANCH  71  72
ATOM     72  C   UNL A   1      38.028  22.631  25.979  1.00  0.00     0.376 C 
ATOM     73  O   UNL A   1      38.509  23.729  26.219  1.00  0.00    -0.242 OA
BRANCH  72  74
ATOM     74  C   UNL A   1      36.566  22.353  25.833  1.00  0.00     0.241 A 
ATOM     75  N   UNL A   1      35.710  23.309  26.257  1.00  0.00    -0.204 NA
ATOM     76  N   UNL A   1      36.225  21.200  25.235  1.00  0.00    -0.222 NA
ATOM     77  C   UNL A   1      34.400  23.042  26.158  1.00  0.00     0.138 A 
ATOM     78  C   UNL A   1      34.929  20.937  25.163  1.00  0.00     0.077 A 
ATOM     79  C   UNL A   1      33.943  21.797  25.672  1.00  0.00     0.043 A 
ATOM     80  C   UNL A   1      34.554  19.748  24.555  1.00  0.00     0.029 A 
ATOM     81  C   UNL A   1      32.594  21.369  25.627  1.00  0.00     0.014 A 
ATOM     82  C   UNL A   1      33.220  19.356  24.473  1.00  0.00     0.002 A 
ATOM     83  C   UNL A   1      32.237  20.160  25.031  1.00  0.00     0.001 A 
BRANCH  77  84
ATOM     84  N   UNL A   1      33.484  24.036  26.525  1.00  0.00    -0.368 N 
ATOM     85  H   UNL A   1      32.709  23.797  27.084  1.00  0.00     0.162 HD
BRANCH  84  86
ATOM     86  C   UNL A   1      33.656  25.430  26.092  1.00  0.00     0.127 C 
BRANCH  86  87
ATOM     87  C   UNL A   1      32.584  26.124  25.084  1.00  0.00     0.070 C 
ATOM     88  C   UNL A   1      32.428  27.656  25.443  1.00  0.00    -0.035 A 
ATOM     89  C   UNL A   1      32.607  25.718  23.561  1.00  0.00    -0.025 A 
ATOM     90  C   UNL A   1      33.284  28.341  26.337  1.00  0.00     0.005 A 
ATOM     91  C   UNL A   1      31.360  28.430  24.936  1.00  0.00    -0.034 A 
ATOM     92  C   UNL A   1      32.169  26.453  22.431  1.00  0.00     0.011 A 
ATOM     93  C   UNL A   1      32.939  24.379  23.252  1.00  0.00     0.005 A 
ATOM     94  C   UNL A   1      33.146  29.708  26.634  1.00  0.00     0.000 A 
ATOM     95  C   UNL A   1      31.255  29.818  25.207  1.00  0.00     0.005 A 
ATOM     96  C   UNL A   1      30.378  27.867  23.960  1.00  0.00     0.110 C 
ATOM     97  S   UNL A   1      31.177  27.941  22.351  1.00  0.00    -0.121 SA
ATOM     98  C   UNL A   1      32.337  25.940  21.113  1.00  0.00     0.015 A 
ATOM     99  C   UNL A   1      33.099  23.869  21.956  1.00  0.00     0.000 A 
ATOM    100  C   UNL A   1      32.152  30.459  26.042  1.00  0.00     0.000 A 
ATOM    101  C   UNL A   1      32.834  24.670  20.873  1.00  0.00     0.001 A 
ENDBRANCH  86  87
ENDBRANCH  84  86
ENDBRANCH  77  84
ENDBRANCH  72  74
ENDBRANCH  71  72
ENDBRANCH  70  71
ENDBRANCH  69  70
ENDBRANCH   1  69
TORSDOF 20
ENDMDL
MODEL 2
REMARK VINA RESULT:     -11.0      0.552      7.710
REMARK SMILES O=C(OCCOCCOC(=O)c1nc(NC[C@H]2c3ccccc3CSc3ccccc32)c2ccccc2n1)c1ccc(-c2c3nc(c(-c4ccc(S(=O)(=O)[O-])cc4)c4ccc([nH]4)c(-c4ccc(S(=O)(=O)[O-])cc4)c4nc(c(-c5ccc(S(=O)(=O)[O-])cc5)c5ccc2[nH]5)C=C4)C=C3)cc1
REMARK SMILES IDX 6 1 5 2 4 3 3 4 2 5 1 6 39 7 40 8 98 9 41 10 97 11 42 12
REMARK SMILES IDX 43 13 44 14 91 15 45 16 96 17 90 18 92 19 46 20 95 21 89 22
REMARK SMILES IDX 88 23 47 25 77 26 58 27 76 28 59 29 62 30 75 31 93 32 60 33
REMARK SMILES IDX 61 34 74 36 94 37 63 38 48 39 49 40 57 41 50 42 56 43 51 44
REMARK SMILES IDX 52 45 53 46 54 47 55 48 78 49 79 50 87 51 80 52 86 53 81 54
REMARK SMILES IDX 82 55 83 56 84 57 85 58 64 59 65 60 73 61 66 62 72 63 67 64
REMARK SMILES IDX 68 65 69 66 70 67 71 68 7 69 8 70 9 71 10 72 11 73 12 74
REMARK SMILES IDX 13 75 38 76 14 77 37 78 32 79 36 80 33 81 35 82 34 83 15 84
REMARK SMILES IDX 16 86 17 87 18 88 31 89 19 90 23 91 26 92 30 93 20 94 22 95
REMARK SMILES IDX 24 96 25 97 27 98 29 99 21 100 28 101
REMARK H PARENT 92 24 62 35 15 85
REMARK Flexibility Score: inf
ROOT
ATOM      1  O   UNL A   1      41.928  19.954  25.832  1.00  0.00    -0.374 OA
ENDROOT
BRANCH   1   2
ATOM      2  C   UNL A   1      42.764  19.046  26.548  1.00  0.00     0.202 C 
BRANCH   2   3
ATOM      3  C   UNL A   1      43.462  18.056  25.621  1.00  0.00     0.261 C 
BRANCH   3   4
ATOM      4  O   UNL A   1      44.649  18.629  25.063  1.00  0.00    -0.460 OA
BRANCH   4   5
ATOM      5  C   UNL A   1      44.772  19.763  24.337  1.00  0.00     0.338 C 
ATOM      6  O   UNL A   1      44.819  19.630  23.113  1.00  0.00    -0.246 OA
BRANCH   5   7
ATOM      7  C   UNL A   1      44.914  21.164  24.885  1.00  0.00     0.060 A 
ATOM      8  C   UNL A   1      44.646  22.200  23.969  1.00  0.00     0.016 A 
ATOM      9  C   UNL A   1      45.347  21.549  26.161  1.00  0.00     0.016 A 
ATOM     10  C   UNL A   1      44.857  23.543  24.293  1.00  0.00     0.010 A 
ATOM     11  C   UNL A   1      45.556  22.891  26.498  1.00  0.00     0.010 A 
ATOM     12  C   UNL A   1      45.331  23.893  25.559  1.00  0.00    -0.014 A 
BRANCH  12  13
ATOM     13  C   UNL A   1      45.502  25.308  25.937  1.00  0.00     0.031 A 
ATOM     14  C   UNL A   1      44.348  26.113  26.454  1.00  0.00     0.074 A 
ATOM     15  C   UNL A   1      46.723  25.851  25.780  1.00  0.00     0.049 A 
ATOM     16  N   UNL A   1      44.359  27.316  26.964  1.00  0.00    -0.248 NA
ATOM     17  C   UNL A   1      43.012  25.499  26.385  1.00  0.00     0.031 C 
ATOM     18  C   UNL A   1      47.881  25.145  25.224  1.00  0.00     0.029 A 
ATOM     19  N   UNL A   1      47.202  27.096  26.083  1.00  0.00    -0.354 N 
ATOM     20  C   UNL A   1      43.040  27.596  27.303  1.00  0.00     0.074 A 
ATOM     21  C   UNL A   1      42.246  26.459  26.893  1.00  0.00     0.031 C 
ATOM     22  C   UNL A   1      48.949  25.954  25.268  1.00  0.00     0.029 A 
ATOM     23  C   UNL A   1      48.549  27.234  25.845  1.00  0.00     0.049 A 
ATOM     24  H   UNL A   1      46.637  27.821  26.436  1.00  0.00     0.167 HD
ATOM     25  C   UNL A   1      42.557  28.700  27.921  1.00  0.00     0.031 A 
ATOM     26  C   UNL A   1      49.377  28.263  26.103  1.00  0.00     0.031 A 
ATOM     27  C   UNL A   1      43.383  29.821  28.295  1.00  0.00     0.049 A 
ATOM     28  C   UNL A   1      48.821  29.465  26.811  1.00  0.00     0.074 A 
ATOM     29  C   UNL A   1      43.014  30.974  28.966  1.00  0.00     0.029 A 
ATOM     30  N   UNL A   1      44.742  29.931  28.031  1.00  0.00    -0.354 N 
ATOM     31  N   UNL A   1      47.589  29.682  27.208  1.00  0.00    -0.248 NA
ATOM     32  C   UNL A   1      49.763  30.542  27.136  1.00  0.00     0.031 C 
ATOM     33  C   UNL A   1      44.133  31.806  29.050  1.00  0.00     0.029 A 
ATOM     34  C   UNL A   1      45.220  31.140  28.504  1.00  0.00     0.049 A 
ATOM     35  H   UNL A   1      45.285  29.249  27.573  1.00  0.00     0.167 HD
ATOM     36  C   UNL A   1      47.611  30.910  27.855  1.00  0.00     0.074 A 
ATOM     37  C   UNL A   1      48.983  31.378  27.809  1.00  0.00     0.031 C 
ATOM     38  C   UNL A   1      46.591  31.587  28.437  1.00  0.00     0.031 A 
BRANCH  25  39
ATOM     39  C   UNL A   1      41.091  28.759  28.275  1.00  0.00    -0.014 A 
ATOM     40  C   UNL A   1      40.159  29.266  27.350  1.00  0.00     0.010 A 
ATOM     41  C   UNL A   1      40.660  28.476  29.585  1.00  0.00     0.010 A 
ATOM     42  C   UNL A   1      38.842  29.539  27.738  1.00  0.00     0.020 A 
ATOM     43  C   UNL A   1      39.338  28.721  29.970  1.00  0.00     0.020 A 
ATOM     44  C   UNL A   1      38.446  29.281  29.052  1.00  0.00     0.054 A 
BRANCH  44  45
ATOM     45  S   UNL A   1      36.758  29.718  29.560  1.00  0.00     0.124 S 
ATOM     46  O   UNL A   1      35.954  29.148  28.482  1.00  0.00    -0.237 OA
ATOM     47  O   UNL A   1      36.634  29.058  30.857  1.00  0.00    -0.237 OA
ATOM     48  O   UNL A   1      36.783  31.178  29.615  1.00  0.00    -0.744 OA
ENDBRANCH  44  45
ENDBRANCH  25  39
BRANCH  26  49
ATOM     49  C   UNL A   1      50.825  28.116  25.793  1.00  0.00    -0.014 A 
ATOM     50  C   UNL A   1      51.334  28.510  24.540  1.00  0.00     0.010 A 
ATOM     51  C   UNL A   1      51.676  27.460  26.698  1.00  0.00     0.010 A 
ATOM     52  C   UNL A   1      52.648  28.201  24.180  1.00  0.00     0.020 A 
ATOM     53  C   UNL A   1      53.001  27.175  26.352  1.00  0.00     0.020 A 
ATOM     54  C   UNL A   1      53.468  27.520  25.082  1.00  0.00     0.054 A 
BRANCH  54  55
ATOM     55  S   UNL A   1      55.148  27.069  24.567  1.00  0.00     0.124 S 
ATOM     56  O   UNL A   1      55.791  28.376  24.467  1.00  0.00    -0.237 OA
ATOM     57  O   UNL A   1      55.605  26.225  25.668  1.00  0.00    -0.237 OA
ATOM     58  O   UNL A   1      54.942  26.374  23.298  1.00  0.00    -0.744 OA
ENDBRANCH  54  55
ENDBRANCH  26  49
BRANCH  38  59
ATOM     59  C   UNL A   1      46.906  32.912  29.076  1.00  0.00    -0.014 A 
ATOM     60  C   UNL A   1      47.200  32.971  30.451  1.00  0.00     0.010 A 
ATOM     61  C   UNL A   1      46.803  34.108  28.343  1.00  0.00     0.010 A 
ATOM     62  C   UNL A   1      47.360  34.202  31.088  1.00  0.00     0.020 A 
ATOM     63  C   UNL A   1      46.995  35.340  28.971  1.00  0.00     0.020 A 
ATOM     64  C   UNL A   1      47.250  35.380  30.345  1.00  0.00     0.054 A 
BRANCH  64  65
ATOM     65  S   UNL A   1      47.455  36.971  31.189  1.00  0.00     0.124 S 
ATOM     66  O   UNL A   1      46.502  37.819  30.481  1.00  0.00    -0.237 OA
ATOM     67  O   UNL A   1      47.107  36.650  32.572  1.00  0.00    -0.237 OA
ATOM     68  O   UNL A   1      48.864  37.294  30.970  1.00  0.00    -0.744 OA
ENDBRANCH  64  65
ENDBRANCH  38  59
ENDBRANCH  12  13
ENDBRANCH   5   7
ENDBRANCH   4   5
ENDBRANCH   3   4
ENDBRANCH   2   3
ENDBRANCH   1   2
BRANCH   1  69
ATOM     69  C   UNL A   1      40.565  19.997  26.261  1.00  0.00     0.202 C 
BRANCH  69  70
ATOM     70  C   UNL A   1      40.037  21.431  26.184  1.00  0.00     0.261 C 
BRANCH  70  71
ATOM     71  O   UNL A   1      38.659  21.407  25.784  1.00  0.00    -0.457 OA
BRANCH  71  72
ATOM     72  C   UNL A   1      37.980  22.577  25.966  1.00  0.00     0.376 C 
ATOM     73  O   UNL A   1      38.466  23.690  26.105  1.00  0.00    -0.242 OA
BRANCH  72  74
ATOM     74  C   UNL A   1      36.518  22.296  25.819  1.00  0.00     0.241 A 
ATOM     75  N   UNL A   1      35.660  23.254  26.238  1.00  0.00    -0.204 NA
ATOM     76  N   UNL A   1      36.179  21.141  25.226  1.00  0.00    -0.222 NA
ATOM     77  C   UNL A   1      34.351  22.985  26.139  1.00  0.00     0.138 A 
ATOM     78  C   UNL A   1      34.884  20.876  25.154  1.00  0.00     0.077 A 
ATOM     79  C   UNL A   1      33.897  21.737  25.657  1.00  0.00     0.043 A 
ATOM     80  C   UNL A   1      34.511  19.684  24.550  1.00  0.00     0.029 A 
ATOM     81  C   UNL A   1      32.548  21.307  25.612  1.00  0.00     0.014 A 
ATOM     82  C   UNL A   1      33.177  19.290  24.469  1.00  0.00     0.002 A 
ATOM     83  C   UNL A   1      32.192  20.095  25.021  1.00  0.00     0.001 A 
BRANCH  77  84
ATOM     84  N   UNL A   1      33.433  23.979  26.500  1.00  0.00    -0.368 N 
ATOM     85  H   UNL A   1      32.652  23.740  27.050  1.00  0.00     0.162 HD
BRANCH  84  86
ATOM     86  C   UNL A   1      33.614  25.374  26.074  1.00  0.00     0.127 C 
BRANCH  86  87
ATOM     87  C   UNL A   1      32.551  26.077  25.063  1.00  0.00     0.070 C 
ATOM     88  C   UNL A   1      32.398  27.609  25.427  1.00  0.00    -0.035 A 
ATOM     89  C   UNL A   1      32.582  25.679  23.538  1.00  0.00    -0.025 A 
ATOM     90  C   UNL A   1      33.250  28.286  26.330  1.00  0.00     0.005 A 
ATOM     91  C   UNL A   1      31.336  28.389  24.917  1.00  0.00    -0.034 A 
ATOM     92  C   UNL A   1      32.155  26.420  22.409  1.00  0.00     0.011 A 
ATOM     93  C   UNL A   1      32.912  24.340  23.224  1.00  0.00     0.005 A 
ATOM     94  C   UNL A   1      33.115  29.652  26.633  1.00  0.00     0.000 A 
ATOM     95  C   UNL A   1      31.234  29.775  25.194  1.00  0.00     0.005 A 
ATOM     96  C   UNL A   1      30.359  27.833  23.932  1.00  0.00     0.110 C 
ATOM     97  S   UNL A   1      31.169  27.912  22.329  1.00  0.00    -0.121 SA
ATOM     98  C   UNL A   1      32.330  25.913  21.089  1.00  0.00     0.015 A 
ATOM     99  C   UNL A   1      33.079  23.836  21.928  1.00  0.00     0.000 A 
ATOM    100  C   UNL A   1      32.127  30.409  26.038  1.00  0.00     0.000 A 
ATOM    101  C   UNL A   1      32.825  24.642  20.846  1.00  0.00     0.001 A 
ENDBRANCH  86  87
ENDBRANCH  84  86
ENDBRANCH  77  84
ENDBRANCH  72  74
ENDBRANCH  71  72
ENDBRANCH  70  71
ENDBRANCH  69  70
ENDBRANCH   1  69
TORSDOF 20
ENDMDL
MODEL 3
REMARK VINA RESULT:     -11.0      6.416     16.777
REMARK SMILES O=C(OCCOCCOC(=O)c1nc(NC[C@H]2c3ccccc3CSc3ccccc32)c2ccccc2n1)c1ccc(-c2c3nc(c(-c4ccc(S(=O)(=O)[O-])cc4)c4ccc([nH]4)c(-c4ccc(S(=O)(=O)[O-])cc4)c4nc(c(-c5ccc(S(=O)(=O)[O-])cc5)c5ccc2[nH]5)C=C4)C=C3)cc1
REMARK SMILES IDX 6 1 5 2 4 3 3 4 2 5 1 6 39 7 40 8 98 9 41 10 97 11 42 12
REMARK SMILES IDX 43 13 44 14 91 15 45 16 96 17 90 18 92 19 46 20 95 21 89 22
REMARK SMILES IDX 88 23 47 25 77 26 58 27 76 28 59 29 62 30 75 31 93 32 60 33
REMARK SMILES IDX 61 34 74 36 94 37 63 38 48 39 49 40 57 41 50 42 56 43 51 44
REMARK SMILES IDX 52 45 53 46 54 47 55 48 78 49 79 50 87 51 80 52 86 53 81 54
REMARK SMILES IDX 82 55 83 56 84 57 85 58 64 59 65 60 73 61 66 62 72 63 67 64
REMARK SMILES IDX 68 65 69 66 70 67 71 68 7 69 8 70 9 71 10 72 11 73 12 74
REMARK SMILES IDX 13 75 38 76 14 77 37 78 32 79 36 80 33 81 35 82 34 83 15 84
REMARK SMILES IDX 16 86 17 87 18 88 31 89 19 90 23 91 26 92 30 93 20 94 22 95
REMARK SMILES IDX 24 96 25 97 27 98 29 99 21 100 28 101
REMARK H PARENT 92 24 62 35 15 85
REMARK Flexibility Score: inf
ROOT
ATOM      1  O   UNL A   1      44.595  39.809  28.583  1.00  0.00    -0.374 OA
ENDROOT
BRANCH   1   2
ATOM      2  C   UNL A   1      45.917  39.763  29.119  1.00  0.00     0.202 C 
BRANCH   2   3
ATOM      3  C   UNL A   1      46.452  38.337  29.205  1.00  0.00     0.261 C 
BRANCH   3   4
ATOM      4  O   UNL A   1      47.724  38.229  28.557  1.00  0.00    -0.460 OA
BRANCH   4   5
ATOM      5  C   UNL A   1      48.209  37.201  27.826  1.00  0.00     0.338 C 
ATOM      6  O   UNL A   1      48.984  37.491  26.914  1.00  0.00    -0.246 OA
BRANCH   5   7
ATOM      7  C   UNL A   1      47.846  35.742  27.986  1.00  0.00     0.060 A 
ATOM      8  C   UNL A   1      47.195  35.159  26.882  1.00  0.00     0.016 A 
ATOM      9  C   UNL A   1      48.014  34.932  29.117  1.00  0.00     0.016 A 
ATOM     10  C   UNL A   1      46.688  33.857  26.929  1.00  0.00     0.010 A 
ATOM     11  C   UNL A   1      47.515  33.627  29.173  1.00  0.00     0.010 A 
ATOM     12  C   UNL A   1      46.832  33.090  28.087  1.00  0.00    -0.014 A 
BRANCH  12  13
ATOM     13  C   UNL A   1      46.356  31.695  28.133  1.00  0.00     0.031 A 
ATOM     14  C   UNL A   1      44.945  31.374  28.522  1.00  0.00     0.074 A 
ATOM     15  C   UNL A   1      47.240  30.726  27.834  1.00  0.00     0.049 A 
ATOM     16  N   UNL A   1      44.328  30.223  28.473  1.00  0.00    -0.248 NA
ATOM     17  C   UNL A   1      44.119  32.478  29.040  1.00  0.00     0.031 C 
ATOM     18  C   UNL A   1      48.649  30.959  27.505  1.00  0.00     0.029 A 
ATOM     19  N   UNL A   1      47.092  29.369  27.738  1.00  0.00    -0.354 N 
ATOM     20  C   UNL A   1      43.036  30.464  28.925  1.00  0.00     0.074 A 
ATOM     21  C   UNL A   1      42.970  31.861  29.296  1.00  0.00     0.031 C 
ATOM     22  C   UNL A   1      49.226  29.788  27.199  1.00  0.00     0.029 A 
ATOM     23  C   UNL A   1      48.232  28.725  27.319  1.00  0.00     0.049 A 
ATOM     24  H   UNL A   1      46.253  28.901  27.949  1.00  0.00     0.167 HD
ATOM     25  C   UNL A   1      42.003  29.591  28.998  1.00  0.00     0.031 A 
ATOM     26  C   UNL A   1      48.441  27.429  27.023  1.00  0.00     0.031 A 
ATOM     27  C   UNL A   1      42.119  28.200  28.637  1.00  0.00     0.049 A 
ATOM     28  C   UNL A   1      47.274  26.487  27.088  1.00  0.00     0.074 A 
ATOM     29  C   UNL A   1      41.132  27.230  28.626  1.00  0.00     0.029 A 
ATOM     30  N   UNL A   1      43.291  27.580  28.224  1.00  0.00    -0.354 N 
ATOM     31  N   UNL A   1      46.033  26.745  27.430  1.00  0.00    -0.248 NA
ATOM     32  C   UNL A   1      47.518  25.094  26.696  1.00  0.00     0.031 C 
ATOM     33  C   UNL A   1      41.719  26.014  28.269  1.00  0.00     0.029 A 
ATOM     34  C   UNL A   1      43.057  26.238  27.979  1.00  0.00     0.049 A 
ATOM     35  H   UNL A   1      44.162  28.029  28.122  1.00  0.00     0.167 HD
ATOM     36  C   UNL A   1      45.341  25.552  27.272  1.00  0.00     0.074 A 
ATOM     37  C   UNL A   1      46.299  24.578  26.786  1.00  0.00     0.031 C 
ATOM     38  C   UNL A   1      44.032  25.287  27.503  1.00  0.00     0.031 A 
BRANCH  25  39
ATOM     39  C   UNL A   1      40.650  30.091  29.442  1.00  0.00    -0.014 A 
ATOM     40  C   UNL A   1      40.317  30.113  30.810  1.00  0.00     0.010 A 
ATOM     41  C   UNL A   1      39.648  30.375  28.496  1.00  0.00     0.010 A 
ATOM     42  C   UNL A   1      39.002  30.355  31.221  1.00  0.00     0.020 A 
ATOM     43  C   UNL A   1      38.337  30.644  28.903  1.00  0.00     0.020 A 
ATOM     44  C   UNL A   1      38.016  30.601  30.262  1.00  0.00     0.054 A 
BRANCH  44  45
ATOM     45  S   UNL A   1      36.300  30.831  30.809  1.00  0.00     0.124 S 
ATOM     46  O   UNL A   1      36.129  29.734  31.757  1.00  0.00    -0.237 OA
ATOM     47  O   UNL A   1      36.327  32.171  31.391  1.00  0.00    -0.237 OA
ATOM     48  O   UNL A   1      35.528  30.715  29.574  1.00  0.00    -0.744 OA
ENDBRANCH  44  45
ENDBRANCH  25  39
BRANCH  26  49
ATOM     49  C   UNL A   1      49.779  27.012  26.525  1.00  0.00    -0.014 A 
ATOM     50  C   UNL A   1      50.023  26.884  25.144  1.00  0.00     0.010 A 
ATOM     51  C   UNL A   1      50.776  26.616  27.432  1.00  0.00     0.010 A 
ATOM     52  C   UNL A   1      51.214  26.316  24.683  1.00  0.00     0.020 A 
ATOM     53  C   UNL A   1      51.982  26.074  26.974  1.00  0.00     0.020 A 
ATOM     54  C   UNL A   1      52.179  25.899  25.603  1.00  0.00     0.054 A 
BRANCH  54  55
ATOM     55  S   UNL A   1      53.687  25.102  24.986  1.00  0.00     0.124 S 
ATOM     56  O   UNL A   1      53.732  25.575  23.605  1.00  0.00    -0.237 OA
ATOM     57  O   UNL A   1      54.718  25.640  25.870  1.00  0.00    -0.237 OA
ATOM     58  O   UNL A   1      53.412  23.675  25.150  1.00  0.00    -0.744 OA
ENDBRANCH  54  55
ENDBRANCH  26  49
BRANCH  38  59
ATOM     59  C   UNL A   1      43.544  23.888  27.239  1.00  0.00    -0.014 A 
ATOM     60  C   UNL A   1      43.246  23.492  25.921  1.00  0.00     0.010 A 
ATOM     61  C   UNL A   1      43.278  23.004  28.300  1.00  0.00     0.010 A 
ATOM     62  C   UNL A   1      42.664  22.249  25.671  1.00  0.00     0.020 A 
ATOM     63  C   UNL A   1      42.726  21.747  28.049  1.00  0.00     0.020 A 
ATOM     64  C   UNL A   1      42.402  21.385  26.739  1.00  0.00     0.054 A 
BRANCH  64  65
ATOM     65  S   UNL A   1      41.641  19.776  26.397  1.00  0.00     0.124 S 
ATOM     66  O   UNL A   1      40.246  20.137  26.174  1.00  0.00    -0.237 OA
ATOM     67  O   UNL A   1      42.371  19.317  25.217  1.00  0.00    -0.237 OA
ATOM     68  O   UNL A   1      41.903  19.010  27.615  1.00  0.00    -0.744 OA
ENDBRANCH  64  65
ENDBRANCH  38  59
ENDBRANCH  12  13
ENDBRANCH   5   7
ENDBRANCH   4   5
ENDBRANCH   3   4
ENDBRANCH   2   3
ENDBRANCH   1   2
BRANCH   1  69
ATOM     69  C   UNL A   1      44.114  38.578  28.037  1.00  0.00     0.202 C 
BRANCH  69  70
ATOM     70  C   UNL A   1      42.592  38.632  27.887  1.00  0.00     0.261 C 
BRANCH  70  71
ATOM     71  O   UNL A   1      42.200  39.965  27.525  1.00  0.00    -0.457 OA
BRANCH  71  72
ATOM     72  C   UNL A   1      41.722  40.106  26.255  1.00  0.00     0.376 C 
ATOM     73  O   UNL A   1      40.794  39.489  25.751  1.00  0.00    -0.242 OA
BRANCH  72  74
ATOM     74  C   UNL A   1      42.429  41.258  25.614  1.00  0.00     0.241 A 
ATOM     75  N   UNL A   1      41.992  41.651  24.397  1.00  0.00    -0.204 NA
ATOM     76  N   UNL A   1      43.401  41.845  26.329  1.00  0.00    -0.222 NA
ATOM     77  C   UNL A   1      42.651  42.660  23.809  1.00  0.00     0.138 A 
ATOM     78  C   UNL A   1      44.060  42.826  25.730  1.00  0.00     0.077 A 
ATOM     79  C   UNL A   1      43.777  43.251  24.422  1.00  0.00     0.043 A 
ATOM     80  C   UNL A   1      45.073  43.443  26.449  1.00  0.00     0.029 A 
ATOM     81  C   UNL A   1      44.610  44.242  23.847  1.00  0.00     0.014 A 
ATOM     82  C   UNL A   1      45.857  44.451  25.890  1.00  0.00     0.002 A 
ATOM     83  C   UNL A   1      45.638  44.838  24.577  1.00  0.00     0.001 A 
BRANCH  77  84
ATOM     84  N   UNL A   1      42.184  43.139  22.578  1.00  0.00    -0.368 N 
ATOM     85  H   UNL A   1      41.417  43.756  22.559  1.00  0.00     0.162 HD
BRANCH  84  86
ATOM     86  C   UNL A   1      42.819  42.738  21.315  1.00  0.00     0.127 C 
BRANCH  86  87
ATOM     87  C   UNL A   1      43.641  43.820  20.420  1.00  0.00     0.070 C 
ATOM     88  C   UNL A   1      45.183  43.474  20.446  1.00  0.00    -0.035 A 
ATOM     89  C   UNL A   1      43.014  44.307  19.058  1.00  0.00    -0.025 A 
ATOM     90  C   UNL A   1      45.704  42.265  20.964  1.00  0.00     0.005 A 
ATOM     91  C   UNL A   1      46.158  44.399  20.009  1.00  0.00    -0.034 A 
ATOM     92  C   UNL A   1      43.659  44.821  17.907  1.00  0.00     0.011 A 
ATOM     93  C   UNL A   1      41.606  44.427  18.999  1.00  0.00     0.005 A 
ATOM     94  C   UNL A   1      47.077  41.960  20.965  1.00  0.00     0.000 A 
ATOM     95  C   UNL A   1      47.535  44.065  19.974  1.00  0.00     0.005 A 
ATOM     96  C   UNL A   1      45.777  45.715  19.412  1.00  0.00     0.110 C 
ATOM     97  S   UNL A   1      45.348  45.378  17.699  1.00  0.00    -0.121 SA
ATOM     98  C   UNL A   1      42.920  45.147  16.734  1.00  0.00     0.015 A 
ATOM     99  C   UNL A   1      40.875  44.753  17.849  1.00  0.00     0.000 A 
ATOM    100  C   UNL A   1      47.993  42.845  20.437  1.00  0.00     0.000 A 
ATOM    101  C   UNL A   1      41.537  45.077  16.691  1.00  0.00     0.001 A 
ENDBRANCH  86  87
ENDBRANCH  84  86
ENDBRANCH  77  84
ENDBRANCH  72  74
ENDBRANCH  71  72
ENDBRANCH  70  71
ENDBRANCH  69  70
ENDBRANCH   1  69
TORSDOF 20
ENDMDL
