MODEL 1
REMARK VINA RESULT:     -10.9      0.000      0.000
REMARK SMILES C[C@H](NC(=O)c1cccc(NC(=O)c2ccccc2C(=O)OCCOCCOC(=O)c2ccc(-c3c4nc(c(-c5ccc(S(=O)(=O)[O-])cc5)c5ccc([nH]5)c(-c5ccc(S(=O)(=O)[O-])cc5)c5nc(c(-c6ccc(S(=O)(=O)[O-])cc6)c6ccc3[nH]6)C=C5)C=C4)cc2)c1)c1ccccc1
REMARK SMILES IDX 24 1 23 2 22 3 20 4 21 5 19 6 14 7 15 8 16 9 18 10 17 11
REMARK SMILES IDX 12 12 11 13 13 15 10 16 6 17 7 18 91 19 8 20 9 21 4 22 3 23
REMARK SMILES IDX 5 25 2 26 1 27 92 28 93 29 97 30 94 31 96 32 95 33 25 34
REMARK SMILES IDX 26 35 27 36 28 37 29 38 30 39 31 40 32 41 90 42 33 43 89 44
REMARK SMILES IDX 34 45 35 46 36 47 83 48 37 49 88 50 82 51 84 52 38 53 87 54
REMARK SMILES IDX 81 55 80 56 39 58 69 59 50 60 68 61 51 62 54 63 67 64 85 65
REMARK SMILES IDX 52 66 53 67 66 69 86 70 55 71 40 72 41 73 49 74 42 75 48 76
REMARK SMILES IDX 43 77 44 78 45 79 46 80 47 81 70 82 71 83 79 84 72 85 78 86
REMARK SMILES IDX 73 87 74 88 75 89 76 90 77 91 56 92 57 93 65 94 58 95 64 96
REMARK SMILES IDX 59 97 60 98 61 99 62 100 63 101
REMARK H PARENT 11 14 3 24 84 57 54 68
REMARK Flexibility Score: inf
ROOT
ATOM      1  C   UNL A   1      37.198  21.501  25.126  1.00  0.00     0.202 C 
ENDROOT
BRANCH   1   2
ATOM      2  C   UNL A   1      36.935  22.475  23.974  1.00  0.00     0.261 C 
BRANCH   2   3
ATOM      3  O   UNL A   1      36.237  23.669  24.336  1.00  0.00    -0.460 OA
BRANCH   3   4
ATOM      4  C   UNL A   1      34.968  23.728  23.872  1.00  0.00     0.339 C 
ATOM      5  O   UNL A   1      34.625  23.954  22.714  1.00  0.00    -0.246 OA
BRANCH   4   6
ATOM      6  C   UNL A   1      33.984  23.382  24.913  1.00  0.00     0.072 A 
ATOM      7  C   UNL A   1      32.661  22.991  24.675  1.00  0.00     0.054 A 
ATOM      8  C   UNL A   1      31.833  22.693  25.777  1.00  0.00     0.015 A 
ATOM      9  C   UNL A   1      32.322  22.742  27.084  1.00  0.00     0.001 A 
ATOM     10  C   UNL A   1      34.472  23.414  26.235  1.00  0.00     0.016 A 
ATOM     11  C   UNL A   1      33.646  23.098  27.315  1.00  0.00     0.001 A 
BRANCH   7  12
ATOM     12  C   UNL A   1      31.996  22.936  23.354  1.00  0.00     0.256 C 
ATOM     13  N   UNL A   1      31.269  23.960  22.797  1.00  0.00    -0.322 N 
ATOM     14  H   UNL A   1      30.804  23.700  21.969  1.00  0.00     0.170 HD
ATOM     15  O   UNL A   1      32.097  21.878  22.727  1.00  0.00    -0.269 OA
BRANCH  13  16
ATOM     16  C   UNL A   1      31.048  25.299  23.158  1.00  0.00     0.042 A 
ATOM     17  C   UNL A   1      31.985  27.534  23.294  1.00  0.00     0.041 A 
ATOM     18  C   UNL A   1      30.725  28.040  23.628  1.00  0.00     0.014 A 
ATOM     19  C   UNL A   1      32.153  26.162  23.089  1.00  0.00     0.040 A 
ATOM     20  C   UNL A   1      29.642  27.176  23.767  1.00  0.00     0.003 A 
ATOM     21  C   UNL A   1      29.810  25.806  23.554  1.00  0.00     0.026 A 
BRANCH  17  22
ATOM     22  C   UNL A   1      33.121  28.481  23.281  1.00  0.00     0.251 C 
ATOM     23  N   UNL A   1      33.594  29.071  24.424  1.00  0.00    -0.346 N 
ATOM     24  H   UNL A   1      34.186  29.843  24.276  1.00  0.00     0.164 HD
ATOM     25  O   UNL A   1      33.691  28.701  22.215  1.00  0.00    -0.269 OA
BRANCH  23  26
ATOM     26  C   UNL A   1      33.359  28.739  25.826  1.00  0.00     0.109 C 
ATOM     27  C   UNL A   1      33.814  27.294  26.071  1.00  0.00     0.036 C 
BRANCH  26  28
ATOM     28  C   UNL A   1      34.041  29.681  26.819  1.00  0.00    -0.026 A 
ATOM     29  C   UNL A   1      33.456  30.862  27.305  1.00  0.00     0.006 A 
ATOM     30  C   UNL A   1      35.336  29.365  27.279  1.00  0.00     0.006 A 
ATOM     31  C   UNL A   1      34.150  31.706  28.179  1.00  0.00     0.000 A 
ATOM     32  C   UNL A   1      36.029  30.209  28.152  1.00  0.00     0.000 A 
ATOM     33  C   UNL A   1      35.436  31.384  28.597  1.00  0.00     0.000 A 
ENDBRANCH  26  28
ENDBRANCH  23  26
ENDBRANCH  17  22
ENDBRANCH  13  16
ENDBRANCH   7  12
ENDBRANCH   4   6
ENDBRANCH   3   4
ENDBRANCH   2   3
ENDBRANCH   1   2
BRANCH   1  34
ATOM     34  O   UNL A   1      38.493  21.502  25.709  1.00  0.00    -0.374 OA
BRANCH  34  35
ATOM     35  C   UNL A   1      39.173  22.752  25.820  1.00  0.00     0.202 C 
BRANCH  35  36
ATOM     36  C   UNL A   1      38.561  23.820  26.735  1.00  0.00     0.261 C 
BRANCH  36  37
ATOM     37  O   UNL A   1      39.516  24.396  27.643  1.00  0.00    -0.460 OA
BRANCH  37  38
ATOM     38  C   UNL A   1      39.972  25.623  27.280  1.00  0.00     0.338 C 
ATOM     39  O   UNL A   1      40.429  25.939  26.184  1.00  0.00    -0.246 OA
BRANCH  38  40
ATOM     40  C   UNL A   1      39.729  26.624  28.328  1.00  0.00     0.060 A 
ATOM     41  C   UNL A   1      40.498  27.793  28.310  1.00  0.00     0.016 A 
ATOM     42  C   UNL A   1      38.917  26.325  29.418  1.00  0.00     0.016 A 
ATOM     43  C   UNL A   1      40.497  28.648  29.416  1.00  0.00     0.010 A 
ATOM     44  C   UNL A   1      38.926  27.174  30.533  1.00  0.00     0.010 A 
ATOM     45  C   UNL A   1      39.750  28.316  30.554  1.00  0.00    -0.014 A 
BRANCH  45  46
ATOM     46  C   UNL A   1      39.952  29.064  31.819  1.00  0.00     0.031 A 
ATOM     47  C   UNL A   1      39.011  30.190  32.163  1.00  0.00     0.074 A 
ATOM     48  C   UNL A   1      40.942  28.737  32.668  1.00  0.00     0.049 A 
ATOM     49  N   UNL A   1      39.059  31.033  33.162  1.00  0.00    -0.248 NA
ATOM     50  C   UNL A   1      37.861  30.387  31.264  1.00  0.00     0.031 C 
ATOM     51  C   UNL A   1      41.878  27.628  32.491  1.00  0.00     0.029 A 
ATOM     52  N   UNL A   1      41.329  29.320  33.849  1.00  0.00    -0.354 N 
ATOM     53  C   UNL A   1      37.952  31.861  33.013  1.00  0.00     0.074 A 
ATOM     54  C   UNL A   1      37.260  31.431  31.817  1.00  0.00     0.031 C 
ATOM     55  C   UNL A   1      42.745  27.622  33.520  1.00  0.00     0.029 A 
ATOM     56  C   UNL A   1      42.449  28.749  34.403  1.00  0.00     0.049 A 
ATOM     57  H   UNL A   1      40.851  30.077  34.259  1.00  0.00     0.167 HD
ATOM     58  C   UNL A   1      37.544  32.885  33.801  1.00  0.00     0.031 A 
ATOM     59  C   UNL A   1      43.173  29.113  35.481  1.00  0.00     0.031 A 
ATOM     60  C   UNL A   1      38.239  33.331  34.978  1.00  0.00     0.049 A 
ATOM     61  C   UNL A   1      42.758  30.318  36.283  1.00  0.00     0.074 A 
ATOM     62  C   UNL A   1      37.920  34.383  35.821  1.00  0.00     0.029 A 
ATOM     63  N   UNL A   1      39.392  32.751  35.480  1.00  0.00    -0.354 N 
ATOM     64  N   UNL A   1      41.725  31.107  36.114  1.00  0.00    -0.248 NA
ATOM     65  C   UNL A   1      43.615  30.684  37.423  1.00  0.00     0.031 C 
ATOM     66  C   UNL A   1      38.903  34.459  36.814  1.00  0.00     0.029 A 
ATOM     67  C   UNL A   1      39.806  33.429  36.614  1.00  0.00     0.049 A 
ATOM     68  H   UNL A   1      39.849  31.971  35.089  1.00  0.00     0.167 HD
ATOM     69  C   UNL A   1      41.796  32.050  37.135  1.00  0.00     0.074 A 
ATOM     70  C   UNL A   1      42.965  31.726  37.926  1.00  0.00     0.031 C 
ATOM     71  C   UNL A   1      40.968  33.092  37.393  1.00  0.00     0.031 A 
BRANCH  58  72
ATOM     72  C   UNL A   1      36.292  33.614  33.394  1.00  0.00    -0.014 A 
ATOM     73  C   UNL A   1      36.362  34.819  32.672  1.00  0.00     0.010 A 
ATOM     74  C   UNL A   1      35.033  33.070  33.703  1.00  0.00     0.010 A 
ATOM     75  C   UNL A   1      35.193  35.483  32.292  1.00  0.00     0.020 A 
ATOM     76  C   UNL A   1      33.861  33.722  33.308  1.00  0.00     0.020 A 
ATOM     77  C   UNL A   1      33.949  34.933  32.618  1.00  0.00     0.054 A 
BRANCH  77  78
ATOM     78  S   UNL A   1      32.445  35.804  32.097  1.00  0.00     0.124 S 
ATOM     79  O   UNL A   1      32.502  35.657  30.644  1.00  0.00    -0.237 OA
ATOM     80  O   UNL A   1      31.387  35.050  32.764  1.00  0.00    -0.237 OA
ATOM     81  O   UNL A   1      32.644  37.164  32.594  1.00  0.00    -0.744 OA
ENDBRANCH  77  78
ENDBRANCH  58  72
BRANCH  59  82
ATOM     82  C   UNL A   1      44.404  28.360  35.839  1.00  0.00    -0.014 A 
ATOM     83  C   UNL A   1      45.631  28.652  35.219  1.00  0.00     0.010 A 
ATOM     84  C   UNL A   1      44.343  27.322  36.786  1.00  0.00     0.010 A 
ATOM     85  C   UNL A   1      46.771  27.901  35.522  1.00  0.00     0.020 A 
ATOM     86  C   UNL A   1      45.486  26.586  37.109  1.00  0.00     0.020 A 
ATOM     87  C   UNL A   1      46.690  26.868  36.461  1.00  0.00     0.054 A 
BRANCH  87  88
ATOM     88  S   UNL A   1      48.182  25.918  36.862  1.00  0.00     0.124 S 
ATOM     89  O   UNL A   1      49.156  26.482  35.934  1.00  0.00    -0.237 OA
ATOM     90  O   UNL A   1      48.394  26.234  38.272  1.00  0.00    -0.237 OA
ATOM     91  O   UNL A   1      47.784  24.537  36.595  1.00  0.00    -0.744 OA
ENDBRANCH  87  88
ENDBRANCH  59  82
BRANCH  71  92
ATOM     92  C   UNL A   1      41.275  33.939  38.598  1.00  0.00    -0.014 A 
ATOM     93  C   UNL A   1      42.051  35.106  38.486  1.00  0.00     0.010 A 
ATOM     94  C   UNL A   1      40.726  33.595  39.848  1.00  0.00     0.010 A 
ATOM     95  C   UNL A   1      42.293  35.902  39.609  1.00  0.00     0.020 A 
ATOM     96  C   UNL A   1      40.949  34.400  40.967  1.00  0.00     0.020 A 
ATOM     97  C   UNL A   1      41.742  35.544  40.843  1.00  0.00     0.054 A 
BRANCH  97  98
ATOM     98  S   UNL A   1      42.023  36.619  42.277  1.00  0.00     0.124 S 
ATOM     99  O   UNL A   1      43.374  36.239  42.681  1.00  0.00    -0.237 OA
ATOM    100  O   UNL A   1      41.891  37.959  41.708  1.00  0.00    -0.237 OA
ATOM    101  O   UNL A   1      40.963  36.239  43.209  1.00  0.00    -0.744 OA
ENDBRANCH  97  98
ENDBRANCH  71  92
ENDBRANCH  45  46
ENDBRANCH  38  40
ENDBRANCH  37  38
ENDBRANCH  36  37
ENDBRANCH  35  36
ENDBRANCH  34  35
ENDBRANCH   1  34
TORSDOF 22
ENDMDL
MODEL 2
REMARK VINA RESULT:     -10.4      2.335      8.983
REMARK SMILES C[C@H](NC(=O)c1cccc(NC(=O)c2ccccc2C(=O)OCCOCCOC(=O)c2ccc(-c3c4nc(c(-c5ccc(S(=O)(=O)[O-])cc5)c5ccc([nH]5)c(-c5ccc(S(=O)(=O)[O-])cc5)c5nc(c(-c6ccc(S(=O)(=O)[O-])cc6)c6ccc3[nH]6)C=C5)C=C4)cc2)c1)c1ccccc1
REMARK SMILES IDX 24 1 23 2 22 3 20 4 21 5 19 6 14 7 15 8 16 9 18 10 17 11
REMARK SMILES IDX 12 12 11 13 13 15 10 16 6 17 7 18 91 19 8 20 9 21 4 22 3 23
REMARK SMILES IDX 5 25 2 26 1 27 92 28 93 29 97 30 94 31 96 32 95 33 25 34
REMARK SMILES IDX 26 35 27 36 28 37 29 38 30 39 31 40 32 41 90 42 33 43 89 44
REMARK SMILES IDX 34 45 35 46 36 47 83 48 37 49 88 50 82 51 84 52 38 53 87 54
REMARK SMILES IDX 81 55 80 56 39 58 69 59 50 60 68 61 51 62 54 63 67 64 85 65
REMARK SMILES IDX 52 66 53 67 66 69 86 70 55 71 40 72 41 73 49 74 42 75 48 76
REMARK SMILES IDX 43 77 44 78 45 79 46 80 47 81 70 82 71 83 79 84 72 85 78 86
REMARK SMILES IDX 73 87 74 88 75 89 76 90 77 91 56 92 57 93 65 94 58 95 64 96
REMARK SMILES IDX 59 97 60 98 61 99 62 100 63 101
REMARK H PARENT 11 14 3 24 84 57 54 68
REMARK Flexibility Score: inf
ROOT
ATOM      1  C   UNL A   1      36.599  22.200  24.370  1.00  0.00     0.202 C 
ENDROOT
BRANCH   1   2
ATOM      2  C   UNL A   1      36.035  23.567  24.769  1.00  0.00     0.261 C 
BRANCH   2   3
ATOM      3  O   UNL A   1      35.083  24.119  23.858  1.00  0.00    -0.460 OA
BRANCH   3   4
ATOM      4  C   UNL A   1      34.441  25.214  24.328  1.00  0.00     0.339 C 
ATOM      5  O   UNL A   1      34.734  25.854  25.335  1.00  0.00    -0.246 OA
BRANCH   4   6
ATOM      6  C   UNL A   1      33.363  25.652  23.423  1.00  0.00     0.072 A 
ATOM      7  C   UNL A   1      32.318  26.516  23.772  1.00  0.00     0.054 A 
ATOM      8  C   UNL A   1      31.355  26.843  22.796  1.00  0.00     0.015 A 
ATOM      9  C   UNL A   1      31.452  26.356  21.491  1.00  0.00     0.001 A 
ATOM     10  C   UNL A   1      33.461  25.178  22.099  1.00  0.00     0.016 A 
ATOM     11  C   UNL A   1      32.510  25.525  21.139  1.00  0.00     0.001 A 
BRANCH   7  12
ATOM     12  C   UNL A   1      32.065  27.072  25.120  1.00  0.00     0.256 C 
ATOM     13  N   UNL A   1      31.571  26.356  26.184  1.00  0.00    -0.322 N 
ATOM     14  H   UNL A   1      31.357  26.920  26.963  1.00  0.00     0.170 HD
ATOM     15  O   UNL A   1      32.302  28.272  25.277  1.00  0.00    -0.269 OA
BRANCH  13  16
ATOM     16  C   UNL A   1      31.308  24.994  26.398  1.00  0.00     0.042 A 
ATOM     17  C   UNL A   1      32.231  22.828  26.988  1.00  0.00     0.041 A 
ATOM     18  C   UNL A   1      30.938  22.299  27.060  1.00  0.00     0.014 A 
ATOM     19  C   UNL A   1      32.417  24.165  26.627  1.00  0.00     0.040 A 
ATOM     20  C   UNL A   1      29.840  23.101  26.762  1.00  0.00     0.003 A 
ATOM     21  C   UNL A   1      30.028  24.439  26.410  1.00  0.00     0.026 A 
BRANCH  17  22
ATOM     22  C   UNL A   1      33.363  21.899  27.194  1.00  0.00     0.251 C 
ATOM     23  N   UNL A   1      33.457  20.703  26.531  1.00  0.00    -0.346 N 
ATOM     24  H   UNL A   1      34.114  20.073  26.907  1.00  0.00     0.164 HD
ATOM     25  O   UNL A   1      34.274  22.240  27.945  1.00  0.00    -0.269 OA
BRANCH  23  26
ATOM     26  C   UNL A   1      32.740  20.213  25.358  1.00  0.00     0.109 C 
ATOM     27  C   UNL A   1      33.107  21.092  24.155  1.00  0.00     0.036 C 
BRANCH  26  28
ATOM     28  C   UNL A   1      32.997  18.741  25.032  1.00  0.00    -0.026 A 
ATOM     29  C   UNL A   1      32.575  17.675  25.844  1.00  0.00     0.006 A 
ATOM     30  C   UNL A   1      33.703  18.417  23.856  1.00  0.00     0.006 A 
ATOM     31  C   UNL A   1      32.881  16.350  25.514  1.00  0.00     0.000 A 
ATOM     32  C   UNL A   1      34.008  17.093  23.526  1.00  0.00     0.000 A 
ATOM     33  C   UNL A   1      33.601  16.059  24.360  1.00  0.00     0.000 A 
ENDBRANCH  26  28
ENDBRANCH  23  26
ENDBRANCH  17  22
ENDBRANCH  13  16
ENDBRANCH   7  12
ENDBRANCH   4   6
ENDBRANCH   3   4
ENDBRANCH   2   3
ENDBRANCH   1   2
BRANCH   1  34
ATOM     34  O   UNL A   1      37.934  21.900  24.751  1.00  0.00    -0.374 OA
BRANCH  34  35
ATOM     35  C   UNL A   1      38.281  22.035  26.130  1.00  0.00     0.202 C 
BRANCH  35  36
ATOM     36  C   UNL A   1      39.767  22.167  26.483  1.00  0.00     0.261 C 
BRANCH  36  37
ATOM     37  O   UNL A   1      40.286  23.487  26.245  1.00  0.00    -0.460 OA
BRANCH  37  38
ATOM     38  C   UNL A   1      41.278  23.866  27.093  1.00  0.00     0.338 C 
ATOM     39  O   UNL A   1      42.355  23.299  27.259  1.00  0.00    -0.246 OA
BRANCH  38  40
ATOM     40  C   UNL A   1      40.986  25.160  27.725  1.00  0.00     0.060 A 
ATOM     41  C   UNL A   1      42.032  26.081  27.848  1.00  0.00     0.016 A 
ATOM     42  C   UNL A   1      39.771  25.375  28.370  1.00  0.00     0.016 A 
ATOM     43  C   UNL A   1      41.882  27.206  28.665  1.00  0.00     0.010 A 
ATOM     44  C   UNL A   1      39.625  26.493  29.201  1.00  0.00     0.010 A 
ATOM     45  C   UNL A   1      40.695  27.389  29.386  1.00  0.00    -0.014 A 
BRANCH  45  46
ATOM     46  C   UNL A   1      40.627  28.419  30.454  1.00  0.00     0.031 A 
ATOM     47  C   UNL A   1      41.570  28.324  31.625  1.00  0.00     0.074 A 
ATOM     48  C   UNL A   1      39.756  29.440  30.378  1.00  0.00     0.049 A 
ATOM     49  N   UNL A   1      41.621  29.054  32.709  1.00  0.00    -0.248 NA
ATOM     50  C   UNL A   1      42.598  27.270  31.560  1.00  0.00     0.031 C 
ATOM     51  C   UNL A   1      38.837  29.689  29.268  1.00  0.00     0.029 A 
ATOM     52  N   UNL A   1      39.499  30.456  31.264  1.00  0.00    -0.354 N 
ATOM     53  C   UNL A   1      42.679  28.549  33.457  1.00  0.00     0.074 A 
ATOM     54  C   UNL A   1      43.232  27.439  32.712  1.00  0.00     0.031 C 
ATOM     55  C   UNL A   1      38.101  30.780  29.550  1.00  0.00     0.029 A 
ATOM     56  C   UNL A   1      38.470  31.280  30.873  1.00  0.00     0.049 A 
ATOM     57  H   UNL A   1      40.002  30.583  32.100  1.00  0.00     0.167 HD
ATOM     58  C   UNL A   1      43.150  28.972  34.655  1.00  0.00     0.031 A 
ATOM     59  C   UNL A   1      37.872  32.299  31.522  1.00  0.00     0.031 A 
ATOM     60  C   UNL A   1      42.591  30.060  35.410  1.00  0.00     0.049 A 
ATOM     61  C   UNL A   1      38.348  32.686  32.898  1.00  0.00     0.074 A 
ATOM     62  C   UNL A   1      42.980  30.539  36.650  1.00  0.00     0.029 A 
ATOM     63  N   UNL A   1      41.524  30.840  34.996  1.00  0.00    -0.354 N 
ATOM     64  N   UNL A   1      39.331  32.181  33.604  1.00  0.00    -0.248 NA
ATOM     65  C   UNL A   1      37.626  33.780  33.567  1.00  0.00     0.031 C 
ATOM     66  C   UNL A   1      42.123  31.588  37.001  1.00  0.00     0.029 A 
ATOM     67  C   UNL A   1      41.231  31.789  35.961  1.00  0.00     0.049 A 
ATOM     68  H   UNL A   1      41.044  30.736  34.143  1.00  0.00     0.167 HD
ATOM     69  C   UNL A   1      39.357  32.908  34.790  1.00  0.00     0.074 A 
ATOM     70  C   UNL A   1      38.302  33.896  34.702  1.00  0.00     0.031 C 
ATOM     71  C   UNL A   1      40.181  32.769  35.857  1.00  0.00     0.031 A 
BRANCH  58  72
ATOM     72  C   UNL A   1      44.323  28.230  35.237  1.00  0.00    -0.014 A 
ATOM     73  C   UNL A   1      44.130  27.189  36.162  1.00  0.00     0.010 A 
ATOM     74  C   UNL A   1      45.629  28.551  34.825  1.00  0.00     0.010 A 
ATOM     75  C   UNL A   1      45.226  26.502  36.690  1.00  0.00     0.020 A 
ATOM     76  C   UNL A   1      46.726  27.853  35.336  1.00  0.00     0.020 A 
ATOM     77  C   UNL A   1      46.519  26.842  36.278  1.00  0.00     0.054 A 
BRANCH  77  78
ATOM     78  S   UNL A   1      47.924  25.922  36.963  1.00  0.00     0.124 S 
ATOM     79  O   UNL A   1      48.307  25.076  35.835  1.00  0.00    -0.237 OA
ATOM     80  O   UNL A   1      48.869  26.982  37.303  1.00  0.00    -0.237 OA
ATOM     81  O   UNL A   1      47.350  25.214  38.105  1.00  0.00    -0.744 OA
ENDBRANCH  77  78
ENDBRANCH  58  72
BRANCH  59  82
ATOM     82  C   UNL A   1      36.715  32.998  30.904  1.00  0.00    -0.014 A 
ATOM     83  C   UNL A   1      35.397  32.628  31.223  1.00  0.00     0.010 A 
ATOM     84  C   UNL A   1      36.932  34.023  29.965  1.00  0.00     0.010 A 
ATOM     85  C   UNL A   1      34.317  33.254  30.594  1.00  0.00     0.020 A 
ATOM     86  C   UNL A   1      35.854  34.667  29.353  1.00  0.00     0.020 A 
ATOM     87  C   UNL A   1      34.552  34.265  29.658  1.00  0.00     0.054 A 
BRANCH  87  88
ATOM     88  S   UNL A   1      33.140  35.085  28.868  1.00  0.00     0.124 S 
ATOM     89  O   UNL A   1      33.779  36.220  28.211  1.00  0.00    -0.237 OA
ATOM     90  O   UNL A   1      32.622  34.048  27.980  1.00  0.00    -0.237 OA
ATOM     91  O   UNL A   1      32.271  35.420  29.996  1.00  0.00    -0.744 OA
ENDBRANCH  87  88
ENDBRANCH  59  82
BRANCH  71  92
ATOM     92  C   UNL A   1      40.000  33.726  37.004  1.00  0.00    -0.014 A 
ATOM     93  C   UNL A   1      40.584  35.004  36.982  1.00  0.00     0.010 A 
ATOM     94  C   UNL A   1      39.182  33.362  38.090  1.00  0.00     0.010 A 
ATOM     95  C   UNL A   1      40.372  35.894  38.039  1.00  0.00     0.020 A 
ATOM     96  C   UNL A   1      38.952  34.257  39.138  1.00  0.00     0.020 A 
ATOM     97  C   UNL A   1      39.559  35.515  39.111  1.00  0.00     0.054 A 
BRANCH  97  98
ATOM     98  S   UNL A   1      39.253  36.705  40.446  1.00  0.00     0.124 S 
ATOM     99  O   UNL A   1      38.797  37.879  39.706  1.00  0.00    -0.237 OA
ATOM    100  O   UNL A   1      38.234  36.035  41.250  1.00  0.00    -0.237 OA
ATOM    101  O   UNL A   1      40.556  36.842  41.093  1.00  0.00    -0.744 OA
ENDBRANCH  97  98
ENDBRANCH  71  92
ENDBRANCH  45  46
ENDBRANCH  38  40
ENDBRANCH  37  38
ENDBRANCH  36  37
ENDBRANCH  35  36
ENDBRANCH  34  35
ENDBRANCH   1  34
TORSDOF 22
ENDMDL
MODEL 3
REMARK VINA RESULT:     -10.1      6.490      9.305
REMARK SMILES C[C@H](NC(=O)c1cccc(NC(=O)c2ccccc2C(=O)OCCOCCOC(=O)c2ccc(-c3c4nc(c(-c5ccc(S(=O)(=O)[O-])cc5)c5ccc([nH]5)c(-c5ccc(S(=O)(=O)[O-])cc5)c5nc(c(-c6ccc(S(=O)(=O)[O-])cc6)c6ccc3[nH]6)C=C5)C=C4)cc2)c1)c1ccccc1
REMARK SMILES IDX 24 1 23 2 22 3 20 4 21 5 19 6 14 7 15 8 16 9 18 10 17 11
REMARK SMILES IDX 12 12 11 13 13 15 10 16 6 17 7 18 91 19 8 20 9 21 4 22 3 23
REMARK SMILES IDX 5 25 2 26 1 27 92 28 93 29 97 30 94 31 96 32 95 33 25 34
REMARK SMILES IDX 26 35 27 36 28 37 29 38 30 39 31 40 32 41 90 42 33 43 89 44
REMARK SMILES IDX 34 45 35 46 36 47 83 48 37 49 88 50 82 51 84 52 38 53 87 54
REMARK SMILES IDX 81 55 80 56 39 58 69 59 50 60 68 61 51 62 54 63 67 64 85 65
REMARK SMILES IDX 52 66 53 67 66 69 86 70 55 71 40 72 41 73 49 74 42 75 48 76
REMARK SMILES IDX 43 77 44 78 45 79 46 80 47 81 70 82 71 83 79 84 72 85 78 86
REMARK SMILES IDX 73 87 74 88 75 89 76 90 77 91 56 92 57 93 65 94 58 95 64 96
REMARK SMILES IDX 59 97 60 98 61 99 62 100 63 101
REMARK H PARENT 11 14 3 24 84 57 54 68
REMARK Flexibility Score: inf
ROOT
ATOM      1  C   UNL A   1      36.365  22.656  24.406  1.00  0.00     0.202 C 
ENDROOT
BRANCH   1   2
ATOM      2  C   UNL A   1      35.535  23.794  25.007  1.00  0.00     0.261 C 
BRANCH   2   3
ATOM      3  O   UNL A   1      34.621  24.421  24.105  1.00  0.00    -0.460 OA
BRANCH   3   4
ATOM      4  C   UNL A   1      34.195  25.639  24.509  1.00  0.00     0.339 C 
ATOM      5  O   UNL A   1      34.712  26.343  25.374  1.00  0.00    -0.246 OA
BRANCH   4   6
ATOM      6  C   UNL A   1      33.052  26.117  23.710  1.00  0.00     0.072 A 
ATOM      7  C   UNL A   1      31.976  26.863  24.206  1.00  0.00     0.054 A 
ATOM      8  C   UNL A   1      30.951  27.247  23.318  1.00  0.00     0.015 A 
ATOM      9  C   UNL A   1      31.016  26.934  21.958  1.00  0.00     0.001 A 
ATOM     10  C   UNL A   1      33.116  25.818  22.334  1.00  0.00     0.016 A 
ATOM     11  C   UNL A   1      32.103  26.222  21.463  1.00  0.00     0.001 A 
BRANCH   7  12
ATOM     12  C   UNL A   1      31.754  27.230  25.623  1.00  0.00     0.256 C 
ATOM     13  N   UNL A   1      31.340  26.360  26.603  1.00  0.00    -0.322 N 
ATOM     14  H   UNL A   1      31.133  26.808  27.455  1.00  0.00     0.170 HD
ATOM     15  O   UNL A   1      31.940  28.411  25.924  1.00  0.00    -0.269 OA
BRANCH  13  16
ATOM     16  C   UNL A   1      31.151  24.970  26.649  1.00  0.00     0.042 A 
ATOM     17  C   UNL A   1      32.168  22.807  27.071  1.00  0.00     0.041 A 
ATOM     18  C   UNL A   1      30.910  22.202  26.988  1.00  0.00     0.014 A 
ATOM     19  C   UNL A   1      32.293  24.184  26.871  1.00  0.00     0.040 A 
ATOM     20  C   UNL A   1      29.786  22.969  26.696  1.00  0.00     0.003 A 
ATOM     21  C   UNL A   1      29.911  24.346  26.505  1.00  0.00     0.026 A 
BRANCH  17  22
ATOM     22  C   UNL A   1      33.341  21.926  27.261  1.00  0.00     0.251 C 
ATOM     23  N   UNL A   1      33.476  20.736  26.596  1.00  0.00    -0.346 N 
ATOM     24  H   UNL A   1      34.163  20.133  26.962  1.00  0.00     0.164 HD
ATOM     25  O   UNL A   1      34.247  22.304  28.002  1.00  0.00    -0.269 OA
BRANCH  23  26
ATOM     26  C   UNL A   1      32.765  20.217  25.432  1.00  0.00     0.109 C 
ATOM     27  C   UNL A   1      33.066  21.121  24.230  1.00  0.00     0.036 C 
BRANCH  26  28
ATOM     28  C   UNL A   1      33.091  18.762  25.091  1.00  0.00    -0.026 A 
ATOM     29  C   UNL A   1      32.529  17.659  25.753  1.00  0.00     0.006 A 
ATOM     30  C   UNL A   1      34.015  18.494  24.059  1.00  0.00     0.006 A 
ATOM     31  C   UNL A   1      32.902  16.350  25.425  1.00  0.00     0.000 A 
ATOM     32  C   UNL A   1      34.388  17.188  23.731  1.00  0.00     0.000 A 
ATOM     33  C   UNL A   1      33.835  16.115  24.419  1.00  0.00     0.000 A 
ENDBRANCH  26  28
ENDBRANCH  23  26
ENDBRANCH  17  22
ENDBRANCH  13  16
ENDBRANCH   7  12
ENDBRANCH   4   6
ENDBRANCH   3   4
ENDBRANCH   2   3
ENDBRANCH   1   2
BRANCH   1  34
ATOM     34  O   UNL A   1      37.771  22.689  24.603  1.00  0.00    -0.374 OA
BRANCH  34  35
ATOM     35  C   UNL A   1      38.291  22.113  25.802  1.00  0.00     0.202 C 
BRANCH  35  36
ATOM     36  C   UNL A   1      38.749  20.651  25.751  1.00  0.00     0.261 C 
BRANCH  36  37
ATOM     37  O   UNL A   1      40.175  20.514  25.611  1.00  0.00    -0.460 OA
BRANCH  37  38
ATOM     38  C   UNL A   1      40.853  20.439  26.785  1.00  0.00     0.338 C 
ATOM     39  O   UNL A   1      40.724  19.578  27.653  1.00  0.00    -0.246 OA
BRANCH  38  40
ATOM     40  C   UNL A   1      41.909  21.458  26.867  1.00  0.00     0.060 A 
ATOM     41  C   UNL A   1      42.420  21.773  28.131  1.00  0.00     0.016 A 
ATOM     42  C   UNL A   1      42.234  22.232  25.756  1.00  0.00     0.016 A 
ATOM     43  C   UNL A   1      43.225  22.904  28.298  1.00  0.00     0.010 A 
ATOM     44  C   UNL A   1      43.028  23.374  25.925  1.00  0.00     0.010 A 
ATOM     45  C   UNL A   1      43.490  23.739  27.203  1.00  0.00    -0.014 A 
BRANCH  45  46
ATOM     46  C   UNL A   1      44.107  25.072  27.419  1.00  0.00     0.031 A 
ATOM     47  C   UNL A   1      43.242  26.212  27.891  1.00  0.00     0.074 A 
ATOM     48  C   UNL A   1      45.422  25.268  27.221  1.00  0.00     0.049 A 
ATOM     49  N   UNL A   1      43.550  27.473  28.052  1.00  0.00    -0.248 NA
ATOM     50  C   UNL A   1      41.848  25.884  28.236  1.00  0.00     0.031 C 
ATOM     51  C   UNL A   1      46.383  24.236  26.832  1.00  0.00     0.029 A 
ATOM     52  N   UNL A   1      46.174  26.412  27.313  1.00  0.00    -0.354 N 
ATOM     53  C   UNL A   1      42.392  28.090  28.511  1.00  0.00     0.074 A 
ATOM     54  C   UNL A   1      41.369  27.069  28.587  1.00  0.00     0.031 C 
ATOM     55  C   UNL A   1      47.597  24.801  26.699  1.00  0.00     0.029 A 
ATOM     56  C   UNL A   1      47.490  26.237  26.957  1.00  0.00     0.049 A 
ATOM     57  H   UNL A   1      45.806  27.277  27.606  1.00  0.00     0.167 HD
ATOM     58  C   UNL A   1      42.195  29.389  28.843  1.00  0.00     0.031 A 
ATOM     59  C   UNL A   1      48.485  27.135  26.820  1.00  0.00     0.031 A 
ATOM     60  C   UNL A   1      43.201  30.413  28.749  1.00  0.00     0.049 A 
ATOM     61  C   UNL A   1      48.216  28.591  27.096  1.00  0.00     0.074 A 
ATOM     62  C   UNL A   1      43.084  31.764  29.031  1.00  0.00     0.029 A 
ATOM     63  N   UNL A   1      44.508  30.199  28.343  1.00  0.00    -0.354 N 
ATOM     64  N   UNL A   1      47.109  29.163  27.503  1.00  0.00    -0.248 NA
ATOM     65  C   UNL A   1      49.336  29.524  26.889  1.00  0.00     0.031 C 
ATOM     66  C   UNL A   1      44.315  32.373  28.760  1.00  0.00     0.029 A 
ATOM     67  C   UNL A   1      45.206  31.394  28.354  1.00  0.00     0.049 A 
ATOM     68  H   UNL A   1      44.884  29.327  28.086  1.00  0.00     0.167 HD
ATOM     69  C   UNL A   1      47.403  30.518  27.618  1.00  0.00     0.074 A 
ATOM     70  C   UNL A   1      48.795  30.680  27.253  1.00  0.00     0.031 C 
ATOM     71  C   UNL A   1      46.592  31.538  27.993  1.00  0.00     0.031 A 
BRANCH  58  72
ATOM     72  C   UNL A   1      40.822  29.781  29.317  1.00  0.00    -0.014 A 
ATOM     73  C   UNL A   1      39.737  29.830  28.424  1.00  0.00     0.010 A 
ATOM     74  C   UNL A   1      40.606  30.067  30.677  1.00  0.00     0.010 A 
ATOM     75  C   UNL A   1      38.466  30.188  28.877  1.00  0.00     0.020 A 
ATOM     76  C   UNL A   1      39.331  30.406  31.138  1.00  0.00     0.020 A 
ATOM     77  C   UNL A   1      38.271  30.479  30.231  1.00  0.00     0.054 A 
BRANCH  77  78
ATOM     78  S   UNL A   1      36.605  30.922  30.799  1.00  0.00     0.124 S 
ATOM     79  O   UNL A   1      35.854  30.930  29.545  1.00  0.00    -0.237 OA
ATOM     80  O   UNL A   1      36.279  29.837  31.720  1.00  0.00    -0.237 OA
ATOM     81  O   UNL A   1      36.789  32.230  31.423  1.00  0.00    -0.744 OA
ENDBRANCH  77  78
ENDBRANCH  58  72
BRANCH  59  82
ATOM     82  C   UNL A   1      49.824  26.696  26.345  1.00  0.00    -0.014 A 
ATOM     83  C   UNL A   1      50.811  26.284  27.256  1.00  0.00     0.010 A 
ATOM     84  C   UNL A   1      50.124  26.719  24.970  1.00  0.00     0.010 A 
ATOM     85  C   UNL A   1      52.085  25.927  26.803  1.00  0.00     0.020 A 
ATOM     86  C   UNL A   1      51.388  26.339  24.512  1.00  0.00     0.020 A 
ATOM     87  C   UNL A   1      52.367  25.963  25.434  1.00  0.00     0.054 A 
BRANCH  87  88
ATOM     88  S   UNL A   1      54.016  25.473  24.858  1.00  0.00     0.124 S 
ATOM     89  O   UNL A   1      53.923  24.018  24.882  1.00  0.00    -0.237 OA
ATOM     90  O   UNL A   1      54.088  26.082  23.533  1.00  0.00    -0.237 OA
ATOM     91  O   UNL A   1      54.910  26.062  25.855  1.00  0.00    -0.744 OA
ENDBRANCH  87  88
ENDBRANCH  59  82
BRANCH  71  92
ATOM     92  C   UNL A   1      47.195  32.916  28.059  1.00  0.00    -0.014 A 
ATOM     93  C   UNL A   1      47.165  33.775  26.947  1.00  0.00     0.010 A 
ATOM     94  C   UNL A   1      47.742  33.377  29.271  1.00  0.00     0.010 A 
ATOM     95  C   UNL A   1      47.695  35.065  27.039  1.00  0.00     0.020 A 
ATOM     96  C   UNL A   1      48.254  34.673  29.371  1.00  0.00     0.020 A 
ATOM     97  C   UNL A   1      48.237  35.506  28.249  1.00  0.00     0.054 A 
BRANCH  97  98
ATOM     98  S   UNL A   1      48.871  37.202  28.363  1.00  0.00     0.124 S 
ATOM     99  O   UNL A   1      48.270  37.667  29.610  1.00  0.00    -0.237 OA
ATOM    100  O   UNL A   1      50.319  37.006  28.399  1.00  0.00    -0.237 OA
ATOM    101  O   UNL A   1      48.366  37.842  27.150  1.00  0.00    -0.744 OA
ENDBRANCH  97  98
ENDBRANCH  71  92
ENDBRANCH  45  46
ENDBRANCH  38  40
ENDBRANCH  37  38
ENDBRANCH  36  37
ENDBRANCH  35  36
ENDBRANCH  34  35
ENDBRANCH   1  34
TORSDOF 22
ENDMDL
