MODEL 1
REMARK VINA RESULT:      -9.9      0.000      0.000
REMARK SMILES O=C(Cc1ccc(-c2ccn(C(F)F)c(=O)c2)cc1)OCCOCCOC(=O)c1ccc(-c2c3nc(c(-c4ccc(S(=O)(=O)[O-])cc4)c4ccc([nH]4)c(-c4ccc(S(=O)(=O)[O-])cc4)c4nc(c(-c5ccc(S(=O)(=O)[O-])cc5)c5ccc2[nH]5)C=C4)C=C3)cc1
REMARK SMILES IDX 23 1 22 2 21 3 20 4 2 5 1 6 3 7 4 8 5 9 19 10 6 11 18 12
REMARK SMILES IDX 7 13 8 14 9 15 17 16 10 17 15 18 11 19 16 20 12 21 13 22
REMARK SMILES IDX 14 23 24 24 25 25 26 26 27 27 28 28 29 29 30 30 88 31 31 32
REMARK SMILES IDX 87 33 32 34 33 35 34 36 81 37 35 38 86 39 80 40 82 41 36 42
REMARK SMILES IDX 85 43 79 44 78 45 37 47 67 48 48 49 66 50 49 51 52 52 65 53
REMARK SMILES IDX 83 54 50 55 51 56 64 58 84 59 53 60 38 61 39 62 47 63 40 64
REMARK SMILES IDX 46 65 41 66 42 67 43 68 44 69 45 70 68 71 69 72 77 73 70 74
REMARK SMILES IDX 76 75 71 76 72 77 73 78 74 79 75 80 54 81 55 82 63 83 56 84
REMARK SMILES IDX 62 85 57 86 58 87 59 88 60 89 61 90
REMARK H PARENT 82 46 52 57
REMARK Flexibility Score: inf
ROOT
ATOM      1  O   UNL A   1      35.842  23.907  25.718  1.00  0.00    -0.374 OA
ENDROOT
BRANCH   1   2
ATOM      2  C   UNL A   1      34.846  22.919  25.460  1.00  0.00     0.202 C 
BRANCH   2   3
ATOM      3  C   UNL A   1      34.422  22.746  24.003  1.00  0.00     0.261 C 
BRANCH   3   4
ATOM      4  O   UNL A   1      33.008  22.872  23.792  1.00  0.00    -0.463 OA
BRANCH   4   5
ATOM      5  C   UNL A   1      32.114  23.382  24.669  1.00  0.00     0.310 C 
ATOM      6  O   UNL A   1      31.672  22.649  25.557  1.00  0.00    -0.252 OA
BRANCH   5   7
ATOM      7  C   UNL A   1      31.557  24.783  24.504  1.00  0.00     0.158 C 
BRANCH   7   8
ATOM      8  C   UNL A   1      32.271  25.878  25.243  1.00  0.00    -0.037 A 
ATOM      9  C   UNL A   1      33.372  26.506  24.659  1.00  0.00     0.005 A 
ATOM     10  C   UNL A   1      31.822  26.317  26.495  1.00  0.00     0.005 A 
ATOM     11  C   UNL A   1      33.921  27.640  25.250  1.00  0.00     0.009 A 
ATOM     12  C   UNL A   1      32.312  27.500  27.041  1.00  0.00     0.009 A 
ATOM     13  C   UNL A   1      33.336  28.199  26.395  1.00  0.00    -0.018 A 
BRANCH  13  14
ATOM     14  C   UNL A   1      33.705  29.555  26.846  1.00  0.00    -0.011 A 
ATOM     15  C   UNL A   1      34.985  29.895  27.440  1.00  0.00     0.027 A 
ATOM     16  C   UNL A   1      32.748  30.498  26.789  1.00  0.00     0.080 A 
ATOM     17  C   UNL A   1      35.198  31.120  27.933  1.00  0.00     0.095 A 
ATOM     18  C   UNL A   1      32.987  31.876  27.280  1.00  0.00     0.255 A 
ATOM     19  N   UNL A   1      34.223  32.098  27.861  1.00  0.00    -0.258 N 
ATOM     20  O   UNL A   1      32.098  32.710  27.141  1.00  0.00    -0.269 OA
BRANCH  19  21
ATOM     21  C   UNL A   1      34.451  33.412  28.398  1.00  0.00     0.451 C 
ATOM     22  F   UNL A   1      33.982  33.509  29.666  1.00  0.00    -0.185 F 
ATOM     23  F   UNL A   1      35.773  33.711  28.413  1.00  0.00    -0.185 F 
ENDBRANCH  19  21
ENDBRANCH  13  14
ENDBRANCH   7   8
ENDBRANCH   5   7
ENDBRANCH   4   5
ENDBRANCH   3   4
ENDBRANCH   2   3
ENDBRANCH   1   2
BRANCH   1  24
ATOM     24  C   UNL A   1      37.138  23.612  25.177  1.00  0.00     0.202 C 
BRANCH  24  25
ATOM     25  C   UNL A   1      38.271  23.565  26.204  1.00  0.00     0.261 C 
BRANCH  25  26
ATOM     26  O   UNL A   1      38.457  24.841  26.825  1.00  0.00    -0.460 OA
BRANCH  26  27
ATOM     27  C   UNL A   1      39.721  25.102  27.238  1.00  0.00     0.338 C 
ATOM     28  O   UNL A   1      40.758  24.660  26.771  1.00  0.00    -0.246 OA
BRANCH  27  29
ATOM     29  C   UNL A   1      39.662  26.214  28.209  1.00  0.00     0.060 A 
ATOM     30  C   UNL A   1      40.323  27.410  27.887  1.00  0.00     0.016 A 
ATOM     31  C   UNL A   1      38.923  26.104  29.390  1.00  0.00     0.016 A 
ATOM     32  C   UNL A   1      40.287  28.486  28.769  1.00  0.00     0.010 A 
ATOM     33  C   UNL A   1      38.893  27.177  30.274  1.00  0.00     0.010 A 
ATOM     34  C   UNL A   1      39.609  28.353  29.985  1.00  0.00    -0.014 A 
BRANCH  34  35
ATOM     35  C   UNL A   1      39.814  29.325  31.079  1.00  0.00     0.031 A 
ATOM     36  C   UNL A   1      40.954  29.072  32.021  1.00  0.00     0.074 A 
ATOM     37  C   UNL A   1      38.960  30.340  31.279  1.00  0.00     0.049 A 
ATOM     38  N   UNL A   1      41.225  29.634  33.166  1.00  0.00    -0.248 NA
ATOM     39  C   UNL A   1      41.900  28.014  31.625  1.00  0.00     0.031 C 
ATOM     40  C   UNL A   1      37.842  30.692  30.407  1.00  0.00     0.029 A 
ATOM     41  N   UNL A   1      38.883  31.237  32.314  1.00  0.00    -0.354 N 
ATOM     42  C   UNL A   1      42.349  28.972  33.648  1.00  0.00     0.074 A 
ATOM     43  C   UNL A   1      42.693  27.955  32.681  1.00  0.00     0.031 C 
ATOM     44  C   UNL A   1      37.163  31.709  30.965  1.00  0.00     0.029 A 
ATOM     45  C   UNL A   1      37.772  32.041  32.252  1.00  0.00     0.049 A 
ATOM     46  H   UNL A   1      39.557  31.298  33.029  1.00  0.00     0.167 HD
ATOM     47  C   UNL A   1      43.025  29.190  34.801  1.00  0.00     0.031 A 
ATOM     48  C   UNL A   1      37.278  32.911  33.157  1.00  0.00     0.031 A 
ATOM     49  C   UNL A   1      42.647  30.190  35.760  1.00  0.00     0.049 A 
ATOM     50  C   UNL A   1      38.012  33.111  34.455  1.00  0.00     0.074 A 
ATOM     51  C   UNL A   1      43.273  30.526  36.946  1.00  0.00     0.029 A 
ATOM     52  N   UNL A   1      41.529  31.007  35.650  1.00  0.00    -0.354 N 
ATOM     53  N   UNL A   1      39.095  32.509  34.891  1.00  0.00    -0.248 NA
ATOM     54  C   UNL A   1      37.466  34.113  35.381  1.00  0.00     0.031 C 
ATOM     55  C   UNL A   1      42.497  31.497  37.585  1.00  0.00     0.029 A 
ATOM     56  C   UNL A   1      41.430  31.825  36.761  1.00  0.00     0.049 A 
ATOM     57  H   UNL A   1      40.900  31.003  34.893  1.00  0.00     0.167 HD
ATOM     58  C   UNL A   1      39.379  33.080  36.127  1.00  0.00     0.074 A 
ATOM     59  C   UNL A   1      38.354  34.077  36.368  1.00  0.00     0.031 C 
ATOM     60  C   UNL A   1      40.401  32.813  36.978  1.00  0.00     0.031 A 
BRANCH  47  61
ATOM     61  C   UNL A   1      44.188  28.279  35.099  1.00  0.00    -0.014 A 
ATOM     62  C   UNL A   1      45.499  28.602  34.703  1.00  0.00     0.010 A 
ATOM     63  C   UNL A   1      43.958  27.063  35.767  1.00  0.00     0.010 A 
ATOM     64  C   UNL A   1      46.543  27.695  34.906  1.00  0.00     0.020 A 
ATOM     65  C   UNL A   1      45.005  26.171  36.006  1.00  0.00     0.020 A 
ATOM     66  C   UNL A   1      46.286  26.480  35.548  1.00  0.00     0.054 A 
BRANCH  66  67
ATOM     67  S   UNL A   1      47.654  25.312  35.777  1.00  0.00     0.124 S 
ATOM     68  O   UNL A   1      48.142  25.150  34.409  1.00  0.00    -0.237 OA
ATOM     69  O   UNL A   1      48.546  26.035  36.680  1.00  0.00    -0.237 OA
ATOM     70  O   UNL A   1      47.011  24.133  36.352  1.00  0.00    -0.744 OA
ENDBRANCH  66  67
ENDBRANCH  47  61
BRANCH  48  71
ATOM     71  C   UNL A   1      36.012  33.630  32.853  1.00  0.00    -0.014 A 
ATOM     72  C   UNL A   1      34.771  33.069  33.195  1.00  0.00     0.010 A 
ATOM     73  C   UNL A   1      36.048  34.920  32.288  1.00  0.00     0.010 A 
ATOM     74  C   UNL A   1      33.589  33.789  32.992  1.00  0.00     0.020 A 
ATOM     75  C   UNL A   1      34.871  35.652  32.107  1.00  0.00     0.020 A 
ATOM     76  C   UNL A   1      33.648  35.081  32.461  1.00  0.00     0.054 A 
BRANCH  76  77
ATOM     77  S   UNL A   1      32.110  36.034  32.311  1.00  0.00     0.124 S 
ATOM     78  O   UNL A   1      31.109  35.063  32.742  1.00  0.00    -0.237 OA
ATOM     79  O   UNL A   1      32.346  37.149  33.224  1.00  0.00    -0.237 OA
ATOM     80  O   UNL A   1      32.068  36.394  30.895  1.00  0.00    -0.744 OA
ENDBRANCH  76  77
ENDBRANCH  48  71
BRANCH  60  81
ATOM     81  C   UNL A   1      40.507  33.642  38.232  1.00  0.00    -0.014 A 
ATOM     82  C   UNL A   1      41.171  34.879  38.245  1.00  0.00     0.010 A 
ATOM     83  C   UNL A   1      39.832  33.212  39.392  1.00  0.00     0.010 A 
ATOM     84  C   UNL A   1      41.170  35.667  39.400  1.00  0.00     0.020 A 
ATOM     85  C   UNL A   1      39.804  34.010  40.537  1.00  0.00     0.020 A 
ATOM     86  C   UNL A   1      40.481  35.231  40.536  1.00  0.00     0.054 A 
BRANCH  86  87
ATOM     87  S   UNL A   1      40.429  36.306  41.996  1.00  0.00     0.124 S 
ATOM     88  O   UNL A   1      39.441  37.306  41.601  1.00  0.00    -0.237 OA
ATOM     89  O   UNL A   1      40.009  35.389  43.053  1.00  0.00    -0.237 OA
ATOM     90  O   UNL A   1      41.801  36.798  42.114  1.00  0.00    -0.744 OA
ENDBRANCH  86  87
ENDBRANCH  60  81
ENDBRANCH  34  35
ENDBRANCH  27  29
ENDBRANCH  26  27
ENDBRANCH  25  26
ENDBRANCH  24  25
ENDBRANCH   1  24
TORSDOF 20
ENDMDL
MODEL 2
REMARK VINA RESULT:      -9.7      6.753     11.699
REMARK SMILES O=C(Cc1ccc(-c2ccn(C(F)F)c(=O)c2)cc1)OCCOCCOC(=O)c1ccc(-c2c3nc(c(-c4ccc(S(=O)(=O)[O-])cc4)c4ccc([nH]4)c(-c4ccc(S(=O)(=O)[O-])cc4)c4nc(c(-c5ccc(S(=O)(=O)[O-])cc5)c5ccc2[nH]5)C=C4)C=C3)cc1
REMARK SMILES IDX 23 1 22 2 21 3 20 4 2 5 1 6 3 7 4 8 5 9 19 10 6 11 18 12
REMARK SMILES IDX 7 13 8 14 9 15 17 16 10 17 15 18 11 19 16 20 12 21 13 22
REMARK SMILES IDX 14 23 24 24 25 25 26 26 27 27 28 28 29 29 30 30 88 31 31 32
REMARK SMILES IDX 87 33 32 34 33 35 34 36 81 37 35 38 86 39 80 40 82 41 36 42
REMARK SMILES IDX 85 43 79 44 78 45 37 47 67 48 48 49 66 50 49 51 52 52 65 53
REMARK SMILES IDX 83 54 50 55 51 56 64 58 84 59 53 60 38 61 39 62 47 63 40 64
REMARK SMILES IDX 46 65 41 66 42 67 43 68 44 69 45 70 68 71 69 72 77 73 70 74
REMARK SMILES IDX 76 75 71 76 72 77 73 78 74 79 75 80 54 81 55 82 63 83 56 84
REMARK SMILES IDX 62 85 57 86 58 87 59 88 60 89 61 90
REMARK H PARENT 82 46 52 57
REMARK Flexibility Score: inf
ROOT
ATOM      1  O   UNL A   1      37.538  22.018  25.659  1.00  0.00    -0.374 OA
ENDROOT
BRANCH   1   2
ATOM      2  C   UNL A   1      36.763  23.002  24.976  1.00  0.00     0.202 C 
BRANCH   2   3
ATOM      3  C   UNL A   1      36.621  22.827  23.465  1.00  0.00     0.261 C 
BRANCH   3   4
ATOM      4  O   UNL A   1      35.574  23.619  22.886  1.00  0.00    -0.463 OA
BRANCH   4   5
ATOM      5  C   UNL A   1      34.278  23.254  22.754  1.00  0.00     0.310 C 
ATOM      6  O   UNL A   1      33.855  22.974  21.631  1.00  0.00    -0.252 OA
BRANCH   5   7
ATOM      7  C   UNL A   1      33.319  23.307  23.928  1.00  0.00     0.158 C 
BRANCH   7   8
ATOM      8  C   UNL A   1      32.366  24.466  23.962  1.00  0.00    -0.037 A 
ATOM      9  C   UNL A   1      32.849  25.755  24.189  1.00  0.00     0.005 A 
ATOM     10  C   UNL A   1      30.998  24.284  23.721  1.00  0.00     0.005 A 
ATOM     11  C   UNL A   1      32.004  26.851  24.036  1.00  0.00     0.009 A 
ATOM     12  C   UNL A   1      30.175  25.381  23.482  1.00  0.00     0.009 A 
ATOM     13  C   UNL A   1      30.686  26.677  23.590  1.00  0.00    -0.018 A 
BRANCH  13  14
ATOM     14  C   UNL A   1      29.888  27.829  23.128  1.00  0.00    -0.011 A 
ATOM     15  C   UNL A   1      30.449  29.006  22.493  1.00  0.00     0.027 A 
ATOM     16  C   UNL A   1      28.573  27.814  23.415  1.00  0.00     0.080 A 
ATOM     17  C   UNL A   1      29.673  30.059  22.212  1.00  0.00     0.095 A 
ATOM     18  C   UNL A   1      27.689  28.949  23.060  1.00  0.00     0.255 A 
ATOM     19  N   UNL A   1      28.318  30.042  22.489  1.00  0.00    -0.258 N 
ATOM     20  O   UNL A   1      26.488  28.850  23.287  1.00  0.00    -0.269 OA
BRANCH  19  21
ATOM     21  C   UNL A   1      27.488  31.177  22.194  1.00  0.00     0.451 C 
ATOM     22  F   UNL A   1      27.258  31.916  23.306  1.00  0.00    -0.185 F 
ATOM     23  F   UNL A   1      28.066  31.978  21.267  1.00  0.00    -0.185 F 
ENDBRANCH  19  21
ENDBRANCH  13  14
ENDBRANCH   7   8
ENDBRANCH   5   7
ENDBRANCH   4   5
ENDBRANCH   3   4
ENDBRANCH   2   3
ENDBRANCH   1   2
BRANCH   1  24
ATOM     24  C   UNL A   1      37.610  20.745  25.000  1.00  0.00     0.202 C 
BRANCH  24  25
ATOM     25  C   UNL A   1      38.828  19.894  25.371  1.00  0.00     0.261 C 
BRANCH  25  26
ATOM     26  O   UNL A   1      39.736  20.629  26.197  1.00  0.00    -0.460 OA
BRANCH  26  27
ATOM     27  C   UNL A   1      41.019  20.193  26.171  1.00  0.00     0.338 C 
ATOM     28  O   UNL A   1      41.428  19.119  25.761  1.00  0.00    -0.246 OA
BRANCH  27  29
ATOM     29  C   UNL A   1      41.895  21.335  26.503  1.00  0.00     0.060 A 
ATOM     30  C   UNL A   1      42.226  21.547  27.850  1.00  0.00     0.016 A 
ATOM     31  C   UNL A   1      42.428  22.151  25.502  1.00  0.00     0.016 A 
ATOM     32  C   UNL A   1      43.055  22.607  28.207  1.00  0.00     0.010 A 
ATOM     33  C   UNL A   1      43.250  23.214  25.860  1.00  0.00     0.010 A 
ATOM     34  C   UNL A   1      43.530  23.469  27.215  1.00  0.00    -0.014 A 
BRANCH  34  35
ATOM     35  C   UNL A   1      44.128  24.775  27.564  1.00  0.00     0.031 A 
ATOM     36  C   UNL A   1      43.188  25.886  27.932  1.00  0.00     0.074 A 
ATOM     37  C   UNL A   1      45.449  24.986  27.467  1.00  0.00     0.049 A 
ATOM     38  N   UNL A   1      43.426  27.160  28.073  1.00  0.00    -0.248 NA
ATOM     39  C   UNL A   1      41.781  25.503  28.139  1.00  0.00     0.031 C 
ATOM     40  C   UNL A   1      46.449  23.969  27.150  1.00  0.00     0.029 A 
ATOM     41  N   UNL A   1      46.168  26.147  27.586  1.00  0.00    -0.354 N 
ATOM     42  C   UNL A   1      42.191  27.740  28.344  1.00  0.00     0.074 A 
ATOM     43  C   UNL A   1      41.208  26.680  28.327  1.00  0.00     0.031 C 
ATOM     44  C   UNL A   1      47.652  24.560  27.060  1.00  0.00     0.029 A 
ATOM     45  C   UNL A   1      47.494  25.999  27.265  1.00  0.00     0.049 A 
ATOM     46  H   UNL A   1      45.771  27.001  27.874  1.00  0.00     0.167 HD
ATOM     47  C   UNL A   1      41.905  29.043  28.576  1.00  0.00     0.031 A 
ATOM     48  C   UNL A   1      48.458  26.928  27.107  1.00  0.00     0.031 A 
ATOM     49  C   UNL A   1      42.896  30.083  28.561  1.00  0.00     0.049 A 
ATOM     50  C   UNL A   1      48.119  28.379  27.322  1.00  0.00     0.074 A 
ATOM     51  C   UNL A   1      42.732  31.432  28.815  1.00  0.00     0.029 A 
ATOM     52  N   UNL A   1      44.238  29.890  28.259  1.00  0.00    -0.354 N 
ATOM     53  N   UNL A   1      46.958  28.918  27.614  1.00  0.00    -0.248 NA
ATOM     54  C   UNL A   1      49.218  29.346  27.196  1.00  0.00     0.031 C 
ATOM     55  C   UNL A   1      43.960  32.064  28.599  1.00  0.00     0.029 A 
ATOM     56  C   UNL A   1      44.908  31.099  28.289  1.00  0.00     0.049 A 
ATOM     57  H   UNL A   1      44.651  29.020  28.052  1.00  0.00     0.167 HD
ATOM     58  C   UNL A   1      47.192  30.284  27.738  1.00  0.00     0.074 A 
ATOM     59  C   UNL A   1      48.605  30.486  27.490  1.00  0.00     0.031 C 
ATOM     60  C   UNL A   1      46.319  31.277  28.042  1.00  0.00     0.031 A 
BRANCH  47  61
ATOM     61  C   UNL A   1      40.458  29.402  28.792  1.00  0.00    -0.014 A 
ATOM     62  C   UNL A   1      39.532  29.411  27.732  1.00  0.00     0.010 A 
ATOM     63  C   UNL A   1      40.023  29.764  30.080  1.00  0.00     0.010 A 
ATOM     64  C   UNL A   1      38.220  29.841  27.942  1.00  0.00     0.020 A 
ATOM     65  C   UNL A   1      38.702  30.159  30.302  1.00  0.00     0.020 A 
ATOM     66  C   UNL A   1      37.816  30.222  29.226  1.00  0.00     0.054 A 
BRANCH  66  67
ATOM     67  S   UNL A   1      36.114  30.801  29.465  1.00  0.00     0.124 S 
ATOM     68  O   UNL A   1      35.935  30.616  30.904  1.00  0.00    -0.237 OA
ATOM     69  O   UNL A   1      36.180  32.188  29.014  1.00  0.00    -0.237 OA
ATOM     70  O   UNL A   1      35.322  29.909  28.620  1.00  0.00    -0.744 OA
ENDBRANCH  66  67
ENDBRANCH  47  61
BRANCH  48  71
ATOM     71  C   UNL A   1      49.823  26.494  26.704  1.00  0.00    -0.014 A 
ATOM     72  C   UNL A   1      50.740  26.033  27.662  1.00  0.00     0.010 A 
ATOM     73  C   UNL A   1      50.185  26.469  25.343  1.00  0.00     0.010 A 
ATOM     74  C   UNL A   1      51.988  25.540  27.268  1.00  0.00     0.020 A 
ATOM     75  C   UNL A   1      51.420  25.953  24.943  1.00  0.00     0.020 A 
ATOM     76  C   UNL A   1      52.315  25.491  25.910  1.00  0.00     0.054 A 
BRANCH  76  77
ATOM     77  S   UNL A   1      53.895  24.744  25.419  1.00  0.00     0.124 S 
ATOM     78  O   UNL A   1      53.488  23.396  25.037  1.00  0.00    -0.237 OA
ATOM     79  O   UNL A   1      54.322  25.612  24.325  1.00  0.00    -0.237 OA
ATOM     80  O   UNL A   1      54.707  24.835  26.631  1.00  0.00    -0.744 OA
ENDBRANCH  76  77
ENDBRANCH  48  71
BRANCH  60  81
ATOM     81  C   UNL A   1      46.864  32.675  28.180  1.00  0.00    -0.014 A 
ATOM     82  C   UNL A   1      47.281  33.184  29.421  1.00  0.00     0.010 A 
ATOM     83  C   UNL A   1      47.056  33.449  27.020  1.00  0.00     0.010 A 
ATOM     84  C   UNL A   1      47.870  34.450  29.500  1.00  0.00     0.020 A 
ATOM     85  C   UNL A   1      47.671  34.701  27.091  1.00  0.00     0.020 A 
ATOM     86  C   UNL A   1      48.067  35.197  28.335  1.00  0.00     0.054 A 
BRANCH  86  87
ATOM     87  S   UNL A   1      48.904  36.802  28.455  1.00  0.00     0.124 S 
ATOM     88  O   UNL A   1      47.777  37.728  28.529  1.00  0.00    -0.237 OA
ATOM     89  O   UNL A   1      49.686  36.663  29.681  1.00  0.00    -0.237 OA
ATOM     90  O   UNL A   1      49.692  36.876  27.226  1.00  0.00    -0.744 OA
ENDBRANCH  86  87
ENDBRANCH  60  81
ENDBRANCH  34  35
ENDBRANCH  27  29
ENDBRANCH  26  27
ENDBRANCH  25  26
ENDBRANCH  24  25
ENDBRANCH   1  24
TORSDOF 20
ENDMDL
MODEL 3
REMARK VINA RESULT:      -9.6      2.443      3.065
REMARK SMILES O=C(Cc1ccc(-c2ccn(C(F)F)c(=O)c2)cc1)OCCOCCOC(=O)c1ccc(-c2c3nc(c(-c4ccc(S(=O)(=O)[O-])cc4)c4ccc([nH]4)c(-c4ccc(S(=O)(=O)[O-])cc4)c4nc(c(-c5ccc(S(=O)(=O)[O-])cc5)c5ccc2[nH]5)C=C4)C=C3)cc1
REMARK SMILES IDX 23 1 22 2 21 3 20 4 2 5 1 6 3 7 4 8 5 9 19 10 6 11 18 12
REMARK SMILES IDX 7 13 8 14 9 15 17 16 10 17 15 18 11 19 16 20 12 21 13 22
REMARK SMILES IDX 14 23 24 24 25 25 26 26 27 27 28 28 29 29 30 30 88 31 31 32
REMARK SMILES IDX 87 33 32 34 33 35 34 36 81 37 35 38 86 39 80 40 82 41 36 42
REMARK SMILES IDX 85 43 79 44 78 45 37 47 67 48 48 49 66 50 49 51 52 52 65 53
REMARK SMILES IDX 83 54 50 55 51 56 64 58 84 59 53 60 38 61 39 62 47 63 40 64
REMARK SMILES IDX 46 65 41 66 42 67 43 68 44 69 45 70 68 71 69 72 77 73 70 74
REMARK SMILES IDX 76 75 71 76 72 77 73 78 74 79 75 80 54 81 55 82 63 83 56 84
REMARK SMILES IDX 62 85 57 86 58 87 59 88 60 89 61 90
REMARK H PARENT 82 46 52 57
REMARK Flexibility Score: inf
ROOT
ATOM      1  O   UNL A   1      36.343  22.393  26.112  1.00  0.00    -0.374 OA
ENDROOT
BRANCH   1   2
ATOM      2  C   UNL A   1      35.221  23.056  26.693  1.00  0.00     0.202 C 
BRANCH   2   3
ATOM      3  C   UNL A   1      33.856  22.738  26.087  1.00  0.00     0.261 C 
BRANCH   3   4
ATOM      4  O   UNL A   1      33.882  22.552  24.664  1.00  0.00    -0.463 OA
BRANCH   4   5
ATOM      5  C   UNL A   1      32.928  21.947  23.921  1.00  0.00     0.310 C 
ATOM      6  O   UNL A   1      32.646  20.771  24.166  1.00  0.00    -0.252 OA
BRANCH   5   7
ATOM      7  C   UNL A   1      32.299  22.638  22.727  1.00  0.00     0.158 C 
BRANCH   7   8
ATOM      8  C   UNL A   1      31.792  24.033  22.952  1.00  0.00    -0.037 A 
ATOM      9  C   UNL A   1      32.442  25.113  22.353  1.00  0.00     0.005 A 
ATOM     10  C   UNL A   1      30.644  24.270  23.718  1.00  0.00     0.005 A 
ATOM     11  C   UNL A   1      31.873  26.382  22.403  1.00  0.00     0.009 A 
ATOM     12  C   UNL A   1      30.028  25.518  23.694  1.00  0.00     0.009 A 
ATOM     13  C   UNL A   1      30.616  26.576  22.993  1.00  0.00    -0.018 A 
BRANCH  13  14
ATOM     14  C   UNL A   1      29.867  27.829  22.781  1.00  0.00    -0.011 A 
ATOM     15  C   UNL A   1      30.463  29.062  22.300  1.00  0.00     0.027 A 
ATOM     16  C   UNL A   1      28.576  27.840  23.159  1.00  0.00     0.080 A 
ATOM     17  C   UNL A   1      29.741  30.188  22.249  1.00  0.00     0.095 A 
ATOM     18  C   UNL A   1      27.748  29.065  23.056  1.00  0.00     0.255 A 
ATOM     19  N   UNL A   1      28.410  30.200  22.620  1.00  0.00    -0.258 N 
ATOM     20  O   UNL A   1      26.561  28.996  23.354  1.00  0.00    -0.269 OA
BRANCH  19  21
ATOM     21  C   UNL A   1      27.639  31.412  22.572  1.00  0.00     0.451 C 
ATOM     22  F   UNL A   1      27.832  32.157  23.688  1.00  0.00    -0.185 F 
ATOM     23  F   UNL A   1      27.979  32.165  21.498  1.00  0.00    -0.185 F 
ENDBRANCH  19  21
ENDBRANCH  13  14
ENDBRANCH   7   8
ENDBRANCH   5   7
ENDBRANCH   4   5
ENDBRANCH   3   4
ENDBRANCH   2   3
ENDBRANCH   1   2
BRANCH   1  24
ATOM     24  C   UNL A   1      37.318  23.265  25.521  1.00  0.00     0.202 C 
BRANCH  24  25
ATOM     25  C   UNL A   1      38.566  23.510  26.373  1.00  0.00     0.261 C 
BRANCH  25  26
ATOM     26  O   UNL A   1      38.727  24.902  26.662  1.00  0.00    -0.460 OA
BRANCH  26  27
ATOM     27  C   UNL A   1      39.987  25.280  26.991  1.00  0.00     0.338 C 
ATOM     28  O   UNL A   1      41.024  24.957  26.437  1.00  0.00    -0.246 OA
BRANCH  27  29
ATOM     29  C   UNL A   1      39.891  26.356  27.997  1.00  0.00     0.060 A 
ATOM     30  C   UNL A   1      40.453  27.605  27.689  1.00  0.00     0.016 A 
ATOM     31  C   UNL A   1      39.210  26.160  29.202  1.00  0.00     0.016 A 
ATOM     32  C   UNL A   1      40.379  28.650  28.605  1.00  0.00     0.010 A 
ATOM     33  C   UNL A   1      39.142  27.202  30.120  1.00  0.00     0.010 A 
ATOM     34  C   UNL A   1      39.762  28.434  29.841  1.00  0.00    -0.014 A 
BRANCH  34  35
ATOM     35  C   UNL A   1      39.944  29.386  30.957  1.00  0.00     0.031 A 
ATOM     36  C   UNL A   1      41.088  29.138  31.895  1.00  0.00     0.074 A 
ATOM     37  C   UNL A   1      39.067  30.377  31.178  1.00  0.00     0.049 A 
ATOM     38  N   UNL A   1      41.345  29.681  33.053  1.00  0.00    -0.248 NA
ATOM     39  C   UNL A   1      42.058  28.110  31.477  1.00  0.00     0.031 C 
ATOM     40  C   UNL A   1      37.942  30.722  30.312  1.00  0.00     0.029 A 
ATOM     41  N   UNL A   1      38.969  31.249  32.231  1.00  0.00    -0.354 N 
ATOM     42  C   UNL A   1      42.483  29.034  33.521  1.00  0.00     0.074 A 
ATOM     43  C   UNL A   1      42.851  28.046  32.533  1.00  0.00     0.031 C 
ATOM     44  C   UNL A   1      37.240  31.711  30.891  1.00  0.00     0.029 A 
ATOM     45  C   UNL A   1      37.840  32.029  32.186  1.00  0.00     0.049 A 
ATOM     46  H   UNL A   1      39.641  31.309  32.949  1.00  0.00     0.167 HD
ATOM     47  C   UNL A   1      43.153  29.241  34.680  1.00  0.00     0.031 A 
ATOM     48  C   UNL A   1      37.326  32.867  33.109  1.00  0.00     0.031 A 
ATOM     49  C   UNL A   1      42.752  30.212  35.660  1.00  0.00     0.049 A 
ATOM     50  C   UNL A   1      38.053  33.055  34.412  1.00  0.00     0.074 A 
ATOM     51  C   UNL A   1      43.369  30.535  36.854  1.00  0.00     0.029 A 
ATOM     52  N   UNL A   1      41.616  31.005  35.566  1.00  0.00    -0.354 N 
ATOM     53  N   UNL A   1      39.149  32.468  34.837  1.00  0.00    -0.248 NA
ATOM     54  C   UNL A   1      37.484  34.024  35.359  1.00  0.00     0.031 C 
ATOM     55  C   UNL A   1      42.570  31.474  37.513  1.00  0.00     0.029 A 
ATOM     56  C   UNL A   1      41.497  31.796  36.694  1.00  0.00     0.049 A 
ATOM     57  H   UNL A   1      40.988  31.004  34.808  1.00  0.00     0.167 HD
ATOM     58  C   UNL A   1      39.418  33.018  36.085  1.00  0.00     0.074 A 
ATOM     59  C   UNL A   1      38.371  33.986  36.346  1.00  0.00     0.031 C 
ATOM     60  C   UNL A   1      40.445  32.756  36.932  1.00  0.00     0.031 A 
BRANCH  47  61
ATOM     61  C   UNL A   1      44.336  28.351  34.960  1.00  0.00    -0.014 A 
ATOM     62  C   UNL A   1      45.609  28.623  34.425  1.00  0.00     0.010 A 
ATOM     63  C   UNL A   1      44.162  27.203  35.754  1.00  0.00     0.010 A 
ATOM     64  C   UNL A   1      46.665  27.729  34.621  1.00  0.00     0.020 A 
ATOM     65  C   UNL A   1      45.224  26.326  35.984  1.00  0.00     0.020 A 
ATOM     66  C   UNL A   1      46.462  26.580  35.391  1.00  0.00     0.054 A 
BRANCH  66  67
ATOM     67  S   UNL A   1      47.842  25.425  35.609  1.00  0.00     0.124 S 
ATOM     68  O   UNL A   1      48.960  26.336  35.850  1.00  0.00    -0.237 OA
ATOM     69  O   UNL A   1      47.420  24.632  36.760  1.00  0.00    -0.237 OA
ATOM     70  O   UNL A   1      47.892  24.701  34.340  1.00  0.00    -0.744 OA
ENDBRANCH  66  67
ENDBRANCH  47  61
BRANCH  48  71
ATOM     71  C   UNL A   1      36.043  33.564  32.819  1.00  0.00    -0.014 A 
ATOM     72  C   UNL A   1      34.884  33.262  33.550  1.00  0.00     0.010 A 
ATOM     73  C   UNL A   1      35.998  34.592  31.857  1.00  0.00     0.010 A 
ATOM     74  C   UNL A   1      33.705  33.984  33.337  1.00  0.00     0.020 A 
ATOM     75  C   UNL A   1      34.830  35.333  31.660  1.00  0.00     0.020 A 
ATOM     76  C   UNL A   1      33.689  35.024  32.403  1.00  0.00     0.054 A 
BRANCH  76  77
ATOM     77  S   UNL A   1      32.179  36.015  32.226  1.00  0.00     0.124 S 
ATOM     78  O   UNL A   1      32.455  37.147  33.105  1.00  0.00    -0.237 OA
ATOM     79  O   UNL A   1      32.168  36.312  30.796  1.00  0.00    -0.237 OA
ATOM     80  O   UNL A   1      31.122  35.112  32.678  1.00  0.00    -0.744 OA
ENDBRANCH  76  77
ENDBRANCH  48  71
BRANCH  60  81
ATOM     81  C   UNL A   1      40.531  33.559  38.204  1.00  0.00    -0.014 A 
ATOM     82  C   UNL A   1      40.118  33.031  39.439  1.00  0.00     0.010 A 
ATOM     83  C   UNL A   1      41.137  34.830  38.169  1.00  0.00     0.010 A 
ATOM     84  C   UNL A   1      40.298  33.766  40.614  1.00  0.00     0.020 A 
ATOM     85  C   UNL A   1      41.346  35.553  39.344  1.00  0.00     0.020 A 
ATOM     86  C   UNL A   1      40.917  35.019  40.561  1.00  0.00     0.054 A 
BRANCH  86  87
ATOM     87  S   UNL A   1      41.210  35.918  42.108  1.00  0.00     0.124 S 
ATOM     88  O   UNL A   1      41.042  34.866  43.107  1.00  0.00    -0.237 OA
ATOM     89  O   UNL A   1      42.575  36.411  41.938  1.00  0.00    -0.237 OA
ATOM     90  O   UNL A   1      40.177  36.952  42.111  1.00  0.00    -0.744 OA
ENDBRANCH  86  87
ENDBRANCH  60  81
ENDBRANCH  34  35
ENDBRANCH  27  29
ENDBRANCH  26  27
ENDBRANCH  25  26
ENDBRANCH  24  25
ENDBRANCH   1  24
TORSDOF 20
ENDMDL
