MODEL 1
REMARK VINA RESULT:      -9.8      0.000      0.000
REMARK SMILES O=C(C[C@H]1C[N@@H+](Cc2ccncc2)CCO1)OCCOCCOC(=O)c1ccc(-c2c3nc(c(-c4ccc(S(=O)(=O)[O-])cc4)c4ccc([nH]4)c(-c4ccc(S(=O)(=O)[O-])cc4)c4nc(c(-c5ccc(S(=O)(=O)[O-])cc5)c5ccc2[nH]5)C=C4)C=C3)cc1
REMARK SMILES IDX 20 1 19 2 18 3 17 4 2 5 1 6 3 7 4 8 5 9 16 10 6 11 15 12
REMARK SMILES IDX 14 13 7 15 8 16 9 17 13 18 10 19 12 20 11 21 21 22 22 23
REMARK SMILES IDX 23 24 24 25 25 26 26 27 27 28 85 29 28 30 84 31 29 32 30 33
REMARK SMILES IDX 31 34 78 35 32 36 83 37 77 38 79 39 33 40 82 41 76 42 75 43
REMARK SMILES IDX 34 45 64 46 45 47 63 48 46 49 49 50 62 51 80 52 47 53 48 54
REMARK SMILES IDX 61 56 81 57 50 58 35 59 36 60 44 61 37 62 43 63 38 64 39 65
REMARK SMILES IDX 40 66 41 67 42 68 65 69 66 70 74 71 67 72 73 73 68 74 69 75
REMARK SMILES IDX 70 76 71 77 72 78 51 79 52 80 60 81 53 82 59 83 54 84 55 85
REMARK SMILES IDX 56 86 57 87 58 88
REMARK H PARENT 6 14 79 44 49 55
REMARK Flexibility Score: inf
ROOT
ATOM      1  O   UNL A   1      38.987  22.632  26.081  1.00  0.00    -0.374 OA
ENDROOT
BRANCH   1   2
ATOM      2  C   UNL A   1      38.117  23.643  26.595  1.00  0.00     0.202 C 
BRANCH   2   3
ATOM      3  C   UNL A   1      36.793  23.702  25.840  1.00  0.00     0.261 C 
BRANCH   3   4
ATOM      4  O   UNL A   1      37.001  23.643  24.416  1.00  0.00    -0.463 OA
BRANCH   4   5
ATOM      5  C   UNL A   1      36.265  22.890  23.561  1.00  0.00     0.308 C 
ATOM      6  O   UNL A   1      36.366  23.064  22.349  1.00  0.00    -0.252 OA
BRANCH   5   7
ATOM      7  C   UNL A   1      35.130  22.075  24.133  1.00  0.00     0.160 C 
BRANCH   7   8
ATOM      8  C   UNL A   1      33.733  22.397  23.618  1.00  0.00     0.184 C 
ATOM      9  C   UNL A   1      32.815  21.143  23.649  1.00  0.00     0.295 C 
ATOM     10  O   UNL A   1      33.121  23.514  24.293  1.00  0.00    -0.366 OA
ATOM     11  N   UNL A   1      32.223  20.812  24.948  1.00  0.00    -0.327 N 
ATOM     12  C   UNL A   1      32.603  23.196  25.587  1.00  0.00     0.222 C 
ATOM     13  C   UNL A   1      31.637  22.001  25.553  1.00  0.00     0.291 C 
ATOM     14  H   UNL A   1      31.447  20.181  24.746  1.00  0.00     0.348 HD
BRANCH  11  15
ATOM     15  C   UNL A   1      32.849  19.798  25.801  1.00  0.00     0.299 C 
BRANCH  15  16
ATOM     16  C   UNL A   1      33.211  18.440  25.223  1.00  0.00     0.009 A 
ATOM     17  C   UNL A   1      34.337  18.261  24.416  1.00  0.00     0.029 A 
ATOM     18  C   UNL A   1      32.485  17.284  25.533  1.00  0.00     0.029 A 
ATOM     19  C   UNL A   1      34.583  17.019  23.848  1.00  0.00     0.111 A 
ATOM     20  C   UNL A   1      32.797  16.080  24.917  1.00  0.00     0.111 A 
ATOM     21  N   UNL A   1      33.824  15.928  24.063  1.00  0.00    -0.265 NA
ENDBRANCH  15  16
ENDBRANCH  11  15
ENDBRANCH   7   8
ENDBRANCH   5   7
ENDBRANCH   4   5
ENDBRANCH   3   4
ENDBRANCH   2   3
ENDBRANCH   1   2
BRANCH   1  22
ATOM     22  C   UNL A   1      38.370  21.363  25.900  1.00  0.00     0.202 C 
BRANCH  22  23
ATOM     23  C   UNL A   1      39.313  20.186  25.627  1.00  0.00     0.261 C 
BRANCH  23  24
ATOM     24  O   UNL A   1      40.308  20.091  26.632  1.00  0.00    -0.460 OA
BRANCH  24  25
ATOM     25  C   UNL A   1      41.567  19.984  26.132  1.00  0.00     0.338 C 
ATOM     26  O   UNL A   1      41.991  19.148  25.354  1.00  0.00    -0.246 OA
BRANCH  25  27
ATOM     27  C   UNL A   1      42.251  21.234  26.495  1.00  0.00     0.060 A 
ATOM     28  C   UNL A   1      42.485  21.492  27.853  1.00  0.00     0.016 A 
ATOM     29  C   UNL A   1      42.775  22.061  25.498  1.00  0.00     0.016 A 
ATOM     30  C   UNL A   1      43.265  22.584  28.218  1.00  0.00     0.010 A 
ATOM     31  C   UNL A   1      43.546  23.152  25.862  1.00  0.00     0.010 A 
ATOM     32  C   UNL A   1      43.774  23.423  27.221  1.00  0.00    -0.014 A 
BRANCH  32  33
ATOM     33  C   UNL A   1      44.358  24.731  27.557  1.00  0.00     0.031 A 
ATOM     34  C   UNL A   1      43.395  25.820  27.922  1.00  0.00     0.074 A 
ATOM     35  C   UNL A   1      45.675  24.950  27.411  1.00  0.00     0.049 A 
ATOM     36  N   UNL A   1      43.611  27.096  28.072  1.00  0.00    -0.248 NA
ATOM     37  C   UNL A   1      41.988  25.416  28.110  1.00  0.00     0.031 C 
ATOM     38  C   UNL A   1      46.670  23.939  27.048  1.00  0.00     0.029 A 
ATOM     39  N   UNL A   1      46.393  26.111  27.509  1.00  0.00    -0.354 N 
ATOM     40  C   UNL A   1      42.367  27.651  28.339  1.00  0.00     0.074 A 
ATOM     41  C   UNL A   1      41.396  26.581  28.318  1.00  0.00     0.031 C 
ATOM     42  C   UNL A   1      47.870  24.535  26.922  1.00  0.00     0.029 A 
ATOM     43  C   UNL A   1      47.715  25.968  27.158  1.00  0.00     0.049 A 
ATOM     44  H   UNL A   1      46.003  26.966  27.802  1.00  0.00     0.167 HD
ATOM     45  C   UNL A   1      42.065  28.946  28.575  1.00  0.00     0.031 A 
ATOM     46  C   UNL A   1      48.673  26.904  27.011  1.00  0.00     0.031 A 
ATOM     47  C   UNL A   1      43.050  29.989  28.578  1.00  0.00     0.049 A 
ATOM     48  C   UNL A   1      48.306  28.345  27.262  1.00  0.00     0.074 A 
ATOM     49  C   UNL A   1      42.883  31.329  28.865  1.00  0.00     0.029 A 
ATOM     50  N   UNL A   1      44.389  29.801  28.266  1.00  0.00    -0.354 N 
ATOM     51  N   UNL A   1      47.142  28.851  27.600  1.00  0.00    -0.248 NA
ATOM     52  C   UNL A   1      49.376  29.341  27.113  1.00  0.00     0.031 C 
ATOM     53  C   UNL A   1      44.113  31.964  28.672  1.00  0.00     0.029 A 
ATOM     54  C   UNL A   1      45.056  31.008  28.319  1.00  0.00     0.049 A 
ATOM     55  H   UNL A   1      44.801  28.937  28.040  1.00  0.00     0.167 HD
ATOM     56  C   UNL A   1      47.344  30.222  27.723  1.00  0.00     0.074 A 
ATOM     57  C   UNL A   1      48.745  30.461  27.439  1.00  0.00     0.031 C 
ATOM     58  C   UNL A   1      46.456  31.198  28.037  1.00  0.00     0.031 A 
BRANCH  45  59
ATOM     59  C   UNL A   1      40.624  29.297  28.811  1.00  0.00    -0.014 A 
ATOM     60  C   UNL A   1      39.679  29.235  27.770  1.00  0.00     0.010 A 
ATOM     61  C   UNL A   1      40.202  29.667  30.100  1.00  0.00     0.010 A 
ATOM     62  C   UNL A   1      38.342  29.559  28.011  1.00  0.00     0.020 A 
ATOM     63  C   UNL A   1      38.860  29.967  30.350  1.00  0.00     0.020 A 
ATOM     64  C   UNL A   1      37.940  29.921  29.301  1.00  0.00     0.054 A 
BRANCH  64  65
ATOM     65  S   UNL A   1      36.189  30.287  29.594  1.00  0.00     0.124 S 
ATOM     66  O   UNL A   1      35.549  29.632  28.456  1.00  0.00    -0.237 OA
ATOM     67  O   UNL A   1      35.946  29.663  30.892  1.00  0.00    -0.237 OA
ATOM     68  O   UNL A   1      36.132  31.745  29.586  1.00  0.00    -0.744 OA
ENDBRANCH  64  65
ENDBRANCH  45  59
BRANCH  46  69
ATOM     69  C   UNL A   1      50.044  26.522  26.579  1.00  0.00    -0.014 A 
ATOM     70  C   UNL A   1      51.035  26.214  27.527  1.00  0.00     0.010 A 
ATOM     71  C   UNL A   1      50.373  26.468  25.211  1.00  0.00     0.010 A 
ATOM     72  C   UNL A   1      52.332  25.887  27.119  1.00  0.00     0.020 A 
ATOM     73  C   UNL A   1      51.662  26.115  24.798  1.00  0.00     0.020 A 
ATOM     74  C   UNL A   1      52.638  25.840  25.756  1.00  0.00     0.054 A 
BRANCH  74  75
ATOM     75  S   UNL A   1      54.320  25.380  25.250  1.00  0.00     0.124 S 
ATOM     76  O   UNL A   1      54.154  23.977  24.884  1.00  0.00    -0.237 OA
ATOM     77  O   UNL A   1      54.578  26.297  24.143  1.00  0.00    -0.237 OA
ATOM     78  O   UNL A   1      55.116  25.625  26.451  1.00  0.00    -0.744 OA
ENDBRANCH  74  75
ENDBRANCH  46  69
BRANCH  58  79
ATOM     79  C   UNL A   1      46.977  32.605  28.115  1.00  0.00    -0.014 A 
ATOM     80  C   UNL A   1      47.063  33.406  26.964  1.00  0.00     0.010 A 
ATOM     81  C   UNL A   1      47.282  33.160  29.371  1.00  0.00     0.010 A 
ATOM     82  C   UNL A   1      47.459  34.741  27.068  1.00  0.00     0.020 A 
ATOM     83  C   UNL A   1      47.652  34.500  29.481  1.00  0.00     0.020 A 
ATOM     84  C   UNL A   1      47.745  35.280  28.327  1.00  0.00     0.054 A 
BRANCH  84  85
ATOM     85  S   UNL A   1      48.181  37.037  28.443  1.00  0.00     0.124 S 
ATOM     86  O   UNL A   1      48.801  37.281  27.144  1.00  0.00    -0.237 OA
ATOM     87  O   UNL A   1      46.883  37.675  28.651  1.00  0.00    -0.237 OA
ATOM     88  O   UNL A   1      49.087  37.093  29.587  1.00  0.00    -0.744 OA
ENDBRANCH  84  85
ENDBRANCH  58  79
ENDBRANCH  32  33
ENDBRANCH  25  27
ENDBRANCH  24  25
ENDBRANCH  23  24
ENDBRANCH  22  23
ENDBRANCH   1  22
TORSDOF 20
ENDMDL
MODEL 2
REMARK VINA RESULT:      -9.5      2.723      4.205
REMARK SMILES O=C(C[C@H]1C[N@@H+](Cc2ccncc2)CCO1)OCCOCCOC(=O)c1ccc(-c2c3nc(c(-c4ccc(S(=O)(=O)[O-])cc4)c4ccc([nH]4)c(-c4ccc(S(=O)(=O)[O-])cc4)c4nc(c(-c5ccc(S(=O)(=O)[O-])cc5)c5ccc2[nH]5)C=C4)C=C3)cc1
REMARK SMILES IDX 20 1 19 2 18 3 17 4 2 5 1 6 3 7 4 8 5 9 16 10 6 11 15 12
REMARK SMILES IDX 14 13 7 15 8 16 9 17 13 18 10 19 12 20 11 21 21 22 22 23
REMARK SMILES IDX 23 24 24 25 25 26 26 27 27 28 85 29 28 30 84 31 29 32 30 33
REMARK SMILES IDX 31 34 78 35 32 36 83 37 77 38 79 39 33 40 82 41 76 42 75 43
REMARK SMILES IDX 34 45 64 46 45 47 63 48 46 49 49 50 62 51 80 52 47 53 48 54
REMARK SMILES IDX 61 56 81 57 50 58 35 59 36 60 44 61 37 62 43 63 38 64 39 65
REMARK SMILES IDX 40 66 41 67 42 68 65 69 66 70 74 71 67 72 73 73 68 74 69 75
REMARK SMILES IDX 70 76 71 77 72 78 51 79 52 80 60 81 53 82 59 83 54 84 55 85
REMARK SMILES IDX 56 86 57 87 58 88
REMARK H PARENT 6 14 79 44 49 55
REMARK Flexibility Score: inf
ROOT
ATOM      1  O   UNL A   1      37.322  21.068  25.744  1.00  0.00    -0.374 OA
ENDROOT
BRANCH   1   2
ATOM      2  C   UNL A   1      36.607  22.304  25.680  1.00  0.00     0.202 C 
BRANCH   2   3
ATOM      3  C   UNL A   1      35.498  22.275  24.633  1.00  0.00     0.261 C 
BRANCH   3   4
ATOM      4  O   UNL A   1      34.808  23.538  24.568  1.00  0.00    -0.463 OA
BRANCH   4   5
ATOM      5  C   UNL A   1      34.122  23.985  23.487  1.00  0.00     0.308 C 
ATOM      6  O   UNL A   1      34.444  23.614  22.361  1.00  0.00    -0.252 OA
BRANCH   5   7
ATOM      7  C   UNL A   1      33.183  25.152  23.677  1.00  0.00     0.160 C 
BRANCH   7   8
ATOM      8  C   UNL A   1      33.609  26.212  24.686  1.00  0.00     0.184 C 
ATOM      9  C   UNL A   1      33.278  27.642  24.176  1.00  0.00     0.295 C 
ATOM     10  O   UNL A   1      33.078  25.987  26.006  1.00  0.00    -0.366 OA
ATOM     11  N   UNL A   1      31.891  28.082  24.351  1.00  0.00    -0.327 N 
ATOM     12  C   UNL A   1      31.705  26.359  26.149  1.00  0.00     0.222 C 
ATOM     13  C   UNL A   1      31.443  27.808  25.711  1.00  0.00     0.291 C 
ATOM     14  H   UNL A   1      31.908  29.098  24.254  1.00  0.00     0.348 HD
BRANCH  11  15
ATOM     15  C   UNL A   1      30.942  27.973  23.240  1.00  0.00     0.299 C 
BRANCH  15  16
ATOM     16  C   UNL A   1      29.653  28.778  23.263  1.00  0.00     0.009 A 
ATOM     17  C   UNL A   1      28.403  28.167  23.147  1.00  0.00     0.029 A 
ATOM     18  C   UNL A   1      29.646  30.160  23.482  1.00  0.00     0.029 A 
ATOM     19  C   UNL A   1      27.259  28.951  23.095  1.00  0.00     0.111 A 
ATOM     20  C   UNL A   1      28.456  30.871  23.410  1.00  0.00     0.111 A 
ATOM     21  N   UNL A   1      27.259  30.294  23.202  1.00  0.00    -0.265 NA
ENDBRANCH  15  16
ENDBRANCH  11  15
ENDBRANCH   7   8
ENDBRANCH   5   7
ENDBRANCH   4   5
ENDBRANCH   3   4
ENDBRANCH   2   3
ENDBRANCH   1   2
BRANCH   1  22
ATOM     22  C   UNL A   1      38.738  21.207  25.739  1.00  0.00     0.202 C 
BRANCH  22  23
ATOM     23  C   UNL A   1      39.543  19.906  25.654  1.00  0.00     0.261 C 
BRANCH  23  24
ATOM     24  O   UNL A   1      40.557  19.872  26.645  1.00  0.00    -0.460 OA
BRANCH  24  25
ATOM     25  C   UNL A   1      41.814  19.891  26.128  1.00  0.00     0.338 C 
ATOM     26  O   UNL A   1      42.303  19.110  25.331  1.00  0.00    -0.246 OA
BRANCH  25  27
ATOM     27  C   UNL A   1      42.383  21.194  26.504  1.00  0.00     0.060 A 
ATOM     28  C   UNL A   1      42.573  22.149  25.497  1.00  0.00     0.016 A 
ATOM     29  C   UNL A   1      42.589  21.506  27.850  1.00  0.00     0.016 A 
ATOM     30  C   UNL A   1      42.962  23.440  25.842  1.00  0.00     0.010 A 
ATOM     31  C   UNL A   1      42.981  22.788  28.193  1.00  0.00     0.010 A 
ATOM     32  C   UNL A   1      43.185  23.748  27.189  1.00  0.00    -0.014 A 
BRANCH  32  33
ATOM     33  C   UNL A   1      43.860  24.996  27.578  1.00  0.00     0.031 A 
ATOM     34  C   UNL A   1      42.978  26.124  28.020  1.00  0.00     0.074 A 
ATOM     35  C   UNL A   1      45.186  25.137  27.413  1.00  0.00     0.049 A 
ATOM     36  N   UNL A   1      43.280  27.373  28.230  1.00  0.00    -0.248 NA
ATOM     37  C   UNL A   1      41.551  25.802  28.219  1.00  0.00     0.031 C 
ATOM     38  C   UNL A   1      46.105  24.085  26.977  1.00  0.00     0.029 A 
ATOM     39  N   UNL A   1      45.980  26.242  27.554  1.00  0.00    -0.354 N 
ATOM     40  C   UNL A   1      42.080  27.993  28.553  1.00  0.00     0.074 A 
ATOM     41  C   UNL A   1      41.041  26.991  28.499  1.00  0.00     0.031 C 
ATOM     42  C   UNL A   1      47.338  24.608  26.854  1.00  0.00     0.029 A 
ATOM     43  C   UNL A   1      47.283  26.033  27.167  1.00  0.00     0.049 A 
ATOM     44  H   UNL A   1      45.652  27.104  27.899  1.00  0.00     0.167 HD
ATOM     45  C   UNL A   1      41.869  29.291  28.862  1.00  0.00     0.031 A 
ATOM     46  C   UNL A   1      48.297  26.912  27.046  1.00  0.00     0.031 A 
ATOM     47  C   UNL A   1      42.920  30.266  28.896  1.00  0.00     0.049 A 
ATOM     48  C   UNL A   1      48.030  28.359  27.378  1.00  0.00     0.074 A 
ATOM     49  C   UNL A   1      42.846  31.598  29.255  1.00  0.00     0.029 A 
ATOM     50  N   UNL A   1      44.237  30.010  28.544  1.00  0.00    -0.354 N 
ATOM     51  N   UNL A   1      46.908  28.920  27.768  1.00  0.00    -0.248 NA
ATOM     52  C   UNL A   1      49.159  29.290  27.256  1.00  0.00     0.031 C 
ATOM     53  C   UNL A   1      44.111  32.161  29.066  1.00  0.00     0.029 A 
ATOM     54  C   UNL A   1      44.983  31.167  28.643  1.00  0.00     0.049 A 
ATOM     55  H   UNL A   1      44.587  29.133  28.265  1.00  0.00     0.167 HD
ATOM     56  C   UNL A   1      47.202  30.266  27.956  1.00  0.00     0.074 A 
ATOM     57  C   UNL A   1      48.610  30.430  27.653  1.00  0.00     0.031 C 
ATOM     58  C   UNL A   1      46.387  31.280  28.340  1.00  0.00     0.031 A 
BRANCH  45  59
ATOM     59  C   UNL A   1      40.458  29.721  29.148  1.00  0.00    -0.014 A 
ATOM     60  C   UNL A   1      39.487  29.758  28.131  1.00  0.00     0.010 A 
ATOM     61  C   UNL A   1      40.091  30.067  30.460  1.00  0.00     0.010 A 
ATOM     62  C   UNL A   1      38.179  30.155  28.418  1.00  0.00     0.020 A 
ATOM     63  C   UNL A   1      38.777  30.440  30.756  1.00  0.00     0.020 A 
ATOM     64  C   UNL A   1      37.832  30.491  29.730  1.00  0.00     0.054 A 
BRANCH  64  65
ATOM     65  S   UNL A   1      36.114  30.953  30.083  1.00  0.00     0.124 S 
ATOM     66  O   UNL A   1      36.109  32.375  29.747  1.00  0.00    -0.237 OA
ATOM     67  O   UNL A   1      35.360  30.093  29.174  1.00  0.00    -0.237 OA
ATOM     68  O   UNL A   1      35.956  30.647  31.501  1.00  0.00    -0.744 OA
ENDBRANCH  64  65
ENDBRANCH  45  59
BRANCH  46  69
ATOM     69  C   UNL A   1      49.632  26.466  26.563  1.00  0.00    -0.014 A 
ATOM     70  C   UNL A   1      50.008  26.654  25.222  1.00  0.00     0.010 A 
ATOM     71  C   UNL A   1      50.537  25.843  27.442  1.00  0.00     0.010 A 
ATOM     72  C   UNL A   1      51.250  26.204  24.763  1.00  0.00     0.020 A 
ATOM     73  C   UNL A   1      51.792  25.415  26.993  1.00  0.00     0.020 A 
ATOM     74  C   UNL A   1      52.135  25.586  25.652  1.00  0.00     0.054 A 
BRANCH  74  75
ATOM     75  S   UNL A   1      53.755  25.041  25.040  1.00  0.00     0.124 S 
ATOM     76  O   UNL A   1      53.641  23.589  25.131  1.00  0.00    -0.237 OA
ATOM     77  O   UNL A   1      53.781  25.590  23.686  1.00  0.00    -0.237 OA
ATOM     78  O   UNL A   1      54.696  25.656  25.973  1.00  0.00    -0.744 OA
ENDBRANCH  74  75
ENDBRANCH  46  69
BRANCH  58  79
ATOM     79  C   UNL A   1      46.999  32.644  28.478  1.00  0.00    -0.014 A 
ATOM     80  C   UNL A   1      46.872  33.599  27.454  1.00  0.00     0.010 A 
ATOM     81  C   UNL A   1      47.617  33.005  29.689  1.00  0.00     0.010 A 
ATOM     82  C   UNL A   1      47.366  34.892  27.636  1.00  0.00     0.020 A 
ATOM     83  C   UNL A   1      48.087  34.304  29.884  1.00  0.00     0.020 A 
ATOM     84  C   UNL A   1      47.965  35.237  28.852  1.00  0.00     0.054 A 
BRANCH  84  85
ATOM     85  S   UNL A   1      48.526  36.944  29.093  1.00  0.00     0.124 S 
ATOM     86  O   UNL A   1      49.896  36.750  29.558  1.00  0.00    -0.237 OA
ATOM     87  O   UNL A   1      48.391  37.517  27.756  1.00  0.00    -0.237 OA
ATOM     88  O   UNL A   1      47.599  37.476  30.088  1.00  0.00    -0.744 OA
ENDBRANCH  84  85
ENDBRANCH  58  79
ENDBRANCH  32  33
ENDBRANCH  25  27
ENDBRANCH  24  25
ENDBRANCH  23  24
ENDBRANCH  22  23
ENDBRANCH   1  22
TORSDOF 20
ENDMDL
MODEL 3
REMARK VINA RESULT:      -9.5      1.828      3.460
REMARK SMILES O=C(C[C@H]1C[N@@H+](Cc2ccncc2)CCO1)OCCOCCOC(=O)c1ccc(-c2c3nc(c(-c4ccc(S(=O)(=O)[O-])cc4)c4ccc([nH]4)c(-c4ccc(S(=O)(=O)[O-])cc4)c4nc(c(-c5ccc(S(=O)(=O)[O-])cc5)c5ccc2[nH]5)C=C4)C=C3)cc1
REMARK SMILES IDX 20 1 19 2 18 3 17 4 2 5 1 6 3 7 4 8 5 9 16 10 6 11 15 12
REMARK SMILES IDX 14 13 7 15 8 16 9 17 13 18 10 19 12 20 11 21 21 22 22 23
REMARK SMILES IDX 23 24 24 25 25 26 26 27 27 28 85 29 28 30 84 31 29 32 30 33
REMARK SMILES IDX 31 34 78 35 32 36 83 37 77 38 79 39 33 40 82 41 76 42 75 43
REMARK SMILES IDX 34 45 64 46 45 47 63 48 46 49 49 50 62 51 80 52 47 53 48 54
REMARK SMILES IDX 61 56 81 57 50 58 35 59 36 60 44 61 37 62 43 63 38 64 39 65
REMARK SMILES IDX 40 66 41 67 42 68 65 69 66 70 74 71 67 72 73 73 68 74 69 75
REMARK SMILES IDX 70 76 71 77 72 78 51 79 52 80 60 81 53 82 59 83 54 84 55 85
REMARK SMILES IDX 56 86 57 87 58 88
REMARK H PARENT 6 14 79 44 49 55
REMARK Flexibility Score: inf
ROOT
ATOM      1  O   UNL A   1      38.202  21.887  25.223  1.00  0.00    -0.374 OA
ENDROOT
BRANCH   1   2
ATOM      2  C   UNL A   1      37.053  22.713  25.021  1.00  0.00     0.202 C 
BRANCH   2   3
ATOM      3  C   UNL A   1      36.212  22.250  23.835  1.00  0.00     0.261 C 
BRANCH   3   4
ATOM      4  O   UNL A   1      35.567  23.363  23.187  1.00  0.00    -0.463 OA
BRANCH   4   5
ATOM      5  C   UNL A   1      34.536  24.068  23.713  1.00  0.00     0.308 C 
ATOM      6  O   UNL A   1      34.694  25.247  24.022  1.00  0.00    -0.252 OA
BRANCH   5   7
ATOM      7  C   UNL A   1      33.320  23.303  24.179  1.00  0.00     0.160 C 
BRANCH   7   8
ATOM      8  C   UNL A   1      33.246  22.982  25.667  1.00  0.00     0.184 C 
ATOM      9  C   UNL A   1      32.858  24.237  26.497  1.00  0.00     0.295 C 
ATOM     10  O   UNL A   1      32.385  21.865  25.966  1.00  0.00    -0.366 OA
ATOM     11  N   UNL A   1      31.431  24.568  26.533  1.00  0.00    -0.327 N 
ATOM     12  C   UNL A   1      30.992  22.184  25.935  1.00  0.00     0.222 C 
ATOM     13  C   UNL A   1      30.645  23.379  26.836  1.00  0.00     0.291 C 
ATOM     14  H   UNL A   1      31.313  25.200  27.325  1.00  0.00     0.348 HD
BRANCH  11  15
ATOM     15  C   UNL A   1      30.891  25.581  25.622  1.00  0.00     0.299 C 
BRANCH  15  16
ATOM     16  C   UNL A   1      31.299  27.037  25.780  1.00  0.00     0.009 A 
ATOM     17  C   UNL A   1      31.476  27.874  24.677  1.00  0.00     0.029 A 
ATOM     18  C   UNL A   1      31.441  27.634  27.037  1.00  0.00     0.029 A 
ATOM     19  C   UNL A   1      31.924  29.174  24.868  1.00  0.00     0.111 A 
ATOM     20  C   UNL A   1      31.898  28.941  27.140  1.00  0.00     0.111 A 
ATOM     21  N   UNL A   1      32.161  29.720  26.076  1.00  0.00    -0.265 NA
ENDBRANCH  15  16
ENDBRANCH  11  15
ENDBRANCH   7   8
ENDBRANCH   5   7
ENDBRANCH   4   5
ENDBRANCH   3   4
ENDBRANCH   2   3
ENDBRANCH   1   2
BRANCH   1  22
ATOM     22  C   UNL A   1      37.933  20.490  25.199  1.00  0.00     0.202 C 
BRANCH  22  23
ATOM     23  C   UNL A   1      39.134  19.567  25.425  1.00  0.00     0.261 C 
BRANCH  23  24
ATOM     24  O   UNL A   1      40.028  20.123  26.375  1.00  0.00    -0.460 OA
BRANCH  24  25
ATOM     25  C   UNL A   1      41.336  19.927  26.060  1.00  0.00     0.338 C 
ATOM     26  O   UNL A   1      41.817  19.015  25.412  1.00  0.00    -0.246 OA
BRANCH  25  27
ATOM     27  C   UNL A   1      42.026  21.175  26.417  1.00  0.00     0.060 A 
ATOM     28  C   UNL A   1      42.291  21.422  27.771  1.00  0.00     0.016 A 
ATOM     29  C   UNL A   1      42.525  22.012  25.415  1.00  0.00     0.016 A 
ATOM     30  C   UNL A   1      43.078  22.513  28.128  1.00  0.00     0.010 A 
ATOM     31  C   UNL A   1      43.302  23.101  25.771  1.00  0.00     0.010 A 
ATOM     32  C   UNL A   1      43.562  23.361  27.126  1.00  0.00    -0.014 A 
BRANCH  32  33
ATOM     33  C   UNL A   1      44.151  24.667  27.459  1.00  0.00     0.031 A 
ATOM     34  C   UNL A   1      43.194  25.759  27.828  1.00  0.00     0.074 A 
ATOM     35  C   UNL A   1      45.469  24.882  27.308  1.00  0.00     0.049 A 
ATOM     36  N   UNL A   1      43.414  27.034  27.977  1.00  0.00    -0.248 NA
ATOM     37  C   UNL A   1      41.786  25.359  28.022  1.00  0.00     0.031 C 
ATOM     38  C   UNL A   1      46.459  23.868  26.941  1.00  0.00     0.029 A 
ATOM     39  N   UNL A   1      46.191  26.040  27.402  1.00  0.00    -0.354 N 
ATOM     40  C   UNL A   1      42.173  27.593  28.249  1.00  0.00     0.074 A 
ATOM     41  C   UNL A   1      41.199  26.527  28.232  1.00  0.00     0.031 C 
ATOM     42  C   UNL A   1      47.660  24.460  26.809  1.00  0.00     0.029 A 
ATOM     43  C   UNL A   1      47.511  25.893  27.046  1.00  0.00     0.049 A 
ATOM     44  H   UNL A   1      45.804  26.896  27.697  1.00  0.00     0.167 HD
ATOM     45  C   UNL A   1      41.877  28.890  28.486  1.00  0.00     0.031 A 
ATOM     46  C   UNL A   1      48.471  26.826  26.895  1.00  0.00     0.031 A 
ATOM     47  C   UNL A   1      42.865  29.929  28.485  1.00  0.00     0.049 A 
ATOM     48  C   UNL A   1      48.110  28.268  27.146  1.00  0.00     0.074 A 
ATOM     49  C   UNL A   1      42.703  31.270  28.772  1.00  0.00     0.029 A 
ATOM     50  N   UNL A   1      44.202  29.737  28.167  1.00  0.00    -0.354 N 
ATOM     51  N   UNL A   1      46.948  28.778  27.489  1.00  0.00    -0.248 NA
ATOM     52  C   UNL A   1      49.182  29.261  26.993  1.00  0.00     0.031 C 
ATOM     53  C   UNL A   1      43.934  31.901  28.574  1.00  0.00     0.029 A 
ATOM     54  C   UNL A   1      44.873  30.942  28.217  1.00  0.00     0.049 A 
ATOM     55  H   UNL A   1      44.610  28.871  27.939  1.00  0.00     0.167 HD
ATOM     56  C   UNL A   1      47.156  30.148  27.611  1.00  0.00     0.074 A 
ATOM     57  C   UNL A   1      48.556  30.383  27.322  1.00  0.00     0.031 C 
ATOM     58  C   UNL A   1      46.273  31.128  27.929  1.00  0.00     0.031 A 
BRANCH  45  59
ATOM     59  C   UNL A   1      40.437  29.245  28.728  1.00  0.00    -0.014 A 
ATOM     60  C   UNL A   1      39.515  29.311  27.667  1.00  0.00     0.010 A 
ATOM     61  C   UNL A   1      39.994  29.490  30.039  1.00  0.00     0.010 A 
ATOM     62  C   UNL A   1      38.179  29.637  27.913  1.00  0.00     0.020 A 
ATOM     63  C   UNL A   1      38.653  29.792  30.292  1.00  0.00     0.020 A 
ATOM     64  C   UNL A   1      37.756  29.873  29.225  1.00  0.00     0.054 A 
BRANCH  64  65
ATOM     65  S   UNL A   1      36.006  30.244  29.520  1.00  0.00     0.124 S 
ATOM     66  O   UNL A   1      35.994  31.704  29.467  1.00  0.00    -0.237 OA
ATOM     67  O   UNL A   1      35.345  29.572  28.404  1.00  0.00    -0.237 OA
ATOM     68  O   UNL A   1      35.745  29.665  30.834  1.00  0.00    -0.744 OA
ENDBRANCH  64  65
ENDBRANCH  45  59
BRANCH  46  69
ATOM     69  C   UNL A   1      49.839  26.440  26.457  1.00  0.00    -0.014 A 
ATOM     70  C   UNL A   1      50.248  26.638  25.126  1.00  0.00     0.010 A 
ATOM     71  C   UNL A   1      50.745  25.864  27.367  1.00  0.00     0.010 A 
ATOM     72  C   UNL A   1      51.524  26.244  24.709  1.00  0.00     0.020 A 
ATOM     73  C   UNL A   1      52.031  25.493  26.960  1.00  0.00     0.020 A 
ATOM     74  C   UNL A   1      52.408  25.673  25.629  1.00  0.00     0.054 A 
BRANCH  74  75
ATOM     75  S   UNL A   1      54.069  25.200  25.070  1.00  0.00     0.124 S 
ATOM     76  O   UNL A   1      53.944  23.752  24.936  1.00  0.00    -0.237 OA
ATOM     77  O   UNL A   1      54.204  25.943  23.820  1.00  0.00    -0.237 OA
ATOM     78  O   UNL A   1      54.936  25.657  26.155  1.00  0.00    -0.744 OA
ENDBRANCH  74  75
ENDBRANCH  46  69
BRANCH  58  79
ATOM     79  C   UNL A   1      46.798  32.532  28.005  1.00  0.00    -0.014 A 
ATOM     80  C   UNL A   1      47.352  33.032  29.195  1.00  0.00     0.010 A 
ATOM     81  C   UNL A   1      46.829  33.321  26.841  1.00  0.00     0.010 A 
ATOM     82  C   UNL A   1      47.921  34.306  29.223  1.00  0.00     0.020 A 
ATOM     83  C   UNL A   1      47.421  34.584  26.858  1.00  0.00     0.020 A 
ATOM     84  C   UNL A   1      47.957  35.071  28.052  1.00  0.00     0.054 A 
BRANCH  84  85
ATOM     85  S   UNL A   1      48.771  36.691  28.095  1.00  0.00     0.124 S 
ATOM     86  O   UNL A   1      48.414  37.244  26.792  1.00  0.00    -0.237 OA
ATOM     87  O   UNL A   1      48.144  37.335  29.246  1.00  0.00    -0.237 OA
ATOM     88  O   UNL A   1      50.185  36.363  28.267  1.00  0.00    -0.744 OA
ENDBRANCH  84  85
ENDBRANCH  58  79
ENDBRANCH  32  33
ENDBRANCH  25  27
ENDBRANCH  24  25
ENDBRANCH  23  24
ENDBRANCH  22  23
ENDBRANCH   1  22
TORSDOF 20
ENDMDL
