MODEL 1
REMARK VINA RESULT:     -10.6      0.000      0.000
REMARK SMILES C[C@@H](C(=O)OCCOCCOC(=O)c1ccc(-c2c3nc(c(-c4ccc(S(=O)(=O)[O-])cc4)c4ccc([nH]4)c(-c4ccc(S(=O)(=O)[O-])cc4)c4nc(c(-c5ccc(S(=O)(=O)[O-])cc5)c5ccc2[nH]5)C=C4)C=C3)cc1)c1ccc(OC2CCCC2)cc1F
REMARK SMILES IDX 8 1 7 2 6 3 5 4 3 5 4 6 2 7 1 8 74 9 75 10 85 11 76 12 84 13
REMARK SMILES IDX 86 14 77 15 78 16 79 17 80 18 83 19 81 20 82 21 9 22 10 23
REMARK SMILES IDX 11 24 12 25 13 26 14 27 15 28 73 29 16 30 72 31 17 32 18 33
REMARK SMILES IDX 19 34 66 35 20 36 71 37 65 38 67 39 21 40 70 41 64 42 63 43
REMARK SMILES IDX 22 45 52 46 33 47 51 48 34 49 37 50 50 51 68 52 35 53 36 54
REMARK SMILES IDX 49 56 69 57 38 58 23 59 24 60 32 61 25 62 31 63 26 64 27 65
REMARK SMILES IDX 28 66 29 67 30 68 53 69 54 70 62 71 55 72 61 73 56 74 57 75
REMARK SMILES IDX 58 76 59 77 60 78 39 79 40 80 48 81 41 82 47 83 42 84 43 85
REMARK SMILES IDX 44 86 45 87 46 88
REMARK H PARENT 67 44 37 55
REMARK Flexibility Score: inf
ROOT
ATOM      1  O   UNL A   1      38.049  22.125  25.697  1.00  0.00    -0.374 OA
ENDROOT
BRANCH   1   2
ATOM      2  C   UNL A   1      37.138  21.668  24.702  1.00  0.00     0.202 C 
BRANCH   2   3
ATOM      3  C   UNL A   1      36.138  22.673  24.120  1.00  0.00     0.261 C 
BRANCH   3   4
ATOM      4  O   UNL A   1      34.778  22.213  24.172  1.00  0.00    -0.463 OA
BRANCH   4   5
ATOM      5  C   UNL A   1      33.963  22.967  24.963  1.00  0.00     0.313 C 
ATOM      6  O   UNL A   1      34.387  23.754  25.802  1.00  0.00    -0.252 OA
BRANCH   5   7
ATOM      7  C   UNL A   1      32.459  22.762  24.665  1.00  0.00     0.129 C 
ATOM      8  C   UNL A   1      32.160  21.468  23.893  1.00  0.00     0.025 C 
BRANCH   7   9
ATOM      9  C   UNL A   1      31.860  24.024  24.041  1.00  0.00     0.002 A 
ATOM     10  C   UNL A   1      32.060  24.433  22.715  1.00  0.00     0.011 A 
ATOM     11  C   UNL A   1      31.089  24.865  24.851  1.00  0.00     0.130 A 
ATOM     12  C   UNL A   1      31.526  25.649  22.253  1.00  0.00     0.047 A 
ATOM     13  C   UNL A   1      30.632  26.104  24.421  1.00  0.00     0.086 A 
ATOM     14  F   UNL A   1      30.743  24.480  26.087  1.00  0.00    -0.207 F 
ATOM     15  C   UNL A   1      30.816  26.500  23.106  1.00  0.00     0.122 A 
BRANCH  15  16
ATOM     16  O   UNL A   1      30.347  27.646  22.531  1.00  0.00    -0.490 OA
BRANCH  16  17
ATOM     17  C   UNL A   1      29.517  28.570  23.235  1.00  0.00     0.173 C 
ATOM     18  C   UNL A   1      30.011  30.013  23.322  1.00  0.00     0.045 C 
ATOM     19  C   UNL A   1      28.064  28.606  22.772  1.00  0.00     0.045 C 
ATOM     20  C   UNL A   1      28.757  30.852  23.519  1.00  0.00     0.004 C 
ATOM     21  C   UNL A   1      27.567  30.020  23.046  1.00  0.00     0.004 C 
ENDBRANCH  16  17
ENDBRANCH  15  16
ENDBRANCH   7   9
ENDBRANCH   5   7
ENDBRANCH   4   5
ENDBRANCH   3   4
ENDBRANCH   2   3
ENDBRANCH   1   2
BRANCH   1  22
ATOM     22  C   UNL A   1      39.293  21.439  25.837  1.00  0.00     0.202 C 
BRANCH  22  23
ATOM     23  C   UNL A   1      40.484  22.212  26.418  1.00  0.00     0.261 C 
BRANCH  23  24
ATOM     24  O   UNL A   1      40.129  23.549  26.821  1.00  0.00    -0.460 OA
BRANCH  24  25
ATOM     25  C   UNL A   1      41.172  24.409  26.905  1.00  0.00     0.338 C 
ATOM     26  O   UNL A   1      42.224  24.356  26.279  1.00  0.00    -0.246 OA
BRANCH  25  27
ATOM     27  C   UNL A   1      40.806  25.579  27.723  1.00  0.00     0.060 A 
ATOM     28  C   UNL A   1      41.739  26.620  27.818  1.00  0.00     0.016 A 
ATOM     29  C   UNL A   1      39.622  25.618  28.460  1.00  0.00     0.016 A 
ATOM     30  C   UNL A   1      41.513  27.684  28.688  1.00  0.00     0.010 A 
ATOM     31  C   UNL A   1      39.403  26.681  29.343  1.00  0.00     0.010 A 
ATOM     32  C   UNL A   1      40.364  27.698  29.488  1.00  0.00    -0.014 A 
BRANCH  32  33
ATOM     33  C   UNL A   1      40.255  28.692  30.584  1.00  0.00     0.031 A 
ATOM     34  C   UNL A   1      41.167  28.567  31.775  1.00  0.00     0.074 A 
ATOM     35  C   UNL A   1      39.389  29.718  30.501  1.00  0.00     0.049 A 
ATOM     36  N   UNL A   1      41.237  29.315  32.845  1.00  0.00    -0.248 NA
ATOM     37  C   UNL A   1      42.127  27.451  31.754  1.00  0.00     0.031 C 
ATOM     38  C   UNL A   1      38.488  29.974  29.378  1.00  0.00     0.029 A 
ATOM     39  N   UNL A   1      39.127  30.735  31.384  1.00  0.00    -0.354 N 
ATOM     40  C   UNL A   1      42.245  28.760  33.627  1.00  0.00     0.074 A 
ATOM     41  C   UNL A   1      42.736  27.596  32.922  1.00  0.00     0.031 C 
ATOM     42  C   UNL A   1      37.764  31.076  29.645  1.00  0.00     0.029 A 
ATOM     43  C   UNL A   1      38.130  31.583  30.967  1.00  0.00     0.049 A 
ATOM     44  H   UNL A   1      39.609  30.847  32.235  1.00  0.00     0.167 HD
ATOM     45  C   UNL A   1      42.723  29.185  34.821  1.00  0.00     0.031 A 
ATOM     46  C   UNL A   1      37.562  32.635  31.589  1.00  0.00     0.031 A 
ATOM     47  C   UNL A   1      42.222  30.332  35.530  1.00  0.00     0.049 A 
ATOM     48  C   UNL A   1      38.059  33.046  32.950  1.00  0.00     0.074 A 
ATOM     49  C   UNL A   1      42.643  30.844  36.745  1.00  0.00     0.029 A 
ATOM     50  N   UNL A   1      41.186  31.142  35.091  1.00  0.00    -0.354 N 
ATOM     51  N   UNL A   1      39.022  32.520  33.669  1.00  0.00    -0.248 NA
ATOM     52  C   UNL A   1      37.397  34.197  33.579  1.00  0.00     0.031 C 
ATOM     53  C   UNL A   1      41.825  31.934  37.066  1.00  0.00     0.029 A 
ATOM     54  C   UNL A   1      40.935  32.135  36.022  1.00  0.00     0.049 A 
ATOM     55  H   UNL A   1      40.699  31.027  34.243  1.00  0.00     0.167 HD
ATOM     56  C   UNL A   1      39.098  33.291  34.824  1.00  0.00     0.074 A 
ATOM     57  C   UNL A   1      38.092  34.327  34.701  1.00  0.00     0.031 C 
ATOM     58  C   UNL A   1      39.928  33.157  35.889  1.00  0.00     0.031 A 
BRANCH  45  59
ATOM     59  C   UNL A   1      43.827  28.377  35.450  1.00  0.00    -0.014 A 
ATOM     60  C   UNL A   1      45.179  28.679  35.210  1.00  0.00     0.010 A 
ATOM     61  C   UNL A   1      43.505  27.314  36.316  1.00  0.00     0.010 A 
ATOM     62  C   UNL A   1      46.190  27.907  35.790  1.00  0.00     0.020 A 
ATOM     63  C   UNL A   1      44.514  26.557  36.919  1.00  0.00     0.020 A 
ATOM     64  C   UNL A   1      45.850  26.847  36.638  1.00  0.00     0.054 A 
BRANCH  64  65
ATOM     65  S   UNL A   1      47.181  25.869  37.387  1.00  0.00     0.124 S 
ATOM     66  O   UNL A   1      47.431  26.602  38.626  1.00  0.00    -0.237 OA
ATOM     67  O   UNL A   1      46.562  24.555  37.549  1.00  0.00    -0.237 OA
ATOM     68  O   UNL A   1      48.255  25.931  36.400  1.00  0.00    -0.744 OA
ENDBRANCH  64  65
ENDBRANCH  45  59
BRANCH  46  69
ATOM     69  C   UNL A   1      36.438  33.362  30.936  1.00  0.00    -0.014 A 
ATOM     70  C   UNL A   1      35.235  33.597  31.623  1.00  0.00     0.010 A 
ATOM     71  C   UNL A   1      36.577  33.831  29.616  1.00  0.00     0.010 A 
ATOM     72  C   UNL A   1      34.186  34.279  30.997  1.00  0.00     0.020 A 
ATOM     73  C   UNL A   1      35.541  34.535  28.997  1.00  0.00     0.020 A 
ATOM     74  C   UNL A   1      34.348  34.746  29.690  1.00  0.00     0.054 A 
BRANCH  74  75
ATOM     75  S   UNL A   1      32.996  35.680  28.919  1.00  0.00     0.124 S 
ATOM     76  O   UNL A   1      33.712  36.776  28.276  1.00  0.00    -0.237 OA
ATOM     77  O   UNL A   1      32.404  34.693  28.018  1.00  0.00    -0.237 OA
ATOM     78  O   UNL A   1      32.154  36.059  30.053  1.00  0.00    -0.744 OA
ENDBRANCH  74  75
ENDBRANCH  46  69
BRANCH  58  79
ATOM     79  C   UNL A   1      39.807  34.170  36.997  1.00  0.00    -0.014 A 
ATOM     80  C   UNL A   1      40.336  35.465  36.862  1.00  0.00     0.010 A 
ATOM     81  C   UNL A   1      39.102  33.836  38.167  1.00  0.00     0.010 A 
ATOM     82  C   UNL A   1      40.187  36.400  37.891  1.00  0.00     0.020 A 
ATOM     83  C   UNL A   1      38.929  34.775  39.187  1.00  0.00     0.020 A 
ATOM     84  C   UNL A   1      39.485  36.048  39.048  1.00  0.00     0.054 A 
BRANCH  84  85
ATOM     85  S   UNL A   1      39.267  37.291  40.351  1.00  0.00     0.124 S 
ATOM     86  O   UNL A   1      40.648  37.621  40.690  1.00  0.00    -0.237 OA
ATOM     87  O   UNL A   1      38.518  38.344  39.669  1.00  0.00    -0.237 OA
ATOM     88  O   UNL A   1      38.523  36.579  41.388  1.00  0.00    -0.744 OA
ENDBRANCH  84  85
ENDBRANCH  58  79
ENDBRANCH  32  33
ENDBRANCH  25  27
ENDBRANCH  24  25
ENDBRANCH  23  24
ENDBRANCH  22  23
ENDBRANCH   1  22
TORSDOF 20
ENDMDL
MODEL 2
REMARK VINA RESULT:     -10.5      2.117      3.006
REMARK SMILES C[C@@H](C(=O)OCCOCCOC(=O)c1ccc(-c2c3nc(c(-c4ccc(S(=O)(=O)[O-])cc4)c4ccc([nH]4)c(-c4ccc(S(=O)(=O)[O-])cc4)c4nc(c(-c5ccc(S(=O)(=O)[O-])cc5)c5ccc2[nH]5)C=C4)C=C3)cc1)c1ccc(OC2CCCC2)cc1F
REMARK SMILES IDX 8 1 7 2 6 3 5 4 3 5 4 6 2 7 1 8 74 9 75 10 85 11 76 12 84 13
REMARK SMILES IDX 86 14 77 15 78 16 79 17 80 18 83 19 81 20 82 21 9 22 10 23
REMARK SMILES IDX 11 24 12 25 13 26 14 27 15 28 73 29 16 30 72 31 17 32 18 33
REMARK SMILES IDX 19 34 66 35 20 36 71 37 65 38 67 39 21 40 70 41 64 42 63 43
REMARK SMILES IDX 22 45 52 46 33 47 51 48 34 49 37 50 50 51 68 52 35 53 36 54
REMARK SMILES IDX 49 56 69 57 38 58 23 59 24 60 32 61 25 62 31 63 26 64 27 65
REMARK SMILES IDX 28 66 29 67 30 68 53 69 54 70 62 71 55 72 61 73 56 74 57 75
REMARK SMILES IDX 58 76 59 77 60 78 39 79 40 80 48 81 41 82 47 83 42 84 43 85
REMARK SMILES IDX 44 86 45 87 46 88
REMARK H PARENT 67 44 37 55
REMARK Flexibility Score: inf
ROOT
ATOM      1  O   UNL A   1      37.472  23.164  26.189  1.00  0.00    -0.374 OA
ENDROOT
BRANCH   1   2
ATOM      2  C   UNL A   1      36.934  23.776  25.021  1.00  0.00     0.202 C 
BRANCH   2   3
ATOM      3  C   UNL A   1      35.419  23.993  24.949  1.00  0.00     0.261 C 
BRANCH   3   4
ATOM      4  O   UNL A   1      34.927  24.107  23.604  1.00  0.00    -0.463 OA
BRANCH   4   5
ATOM      5  C   UNL A   1      33.631  23.713  23.448  1.00  0.00     0.313 C 
ATOM      6  O   UNL A   1      33.255  22.561  23.634  1.00  0.00    -0.252 OA
BRANCH   5   7
ATOM      7  C   UNL A   1      32.682  24.871  23.059  1.00  0.00     0.129 C 
ATOM      8  C   UNL A   1      32.837  25.324  21.600  1.00  0.00     0.025 C 
BRANCH   7   9
ATOM      9  C   UNL A   1      32.768  26.002  24.086  1.00  0.00     0.002 A 
ATOM     10  C   UNL A   1      33.377  27.244  23.860  1.00  0.00     0.011 A 
ATOM     11  C   UNL A   1      32.242  25.781  25.365  1.00  0.00     0.130 A 
ATOM     12  C   UNL A   1      33.470  28.194  24.892  1.00  0.00     0.047 A 
ATOM     13  C   UNL A   1      32.407  26.685  26.407  1.00  0.00     0.086 A 
ATOM     14  F   UNL A   1      31.529  24.675  25.619  1.00  0.00    -0.207 F 
ATOM     15  C   UNL A   1      32.995  27.918  26.177  1.00  0.00     0.122 A 
BRANCH  15  16
ATOM     16  O   UNL A   1      33.142  28.928  27.084  1.00  0.00    -0.490 OA
BRANCH  16  17
ATOM     17  C   UNL A   1      34.157  29.924  26.961  1.00  0.00     0.173 C 
ATOM     18  C   UNL A   1      33.895  31.265  27.643  1.00  0.00     0.045 C 
ATOM     19  C   UNL A   1      35.555  29.465  27.366  1.00  0.00     0.045 C 
ATOM     20  C   UNL A   1      35.272  31.855  27.905  1.00  0.00     0.004 C 
ATOM     21  C   UNL A   1      36.280  30.708  27.868  1.00  0.00     0.004 C 
ENDBRANCH  16  17
ENDBRANCH  15  16
ENDBRANCH   7   9
ENDBRANCH   5   7
ENDBRANCH   4   5
ENDBRANCH   3   4
ENDBRANCH   2   3
ENDBRANCH   1   2
BRANCH   1  22
ATOM     22  C   UNL A   1      38.749  22.533  26.092  1.00  0.00     0.202 C 
BRANCH  22  23
ATOM     23  C   UNL A   1      39.967  23.277  26.656  1.00  0.00     0.261 C 
BRANCH  23  24
ATOM     24  O   UNL A   1      39.594  24.358  27.532  1.00  0.00    -0.460 OA
BRANCH  24  25
ATOM     25  C   UNL A   1      40.086  25.569  27.176  1.00  0.00     0.338 C 
ATOM     26  O   UNL A   1      40.538  25.888  26.083  1.00  0.00    -0.246 OA
BRANCH  25  27
ATOM     27  C   UNL A   1      39.824  26.560  28.234  1.00  0.00     0.060 A 
ATOM     28  C   UNL A   1      40.516  27.776  28.168  1.00  0.00     0.016 A 
ATOM     29  C   UNL A   1      38.994  26.274  29.319  1.00  0.00     0.016 A 
ATOM     30  C   UNL A   1      40.420  28.693  29.212  1.00  0.00     0.010 A 
ATOM     31  C   UNL A   1      38.909  27.190  30.373  1.00  0.00     0.010 A 
ATOM     32  C   UNL A   1      39.650  28.385  30.342  1.00  0.00    -0.014 A 
BRANCH  32  33
ATOM     33  C   UNL A   1      39.755  29.244  31.546  1.00  0.00     0.031 A 
ATOM     34  C   UNL A   1      40.897  29.024  32.502  1.00  0.00     0.074 A 
ATOM     35  C   UNL A   1      38.872  30.235  31.766  1.00  0.00     0.049 A 
ATOM     36  N   UNL A   1      41.176  29.649  33.616  1.00  0.00    -0.248 NA
ATOM     37  C   UNL A   1      41.852  27.959  32.151  1.00  0.00     0.031 C 
ATOM     38  C   UNL A   1      37.752  30.577  30.891  1.00  0.00     0.029 A 
ATOM     39  N   UNL A   1      38.782  31.133  32.800  1.00  0.00    -0.354 N 
ATOM     40  C   UNL A   1      42.335  29.053  34.102  1.00  0.00     0.074 A 
ATOM     41  C   UNL A   1      42.689  27.998  33.178  1.00  0.00     0.031 C 
ATOM     42  C   UNL A   1      37.079  31.610  31.430  1.00  0.00     0.029 A 
ATOM     43  C   UNL A   1      37.704  31.980  32.700  1.00  0.00     0.049 A 
ATOM     44  H   UNL A   1      39.429  31.169  33.540  1.00  0.00     0.167 HD
ATOM     45  C   UNL A   1      43.044  29.360  35.215  1.00  0.00     0.031 A 
ATOM     46  C   UNL A   1      37.260  32.930  33.547  1.00  0.00     0.031 A 
ATOM     47  C   UNL A   1      42.682  30.397  36.143  1.00  0.00     0.049 A 
ATOM     48  C   UNL A   1      38.022  33.205  34.815  1.00  0.00     0.074 A 
ATOM     49  C   UNL A   1      43.338  30.787  37.298  1.00  0.00     0.029 A 
ATOM     50  N   UNL A   1      41.562  31.206  36.026  1.00  0.00    -0.354 N 
ATOM     51  N   UNL A   1      39.124  32.643  35.253  1.00  0.00    -0.248 NA
ATOM     52  C   UNL A   1      37.486  34.249  35.700  1.00  0.00     0.031 C 
ATOM     53  C   UNL A   1      42.585  31.797  37.907  1.00  0.00     0.029 A 
ATOM     54  C   UNL A   1      41.493  32.077  37.101  1.00  0.00     0.049 A 
ATOM     55  H   UNL A   1      40.911  31.168  35.288  1.00  0.00     0.167 HD
ATOM     56  C   UNL A   1      39.425  33.281  36.452  1.00  0.00     0.074 A 
ATOM     57  C   UNL A   1      38.398  34.281  36.663  1.00  0.00     0.031 C 
ATOM     58  C   UNL A   1      40.462  33.063  37.300  1.00  0.00     0.031 A 
BRANCH  45  59
ATOM     59  C   UNL A   1      44.269  28.534  35.503  1.00  0.00    -0.014 A 
ATOM     60  C   UNL A   1      44.189  27.352  36.263  1.00  0.00     0.010 A 
ATOM     61  C   UNL A   1      45.516  28.931  34.984  1.00  0.00     0.010 A 
ATOM     62  C   UNL A   1      45.340  26.606  36.533  1.00  0.00     0.020 A 
ATOM     63  C   UNL A   1      46.664  28.174  35.231  1.00  0.00     0.020 A 
ATOM     64  C   UNL A   1      46.572  27.026  36.020  1.00  0.00     0.054 A 
BRANCH  64  65
ATOM     65  S   UNL A   1      48.048  26.034  36.376  1.00  0.00     0.124 S 
ATOM     66  O   UNL A   1      47.916  24.942  35.415  1.00  0.00    -0.237 OA
ATOM     67  O   UNL A   1      49.137  26.972  36.115  1.00  0.00    -0.237 OA
ATOM     68  O   UNL A   1      47.880  25.653  37.777  1.00  0.00    -0.744 OA
ENDBRANCH  64  65
ENDBRANCH  45  59
BRANCH  46  69
ATOM     69  C   UNL A   1      36.011  33.677  33.229  1.00  0.00    -0.014 A 
ATOM     70  C   UNL A   1      34.751  33.076  33.390  1.00  0.00     0.010 A 
ATOM     71  C   UNL A   1      36.084  35.005  32.770  1.00  0.00     0.010 A 
ATOM     72  C   UNL A   1      33.585  33.788  33.086  1.00  0.00     0.020 A 
ATOM     73  C   UNL A   1      34.921  35.728  32.491  1.00  0.00     0.020 A 
ATOM     74  C   UNL A   1      33.679  35.110  32.642  1.00  0.00     0.054 A 
BRANCH  74  75
ATOM     75  S   UNL A   1      32.152  36.033  32.311  1.00  0.00     0.124 S 
ATOM     76  O   UNL A   1      32.282  36.337  30.890  1.00  0.00    -0.237 OA
ATOM     77  O   UNL A   1      31.115  35.065  32.660  1.00  0.00    -0.237 OA
ATOM     78  O   UNL A   1      32.247  37.182  33.211  1.00  0.00    -0.744 OA
ENDBRANCH  74  75
ENDBRANCH  46  69
BRANCH  58  79
ATOM     79  C   UNL A   1      40.557  33.938  38.522  1.00  0.00    -0.014 A 
ATOM     80  C   UNL A   1      39.972  33.555  39.741  1.00  0.00     0.010 A 
ATOM     81  C   UNL A   1      41.294  35.135  38.461  1.00  0.00     0.010 A 
ATOM     82  C   UNL A   1      40.098  34.369  40.871  1.00  0.00     0.020 A 
ATOM     83  C   UNL A   1      41.444  35.938  39.594  1.00  0.00     0.020 A 
ATOM     84  C   UNL A   1      40.832  35.556  40.790  1.00  0.00     0.054 A 
BRANCH  84  85
ATOM     85  S   UNL A   1      41.018  36.573  42.280  1.00  0.00     0.124 S 
ATOM     86  O   UNL A   1      41.459  35.590  43.266  1.00  0.00    -0.237 OA
ATOM     87  O   UNL A   1      42.024  37.554  41.877  1.00  0.00    -0.237 OA
ATOM     88  O   UNL A   1      39.680  37.117  42.498  1.00  0.00    -0.744 OA
ENDBRANCH  84  85
ENDBRANCH  58  79
ENDBRANCH  32  33
ENDBRANCH  25  27
ENDBRANCH  24  25
ENDBRANCH  23  24
ENDBRANCH  22  23
ENDBRANCH   1  22
TORSDOF 20
ENDMDL
MODEL 3
REMARK VINA RESULT:     -10.4      6.064      8.018
REMARK SMILES C[C@@H](C(=O)OCCOCCOC(=O)c1ccc(-c2c3nc(c(-c4ccc(S(=O)(=O)[O-])cc4)c4ccc([nH]4)c(-c4ccc(S(=O)(=O)[O-])cc4)c4nc(c(-c5ccc(S(=O)(=O)[O-])cc5)c5ccc2[nH]5)C=C4)C=C3)cc1)c1ccc(OC2CCCC2)cc1F
REMARK SMILES IDX 8 1 7 2 6 3 5 4 3 5 4 6 2 7 1 8 74 9 75 10 85 11 76 12 84 13
REMARK SMILES IDX 86 14 77 15 78 16 79 17 80 18 83 19 81 20 82 21 9 22 10 23
REMARK SMILES IDX 11 24 12 25 13 26 14 27 15 28 73 29 16 30 72 31 17 32 18 33
REMARK SMILES IDX 19 34 66 35 20 36 71 37 65 38 67 39 21 40 70 41 64 42 63 43
REMARK SMILES IDX 22 45 52 46 33 47 51 48 34 49 37 50 50 51 68 52 35 53 36 54
REMARK SMILES IDX 49 56 69 57 38 58 23 59 24 60 32 61 25 62 31 63 26 64 27 65
REMARK SMILES IDX 28 66 29 67 30 68 53 69 54 70 62 71 55 72 61 73 56 74 57 75
REMARK SMILES IDX 58 76 59 77 60 78 39 79 40 80 48 81 41 82 47 83 42 84 43 85
REMARK SMILES IDX 44 86 45 87 46 88
REMARK H PARENT 67 44 37 55
REMARK Flexibility Score: inf
ROOT
ATOM      1  O   UNL A   1      37.616  23.142  25.742  1.00  0.00    -0.374 OA
ENDROOT
BRANCH   1   2
ATOM      2  C   UNL A   1      36.478  22.324  25.488  1.00  0.00     0.202 C 
BRANCH   2   3
ATOM      3  C   UNL A   1      35.722  22.522  24.170  1.00  0.00     0.261 C 
BRANCH   3   4
ATOM      4  O   UNL A   1      34.400  23.054  24.349  1.00  0.00    -0.463 OA
BRANCH   4   5
ATOM      5  C   UNL A   1      34.219  24.293  23.810  1.00  0.00     0.313 C 
ATOM      6  O   UNL A   1      34.474  24.557  22.640  1.00  0.00    -0.252 OA
BRANCH   5   7
ATOM      7  C   UNL A   1      33.619  25.313  24.806  1.00  0.00     0.129 C 
ATOM      8  C   UNL A   1      33.169  24.681  26.131  1.00  0.00     0.025 C 
BRANCH   7   9
ATOM      9  C   UNL A   1      32.554  26.170  24.119  1.00  0.00     0.002 A 
ATOM     10  C   UNL A   1      31.234  25.763  23.878  1.00  0.00     0.011 A 
ATOM     11  C   UNL A   1      32.918  27.438  23.653  1.00  0.00     0.130 A 
ATOM     12  C   UNL A   1      30.346  26.596  23.173  1.00  0.00     0.047 A 
ATOM     13  C   UNL A   1      32.069  28.225  22.885  1.00  0.00     0.086 A 
ATOM     14  F   UNL A   1      34.118  27.950  23.959  1.00  0.00    -0.207 F 
ATOM     15  C   UNL A   1      30.760  27.829  22.661  1.00  0.00     0.122 A 
BRANCH  15  16
ATOM     16  O   UNL A   1      29.799  28.541  22.002  1.00  0.00    -0.490 OA
BRANCH  16  17
ATOM     17  C   UNL A   1      29.656  29.953  22.153  1.00  0.00     0.173 C 
ATOM     18  C   UNL A   1      28.618  30.640  21.268  1.00  0.00     0.045 C 
ATOM     19  C   UNL A   1      29.425  30.423  23.587  1.00  0.00     0.045 C 
ATOM     20  C   UNL A   1      28.227  31.904  22.020  1.00  0.00     0.004 C 
ATOM     21  C   UNL A   1      28.607  31.704  23.485  1.00  0.00     0.004 C 
ENDBRANCH  16  17
ENDBRANCH  15  16
ENDBRANCH   7   9
ENDBRANCH   5   7
ENDBRANCH   4   5
ENDBRANCH   3   4
ENDBRANCH   2   3
ENDBRANCH   1   2
BRANCH   1  22
ATOM     22  C   UNL A   1      38.802  22.515  26.231  1.00  0.00     0.202 C 
BRANCH  22  23
ATOM     23  C   UNL A   1      39.097  21.078  25.782  1.00  0.00     0.261 C 
BRANCH  23  24
ATOM     24  O   UNL A   1      39.930  20.369  26.718  1.00  0.00    -0.460 OA
BRANCH  24  25
ATOM     25  C   UNL A   1      41.194  20.139  26.288  1.00  0.00     0.338 C 
ATOM     26  O   UNL A   1      41.591  19.174  25.646  1.00  0.00    -0.246 OA
BRANCH  25  27
ATOM     27  C   UNL A   1      42.037  21.325  26.518  1.00  0.00     0.060 A 
ATOM     28  C   UNL A   1      42.289  21.694  27.846  1.00  0.00     0.016 A 
ATOM     29  C   UNL A   1      42.492  22.118  25.463  1.00  0.00     0.016 A 
ATOM     30  C   UNL A   1      42.957  22.884  28.127  1.00  0.00     0.010 A 
ATOM     31  C   UNL A   1      43.150  23.320  25.748  1.00  0.00     0.010 A 
ATOM     32  C   UNL A   1      43.352  23.725  27.080  1.00  0.00    -0.014 A 
BRANCH  32  33
ATOM     33  C   UNL A   1      43.830  25.095  27.391  1.00  0.00     0.031 A 
ATOM     34  C   UNL A   1      45.279  25.430  27.165  1.00  0.00     0.074 A 
ATOM     35  C   UNL A   1      42.977  26.040  27.826  1.00  0.00     0.049 A 
ATOM     36  N   UNL A   1      45.911  26.556  27.376  1.00  0.00    -0.248 NA
ATOM     37  C   UNL A   1      46.128  24.354  26.627  1.00  0.00     0.031 C 
ATOM     38  C   UNL A   1      41.543  25.851  28.039  1.00  0.00     0.029 A 
ATOM     39  N   UNL A   1      43.201  27.349  28.171  1.00  0.00    -0.354 N 
ATOM     40  C   UNL A   1      47.230  26.324  27.001  1.00  0.00     0.074 A 
ATOM     41  C   UNL A   1      47.314  24.943  26.578  1.00  0.00     0.031 C 
ATOM     42  C   UNL A   1      41.015  27.004  28.486  1.00  0.00     0.029 A 
ATOM     43  C   UNL A   1      42.077  28.000  28.619  1.00  0.00     0.049 A 
ATOM     44  H   UNL A   1      44.083  27.781  28.101  1.00  0.00     0.167 HD
ATOM     45  C   UNL A   1      48.276  27.184  27.003  1.00  0.00     0.031 A 
ATOM     46  C   UNL A   1      41.926  29.249  29.101  1.00  0.00     0.031 A 
ATOM     47  C   UNL A   1      48.196  28.553  27.441  1.00  0.00     0.049 A 
ATOM     48  C   UNL A   1      43.118  30.167  29.163  1.00  0.00     0.074 A 
ATOM     49  C   UNL A   1      49.200  29.505  27.477  1.00  0.00     0.029 A 
ATOM     50  N   UNL A   1      47.048  29.162  27.923  1.00  0.00    -0.354 N 
ATOM     51  N   UNL A   1      44.356  29.938  28.792  1.00  0.00    -0.248 NA
ATOM     52  C   UNL A   1      42.892  31.515  29.703  1.00  0.00     0.031 C 
ATOM     53  C   UNL A   1      48.670  30.675  28.032  1.00  0.00     0.029 A 
ATOM     54  C   UNL A   1      47.323  30.470  28.285  1.00  0.00     0.049 A 
ATOM     55  H   UNL A   1      46.167  28.728  27.999  1.00  0.00     0.167 HD
ATOM     56  C   UNL A   1      45.049  31.120  29.030  1.00  0.00     0.074 A 
ATOM     57  C   UNL A   1      44.091  32.065  29.565  1.00  0.00     0.031 C 
ATOM     58  C   UNL A   1      46.360  31.399  28.821  1.00  0.00     0.031 A 
BRANCH  45  59
ATOM     59  C   UNL A   1      49.609  26.653  26.546  1.00  0.00    -0.014 A 
ATOM     60  C   UNL A   1      50.457  25.959  27.427  1.00  0.00     0.010 A 
ATOM     61  C   UNL A   1      50.007  26.829  25.208  1.00  0.00     0.010 A 
ATOM     62  C   UNL A   1      51.698  25.486  26.989  1.00  0.00     0.020 A 
ATOM     63  C   UNL A   1      51.235  26.335  24.760  1.00  0.00     0.020 A 
ATOM     64  C   UNL A   1      52.081  25.683  25.658  1.00  0.00     0.054 A 
BRANCH  64  65
ATOM     65  S   UNL A   1      53.691  25.050  25.113  1.00  0.00     0.124 S 
ATOM     66  O   UNL A   1      53.516  23.608  25.269  1.00  0.00    -0.237 OA
ATOM     67  O   UNL A   1      53.773  25.526  23.734  1.00  0.00    -0.237 OA
ATOM     68  O   UNL A   1      54.638  25.666  26.039  1.00  0.00    -0.744 OA
ENDBRANCH  64  65
ENDBRANCH  45  59
BRANCH  46  69
ATOM     69  C   UNL A   1      40.592  29.698  29.586  1.00  0.00    -0.014 A 
ATOM     70  C   UNL A   1      39.606  30.135  28.685  1.00  0.00     0.010 A 
ATOM     71  C   UNL A   1      40.301  29.678  30.963  1.00  0.00     0.010 A 
ATOM     72  C   UNL A   1      38.357  30.557  29.154  1.00  0.00     0.020 A 
ATOM     73  C   UNL A   1      39.045  30.072  31.433  1.00  0.00     0.020 A 
ATOM     74  C   UNL A   1      38.084  30.519  30.524  1.00  0.00     0.054 A 
BRANCH  74  75
ATOM     75  S   UNL A   1      36.437  31.013  31.104  1.00  0.00     0.124 S 
ATOM     76  O   UNL A   1      35.647  30.930  29.881  1.00  0.00    -0.237 OA
ATOM     77  O   UNL A   1      36.144  30.003  32.118  1.00  0.00    -0.237 OA
ATOM     78  O   UNL A   1      36.650  32.363  31.625  1.00  0.00    -0.744 OA
ENDBRANCH  74  75
ENDBRANCH  46  69
BRANCH  58  79
ATOM     79  C   UNL A   1      46.835  32.791  29.143  1.00  0.00    -0.014 A 
ATOM     80  C   UNL A   1      46.752  33.827  28.197  1.00  0.00     0.010 A 
ATOM     81  C   UNL A   1      47.318  33.077  30.432  1.00  0.00     0.010 A 
ATOM     82  C   UNL A   1      47.171  35.120  28.526  1.00  0.00     0.020 A 
ATOM     83  C   UNL A   1      47.713  34.373  30.774  1.00  0.00     0.020 A 
ATOM     84  C   UNL A   1      47.649  35.384  29.813  1.00  0.00     0.054 A 
BRANCH  84  85
ATOM     85  S   UNL A   1      48.146  37.078  30.231  1.00  0.00     0.124 S 
ATOM     86  O   UNL A   1      48.621  37.581  28.945  1.00  0.00    -0.237 OA
ATOM     87  O   UNL A   1      46.900  37.669  30.716  1.00  0.00    -0.237 OA
ATOM     88  O   UNL A   1      49.178  36.896  31.249  1.00  0.00    -0.744 OA
ENDBRANCH  84  85
ENDBRANCH  58  79
ENDBRANCH  32  33
ENDBRANCH  25  27
ENDBRANCH  24  25
ENDBRANCH  23  24
ENDBRANCH  22  23
ENDBRANCH   1  22
TORSDOF 20
ENDMDL
