MODEL 1
REMARK VINA RESULT:     -10.2      0.000      0.000
REMARK SMILES O=C(OCCOCCOC(=O)c1cc(-c2cccc(Cl)c2)ccc1Cl)c1ccc(-c2c3nc(c(-c4ccc(S(=O)(=O)[O-])cc4)c4ccc([nH]4)c(-c4ccc(S(=O)(=O)[O-])cc4)c4nc(c(-c5ccc(S(=O)(=O)[O-])cc5)c5ccc2[nH]5)C=C4)C=C3)cc1
REMARK SMILES IDX 5 1 4 2 3 3 2 4 1 5 26 6 27 7 85 8 28 9 84 10 29 11 30 12
REMARK SMILES IDX 31 13 78 14 32 15 83 16 77 17 79 18 33 19 82 20 76 21 75 22
REMARK SMILES IDX 34 24 64 25 45 26 63 27 46 28 49 29 62 30 80 31 47 32 48 33
REMARK SMILES IDX 61 35 81 36 50 37 35 38 36 39 44 40 37 41 43 42 38 43 39 44
REMARK SMILES IDX 40 45 41 46 42 47 65 48 66 49 74 50 67 51 73 52 68 53 69 54
REMARK SMILES IDX 70 55 71 56 72 57 51 58 52 59 60 60 53 61 59 62 54 63 55 64
REMARK SMILES IDX 56 65 57 66 58 67 6 68 7 69 8 70 9 71 10 72 11 73 12 74
REMARK SMILES IDX 13 75 24 76 14 77 23 78 25 79 22 80 15 81 16 82 21 83 17 84
REMARK SMILES IDX 19 85 18 86 20 87
REMARK H PARENT 79 23 49 34
REMARK Flexibility Score: inf
ROOT
ATOM      1  C   UNL A   1      31.863  29.084  25.553  1.00  0.00     0.202 C 
ENDROOT
BRANCH   1   2
ATOM      2  C   UNL A   1      32.149  29.286  27.044  1.00  0.00     0.261 C 
BRANCH   2   3
ATOM      3  O   UNL A   1      33.557  29.159  27.303  1.00  0.00    -0.460 OA
BRANCH   3   4
ATOM      4  C   UNL A   1      34.424  30.109  27.726  1.00  0.00     0.338 C 
ATOM      5  O   UNL A   1      34.010  31.259  27.870  1.00  0.00    -0.246 OA
BRANCH   4   6
ATOM      6  C   UNL A   1      35.860  29.837  28.034  1.00  0.00     0.060 A 
ATOM      7  C   UNL A   1      36.917  30.080  27.158  1.00  0.00     0.016 A 
ATOM      8  C   UNL A   1      36.170  29.388  29.329  1.00  0.00     0.016 A 
ATOM      9  C   UNL A   1      38.230  29.814  27.509  1.00  0.00     0.010 A 
ATOM     10  C   UNL A   1      37.497  29.164  29.712  1.00  0.00     0.010 A 
ATOM     11  C   UNL A   1      38.528  29.360  28.788  1.00  0.00    -0.014 A 
BRANCH  11  12
ATOM     12  C   UNL A   1      39.931  29.010  29.067  1.00  0.00     0.031 A 
ATOM     13  C   UNL A   1      40.748  29.957  29.890  1.00  0.00     0.074 A 
ATOM     14  C   UNL A   1      40.380  27.786  28.731  1.00  0.00     0.049 A 
ATOM     15  N   UNL A   1      41.981  29.839  30.300  1.00  0.00    -0.248 NA
ATOM     16  C   UNL A   1      40.080  31.195  30.328  1.00  0.00     0.031 C 
ATOM     17  C   UNL A   1      39.588  26.756  28.051  1.00  0.00     0.029 A 
ATOM     18  N   UNL A   1      41.584  27.180  28.962  1.00  0.00    -0.354 N 
ATOM     19  C   UNL A   1      42.247  30.998  31.019  1.00  0.00     0.074 A 
ATOM     20  C   UNL A   1      41.049  31.806  30.991  1.00  0.00     0.031 C 
ATOM     21  C   UNL A   1      40.314  25.631  27.963  1.00  0.00     0.029 A 
ATOM     22  C   UNL A   1      41.640  25.881  28.514  1.00  0.00     0.049 A 
ATOM     23  H   UNL A   1      42.338  27.631  29.408  1.00  0.00     0.167 HD
ATOM     24  C   UNL A   1      43.398  31.353  31.634  1.00  0.00     0.031 A 
ATOM     25  C   UNL A   1      42.664  25.007  28.532  1.00  0.00     0.031 A 
ATOM     26  C   UNL A   1      44.576  30.531  31.625  1.00  0.00     0.049 A 
ATOM     27  C   UNL A   1      43.965  25.468  29.129  1.00  0.00     0.074 A 
ATOM     28  C   UNL A   1      45.829  30.805  32.139  1.00  0.00     0.029 A 
ATOM     29  N   UNL A   1      44.637  29.262  31.063  1.00  0.00    -0.354 N 
ATOM     30  N   UNL A   1      44.233  26.601  29.738  1.00  0.00    -0.248 NA
ATOM     31  C   UNL A   1      45.103  24.549  29.030  1.00  0.00     0.031 C 
ATOM     32  C   UNL A   1      46.662  29.719  31.844  1.00  0.00     0.029 A 
ATOM     33  C   UNL A   1      45.913  28.745  31.198  1.00  0.00     0.049 A 
ATOM     34  H   UNL A   1      43.884  28.798  30.631  1.00  0.00     0.167 HD
ATOM     35  C   UNL A   1      45.570  26.526  30.108  1.00  0.00     0.074 A 
ATOM     36  C   UNL A   1      46.045  25.227  29.671  1.00  0.00     0.031 C 
ATOM     37  C   UNL A   1      46.339  27.443  30.745  1.00  0.00     0.031 A 
BRANCH  24  38
ATOM     38  C   UNL A   1      43.439  32.719  32.263  1.00  0.00    -0.014 A 
ATOM     39  C   UNL A   1      43.813  33.862  31.532  1.00  0.00     0.010 A 
ATOM     40  C   UNL A   1      43.153  32.849  33.634  1.00  0.00     0.010 A 
ATOM     41  C   UNL A   1      43.953  35.097  32.173  1.00  0.00     0.020 A 
ATOM     42  C   UNL A   1      43.267  34.087  34.274  1.00  0.00     0.020 A 
ATOM     43  C   UNL A   1      43.692  35.198  33.544  1.00  0.00     0.054 A 
BRANCH  43  44
ATOM     44  S   UNL A   1      43.913  36.802  34.362  1.00  0.00     0.124 S 
ATOM     45  O   UNL A   1      44.021  36.411  35.766  1.00  0.00    -0.237 OA
ATOM     46  O   UNL A   1      45.142  37.306  33.756  1.00  0.00    -0.237 OA
ATOM     47  O   UNL A   1      42.701  37.540  34.013  1.00  0.00    -0.744 OA
ENDBRANCH  43  44
ENDBRANCH  24  38
BRANCH  25  48
ATOM     48  C   UNL A   1      42.514  23.652  27.927  1.00  0.00    -0.014 A 
ATOM     49  C   UNL A   1      42.149  22.543  28.709  1.00  0.00     0.010 A 
ATOM     50  C   UNL A   1      42.738  23.465  26.549  1.00  0.00     0.010 A 
ATOM     51  C   UNL A   1      42.029  21.273  28.130  1.00  0.00     0.020 A 
ATOM     52  C   UNL A   1      42.590  22.205  25.961  1.00  0.00     0.020 A 
ATOM     53  C   UNL A   1      42.251  21.114  26.759  1.00  0.00     0.054 A 
BRANCH  53  54
ATOM     54  S   UNL A   1      42.057  19.466  26.021  1.00  0.00     0.124 S 
ATOM     55  O   UNL A   1      42.879  19.573  24.819  1.00  0.00    -0.237 OA
ATOM     56  O   UNL A   1      42.573  18.587  27.066  1.00  0.00    -0.237 OA
ATOM     57  O   UNL A   1      40.618  19.364  25.787  1.00  0.00    -0.744 OA
ENDBRANCH  53  54
ENDBRANCH  25  48
BRANCH  37  58
ATOM     58  C   UNL A   1      47.760  27.051  31.032  1.00  0.00    -0.014 A 
ATOM     59  C   UNL A   1      48.091  26.296  32.171  1.00  0.00     0.010 A 
ATOM     60  C   UNL A   1      48.767  27.400  30.114  1.00  0.00     0.010 A 
ATOM     61  C   UNL A   1      49.416  25.924  32.403  1.00  0.00     0.020 A 
ATOM     62  C   UNL A   1      50.087  27.004  30.329  1.00  0.00     0.020 A 
ATOM     63  C   UNL A   1      50.405  26.281  31.480  1.00  0.00     0.054 A 
BRANCH  63  64
ATOM     64  S   UNL A   1      52.111  25.745  31.778  1.00  0.00     0.124 S 
ATOM     65  O   UNL A   1      52.732  25.975  30.476  1.00  0.00    -0.237 OA
ATOM     66  O   UNL A   1      52.546  26.637  32.850  1.00  0.00    -0.237 OA
ATOM     67  O   UNL A   1      51.969  24.343  32.163  1.00  0.00    -0.744 OA
ENDBRANCH  63  64
ENDBRANCH  37  58
ENDBRANCH  11  12
ENDBRANCH   4   6
ENDBRANCH   3   4
ENDBRANCH   2   3
ENDBRANCH   1   2
BRANCH   1  68
ATOM     68  O   UNL A   1      32.890  29.550  24.680  1.00  0.00    -0.374 OA
BRANCH  68  69
ATOM     69  C   UNL A   1      33.777  28.546  24.170  1.00  0.00     0.202 C 
BRANCH  69  70
ATOM     70  C   UNL A   1      33.514  28.354  22.677  1.00  0.00     0.261 C 
BRANCH  70  71
ATOM     71  O   UNL A   1      34.061  27.081  22.298  1.00  0.00    -0.460 OA
BRANCH  71  72
ATOM     72  C   UNL A   1      33.172  26.072  22.143  1.00  0.00     0.339 C 
ATOM     73  O   UNL A   1      32.605  25.718  21.123  1.00  0.00    -0.246 OA
BRANCH  72  74
ATOM     74  C   UNL A   1      33.198  25.273  23.381  1.00  0.00     0.079 A 
ATOM     75  C   UNL A   1      34.394  24.587  23.667  1.00  0.00     0.026 A 
ATOM     76  C   UNL A   1      32.144  25.262  24.296  1.00  0.00     0.055 A 
ATOM     77  C   UNL A   1      34.575  23.953  24.903  1.00  0.00    -0.017 A 
ATOM     78  C   UNL A   1      32.311  24.615  25.521  1.00  0.00     0.022 A 
ATOM     79  Cl  UNL A   1      30.607  25.984  23.981  1.00  0.00    -0.083 Cl
ATOM     80  C   UNL A   1      33.519  23.981  25.825  1.00  0.00     0.010 A 
BRANCH  77  81
ATOM     81  C   UNL A   1      35.833  23.289  25.257  1.00  0.00    -0.017 A 
ATOM     82  C   UNL A   1      36.877  24.017  25.850  1.00  0.00     0.009 A 
ATOM     83  C   UNL A   1      36.051  21.937  24.947  1.00  0.00     0.029 A 
ATOM     84  C   UNL A   1      38.114  23.420  26.106  1.00  0.00     0.002 A 
ATOM     85  C   UNL A   1      37.290  21.346  25.202  1.00  0.00     0.041 A 
ATOM     86  C   UNL A   1      38.323  22.083  25.774  1.00  0.00     0.020 A 
ATOM     87  Cl  UNL A   1      37.551  19.699  24.778  1.00  0.00    -0.084 Cl
ENDBRANCH  77  81
ENDBRANCH  72  74
ENDBRANCH  71  72
ENDBRANCH  70  71
ENDBRANCH  69  70
ENDBRANCH  68  69
ENDBRANCH   1  68
TORSDOF 18
ENDMDL
MODEL 2
REMARK VINA RESULT:     -10.1      2.835      9.440
REMARK SMILES O=C(OCCOCCOC(=O)c1cc(-c2cccc(Cl)c2)ccc1Cl)c1ccc(-c2c3nc(c(-c4ccc(S(=O)(=O)[O-])cc4)c4ccc([nH]4)c(-c4ccc(S(=O)(=O)[O-])cc4)c4nc(c(-c5ccc(S(=O)(=O)[O-])cc5)c5ccc2[nH]5)C=C4)C=C3)cc1
REMARK SMILES IDX 5 1 4 2 3 3 2 4 1 5 26 6 27 7 85 8 28 9 84 10 29 11 30 12
REMARK SMILES IDX 31 13 78 14 32 15 83 16 77 17 79 18 33 19 82 20 76 21 75 22
REMARK SMILES IDX 34 24 64 25 45 26 63 27 46 28 49 29 62 30 80 31 47 32 48 33
REMARK SMILES IDX 61 35 81 36 50 37 35 38 36 39 44 40 37 41 43 42 38 43 39 44
REMARK SMILES IDX 40 45 41 46 42 47 65 48 66 49 74 50 67 51 73 52 68 53 69 54
REMARK SMILES IDX 70 55 71 56 72 57 51 58 52 59 60 60 53 61 59 62 54 63 55 64
REMARK SMILES IDX 56 65 57 66 58 67 6 68 7 69 8 70 9 71 10 72 11 73 12 74
REMARK SMILES IDX 13 75 24 76 14 77 23 78 25 79 22 80 15 81 16 82 21 83 17 84
REMARK SMILES IDX 19 85 18 86 20 87
REMARK H PARENT 79 23 49 34
REMARK Flexibility Score: inf
ROOT
ATOM      1  C   UNL A   1      35.770  21.158  25.279  1.00  0.00     0.202 C 
ENDROOT
BRANCH   1   2
ATOM      2  C   UNL A   1      37.112  21.675  24.751  1.00  0.00     0.261 C 
BRANCH   2   3
ATOM      3  O   UNL A   1      37.582  22.762  25.565  1.00  0.00    -0.460 OA
BRANCH   3   4
ATOM      4  C   UNL A   1      38.795  22.915  26.146  1.00  0.00     0.338 C 
ATOM      5  O   UNL A   1      39.569  21.959  26.149  1.00  0.00    -0.246 OA
BRANCH   4   6
ATOM      6  C   UNL A   1      39.251  24.188  26.781  1.00  0.00     0.060 A 
ATOM      7  C   UNL A   1      39.970  25.187  26.125  1.00  0.00     0.016 A 
ATOM      8  C   UNL A   1      38.851  24.430  28.106  1.00  0.00     0.016 A 
ATOM      9  C   UNL A   1      40.356  26.349  26.769  1.00  0.00     0.010 A 
ATOM     10  C   UNL A   1      39.191  25.624  28.752  1.00  0.00     0.010 A 
ATOM     11  C   UNL A   1      39.965  26.577  28.084  1.00  0.00    -0.014 A 
BRANCH  11  12
ATOM     12  C   UNL A   1      40.484  27.789  28.738  1.00  0.00     0.031 A 
ATOM     13  C   UNL A   1      41.955  27.876  29.008  1.00  0.00     0.074 A 
ATOM     14  C   UNL A   1      39.664  28.843  28.911  1.00  0.00     0.049 A 
ATOM     15  N   UNL A   1      42.641  28.856  29.527  1.00  0.00    -0.248 NA
ATOM     16  C   UNL A   1      42.765  26.707  28.622  1.00  0.00     0.031 C 
ATOM     17  C   UNL A   1      38.246  28.877  28.538  1.00  0.00     0.029 A 
ATOM     18  N   UNL A   1      39.912  30.100  29.390  1.00  0.00    -0.354 N 
ATOM     19  C   UNL A   1      43.958  28.413  29.557  1.00  0.00     0.074 A 
ATOM     20  C   UNL A   1      43.976  27.078  29.005  1.00  0.00     0.031 C 
ATOM     21  C   UNL A   1      37.764  30.111  28.758  1.00  0.00     0.029 A 
ATOM     22  C   UNL A   1      38.814  30.929  29.352  1.00  0.00     0.049 A 
ATOM     23  H   UNL A   1      40.792  30.386  29.728  1.00  0.00     0.167 HD
ATOM     24  C   UNL A   1      45.048  29.067  30.020  1.00  0.00     0.031 A 
ATOM     25  C   UNL A   1      38.678  32.199  29.775  1.00  0.00     0.031 A 
ATOM     26  C   UNL A   1      44.988  30.389  30.580  1.00  0.00     0.049 A 
ATOM     27  C   UNL A   1      39.883  32.865  30.382  1.00  0.00     0.074 A 
ATOM     28  C   UNL A   1      45.999  31.133  31.157  1.00  0.00     0.029 A 
ATOM     29  N   UNL A   1      43.835  31.163  30.633  1.00  0.00    -0.354 N 
ATOM     30  N   UNL A   1      41.111  32.408  30.481  1.00  0.00    -0.248 NA
ATOM     31  C   UNL A   1      39.686  34.203  30.949  1.00  0.00     0.031 C 
ATOM     32  C   UNL A   1      45.446  32.339  31.602  1.00  0.00     0.029 A 
ATOM     33  C   UNL A   1      44.104  32.370  31.250  1.00  0.00     0.049 A 
ATOM     34  H   UNL A   1      42.956  30.892  30.281  1.00  0.00     0.167 HD
ATOM     35  C   UNL A   1      41.839  33.410  31.110  1.00  0.00     0.074 A 
ATOM     36  C   UNL A   1      40.915  34.504  31.347  1.00  0.00     0.031 C 
ATOM     37  C   UNL A   1      43.148  33.430  31.464  1.00  0.00     0.031 A 
BRANCH  24  38
ATOM     38  C   UNL A   1      46.347  28.308  30.021  1.00  0.00    -0.014 A 
ATOM     39  C   UNL A   1      47.265  28.408  28.959  1.00  0.00     0.010 A 
ATOM     40  C   UNL A   1      46.625  27.431  31.085  1.00  0.00     0.010 A 
ATOM     41  C   UNL A   1      48.408  27.602  28.935  1.00  0.00     0.020 A 
ATOM     42  C   UNL A   1      47.780  26.643  31.078  1.00  0.00     0.020 A 
ATOM     43  C   UNL A   1      48.651  26.715  29.989  1.00  0.00     0.054 A 
BRANCH  43  44
ATOM     44  S   UNL A   1      50.122  25.656  29.921  1.00  0.00     0.124 S 
ATOM     45  O   UNL A   1      50.035  24.940  31.192  1.00  0.00    -0.237 OA
ATOM     46  O   UNL A   1      49.883  24.848  28.729  1.00  0.00    -0.237 OA
ATOM     47  O   UNL A   1      51.228  26.605  29.816  1.00  0.00    -0.744 OA
ENDBRANCH  43  44
ENDBRANCH  24  38
BRANCH  25  48
ATOM     48  C   UNL A   1      37.360  32.890  29.689  1.00  0.00    -0.014 A 
ATOM     49  C   UNL A   1      36.564  33.083  30.831  1.00  0.00     0.010 A 
ATOM     50  C   UNL A   1      36.890  33.365  28.449  1.00  0.00     0.010 A 
ATOM     51  C   UNL A   1      35.320  33.718  30.733  1.00  0.00     0.020 A 
ATOM     52  C   UNL A   1      35.663  34.027  28.350  1.00  0.00     0.020 A 
ATOM     53  C   UNL A   1      34.878  34.186  29.492  1.00  0.00     0.054 A 
BRANCH  53  54
ATOM     54  S   UNL A   1      33.278  35.038  29.390  1.00  0.00     0.124 S 
ATOM     55  O   UNL A   1      32.565  34.228  28.406  1.00  0.00    -0.237 OA
ATOM     56  O   UNL A   1      32.783  34.950  30.760  1.00  0.00    -0.237 OA
ATOM     57  O   UNL A   1      33.635  36.385  28.949  1.00  0.00    -0.744 OA
ENDBRANCH  53  54
ENDBRANCH  25  48
BRANCH  37  58
ATOM     58  C   UNL A   1      43.653  34.686  32.114  1.00  0.00    -0.014 A 
ATOM     59  C   UNL A   1      44.075  35.784  31.344  1.00  0.00     0.010 A 
ATOM     60  C   UNL A   1      43.651  34.782  33.517  1.00  0.00     0.010 A 
ATOM     61  C   UNL A   1      44.519  36.950  31.971  1.00  0.00     0.020 A 
ATOM     62  C   UNL A   1      44.067  35.956  34.145  1.00  0.00     0.020 A 
ATOM     63  C   UNL A   1      44.512  37.027  33.368  1.00  0.00     0.054 A 
BRANCH  63  64
ATOM     64  S   UNL A   1      45.046  38.568  34.159  1.00  0.00     0.124 S 
ATOM     65  O   UNL A   1      44.491  39.577  33.261  1.00  0.00    -0.237 OA
ATOM     66  O   UNL A   1      44.421  38.486  35.477  1.00  0.00    -0.237 OA
ATOM     67  O   UNL A   1      46.504  38.468  34.161  1.00  0.00    -0.744 OA
ENDBRANCH  63  64
ENDBRANCH  37  58
ENDBRANCH  11  12
ENDBRANCH   4   6
ENDBRANCH   3   4
ENDBRANCH   2   3
ENDBRANCH   1   2
BRANCH   1  68
ATOM     68  O   UNL A   1      35.074  22.067  26.130  1.00  0.00    -0.374 OA
BRANCH  68  69
ATOM     69  C   UNL A   1      34.459  21.489  27.288  1.00  0.00     0.202 C 
BRANCH  69  70
ATOM     70  C   UNL A   1      33.077  22.110  27.488  1.00  0.00     0.261 C 
BRANCH  70  71
ATOM     71  O   UNL A   1      33.040  23.337  26.742  1.00  0.00    -0.460 OA
BRANCH  71  72
ATOM     72  C   UNL A   1      31.821  23.909  26.595  1.00  0.00     0.339 C 
ATOM     73  O   UNL A   1      30.813  23.711  27.251  1.00  0.00    -0.246 OA
BRANCH  72  74
ATOM     74  C   UNL A   1      31.978  25.038  25.662  1.00  0.00     0.079 A 
ATOM     75  C   UNL A   1      32.206  26.305  26.233  1.00  0.00     0.026 A 
ATOM     76  C   UNL A   1      32.011  24.875  24.276  1.00  0.00     0.055 A 
ATOM     77  C   UNL A   1      32.546  27.400  25.428  1.00  0.00    -0.017 A 
ATOM     78  C   UNL A   1      32.329  25.967  23.468  1.00  0.00     0.022 A 
ATOM     79  Cl  UNL A   1      31.637  23.384  23.488  1.00  0.00    -0.083 Cl
ATOM     80  C   UNL A   1      32.609  27.211  24.040  1.00  0.00     0.010 A 
BRANCH  77  81
ATOM     81  C   UNL A   1      32.855  28.715  25.998  1.00  0.00    -0.017 A 
ATOM     82  C   UNL A   1      34.056  28.922  26.695  1.00  0.00     0.009 A 
ATOM     83  C   UNL A   1      31.932  29.771  25.926  1.00  0.00     0.029 A 
ATOM     84  C   UNL A   1      34.322  30.141  27.324  1.00  0.00     0.002 A 
ATOM     85  C   UNL A   1      32.201  30.987  26.558  1.00  0.00     0.041 A 
ATOM     86  C   UNL A   1      33.388  31.173  27.262  1.00  0.00     0.020 A 
ATOM     87  Cl  UNL A   1      31.040  32.255  26.494  1.00  0.00    -0.084 Cl
ENDBRANCH  77  81
ENDBRANCH  72  74
ENDBRANCH  71  72
ENDBRANCH  70  71
ENDBRANCH  69  70
ENDBRANCH  68  69
ENDBRANCH   1  68
TORSDOF 18
ENDMDL
MODEL 3
REMARK VINA RESULT:     -10.1      3.409      4.366
REMARK SMILES O=C(OCCOCCOC(=O)c1cc(-c2cccc(Cl)c2)ccc1Cl)c1ccc(-c2c3nc(c(-c4ccc(S(=O)(=O)[O-])cc4)c4ccc([nH]4)c(-c4ccc(S(=O)(=O)[O-])cc4)c4nc(c(-c5ccc(S(=O)(=O)[O-])cc5)c5ccc2[nH]5)C=C4)C=C3)cc1
REMARK SMILES IDX 5 1 4 2 3 3 2 4 1 5 26 6 27 7 85 8 28 9 84 10 29 11 30 12
REMARK SMILES IDX 31 13 78 14 32 15 83 16 77 17 79 18 33 19 82 20 76 21 75 22
REMARK SMILES IDX 34 24 64 25 45 26 63 27 46 28 49 29 62 30 80 31 47 32 48 33
REMARK SMILES IDX 61 35 81 36 50 37 35 38 36 39 44 40 37 41 43 42 38 43 39 44
REMARK SMILES IDX 40 45 41 46 42 47 65 48 66 49 74 50 67 51 73 52 68 53 69 54
REMARK SMILES IDX 70 55 71 56 72 57 51 58 52 59 60 60 53 61 59 62 54 63 55 64
REMARK SMILES IDX 56 65 57 66 58 67 6 68 7 69 8 70 9 71 10 72 11 73 12 74
REMARK SMILES IDX 13 75 24 76 14 77 23 78 25 79 22 80 15 81 16 82 21 83 17 84
REMARK SMILES IDX 19 85 18 86 20 87
REMARK H PARENT 79 23 49 34
REMARK Flexibility Score: inf
ROOT
ATOM      1  C   UNL A   1      34.402  30.603  27.257  1.00  0.00     0.202 C 
ENDROOT
BRANCH   1   2
ATOM      2  C   UNL A   1      35.359  30.731  28.446  1.00  0.00     0.261 C 
BRANCH   2   3
ATOM      3  O   UNL A   1      36.024  29.480  28.686  1.00  0.00    -0.460 OA
BRANCH   3   4
ATOM      4  C   UNL A   1      37.035  29.217  29.548  1.00  0.00     0.338 C 
ATOM      5  O   UNL A   1      36.776  29.121  30.746  1.00  0.00    -0.246 OA
BRANCH   4   6
ATOM      6  C   UNL A   1      38.455  29.030  29.121  1.00  0.00     0.060 A 
ATOM      7  C   UNL A   1      39.461  28.501  29.929  1.00  0.00     0.016 A 
ATOM      8  C   UNL A   1      38.774  29.328  27.785  1.00  0.00     0.016 A 
ATOM      9  C   UNL A   1      40.757  28.344  29.469  1.00  0.00     0.010 A 
ATOM     10  C   UNL A   1      40.069  29.127  27.295  1.00  0.00     0.010 A 
ATOM     11  C   UNL A   1      41.068  28.651  28.149  1.00  0.00    -0.014 A 
BRANCH  11  12
ATOM     12  C   UNL A   1      42.481  28.550  27.751  1.00  0.00     0.031 A 
ATOM     13  C   UNL A   1      43.403  29.675  28.109  1.00  0.00     0.074 A 
ATOM     14  C   UNL A   1      42.937  27.389  27.242  1.00  0.00     0.049 A 
ATOM     15  N   UNL A   1      44.686  29.784  27.907  1.00  0.00    -0.248 NA
ATOM     16  C   UNL A   1      42.799  30.822  28.810  1.00  0.00     0.031 C 
ATOM     17  C   UNL A   1      42.118  26.197  26.998  1.00  0.00     0.029 A 
ATOM     18  N   UNL A   1      44.201  27.001  26.892  1.00  0.00    -0.354 N 
ATOM     19  C   UNL A   1      45.041  31.024  28.427  1.00  0.00     0.074 A 
ATOM     20  C   UNL A   1      43.839  31.628  28.954  1.00  0.00     0.031 C 
ATOM     21  C   UNL A   1      42.911  25.197  26.583  1.00  0.00     0.029 A 
ATOM     22  C   UNL A   1      44.275  25.695  26.463  1.00  0.00     0.049 A 
ATOM     23  H   UNL A   1      44.983  27.598  26.942  1.00  0.00     0.167 HD
ATOM     24  C   UNL A   1      46.263  31.602  28.445  1.00  0.00     0.031 A 
ATOM     25  C   UNL A   1      45.331  24.998  26.005  1.00  0.00     0.031 A 
ATOM     26  C   UNL A   1      47.433  30.977  27.893  1.00  0.00     0.049 A 
ATOM     27  C   UNL A   1      46.658  25.704  25.940  1.00  0.00     0.074 A 
ATOM     28  C   UNL A   1      48.713  31.485  27.775  1.00  0.00     0.029 A 
ATOM     29  N   UNL A   1      47.455  29.694  27.361  1.00  0.00    -0.354 N 
ATOM     30  N   UNL A   1      46.969  26.909  26.361  1.00  0.00    -0.248 NA
ATOM     31  C   UNL A   1      47.769  24.970  25.325  1.00  0.00     0.031 C 
ATOM     32  C   UNL A   1      49.498  30.524  27.126  1.00  0.00     0.029 A 
ATOM     33  C   UNL A   1      48.722  29.397  26.893  1.00  0.00     0.049 A 
ATOM     34  H   UNL A   1      46.682  29.085  27.323  1.00  0.00     0.167 HD
ATOM     35  C   UNL A   1      48.318  27.074  26.075  1.00  0.00     0.074 A 
ATOM     36  C   UNL A   1      48.765  25.836  25.464  1.00  0.00     0.031 C 
ATOM     37  C   UNL A   1      49.118  28.148  26.291  1.00  0.00     0.031 A 
BRANCH  24  38
ATOM     38  C   UNL A   1      46.344  33.003  28.989  1.00  0.00    -0.014 A 
ATOM     39  C   UNL A   1      46.599  33.256  30.350  1.00  0.00     0.010 A 
ATOM     40  C   UNL A   1      46.102  34.086  28.126  1.00  0.00     0.010 A 
ATOM     41  C   UNL A   1      46.554  34.563  30.846  1.00  0.00     0.020 A 
ATOM     42  C   UNL A   1      46.081  35.397  28.612  1.00  0.00     0.020 A 
ATOM     43  C   UNL A   1      46.282  35.624  29.975  1.00  0.00     0.054 A 
BRANCH  43  44
ATOM     44  S   UNL A   1      46.194  37.307  30.646  1.00  0.00     0.124 S 
ATOM     45  O   UNL A   1      46.601  37.099  32.034  1.00  0.00    -0.237 OA
ATOM     46  O   UNL A   1      47.148  38.036  29.815  1.00  0.00    -0.237 OA
ATOM     47  O   UNL A   1      44.794  37.683  30.459  1.00  0.00    -0.744 OA
ENDBRANCH  43  44
ENDBRANCH  24  38
BRANCH  25  48
ATOM     48  C   UNL A   1      45.165  23.594  25.532  1.00  0.00    -0.014 A 
ATOM     49  C   UNL A   1      45.360  22.506  26.400  1.00  0.00     0.010 A 
ATOM     50  C   UNL A   1      44.805  23.337  24.195  1.00  0.00     0.010 A 
ATOM     51  C   UNL A   1      45.217  21.192  25.938  1.00  0.00     0.020 A 
ATOM     52  C   UNL A   1      44.631  22.028  23.736  1.00  0.00     0.020 A 
ATOM     53  C   UNL A   1      44.853  20.962  24.608  1.00  0.00     0.054 A 
BRANCH  53  54
ATOM     54  S   UNL A   1      44.638  19.253  24.035  1.00  0.00     0.124 S 
ATOM     55  O   UNL A   1      43.397  18.864  24.698  1.00  0.00    -0.237 OA
ATOM     56  O   UNL A   1      44.559  19.410  22.586  1.00  0.00    -0.237 OA
ATOM     57  O   UNL A   1      45.842  18.577  24.516  1.00  0.00    -0.744 OA
ENDBRANCH  53  54
ENDBRANCH  25  48
BRANCH  37  58
ATOM     58  C   UNL A   1      50.559  28.008  25.890  1.00  0.00    -0.014 A 
ATOM     59  C   UNL A   1      51.535  27.601  26.817  1.00  0.00     0.010 A 
ATOM     60  C   UNL A   1      50.925  28.236  24.552  1.00  0.00     0.010 A 
ATOM     61  C   UNL A   1      52.864  27.456  26.415  1.00  0.00     0.020 A 
ATOM     62  C   UNL A   1      52.247  28.063  24.142  1.00  0.00     0.020 A 
ATOM     63  C   UNL A   1      53.211  27.689  25.080  1.00  0.00     0.054 A 
BRANCH  63  64
ATOM     64  S   UNL A   1      54.934  27.447  24.571  1.00  0.00     0.124 S 
ATOM     65  O   UNL A   1      55.450  28.813  24.591  1.00  0.00    -0.237 OA
ATOM     66  O   UNL A   1      55.454  26.561  25.610  1.00  0.00    -0.237 OA
ATOM     67  O   UNL A   1      54.820  26.842  23.246  1.00  0.00    -0.744 OA
ENDBRANCH  63  64
ENDBRANCH  37  58
ENDBRANCH  11  12
ENDBRANCH   4   6
ENDBRANCH   3   4
ENDBRANCH   2   3
ENDBRANCH   1   2
BRANCH   1  68
ATOM     68  O   UNL A   1      33.019  30.559  27.606  1.00  0.00    -0.374 OA
BRANCH  68  69
ATOM     69  C   UNL A   1      32.190  29.747  26.764  1.00  0.00     0.202 C 
BRANCH  69  70
ATOM     70  C   UNL A   1      32.020  28.369  27.403  1.00  0.00     0.261 C 
BRANCH  70  71
ATOM     71  O   UNL A   1      32.887  27.458  26.710  1.00  0.00    -0.460 OA
BRANCH  71  72
ATOM     72  C   UNL A   1      32.370  26.236  26.435  1.00  0.00     0.339 C 
ATOM     73  O   UNL A   1      31.346  25.738  26.867  1.00  0.00    -0.246 OA
BRANCH  72  74
ATOM     74  C   UNL A   1      33.123  25.691  25.292  1.00  0.00     0.079 A 
ATOM     75  C   UNL A   1      34.262  24.918  25.593  1.00  0.00     0.026 A 
ATOM     76  C   UNL A   1      32.696  25.827  23.970  1.00  0.00     0.055 A 
ATOM     77  C   UNL A   1      34.933  24.213  24.586  1.00  0.00    -0.017 A 
ATOM     78  C   UNL A   1      33.372  25.143  22.960  1.00  0.00     0.022 A 
ATOM     79  Cl  UNL A   1      31.378  26.841  23.500  1.00  0.00    -0.083 Cl
ATOM     80  C   UNL A   1      34.469  24.333  23.268  1.00  0.00     0.010 A 
BRANCH  77  81
ATOM     81  C   UNL A   1      36.079  23.347  24.877  1.00  0.00    -0.017 A 
ATOM     82  C   UNL A   1      36.075  22.004  24.469  1.00  0.00     0.009 A 
ATOM     83  C   UNL A   1      37.167  23.815  25.631  1.00  0.00     0.029 A 
ATOM     84  C   UNL A   1      37.117  21.142  24.822  1.00  0.00     0.002 A 
ATOM     85  C   UNL A   1      38.205  22.950  25.984  1.00  0.00     0.041 A 
ATOM     86  C   UNL A   1      38.181  21.615  25.588  1.00  0.00     0.020 A 
ATOM     87  Cl  UNL A   1      39.510  23.531  26.943  1.00  0.00    -0.084 Cl
ENDBRANCH  77  81
ENDBRANCH  72  74
ENDBRANCH  71  72
ENDBRANCH  70  71
ENDBRANCH  69  70
ENDBRANCH  68  69
ENDBRANCH   1  68
TORSDOF 18
ENDMDL
