MODEL 1
REMARK VINA RESULT:     -11.8      0.000      0.000
REMARK SMILES Cc1c(NC(=O)[C@@H]2CC=CC[C@@H]2C(=O)OCCOCCOC(=O)c2ccc(-c3c4nc(c(-c5ccc(S(=O)(=O)[O-])cc5)c5ccc([nH]5)c(-c5ccc(S(=O)(=O)[O-])cc5)c5nc(c(-c6ccc(S(=O)(=O)[O-])cc6)c6ccc3[nH]6)C=C5)C=C4)cc2)cccc1C(=O)N1CCOCC1
REMARK SMILES IDX 18 1 17 2 16 3 15 4 13 5 14 6 12 7 7 8 8 9 9 10 11 11 10 12
REMARK SMILES IDX 5 13 4 14 6 16 3 17 1 18 2 19 87 20 84 21 86 22 85 23 88 24
REMARK SMILES IDX 89 25 90 26 91 27 95 28 92 29 94 30 93 31 19 32 20 33 21 34
REMARK SMILES IDX 22 35 23 36 24 37 25 38 83 39 26 40 82 41 27 42 28 43 29 44
REMARK SMILES IDX 76 45 30 46 81 47 75 48 77 49 31 50 80 51 74 52 73 53 32 55
REMARK SMILES IDX 62 56 43 57 61 58 44 59 47 60 60 61 78 62 45 63 46 64 59 66
REMARK SMILES IDX 79 67 48 68 33 69 34 70 42 71 35 72 41 73 36 74 37 75 38 76
REMARK SMILES IDX 39 77 40 78 63 79 64 80 72 81 65 82 71 83 66 84 67 85 68 86
REMARK SMILES IDX 69 87 70 88 49 89 50 90 58 91 51 92 57 93 52 94 53 95 54 96
REMARK SMILES IDX 55 97 56 98
REMARK H PARENT 4 15 77 54 47 65
REMARK Flexibility Score: inf
ROOT
ATOM      1  O   UNL A   1      38.235  23.372  25.664  1.00  0.00    -0.374 OA
ENDROOT
BRANCH   1   2
ATOM      2  C   UNL A   1      36.878  23.597  25.963  1.00  0.00     0.202 C 
BRANCH   2   3
ATOM      3  C   UNL A   1      35.949  23.960  24.822  1.00  0.00     0.261 C 
BRANCH   3   4
ATOM      4  O   UNL A   1      35.106  25.092  25.033  1.00  0.00    -0.463 OA
BRANCH   4   5
ATOM      5  C   UNL A   1      33.879  25.054  24.464  1.00  0.00     0.310 C 
ATOM      6  O   UNL A   1      33.658  24.648  23.327  1.00  0.00    -0.252 OA
BRANCH   5   7
ATOM      7  C   UNL A   1      32.771  25.359  25.458  1.00  0.00     0.116 C 
ATOM      8  C   UNL A   1      31.339  25.674  24.948  1.00  0.00     0.097 C 
ATOM      9  C   UNL A   1      31.294  26.956  24.115  1.00  0.00     0.041 C 
ATOM     10  C   UNL A   1      31.937  28.076  24.886  1.00  0.00    -0.030 C 
ATOM     11  C   UNL A   1      33.268  26.514  26.346  1.00  0.00     0.043 C 
ATOM     12  C   UNL A   1      32.796  27.875  25.900  1.00  0.00    -0.030 C 
BRANCH   8  13
ATOM     13  C   UNL A   1      30.637  24.491  24.324  1.00  0.00     0.228 C 
ATOM     14  N   UNL A   1      30.636  23.224  24.830  1.00  0.00    -0.326 N 
ATOM     15  H   UNL A   1      29.794  22.742  24.665  1.00  0.00     0.169 HD
ATOM     16  O   UNL A   1      30.095  24.616  23.222  1.00  0.00    -0.274 OA
BRANCH  14  17
ATOM     17  C   UNL A   1      31.588  22.451  25.545  1.00  0.00     0.044 A 
ATOM     18  C   UNL A   1      32.060  21.180  23.413  1.00  0.00     0.047 C 
ATOM     19  C   UNL A   1      32.443  21.571  24.809  1.00  0.00    -0.015 A 
ATOM     20  C   UNL A   1      33.620  21.061  25.414  1.00  0.00     0.045 A 
ATOM     21  C   UNL A   1      31.814  22.619  26.908  1.00  0.00     0.026 A 
ATOM     22  C   UNL A   1      33.831  21.320  26.780  1.00  0.00     0.014 A 
ATOM     23  C   UNL A   1      32.919  22.052  27.528  1.00  0.00     0.003 A 
BRANCH  20  24
ATOM     24  C   UNL A   1      34.638  20.130  24.798  1.00  0.00     0.254 C 
ATOM     25  O   UNL A   1      35.787  20.547  24.629  1.00  0.00    -0.269 OA
ATOM     26  N   UNL A   1      34.347  18.799  24.545  1.00  0.00    -0.334 N 
ATOM     27  C   UNL A   1      33.336  18.328  23.592  1.00  0.00     0.148 C 
ATOM     28  C   UNL A   1      35.403  17.828  24.809  1.00  0.00     0.148 C 
ATOM     29  C   UNL A   1      32.835  16.912  23.954  1.00  0.00     0.181 C 
ATOM     30  C   UNL A   1      34.783  16.501  25.240  1.00  0.00     0.181 C 
ATOM     31  O   UNL A   1      33.921  16.000  24.204  1.00  0.00    -0.378 OA
ENDBRANCH  20  24
ENDBRANCH  14  17
ENDBRANCH   8  13
ENDBRANCH   5   7
ENDBRANCH   4   5
ENDBRANCH   3   4
ENDBRANCH   2   3
ENDBRANCH   1   2
BRANCH   1  32
ATOM     32  C   UNL A   1      38.873  22.217  26.202  1.00  0.00     0.202 C 
BRANCH  32  33
ATOM     33  C   UNL A   1      40.259  22.278  26.901  1.00  0.00     0.261 C 
BRANCH  33  34
ATOM     34  O   UNL A   1      40.395  23.401  27.800  1.00  0.00    -0.460 OA
BRANCH  34  35
ATOM     35  C   UNL A   1      41.089  24.485  27.336  1.00  0.00     0.338 C 
ATOM     36  O   UNL A   1      42.141  24.441  26.688  1.00  0.00    -0.246 OA
BRANCH  35  37
ATOM     37  C   UNL A   1      40.244  25.697  27.397  1.00  0.00     0.060 A 
ATOM     38  C   UNL A   1      40.539  26.867  26.703  1.00  0.00     0.016 A 
ATOM     39  C   UNL A   1      39.196  25.712  28.304  1.00  0.00     0.016 A 
ATOM     40  C   UNL A   1      40.117  28.089  27.229  1.00  0.00     0.010 A 
ATOM     41  C   UNL A   1      38.781  26.924  28.821  1.00  0.00     0.010 A 
ATOM     42  C   UNL A   1      39.442  28.091  28.441  1.00  0.00    -0.014 A 
BRANCH  42  43
ATOM     43  C   UNL A   1      39.664  29.153  29.446  1.00  0.00     0.031 A 
ATOM     44  C   UNL A   1      38.715  30.257  29.503  1.00  0.00     0.074 A 
ATOM     45  C   UNL A   1      40.567  29.039  30.443  1.00  0.00     0.049 A 
ATOM     46  N   UNL A   1      38.819  31.387  28.883  1.00  0.00    -0.248 NA
ATOM     47  C   UNL A   1      37.418  29.999  30.141  1.00  0.00     0.031 C 
ATOM     48  C   UNL A   1      40.849  29.975  31.522  1.00  0.00     0.029 A 
ATOM     49  N   UNL A   1      41.539  28.052  30.582  1.00  0.00    -0.354 N 
ATOM     50  C   UNL A   1      37.704  32.077  29.313  1.00  0.00     0.074 A 
ATOM     51  C   UNL A   1      36.749  31.034  29.646  1.00  0.00     0.031 C 
ATOM     52  C   UNL A   1      42.104  29.744  31.945  1.00  0.00     0.029 A 
ATOM     53  C   UNL A   1      42.656  28.633  31.178  1.00  0.00     0.049 A 
ATOM     54  H   UNL A   1      41.453  27.110  30.308  1.00  0.00     0.167 HD
ATOM     55  C   UNL A   1      37.802  33.221  30.064  1.00  0.00     0.031 A 
ATOM     56  C   UNL A   1      43.784  28.657  30.419  1.00  0.00     0.031 A 
ATOM     57  C   UNL A   1      39.172  33.434  30.580  1.00  0.00     0.049 A 
ATOM     58  C   UNL A   1      43.971  30.055  29.884  1.00  0.00     0.074 A 
ATOM     59  C   UNL A   1      39.700  33.502  31.860  1.00  0.00     0.029 A 
ATOM     60  N   UNL A   1      40.282  33.298  29.737  1.00  0.00    -0.354 N 
ATOM     61  N   UNL A   1      43.011  30.948  29.846  1.00  0.00    -0.248 NA
ATOM     62  C   UNL A   1      45.254  30.617  29.505  1.00  0.00     0.031 C 
ATOM     63  C   UNL A   1      41.125  33.403  31.771  1.00  0.00     0.029 A 
ATOM     64  C   UNL A   1      41.480  33.286  30.434  1.00  0.00     0.049 A 
ATOM     65  H   UNL A   1      40.218  33.219  28.758  1.00  0.00     0.167 HD
ATOM     66  C   UNL A   1      43.522  32.194  29.613  1.00  0.00     0.074 A 
ATOM     67  C   UNL A   1      44.926  31.912  29.328  1.00  0.00     0.031 C 
ATOM     68  C   UNL A   1      42.770  33.342  29.721  1.00  0.00     0.031 A 
BRANCH  55  69
ATOM     69  C   UNL A   1      36.530  33.889  30.606  1.00  0.00    -0.014 A 
ATOM     70  C   UNL A   1      35.408  34.131  29.794  1.00  0.00     0.010 A 
ATOM     71  C   UNL A   1      36.364  34.239  31.971  1.00  0.00     0.010 A 
ATOM     72  C   UNL A   1      34.237  34.740  30.302  1.00  0.00     0.020 A 
ATOM     73  C   UNL A   1      35.247  34.916  32.474  1.00  0.00     0.020 A 
ATOM     74  C   UNL A   1      34.171  35.147  31.636  1.00  0.00     0.054 A 
BRANCH  74  75
ATOM     75  S   UNL A   1      32.655  35.885  32.305  1.00  0.00     0.124 S 
ATOM     76  O   UNL A   1      32.065  36.521  31.131  1.00  0.00    -0.237 OA
ATOM     77  O   UNL A   1      31.942  34.721  32.821  1.00  0.00    -0.237 OA
ATOM     78  O   UNL A   1      33.140  36.813  33.326  1.00  0.00    -0.744 OA
ENDBRANCH  74  75
ENDBRANCH  55  69
BRANCH  56  79
ATOM     79  C   UNL A   1      44.164  27.266  29.972  1.00  0.00    -0.014 A 
ATOM     80  C   UNL A   1      43.911  27.029  28.604  1.00  0.00     0.010 A 
ATOM     81  C   UNL A   1      45.141  26.447  30.551  1.00  0.00     0.010 A 
ATOM     82  C   UNL A   1      44.678  26.184  27.795  1.00  0.00     0.020 A 
ATOM     83  C   UNL A   1      45.947  25.597  29.741  1.00  0.00     0.020 A 
ATOM     84  C   UNL A   1      45.752  25.528  28.360  1.00  0.00     0.054 A 
BRANCH  84  85
ATOM     85  S   UNL A   1      47.002  24.823  27.236  1.00  0.00     0.124 S 
ATOM     86  O   UNL A   1      48.213  24.875  28.045  1.00  0.00    -0.237 OA
ATOM     87  O   UNL A   1      46.471  23.487  26.970  1.00  0.00    -0.237 OA
ATOM     88  O   UNL A   1      46.958  25.721  26.088  1.00  0.00    -0.744 OA
ENDBRANCH  84  85
ENDBRANCH  56  79
BRANCH  68  89
ATOM     89  C   UNL A   1      43.159  34.692  29.142  1.00  0.00    -0.014 A 
ATOM     90  C   UNL A   1      43.400  35.853  29.881  1.00  0.00     0.010 A 
ATOM     91  C   UNL A   1      43.374  34.793  27.743  1.00  0.00     0.010 A 
ATOM     92  C   UNL A   1      43.961  36.994  29.293  1.00  0.00     0.020 A 
ATOM     93  C   UNL A   1      43.924  35.924  27.138  1.00  0.00     0.020 A 
ATOM     94  C   UNL A   1      44.250  37.009  27.931  1.00  0.00     0.054 A 
BRANCH  94  95
ATOM     95  S   UNL A   1      45.049  38.464  27.229  1.00  0.00     0.124 S 
ATOM     96  O   UNL A   1      46.071  37.871  26.370  1.00  0.00    -0.237 OA
ATOM     97  O   UNL A   1      43.941  39.111  26.531  1.00  0.00    -0.237 OA
ATOM     98  O   UNL A   1      45.558  39.183  28.395  1.00  0.00    -0.744 OA
ENDBRANCH  94  95
ENDBRANCH  68  89
ENDBRANCH  42  43
ENDBRANCH  35  37
ENDBRANCH  34  35
ENDBRANCH  33  34
ENDBRANCH  32  33
ENDBRANCH   1  32
TORSDOF 20
ENDMDL
MODEL 2
REMARK VINA RESULT:     -11.4      4.173     10.041
REMARK SMILES Cc1c(NC(=O)[C@@H]2CC=CC[C@@H]2C(=O)OCCOCCOC(=O)c2ccc(-c3c4nc(c(-c5ccc(S(=O)(=O)[O-])cc5)c5ccc([nH]5)c(-c5ccc(S(=O)(=O)[O-])cc5)c5nc(c(-c6ccc(S(=O)(=O)[O-])cc6)c6ccc3[nH]6)C=C5)C=C4)cc2)cccc1C(=O)N1CCOCC1
REMARK SMILES IDX 18 1 17 2 16 3 15 4 13 5 14 6 12 7 7 8 8 9 9 10 11 11 10 12
REMARK SMILES IDX 5 13 4 14 6 16 3 17 1 18 2 19 87 20 84 21 86 22 85 23 88 24
REMARK SMILES IDX 89 25 90 26 91 27 95 28 92 29 94 30 93 31 19 32 20 33 21 34
REMARK SMILES IDX 22 35 23 36 24 37 25 38 83 39 26 40 82 41 27 42 28 43 29 44
REMARK SMILES IDX 76 45 30 46 81 47 75 48 77 49 31 50 80 51 74 52 73 53 32 55
REMARK SMILES IDX 62 56 43 57 61 58 44 59 47 60 60 61 78 62 45 63 46 64 59 66
REMARK SMILES IDX 79 67 48 68 33 69 34 70 42 71 35 72 41 73 36 74 37 75 38 76
REMARK SMILES IDX 39 77 40 78 63 79 64 80 72 81 65 82 71 83 66 84 67 85 68 86
REMARK SMILES IDX 69 87 70 88 49 89 50 90 58 91 51 92 57 93 52 94 53 95 54 96
REMARK SMILES IDX 55 97 56 98
REMARK H PARENT 4 15 77 54 47 65
REMARK Flexibility Score: inf
ROOT
ATOM      1  O   UNL A   1      36.816  23.525  26.126  1.00  0.00    -0.374 OA
ENDROOT
BRANCH   1   2
ATOM      2  C   UNL A   1      36.212  23.654  24.861  1.00  0.00     0.202 C 
BRANCH   2   3
ATOM      3  C   UNL A   1      34.709  23.843  24.806  1.00  0.00     0.261 C 
BRANCH   3   4
ATOM      4  O   UNL A   1      34.252  25.124  24.375  1.00  0.00    -0.463 OA
BRANCH   4   5
ATOM      5  C   UNL A   1      33.378  25.764  25.186  1.00  0.00     0.310 C 
ATOM      6  O   UNL A   1      32.859  25.260  26.176  1.00  0.00    -0.252 OA
BRANCH   5   7
ATOM      7  C   UNL A   1      33.275  27.247  24.868  1.00  0.00     0.116 C 
ATOM      8  C   UNL A   1      31.972  28.021  25.204  1.00  0.00     0.097 C 
ATOM      9  C   UNL A   1      30.775  27.505  24.404  1.00  0.00     0.041 C 
ATOM     10  C   UNL A   1      31.123  27.484  22.941  1.00  0.00    -0.030 C 
ATOM     11  C   UNL A   1      33.602  27.411  23.374  1.00  0.00     0.043 C 
ATOM     12  C   UNL A   1      32.386  27.470  22.483  1.00  0.00    -0.030 C 
BRANCH   8  13
ATOM     13  C   UNL A   1      31.719  28.183  26.684  1.00  0.00     0.228 C 
ATOM     14  N   UNL A   1      32.234  29.179  27.463  1.00  0.00    -0.326 N 
ATOM     15  H   UNL A   1      31.625  29.462  28.181  1.00  0.00     0.169 HD
ATOM     16  O   UNL A   1      31.085  27.317  27.292  1.00  0.00    -0.274 OA
BRANCH  14  17
ATOM     17  C   UNL A   1      33.459  29.895  27.458  1.00  0.00     0.044 A 
ATOM     18  C   UNL A   1      32.132  32.038  27.296  1.00  0.00     0.047 C 
ATOM     19  C   UNL A   1      33.417  31.320  27.578  1.00  0.00    -0.015 A 
ATOM     20  C   UNL A   1      34.590  32.033  27.933  1.00  0.00     0.045 A 
ATOM     21  C   UNL A   1      34.697  29.257  27.483  1.00  0.00     0.026 A 
ATOM     22  C   UNL A   1      35.802  31.325  28.009  1.00  0.00     0.014 A 
ATOM     23  C   UNL A   1      35.863  29.963  27.745  1.00  0.00     0.003 A 
BRANCH  20  24
ATOM     24  C   UNL A   1      34.737  33.527  28.109  1.00  0.00     0.254 C 
ATOM     25  O   UNL A   1      34.987  34.213  27.115  1.00  0.00    -0.269 OA
ATOM     26  N   UNL A   1      34.469  34.145  29.320  1.00  0.00    -0.334 N 
ATOM     27  C   UNL A   1      35.222  33.923  30.560  1.00  0.00     0.148 C 
ATOM     28  C   UNL A   1      33.788  35.434  29.270  1.00  0.00     0.148 C 
ATOM     29  C   UNL A   1      34.368  34.251  31.804  1.00  0.00     0.181 C 
ATOM     30  C   UNL A   1      32.912  35.600  30.510  1.00  0.00     0.181 C 
ATOM     31  O   UNL A   1      33.721  35.532  31.697  1.00  0.00    -0.378 OA
ENDBRANCH  20  24
ENDBRANCH  14  17
ENDBRANCH   8  13
ENDBRANCH   5   7
ENDBRANCH   4   5
ENDBRANCH   3   4
ENDBRANCH   2   3
ENDBRANCH   1   2
BRANCH   1  32
ATOM     32  C   UNL A   1      38.231  23.370  26.197  1.00  0.00     0.202 C 
BRANCH  32  33
ATOM     33  C   UNL A   1      39.104  24.140  27.225  1.00  0.00     0.261 C 
BRANCH  33  34
ATOM     34  O   UNL A   1      39.236  25.547  26.921  1.00  0.00    -0.460 OA
BRANCH  34  35
ATOM     35  C   UNL A   1      39.401  26.396  27.981  1.00  0.00     0.338 C 
ATOM     36  O   UNL A   1      39.098  26.149  29.154  1.00  0.00    -0.246 OA
BRANCH  35  37
ATOM     37  C   UNL A   1      40.311  27.502  27.612  1.00  0.00     0.060 A 
ATOM     38  C   UNL A   1      40.955  27.581  26.380  1.00  0.00     0.016 A 
ATOM     39  C   UNL A   1      40.651  28.418  28.595  1.00  0.00     0.016 A 
ATOM     40  C   UNL A   1      42.186  28.232  26.301  1.00  0.00     0.010 A 
ATOM     41  C   UNL A   1      41.871  29.061  28.513  1.00  0.00     0.010 A 
ATOM     42  C   UNL A   1      42.736  28.752  27.463  1.00  0.00    -0.014 A 
BRANCH  42  43
ATOM     43  C   UNL A   1      44.191  28.693  27.724  1.00  0.00     0.031 A 
ATOM     44  C   UNL A   1      44.967  29.916  27.577  1.00  0.00     0.074 A 
ATOM     45  C   UNL A   1      44.788  27.625  28.293  1.00  0.00     0.049 A 
ATOM     46  N   UNL A   1      45.586  30.306  26.511  1.00  0.00    -0.248 NA
ATOM     47  C   UNL A   1      44.870  30.910  28.654  1.00  0.00     0.031 C 
ATOM     48  C   UNL A   1      46.189  27.454  28.652  1.00  0.00     0.029 A 
ATOM     49  N   UNL A   1      44.217  26.379  28.538  1.00  0.00    -0.354 N 
ATOM     50  C   UNL A   1      46.192  31.477  26.918  1.00  0.00     0.074 A 
ATOM     51  C   UNL A   1      45.343  31.960  27.992  1.00  0.00     0.031 C 
ATOM     52  C   UNL A   1      46.444  26.135  28.687  1.00  0.00     0.029 A 
ATOM     53  C   UNL A   1      45.211  25.415  28.385  1.00  0.00     0.049 A 
ATOM     54  H   UNL A   1      43.277  26.208  28.777  1.00  0.00     0.167 HD
ATOM     55  C   UNL A   1      47.557  31.608  26.973  1.00  0.00     0.031 A 
ATOM     56  C   UNL A   1      45.021  24.527  27.374  1.00  0.00     0.031 A 
ATOM     57  C   UNL A   1      48.249  30.307  26.839  1.00  0.00     0.049 A 
ATOM     58  C   UNL A   1      45.921  24.908  26.226  1.00  0.00     0.074 A 
ATOM     59  C   UNL A   1      49.083  29.590  27.683  1.00  0.00     0.029 A 
ATOM     60  N   UNL A   1      47.878  29.400  25.839  1.00  0.00    -0.354 N 
ATOM     61  N   UNL A   1      46.471  26.094  26.102  1.00  0.00    -0.248 NA
ATOM     62  C   UNL A   1      46.406  23.976  25.226  1.00  0.00     0.031 C 
ATOM     63  C   UNL A   1      49.202  28.255  27.178  1.00  0.00     0.029 A 
ATOM     64  C   UNL A   1      48.451  28.150  26.016  1.00  0.00     0.049 A 
ATOM     65  H   UNL A   1      47.277  29.625  25.093  1.00  0.00     0.167 HD
ATOM     66  C   UNL A   1      47.465  26.068  25.164  1.00  0.00     0.074 A 
ATOM     67  C   UNL A   1      47.323  24.732  24.591  1.00  0.00     0.031 C 
ATOM     68  C   UNL A   1      48.339  27.113  24.973  1.00  0.00     0.031 A 
BRANCH  55  69
ATOM     69  C   UNL A   1      48.178  32.896  27.534  1.00  0.00    -0.014 A 
ATOM     70  C   UNL A   1      48.262  34.077  26.776  1.00  0.00     0.010 A 
ATOM     71  C   UNL A   1      48.639  33.010  28.871  1.00  0.00     0.010 A 
ATOM     72  C   UNL A   1      48.828  35.262  27.302  1.00  0.00     0.020 A 
ATOM     73  C   UNL A   1      49.276  34.147  29.383  1.00  0.00     0.020 A 
ATOM     74  C   UNL A   1      49.350  35.283  28.598  1.00  0.00     0.054 A 
BRANCH  74  75
ATOM     75  S   UNL A   1      50.034  36.812  29.295  1.00  0.00     0.124 S 
ATOM     76  O   UNL A   1      51.430  36.760  28.870  1.00  0.00    -0.237 OA
ATOM     77  O   UNL A   1      49.215  37.839  28.658  1.00  0.00    -0.237 OA
ATOM     78  O   UNL A   1      49.826  36.664  30.735  1.00  0.00    -0.744 OA
ENDBRANCH  74  75
ENDBRANCH  55  69
BRANCH  56  79
ATOM     79  C   UNL A   1      43.698  23.814  27.523  1.00  0.00    -0.014 A 
ATOM     80  C   UNL A   1      43.023  23.625  26.298  1.00  0.00     0.010 A 
ATOM     81  C   UNL A   1      43.347  22.922  28.544  1.00  0.00     0.010 A 
ATOM     82  C   UNL A   1      42.197  22.534  26.013  1.00  0.00     0.020 A 
ATOM     83  C   UNL A   1      42.526  21.792  28.268  1.00  0.00     0.020 A 
ATOM     84  C   UNL A   1      42.016  21.572  26.986  1.00  0.00     0.054 A 
BRANCH  84  85
ATOM     85  S   UNL A   1      41.349  19.957  26.469  1.00  0.00     0.124 S 
ATOM     86  O   UNL A   1      41.482  19.162  27.683  1.00  0.00    -0.237 OA
ATOM     87  O   UNL A   1      39.981  20.291  26.075  1.00  0.00    -0.237 OA
ATOM     88  O   UNL A   1      42.215  19.582  25.357  1.00  0.00    -0.744 OA
ENDBRANCH  84  85
ENDBRANCH  56  79
BRANCH  68  89
ATOM     89  C   UNL A   1      49.212  27.301  23.744  1.00  0.00    -0.014 A 
ATOM     90  C   UNL A   1      50.604  27.186  23.710  1.00  0.00     0.010 A 
ATOM     91  C   UNL A   1      48.581  27.543  22.495  1.00  0.00     0.010 A 
ATOM     92  C   UNL A   1      51.309  27.162  22.501  1.00  0.00     0.020 A 
ATOM     93  C   UNL A   1      49.268  27.531  21.281  1.00  0.00     0.020 A 
ATOM     94  C   UNL A   1      50.632  27.301  21.292  1.00  0.00     0.054 A 
BRANCH  94  95
ATOM     95  S   UNL A   1      51.565  27.179  19.755  1.00  0.00     0.124 S 
ATOM     96  O   UNL A   1      50.506  26.997  18.765  1.00  0.00    -0.237 OA
ATOM     97  O   UNL A   1      52.248  28.469  19.712  1.00  0.00    -0.237 OA
ATOM     98  O   UNL A   1      52.431  26.020  19.960  1.00  0.00    -0.744 OA
ENDBRANCH  94  95
ENDBRANCH  68  89
ENDBRANCH  42  43
ENDBRANCH  35  37
ENDBRANCH  34  35
ENDBRANCH  33  34
ENDBRANCH  32  33
ENDBRANCH   1  32
TORSDOF 20
ENDMDL
MODEL 3
REMARK VINA RESULT:     -11.3      2.531      3.172
REMARK SMILES Cc1c(NC(=O)[C@@H]2CC=CC[C@@H]2C(=O)OCCOCCOC(=O)c2ccc(-c3c4nc(c(-c5ccc(S(=O)(=O)[O-])cc5)c5ccc([nH]5)c(-c5ccc(S(=O)(=O)[O-])cc5)c5nc(c(-c6ccc(S(=O)(=O)[O-])cc6)c6ccc3[nH]6)C=C5)C=C4)cc2)cccc1C(=O)N1CCOCC1
REMARK SMILES IDX 18 1 17 2 16 3 15 4 13 5 14 6 12 7 7 8 8 9 9 10 11 11 10 12
REMARK SMILES IDX 5 13 4 14 6 16 3 17 1 18 2 19 87 20 84 21 86 22 85 23 88 24
REMARK SMILES IDX 89 25 90 26 91 27 95 28 92 29 94 30 93 31 19 32 20 33 21 34
REMARK SMILES IDX 22 35 23 36 24 37 25 38 83 39 26 40 82 41 27 42 28 43 29 44
REMARK SMILES IDX 76 45 30 46 81 47 75 48 77 49 31 50 80 51 74 52 73 53 32 55
REMARK SMILES IDX 62 56 43 57 61 58 44 59 47 60 60 61 78 62 45 63 46 64 59 66
REMARK SMILES IDX 79 67 48 68 33 69 34 70 42 71 35 72 41 73 36 74 37 75 38 76
REMARK SMILES IDX 39 77 40 78 63 79 64 80 72 81 65 82 71 83 66 84 67 85 68 86
REMARK SMILES IDX 69 87 70 88 49 89 50 90 58 91 51 92 57 93 52 94 53 95 54 96
REMARK SMILES IDX 55 97 56 98
REMARK H PARENT 4 15 77 54 47 65
REMARK Flexibility Score: inf
ROOT
ATOM      1  O   UNL A   1      37.583  23.483  25.104  1.00  0.00    -0.374 OA
ENDROOT
BRANCH   1   2
ATOM      2  C   UNL A   1      36.572  24.170  25.802  1.00  0.00     0.202 C 
BRANCH   2   3
ATOM      3  C   UNL A   1      35.303  24.525  25.052  1.00  0.00     0.261 C 
BRANCH   3   4
ATOM      4  O   UNL A   1      34.306  25.221  25.797  1.00  0.00    -0.463 OA
BRANCH   4   5
ATOM      5  C   UNL A   1      33.580  26.147  25.128  1.00  0.00     0.310 C 
ATOM      6  O   UNL A   1      33.915  26.645  24.059  1.00  0.00    -0.252 OA
BRANCH   5   7
ATOM      7  C   UNL A   1      32.197  26.342  25.730  1.00  0.00     0.116 C 
ATOM      8  C   UNL A   1      31.051  26.924  24.861  1.00  0.00     0.097 C 
ATOM      9  C   UNL A   1      31.340  28.358  24.412  1.00  0.00     0.041 C 
ATOM     10  C   UNL A   1      31.693  29.195  25.611  1.00  0.00    -0.030 C 
ATOM     11  C   UNL A   1      32.374  27.203  26.994  1.00  0.00     0.043 C 
ATOM     12  C   UNL A   1      32.128  28.674  26.771  1.00  0.00    -0.030 C 
BRANCH   8  13
ATOM     13  C   UNL A   1      30.588  26.000  23.759  1.00  0.00     0.228 C 
ATOM     14  N   UNL A   1      30.334  24.668  23.909  1.00  0.00    -0.326 N 
ATOM     15  H   UNL A   1      29.599  24.348  23.339  1.00  0.00     0.169 HD
ATOM     16  O   UNL A   1      30.516  26.421  22.601  1.00  0.00    -0.274 OA
BRANCH  14  17
ATOM     17  C   UNL A   1      30.903  23.644  24.710  1.00  0.00     0.044 A 
ATOM     18  C   UNL A   1      31.940  22.674  22.622  1.00  0.00     0.047 C 
ATOM     19  C   UNL A   1      31.863  22.766  24.116  1.00  0.00    -0.015 A 
ATOM     20  C   UNL A   1      32.706  21.978  24.941  1.00  0.00     0.045 A 
ATOM     21  C   UNL A   1      30.668  23.550  26.080  1.00  0.00     0.026 A 
ATOM     22  C   UNL A   1      32.465  21.976  26.326  1.00  0.00     0.014 A 
ATOM     23  C   UNL A   1      31.433  22.716  26.884  1.00  0.00     0.003 A 
BRANCH  20  24
ATOM     24  C   UNL A   1      33.773  21.005  24.498  1.00  0.00     0.254 C 
ATOM     25  O   UNL A   1      34.947  21.383  24.495  1.00  0.00    -0.269 OA
ATOM     26  N   UNL A   1      33.478  19.678  24.225  1.00  0.00    -0.334 N 
ATOM     27  C   UNL A   1      32.605  19.219  23.140  1.00  0.00     0.148 C 
ATOM     28  C   UNL A   1      34.450  18.680  24.659  1.00  0.00     0.148 C 
ATOM     29  C   UNL A   1      32.010  17.827  23.445  1.00  0.00     0.181 C 
ATOM     30  C   UNL A   1      33.730  17.382  25.013  1.00  0.00     0.181 C 
ATOM     31  O   UNL A   1      33.015  16.887  23.868  1.00  0.00    -0.378 OA
ENDBRANCH  20  24
ENDBRANCH  14  17
ENDBRANCH   8  13
ENDBRANCH   5   7
ENDBRANCH   4   5
ENDBRANCH   3   4
ENDBRANCH   2   3
ENDBRANCH   1   2
BRANCH   1  32
ATOM     32  C   UNL A   1      38.017  22.218  25.596  1.00  0.00     0.202 C 
BRANCH  32  33
ATOM     33  C   UNL A   1      39.359  22.034  26.357  1.00  0.00     0.261 C 
BRANCH  33  34
ATOM     34  O   UNL A   1      39.678  23.145  27.226  1.00  0.00    -0.460 OA
BRANCH  34  35
ATOM     35  C   UNL A   1      40.682  23.981  26.819  1.00  0.00     0.338 C 
ATOM     36  O   UNL A   1      41.624  23.667  26.082  1.00  0.00    -0.246 OA
BRANCH  35  37
ATOM     37  C   UNL A   1      40.309  25.389  27.075  1.00  0.00     0.060 A 
ATOM     38  C   UNL A   1      40.822  26.458  26.346  1.00  0.00     0.016 A 
ATOM     39  C   UNL A   1      39.532  25.661  28.190  1.00  0.00     0.016 A 
ATOM     40  C   UNL A   1      40.938  27.703  26.963  1.00  0.00     0.010 A 
ATOM     41  C   UNL A   1      39.649  26.896  28.798  1.00  0.00     0.010 A 
ATOM     42  C   UNL A   1      40.563  27.821  28.294  1.00  0.00    -0.014 A 
BRANCH  42  43
ATOM     43  C   UNL A   1      41.318  28.674  29.237  1.00  0.00     0.031 A 
ATOM     44  C   UNL A   1      40.572  29.415  30.245  1.00  0.00     0.074 A 
ATOM     45  C   UNL A   1      42.663  28.629  29.346  1.00  0.00     0.049 A 
ATOM     46  N   UNL A   1      40.135  30.627  30.135  1.00  0.00    -0.248 NA
ATOM     47  C   UNL A   1      40.077  28.664  31.405  1.00  0.00     0.031 C 
ATOM     48  C   UNL A   1      43.523  29.367  30.260  1.00  0.00     0.029 A 
ATOM     49  N   UNL A   1      43.549  27.965  28.503  1.00  0.00    -0.354 N 
ATOM     50  C   UNL A   1      39.554  30.857  31.365  1.00  0.00     0.074 A 
ATOM     51  C   UNL A   1      39.167  29.535  31.826  1.00  0.00     0.031 C 
ATOM     52  C   UNL A   1      44.746  29.433  29.707  1.00  0.00     0.029 A 
ATOM     53  C   UNL A   1      44.722  28.714  28.438  1.00  0.00     0.049 A 
ATOM     54  H   UNL A   1      43.378  27.115  28.034  1.00  0.00     0.167 HD
ATOM     55  C   UNL A   1      40.040  31.802  32.233  1.00  0.00     0.031 A 
ATOM     56  C   UNL A   1      45.030  29.221  27.216  1.00  0.00     0.031 A 
ATOM     57  C   UNL A   1      41.374  32.298  31.828  1.00  0.00     0.049 A 
ATOM     58  C   UNL A   1      44.690  30.691  27.207  1.00  0.00     0.074 A 
ATOM     59  C   UNL A   1      42.621  32.256  32.432  1.00  0.00     0.029 A 
ATOM     60  N   UNL A   1      41.626  32.668  30.502  1.00  0.00    -0.354 N 
ATOM     61  N   UNL A   1      43.888  31.251  28.081  1.00  0.00    -0.248 NA
ATOM     62  C   UNL A   1      45.325  31.669  26.344  1.00  0.00     0.031 C 
ATOM     63  C   UNL A   1      43.611  32.600  31.457  1.00  0.00     0.029 A 
ATOM     64  C   UNL A   1      42.975  32.867  30.253  1.00  0.00     0.049 A 
ATOM     65  H   UNL A   1      40.923  32.775  29.821  1.00  0.00     0.167 HD
ATOM     66  C   UNL A   1      44.002  32.613  28.035  1.00  0.00     0.074 A 
ATOM     67  C   UNL A   1      44.859  32.819  26.871  1.00  0.00     0.031 C 
ATOM     68  C   UNL A   1      43.430  33.442  28.973  1.00  0.00     0.031 A 
BRANCH  55  69
ATOM     69  C   UNL A   1      39.422  31.943  33.632  1.00  0.00    -0.014 A 
ATOM     70  C   UNL A   1      38.050  32.180  33.822  1.00  0.00     0.010 A 
ATOM     71  C   UNL A   1      40.169  31.770  34.826  1.00  0.00     0.010 A 
ATOM     72  C   UNL A   1      37.485  32.301  35.114  1.00  0.00     0.020 A 
ATOM     73  C   UNL A   1      39.646  31.967  36.109  1.00  0.00     0.020 A 
ATOM     74  C   UNL A   1      38.293  32.213  36.250  1.00  0.00     0.054 A 
BRANCH  74  75
ATOM     75  S   UNL A   1      37.568  32.320  37.910  1.00  0.00     0.124 S 
ATOM     76  O   UNL A   1      38.621  32.979  38.677  1.00  0.00    -0.237 OA
ATOM     77  O   UNL A   1      36.365  33.112  37.674  1.00  0.00    -0.237 OA
ATOM     78  O   UNL A   1      37.325  30.925  38.276  1.00  0.00    -0.744 OA
ENDBRANCH  74  75
ENDBRANCH  55  69
BRANCH  56  79
ATOM     79  C   UNL A   1      45.120  28.124  26.181  1.00  0.00    -0.014 A 
ATOM     80  C   UNL A   1      46.292  27.347  26.291  1.00  0.00     0.010 A 
ATOM     81  C   UNL A   1      44.044  27.499  25.541  1.00  0.00     0.010 A 
ATOM     82  C   UNL A   1      46.370  25.987  25.970  1.00  0.00     0.020 A 
ATOM     83  C   UNL A   1      44.094  26.111  25.227  1.00  0.00     0.020 A 
ATOM     84  C   UNL A   1      45.234  25.353  25.510  1.00  0.00     0.054 A 
BRANCH  84  85
ATOM     85  S   UNL A   1      45.205  23.531  25.546  1.00  0.00     0.124 S 
ATOM     86  O   UNL A   1      44.372  23.210  24.395  1.00  0.00    -0.237 OA
ATOM     87  O   UNL A   1      46.622  23.190  25.421  1.00  0.00    -0.237 OA
ATOM     88  O   UNL A   1      44.635  23.236  26.855  1.00  0.00    -0.744 OA
ENDBRANCH  84  85
ENDBRANCH  56  79
BRANCH  68  89
ATOM     89  C   UNL A   1      43.212  34.935  28.793  1.00  0.00    -0.014 A 
ATOM     90  C   UNL A   1      43.939  35.945  29.428  1.00  0.00     0.010 A 
ATOM     91  C   UNL A   1      42.243  35.370  27.850  1.00  0.00     0.010 A 
ATOM     92  C   UNL A   1      43.820  37.286  29.047  1.00  0.00     0.020 A 
ATOM     93  C   UNL A   1      42.104  36.702  27.463  1.00  0.00     0.020 A 
ATOM     94  C   UNL A   1      42.927  37.652  28.043  1.00  0.00     0.054 A 
BRANCH  94  95
ATOM     95  S   UNL A   1      42.864  39.376  27.521  1.00  0.00     0.124 S 
ATOM     96  O   UNL A   1      43.047  40.088  28.784  1.00  0.00    -0.237 OA
ATOM     97  O   UNL A   1      43.988  39.451  26.591  1.00  0.00    -0.237 OA
ATOM     98  O   UNL A   1      41.542  39.513  26.916  1.00  0.00    -0.744 OA
ENDBRANCH  94  95
ENDBRANCH  68  89
ENDBRANCH  42  43
ENDBRANCH  35  37
ENDBRANCH  34  35
ENDBRANCH  33  34
ENDBRANCH  32  33
ENDBRANCH   1  32
TORSDOF 20
ENDMDL
