MODEL 1
REMARK VINA RESULT:      -9.5      0.000      0.000
REMARK SMILES CC[C@@H]1CCCN1C(=O)N1CC[C@@H](C(=O)OCCOCCOC(=O)c2ccc(-c3c4nc(c(-c5ccc(S(=O)(=O)[O-])cc5)c5ccc([nH]5)c(-c5ccc(S(=O)(=O)[O-])cc5)c5nc(c(-c6ccc(S(=O)(=O)[O-])cc6)c6ccc3[nH]6)C=C5)C=C4)cc2)[C@@H]1C
REMARK SMILES IDX 19 1 18 2 17 3 16 4 14 5 15 6 13 7 10 8 11 9 85 10 12 11
REMARK SMILES IDX 86 12 8 13 9 14 7 15 3 16 4 17 5 18 6 19 2 20 1 21 20 22
REMARK SMILES IDX 21 23 22 24 23 25 24 26 25 27 26 28 84 29 27 30 83 31 28 32
REMARK SMILES IDX 29 33 30 34 77 35 31 36 82 37 76 38 78 39 32 40 81 41 75 42
REMARK SMILES IDX 74 43 33 45 63 46 44 47 62 48 45 49 48 50 61 51 79 52 46 53
REMARK SMILES IDX 47 54 60 56 80 57 49 58 34 59 35 60 43 61 36 62 42 63 37 64
REMARK SMILES IDX 38 65 39 66 40 67 41 68 64 69 65 70 73 71 66 72 72 73 67 74
REMARK SMILES IDX 68 75 69 76 70 77 71 78 50 79 51 80 59 81 52 82 58 83 53 84
REMARK SMILES IDX 54 85 55 86 56 87 57 88
REMARK H PARENT 78 44 48 55
REMARK Flexibility Score: inf
ROOT
ATOM      1  O   UNL A   1      32.291  29.530  24.884  1.00  0.00    -0.374 OA
ENDROOT
BRANCH   1   2
ATOM      2  C   UNL A   1      31.735  28.232  24.698  1.00  0.00     0.202 C 
BRANCH   2   3
ATOM      3  C   UNL A   1      30.995  27.937  23.385  1.00  0.00     0.261 C 
BRANCH   3   4
ATOM      4  O   UNL A   1      31.257  26.614  22.893  1.00  0.00    -0.463 OA
BRANCH   4   5
ATOM      5  C   UNL A   1      30.469  25.649  23.438  1.00  0.00     0.311 C 
ATOM      6  O   UNL A   1      29.316  25.819  23.814  1.00  0.00    -0.252 OA
BRANCH   5   7
ATOM      7  C   UNL A   1      31.139  24.287  23.350  1.00  0.00     0.123 C 
ATOM      8  N   UNL A   1      33.094  23.855  24.630  1.00  0.00    -0.321 N 
ATOM      9  C   UNL A   1      31.977  23.997  25.530  1.00  0.00     0.122 C 
ATOM     10  C   UNL A   1      32.676  24.357  23.311  1.00  0.00     0.098 C 
ATOM     11  C   UNL A   1      30.827  23.539  24.656  1.00  0.00     0.039 C 
ATOM     12  C   UNL A   1      33.243  23.491  22.187  1.00  0.00     0.032 C 
BRANCH   8  13
ATOM     13  C   UNL A   1      34.397  23.913  25.031  1.00  0.00     0.320 C 
ATOM     14  O   UNL A   1      34.921  25.012  25.230  1.00  0.00    -0.248 OA
BRANCH  13  15
ATOM     15  N   UNL A   1      35.120  22.737  25.158  1.00  0.00    -0.322 N 
ATOM     16  C   UNL A   1      34.813  21.363  24.698  1.00  0.00     0.086 C 
ATOM     17  C   UNL A   1      36.110  20.596  25.007  1.00  0.00     0.027 C 
ATOM     18  C   UNL A   1      37.185  21.614  24.704  1.00  0.00     0.024 C 
ATOM     19  C   UNL A   1      36.574  22.913  25.205  1.00  0.00     0.122 C 
BRANCH  16  20
ATOM     20  C   UNL A   1      33.611  20.555  25.203  1.00  0.00     0.022 C 
ATOM     21  C   UNL A   1      32.516  20.268  24.177  1.00  0.00     0.006 C 
ENDBRANCH  16  20
ENDBRANCH  13  15
ENDBRANCH   8  13
ENDBRANCH   5   7
ENDBRANCH   4   5
ENDBRANCH   3   4
ENDBRANCH   2   3
ENDBRANCH   1   2
BRANCH   1  22
ATOM     22  C   UNL A   1      31.698  30.398  25.847  1.00  0.00     0.202 C 
BRANCH  22  23
ATOM     23  C   UNL A   1      32.410  30.647  27.186  1.00  0.00     0.261 C 
BRANCH  23  24
ATOM     24  O   UNL A   1      33.842  30.717  27.073  1.00  0.00    -0.460 OA
BRANCH  24  25
ATOM     25  C   UNL A   1      34.432  31.641  27.870  1.00  0.00     0.338 C 
ATOM     26  O   UNL A   1      33.921  32.651  28.338  1.00  0.00    -0.246 OA
BRANCH  25  27
ATOM     27  C   UNL A   1      35.768  31.180  28.269  1.00  0.00     0.060 A 
ATOM     28  C   UNL A   1      35.896  29.900  28.827  1.00  0.00     0.016 A 
ATOM     29  C   UNL A   1      36.860  32.045  28.207  1.00  0.00     0.016 A 
ATOM     30  C   UNL A   1      37.119  29.486  29.351  1.00  0.00     0.010 A 
ATOM     31  C   UNL A   1      38.078  31.636  28.751  1.00  0.00     0.010 A 
ATOM     32  C   UNL A   1      38.204  30.369  29.352  1.00  0.00    -0.014 A 
BRANCH  32  33
ATOM     33  C   UNL A   1      39.424  30.057  30.129  1.00  0.00     0.031 A 
ATOM     34  C   UNL A   1      40.295  28.924  29.665  1.00  0.00     0.074 A 
ATOM     35  C   UNL A   1      39.728  30.746  31.241  1.00  0.00     0.049 A 
ATOM     36  N   UNL A   1      41.307  28.358  30.268  1.00  0.00    -0.248 NA
ATOM     37  C   UNL A   1      39.976  28.346  28.349  1.00  0.00     0.031 C 
ATOM     38  C   UNL A   1      38.996  31.906  31.746  1.00  0.00     0.029 A 
ATOM     39  N   UNL A   1      40.726  30.549  32.161  1.00  0.00    -0.354 N 
ATOM     40  C   UNL A   1      41.729  27.342  29.419  1.00  0.00     0.074 A 
ATOM     41  C   UNL A   1      40.859  27.362  28.265  1.00  0.00     0.031 C 
ATOM     42  C   UNL A   1      39.555  32.303  32.903  1.00  0.00     0.029 A 
ATOM     43  C   UNL A   1      40.649  31.395  33.242  1.00  0.00     0.049 A 
ATOM     44  H   UNL A   1      41.431  29.868  32.058  1.00  0.00     0.167 HD
ATOM     45  C   UNL A   1      42.746  26.467  29.594  1.00  0.00     0.031 A 
ATOM     46  C   UNL A   1      41.355  31.406  34.391  1.00  0.00     0.031 A 
ATOM     47  C   UNL A   1      43.595  26.447  30.754  1.00  0.00     0.049 A 
ATOM     48  C   UNL A   1      42.429  30.370  34.602  1.00  0.00     0.074 A 
ATOM     49  C   UNL A   1      44.654  25.603  31.034  1.00  0.00     0.029 A 
ATOM     50  N   UNL A   1      43.477  27.315  31.831  1.00  0.00    -0.354 N 
ATOM     51  N   UNL A   1      42.817  29.410  33.796  1.00  0.00    -0.248 NA
ATOM     52  C   UNL A   1      43.163  30.421  35.875  1.00  0.00     0.031 C 
ATOM     53  C   UNL A   1      45.143  25.926  32.302  1.00  0.00     0.029 A 
ATOM     54  C   UNL A   1      44.432  27.014  32.784  1.00  0.00     0.049 A 
ATOM     55  H   UNL A   1      42.812  28.037  31.905  1.00  0.00     0.167 HD
ATOM     56  C   UNL A   1      43.866  28.768  34.446  1.00  0.00     0.074 A 
ATOM     57  C   UNL A   1      44.049  29.445  35.714  1.00  0.00     0.031 C 
ATOM     58  C   UNL A   1      44.615  27.719  34.029  1.00  0.00     0.031 A 
BRANCH  45  59
ATOM     59  C   UNL A   1      42.963  25.427  28.527  1.00  0.00    -0.014 A 
ATOM     60  C   UNL A   1      43.771  25.687  27.406  1.00  0.00     0.010 A 
ATOM     61  C   UNL A   1      42.373  24.158  28.666  1.00  0.00     0.010 A 
ATOM     62  C   UNL A   1      43.951  24.709  26.424  1.00  0.00     0.020 A 
ATOM     63  C   UNL A   1      42.573  23.168  27.701  1.00  0.00     0.020 A 
ATOM     64  C   UNL A   1      43.349  23.456  26.576  1.00  0.00     0.054 A 
BRANCH  64  65
ATOM     65  S   UNL A   1      43.613  22.200  25.295  1.00  0.00     0.124 S 
ATOM     66  O   UNL A   1      44.955  21.720  25.618  1.00  0.00    -0.237 OA
ATOM     67  O   UNL A   1      42.531  21.253  25.547  1.00  0.00    -0.237 OA
ATOM     68  O   UNL A   1      43.505  22.949  24.046  1.00  0.00    -0.744 OA
ENDBRANCH  64  65
ENDBRANCH  45  59
BRANCH  46  69
ATOM     69  C   UNL A   1      41.046  32.414  35.442  1.00  0.00    -0.014 A 
ATOM     70  C   UNL A   1      41.799  33.597  35.539  1.00  0.00     0.010 A 
ATOM     71  C   UNL A   1      39.990  32.199  36.348  1.00  0.00     0.010 A 
ATOM     72  C   UNL A   1      41.513  34.539  36.533  1.00  0.00     0.020 A 
ATOM     73  C   UNL A   1      39.684  33.151  37.325  1.00  0.00     0.020 A 
ATOM     74  C   UNL A   1      40.456  34.310  37.419  1.00  0.00     0.054 A 
BRANCH  74  75
ATOM     75  S   UNL A   1      40.076  35.569  38.670  1.00  0.00     0.124 S 
ATOM     76  O   UNL A   1      39.610  36.681  37.847  1.00  0.00    -0.237 OA
ATOM     77  O   UNL A   1      39.054  34.909  39.479  1.00  0.00    -0.237 OA
ATOM     78  O   UNL A   1      41.354  35.779  39.344  1.00  0.00    -0.744 OA
ENDBRANCH  74  75
ENDBRANCH  46  69
BRANCH  58  79
ATOM     79  C   UNL A   1      45.755  27.271  34.903  1.00  0.00    -0.014 A 
ATOM     80  C   UNL A   1      45.592  26.252  35.857  1.00  0.00     0.010 A 
ATOM     81  C   UNL A   1      47.039  27.804  34.677  1.00  0.00     0.010 A 
ATOM     82  C   UNL A   1      46.695  25.776  36.572  1.00  0.00     0.020 A 
ATOM     83  C   UNL A   1      48.146  27.313  35.371  1.00  0.00     0.020 A 
ATOM     84  C   UNL A   1      47.966  26.303  36.318  1.00  0.00     0.054 A 
BRANCH  84  85
ATOM     85  S   UNL A   1      49.395  25.602  37.190  1.00  0.00     0.124 S 
ATOM     86  O   UNL A   1      49.195  26.098  38.550  1.00  0.00    -0.237 OA
ATOM     87  O   UNL A   1      49.205  24.165  37.011  1.00  0.00    -0.237 OA
ATOM     88  O   UNL A   1      50.543  26.165  36.484  1.00  0.00    -0.744 OA
ENDBRANCH  84  85
ENDBRANCH  58  79
ENDBRANCH  32  33
ENDBRANCH  25  27
ENDBRANCH  24  25
ENDBRANCH  23  24
ENDBRANCH  22  23
ENDBRANCH   1  22
TORSDOF 20
ENDMDL
MODEL 2
REMARK VINA RESULT:      -9.3      5.479     10.710
REMARK SMILES CC[C@@H]1CCCN1C(=O)N1CC[C@@H](C(=O)OCCOCCOC(=O)c2ccc(-c3c4nc(c(-c5ccc(S(=O)(=O)[O-])cc5)c5ccc([nH]5)c(-c5ccc(S(=O)(=O)[O-])cc5)c5nc(c(-c6ccc(S(=O)(=O)[O-])cc6)c6ccc3[nH]6)C=C5)C=C4)cc2)[C@@H]1C
REMARK SMILES IDX 19 1 18 2 17 3 16 4 14 5 15 6 13 7 10 8 11 9 85 10 12 11
REMARK SMILES IDX 86 12 8 13 9 14 7 15 3 16 4 17 5 18 6 19 2 20 1 21 20 22
REMARK SMILES IDX 21 23 22 24 23 25 24 26 25 27 26 28 84 29 27 30 83 31 28 32
REMARK SMILES IDX 29 33 30 34 77 35 31 36 82 37 76 38 78 39 32 40 81 41 75 42
REMARK SMILES IDX 74 43 33 45 63 46 44 47 62 48 45 49 48 50 61 51 79 52 46 53
REMARK SMILES IDX 47 54 60 56 80 57 49 58 34 59 35 60 43 61 36 62 42 63 37 64
REMARK SMILES IDX 38 65 39 66 40 67 41 68 64 69 65 70 73 71 66 72 72 73 67 74
REMARK SMILES IDX 68 75 69 76 70 77 71 78 50 79 51 80 59 81 52 82 58 83 53 84
REMARK SMILES IDX 54 85 55 86 56 87 57 88
REMARK H PARENT 78 44 48 55
REMARK Flexibility Score: inf
ROOT
ATOM      1  O   UNL A   1      36.415  21.426  25.733  1.00  0.00    -0.374 OA
ENDROOT
BRANCH   1   2
ATOM      2  C   UNL A   1      35.434  20.682  25.016  1.00  0.00     0.202 C 
BRANCH   2   3
ATOM      3  C   UNL A   1      33.981  20.725  25.509  1.00  0.00     0.261 C 
BRANCH   3   4
ATOM      4  O   UNL A   1      33.863  21.310  26.815  1.00  0.00    -0.463 OA
BRANCH   4   5
ATOM      5  C   UNL A   1      32.957  22.320  26.897  1.00  0.00     0.311 C 
ATOM      6  O   UNL A   1      32.367  22.647  27.919  1.00  0.00    -0.252 OA
BRANCH   5   7
ATOM      7  C   UNL A   1      32.905  23.110  25.599  1.00  0.00     0.123 C 
ATOM      8  N   UNL A   1      31.796  25.210  25.544  1.00  0.00    -0.321 N 
ATOM      9  C   UNL A   1      32.978  25.336  26.360  1.00  0.00     0.122 C 
ATOM     10  C   UNL A   1      31.543  23.776  25.335  1.00  0.00     0.098 C 
ATOM     11  C   UNL A   1      33.881  24.288  25.741  1.00  0.00     0.039 C 
ATOM     12  C   UNL A   1      31.059  23.504  23.911  1.00  0.00     0.032 C 
BRANCH   8  13
ATOM     13  C   UNL A   1      30.776  26.117  25.552  1.00  0.00     0.320 C 
ATOM     14  O   UNL A   1      29.846  25.976  26.349  1.00  0.00    -0.248 OA
BRANCH  13  15
ATOM     15  N   UNL A   1      30.782  27.151  24.628  1.00  0.00    -0.322 N 
ATOM     16  C   UNL A   1      31.888  28.019  24.160  1.00  0.00     0.086 C 
ATOM     17  C   UNL A   1      31.243  28.816  23.015  1.00  0.00     0.027 C 
ATOM     18  C   UNL A   1      30.329  27.800  22.369  1.00  0.00     0.024 C 
ATOM     19  C   UNL A   1      29.788  27.024  23.559  1.00  0.00     0.122 C 
BRANCH  16  20
ATOM     20  C   UNL A   1      32.653  28.978  25.081  1.00  0.00     0.022 C 
ATOM     21  C   UNL A   1      31.847  29.600  26.221  1.00  0.00     0.006 C 
ENDBRANCH  16  20
ENDBRANCH  13  15
ENDBRANCH   8  13
ENDBRANCH   5   7
ENDBRANCH   4   5
ENDBRANCH   3   4
ENDBRANCH   2   3
ENDBRANCH   1   2
BRANCH   1  22
ATOM     22  C   UNL A   1      37.712  21.580  25.163  1.00  0.00     0.202 C 
BRANCH  22  23
ATOM     23  C   UNL A   1      38.931  21.748  26.083  1.00  0.00     0.261 C 
BRANCH  23  24
ATOM     24  O   UNL A   1      39.990  20.812  25.814  1.00  0.00    -0.460 OA
BRANCH  24  25
ATOM     25  C   UNL A   1      40.776  20.519  26.879  1.00  0.00     0.338 C 
ATOM     26  O   UNL A   1      40.800  19.476  27.518  1.00  0.00    -0.246 OA
BRANCH  25  27
ATOM     27  C   UNL A   1      41.766  21.587  27.079  1.00  0.00     0.060 A 
ATOM     28  C   UNL A   1      42.191  21.870  28.384  1.00  0.00     0.016 A 
ATOM     29  C   UNL A   1      42.174  22.379  26.007  1.00  0.00     0.016 A 
ATOM     30  C   UNL A   1      43.012  22.968  28.628  1.00  0.00     0.010 A 
ATOM     31  C   UNL A   1      42.980  23.491  26.256  1.00  0.00     0.010 A 
ATOM     32  C   UNL A   1      43.377  23.807  27.569  1.00  0.00    -0.014 A 
BRANCH  32  33
ATOM     33  C   UNL A   1      44.021  25.112  27.833  1.00  0.00     0.031 A 
ATOM     34  C   UNL A   1      43.156  26.260  28.271  1.00  0.00     0.074 A 
ATOM     35  C   UNL A   1      45.342  25.278  27.653  1.00  0.00     0.049 A 
ATOM     36  N   UNL A   1      43.460  27.525  28.394  1.00  0.00    -0.248 NA
ATOM     37  C   UNL A   1      41.759  25.938  28.607  1.00  0.00     0.031 C 
ATOM     38  C   UNL A   1      46.289  24.221  27.298  1.00  0.00     0.029 A 
ATOM     39  N   UNL A   1      46.111  26.411  27.723  1.00  0.00    -0.354 N 
ATOM     40  C   UNL A   1      42.287  28.154  28.795  1.00  0.00     0.074 A 
ATOM     41  C   UNL A   1      41.265  27.135  28.885  1.00  0.00     0.031 C 
ATOM     42  C   UNL A   1      47.511  24.763  27.154  1.00  0.00     0.029 A 
ATOM     43  C   UNL A   1      47.421  26.208  27.358  1.00  0.00     0.049 A 
ATOM     44  H   UNL A   1      45.760  27.287  28.008  1.00  0.00     0.167 HD
ATOM     45  C   UNL A   1      42.083  29.467  29.055  1.00  0.00     0.031 A 
ATOM     46  C   UNL A   1      48.420  27.093  27.169  1.00  0.00     0.031 A 
ATOM     47  C   UNL A   1      43.104  30.472  28.947  1.00  0.00     0.049 A 
ATOM     48  C   UNL A   1      48.149  28.561  27.385  1.00  0.00     0.074 A 
ATOM     49  C   UNL A   1      43.005  31.831  29.187  1.00  0.00     0.029 A 
ATOM     50  N   UNL A   1      44.415  30.225  28.564  1.00  0.00    -0.354 N 
ATOM     51  N   UNL A   1      47.037  29.147  27.757  1.00  0.00    -0.248 NA
ATOM     52  C   UNL A   1      49.270  29.486  27.157  1.00  0.00     0.031 C 
ATOM     53  C   UNL A   1      44.242  32.414  28.898  1.00  0.00     0.029 A 
ATOM     54  C   UNL A   1      45.129  31.410  28.544  1.00  0.00     0.049 A 
ATOM     55  H   UNL A   1      44.782  29.340  28.341  1.00  0.00     0.167 HD
ATOM     56  C   UNL A   1      47.333  30.503  27.848  1.00  0.00     0.074 A 
ATOM     57  C   UNL A   1      48.728  30.652  27.487  1.00  0.00     0.031 C 
ATOM     58  C   UNL A   1      46.526  31.532  28.206  1.00  0.00     0.031 A 
BRANCH  45  59
ATOM     59  C   UNL A   1      40.690  29.893  29.433  1.00  0.00    -0.014 A 
ATOM     60  C   UNL A   1      39.656  29.943  28.481  1.00  0.00     0.010 A 
ATOM     61  C   UNL A   1      40.404  30.220  30.771  1.00  0.00     0.010 A 
ATOM     62  C   UNL A   1      38.372  30.350  28.852  1.00  0.00     0.020 A 
ATOM     63  C   UNL A   1      39.115  30.601  31.153  1.00  0.00     0.020 A 
ATOM     64  C   UNL A   1      38.110  30.679  30.186  1.00  0.00     0.054 A 
BRANCH  64  65
ATOM     65  S   UNL A   1      36.431  31.188  30.645  1.00  0.00     0.124 S 
ATOM     66  O   UNL A   1      36.649  32.551  31.124  1.00  0.00    -0.237 OA
ATOM     67  O   UNL A   1      35.705  31.075  29.382  1.00  0.00    -0.237 OA
ATOM     68  O   UNL A   1      36.044  30.223  31.672  1.00  0.00    -0.744 OA
ENDBRANCH  64  65
ENDBRANCH  45  59
BRANCH  46  69
ATOM     69  C   UNL A   1      49.758  26.619  26.724  1.00  0.00    -0.014 A 
ATOM     70  C   UNL A   1      50.102  26.629  25.361  1.00  0.00     0.010 A 
ATOM     71  C   UNL A   1      50.701  26.161  27.663  1.00  0.00     0.010 A 
ATOM     72  C   UNL A   1      51.357  26.175  24.944  1.00  0.00     0.020 A 
ATOM     73  C   UNL A   1      51.967  25.732  27.253  1.00  0.00     0.020 A 
ATOM     74  C   UNL A   1      52.283  25.730  25.893  1.00  0.00     0.054 A 
BRANCH  74  75
ATOM     75  S   UNL A   1      53.921  25.189  25.331  1.00  0.00     0.124 S 
ATOM     76  O   UNL A   1      54.318  26.288  24.456  1.00  0.00    -0.237 OA
ATOM     77  O   UNL A   1      54.663  25.078  26.585  1.00  0.00    -0.237 OA
ATOM     78  O   UNL A   1      53.651  23.920  24.660  1.00  0.00    -0.744 OA
ENDBRANCH  74  75
ENDBRANCH  46  69
BRANCH  58  79
ATOM     79  C   UNL A   1      47.132  32.906  28.303  1.00  0.00    -0.014 A 
ATOM     80  C   UNL A   1      47.110  33.796  27.217  1.00  0.00     0.010 A 
ATOM     81  C   UNL A   1      47.625  33.348  29.546  1.00  0.00     0.010 A 
ATOM     82  C   UNL A   1      47.574  35.106  27.371  1.00  0.00     0.020 A 
ATOM     83  C   UNL A   1      48.066  34.662  29.710  1.00  0.00     0.020 A 
ATOM     84  C   UNL A   1      48.041  35.533  28.619  1.00  0.00     0.054 A 
BRANCH  84  85
ATOM     85  S   UNL A   1      48.548  37.264  28.819  1.00  0.00     0.124 S 
ATOM     86  O   UNL A   1      48.879  37.322  30.240  1.00  0.00    -0.237 OA
ATOM     87  O   UNL A   1      49.681  37.372  27.903  1.00  0.00    -0.237 OA
ATOM     88  O   UNL A   1      47.361  38.020  28.423  1.00  0.00    -0.744 OA
ENDBRANCH  84  85
ENDBRANCH  58  79
ENDBRANCH  32  33
ENDBRANCH  25  27
ENDBRANCH  24  25
ENDBRANCH  23  24
ENDBRANCH  22  23
ENDBRANCH   1  22
TORSDOF 20
ENDMDL
MODEL 3
REMARK VINA RESULT:      -9.3      5.275      7.484
REMARK SMILES CC[C@@H]1CCCN1C(=O)N1CC[C@@H](C(=O)OCCOCCOC(=O)c2ccc(-c3c4nc(c(-c5ccc(S(=O)(=O)[O-])cc5)c5ccc([nH]5)c(-c5ccc(S(=O)(=O)[O-])cc5)c5nc(c(-c6ccc(S(=O)(=O)[O-])cc6)c6ccc3[nH]6)C=C5)C=C4)cc2)[C@@H]1C
REMARK SMILES IDX 19 1 18 2 17 3 16 4 14 5 15 6 13 7 10 8 11 9 85 10 12 11
REMARK SMILES IDX 86 12 8 13 9 14 7 15 3 16 4 17 5 18 6 19 2 20 1 21 20 22
REMARK SMILES IDX 21 23 22 24 23 25 24 26 25 27 26 28 84 29 27 30 83 31 28 32
REMARK SMILES IDX 29 33 30 34 77 35 31 36 82 37 76 38 78 39 32 40 81 41 75 42
REMARK SMILES IDX 74 43 33 45 63 46 44 47 62 48 45 49 48 50 61 51 79 52 46 53
REMARK SMILES IDX 47 54 60 56 80 57 49 58 34 59 35 60 43 61 36 62 42 63 37 64
REMARK SMILES IDX 38 65 39 66 40 67 41 68 64 69 65 70 73 71 66 72 72 73 67 74
REMARK SMILES IDX 68 75 69 76 70 77 71 78 50 79 51 80 59 81 52 82 58 83 53 84
REMARK SMILES IDX 54 85 55 86 56 87 57 88
REMARK H PARENT 78 44 48 55
REMARK Flexibility Score: inf
ROOT
ATOM      1  O   UNL A   1      35.377  33.593  29.857  1.00  0.00    -0.374 OA
ENDROOT
BRANCH   1   2
ATOM      2  C   UNL A   1      35.348  33.159  28.501  1.00  0.00     0.202 C 
BRANCH   2   3
ATOM      3  C   UNL A   1      34.018  32.651  27.926  1.00  0.00     0.261 C 
BRANCH   3   4
ATOM      4  O   UNL A   1      34.104  31.296  27.461  1.00  0.00    -0.463 OA
BRANCH   4   5
ATOM      5  C   UNL A   1      32.904  30.726  27.171  1.00  0.00     0.311 C 
ATOM      6  O   UNL A   1      31.899  31.344  26.844  1.00  0.00    -0.252 OA
BRANCH   5   7
ATOM      7  C   UNL A   1      33.019  29.210  27.126  1.00  0.00     0.123 C 
ATOM      8  N   UNL A   1      32.437  28.045  25.140  1.00  0.00    -0.321 N 
ATOM      9  C   UNL A   1      33.628  28.816  24.889  1.00  0.00     0.122 C 
ATOM     10  C   UNL A   1      31.848  28.524  26.401  1.00  0.00     0.098 C 
ATOM     11  C   UNL A   1      34.248  28.869  26.270  1.00  0.00     0.039 C 
ATOM     12  C   UNL A   1      31.289  27.363  27.223  1.00  0.00     0.032 C 
BRANCH   8  13
ATOM     13  C   UNL A   1      31.660  27.514  24.151  1.00  0.00     0.320 C 
ATOM     14  O   UNL A   1      30.840  28.232  23.573  1.00  0.00    -0.248 OA
BRANCH  13  15
ATOM     15  N   UNL A   1      31.774  26.166  23.851  1.00  0.00    -0.322 N 
ATOM     16  C   UNL A   1      32.674  25.128  24.404  1.00  0.00     0.086 C 
ATOM     17  C   UNL A   1      32.148  23.834  23.762  1.00  0.00     0.027 C 
ATOM     18  C   UNL A   1      30.653  24.053  23.735  1.00  0.00     0.024 C 
ATOM     19  C   UNL A   1      30.533  25.531  23.398  1.00  0.00     0.122 C 
BRANCH  16  20
ATOM     20  C   UNL A   1      34.201  25.178  24.269  1.00  0.00     0.022 C 
ATOM     21  C   UNL A   1      34.998  24.531  25.401  1.00  0.00     0.006 C 
ENDBRANCH  16  20
ENDBRANCH  13  15
ENDBRANCH   8  13
ENDBRANCH   5   7
ENDBRANCH   4   5
ENDBRANCH   3   4
ENDBRANCH   2   3
ENDBRANCH   1   2
BRANCH   1  22
ATOM     22  C   UNL A   1      34.738  32.792  30.848  1.00  0.00     0.202 C 
BRANCH  22  23
ATOM     23  C   UNL A   1      35.552  32.269  32.043  1.00  0.00     0.261 C 
BRANCH  23  24
ATOM     24  O   UNL A   1      36.360  31.120  31.731  1.00  0.00    -0.460 OA
BRANCH  24  25
ATOM     25  C   UNL A   1      37.534  31.050  32.404  1.00  0.00     0.338 C 
ATOM     26  O   UNL A   1      37.722  31.283  33.591  1.00  0.00    -0.246 OA
BRANCH  25  27
ATOM     27  C   UNL A   1      38.572  30.467  31.543  1.00  0.00     0.060 A 
ATOM     28  C   UNL A   1      39.620  29.756  32.144  1.00  0.00     0.016 A 
ATOM     29  C   UNL A   1      38.576  30.725  30.173  1.00  0.00     0.016 A 
ATOM     30  C   UNL A   1      40.696  29.318  31.376  1.00  0.00     0.010 A 
ATOM     31  C   UNL A   1      39.666  30.303  29.409  1.00  0.00     0.010 A 
ATOM     32  C   UNL A   1      40.742  29.626  30.012  1.00  0.00    -0.014 A 
BRANCH  32  33
ATOM     33  C   UNL A   1      41.982  29.406  29.235  1.00  0.00     0.031 A 
ATOM     34  C   UNL A   1      42.238  28.036  28.672  1.00  0.00     0.074 A 
ATOM     35  C   UNL A   1      42.875  30.395  29.066  1.00  0.00     0.049 A 
ATOM     36  N   UNL A   1      43.319  27.561  28.112  1.00  0.00    -0.248 NA
ATOM     37  C   UNL A   1      41.128  27.072  28.760  1.00  0.00     0.031 C 
ATOM     38  C   UNL A   1      42.701  31.779  29.507  1.00  0.00     0.029 A 
ATOM     39  N   UNL A   1      44.122  30.377  28.494  1.00  0.00    -0.354 N 
ATOM     40  C   UNL A   1      43.030  26.236  27.806  1.00  0.00     0.074 A 
ATOM     41  C   UNL A   1      41.678  25.981  28.249  1.00  0.00     0.031 C 
ATOM     42  C   UNL A   1      43.815  32.471  29.213  1.00  0.00     0.029 A 
ATOM     43  C   UNL A   1      44.795  31.570  28.611  1.00  0.00     0.049 A 
ATOM     44  H   UNL A   1      44.499  29.586  28.043  1.00  0.00     0.167 HD
ATOM     45  C   UNL A   1      43.827  25.316  27.215  1.00  0.00     0.031 A 
ATOM     46  C   UNL A   1      46.069  31.883  28.303  1.00  0.00     0.031 A 
ATOM     47  C   UNL A   1      45.176  25.579  26.792  1.00  0.00     0.049 A 
ATOM     48  C   UNL A   1      46.967  30.821  27.722  1.00  0.00     0.074 A 
ATOM     49  C   UNL A   1      46.072  24.718  26.184  1.00  0.00     0.029 A 
ATOM     50  N   UNL A   1      45.823  26.798  26.937  1.00  0.00    -0.354 N 
ATOM     51  N   UNL A   1      46.687  29.570  27.442  1.00  0.00    -0.248 NA
ATOM     52  C   UNL A   1      48.350  31.212  27.413  1.00  0.00     0.031 C 
ATOM     53  C   UNL A   1      47.279  25.401  26.008  1.00  0.00     0.029 A 
ATOM     54  C   UNL A   1      47.113  26.706  26.446  1.00  0.00     0.049 A 
ATOM     55  H   UNL A   1      45.424  27.607  27.331  1.00  0.00     0.167 HD
ATOM     56  C   UNL A   1      47.846  29.036  26.886  1.00  0.00     0.074 A 
ATOM     57  C   UNL A   1      48.831  30.098  26.875  1.00  0.00     0.031 C 
ATOM     58  C   UNL A   1      48.071  27.784  26.420  1.00  0.00     0.031 A 
BRANCH  45  59
ATOM     59  C   UNL A   1      43.276  23.927  27.038  1.00  0.00    -0.014 A 
ATOM     60  C   UNL A   1      43.412  22.952  28.043  1.00  0.00     0.010 A 
ATOM     61  C   UNL A   1      42.582  23.601  25.859  1.00  0.00     0.010 A 
ATOM     62  C   UNL A   1      42.898  21.666  27.854  1.00  0.00     0.020 A 
ATOM     63  C   UNL A   1      42.043  22.325  25.676  1.00  0.00     0.020 A 
ATOM     64  C   UNL A   1      42.220  21.360  26.670  1.00  0.00     0.054 A 
BRANCH  64  65
ATOM     65  S   UNL A   1      41.548  19.688  26.458  1.00  0.00     0.124 S 
ATOM     66  O   UNL A   1      41.780  19.102  27.776  1.00  0.00    -0.237 OA
ATOM     67  O   UNL A   1      40.150  19.945  26.122  1.00  0.00    -0.237 OA
ATOM     68  O   UNL A   1      42.353  19.125  25.377  1.00  0.00    -0.744 OA
ENDBRANCH  64  65
ENDBRANCH  45  59
BRANCH  46  69
ATOM     69  C   UNL A   1      46.581  33.256  28.569  1.00  0.00    -0.014 A 
ATOM     70  C   UNL A   1      46.616  34.215  27.542  1.00  0.00     0.010 A 
ATOM     71  C   UNL A   1      47.029  33.614  29.854  1.00  0.00     0.010 A 
ATOM     72  C   UNL A   1      47.105  35.502  27.791  1.00  0.00     0.020 A 
ATOM     73  C   UNL A   1      47.493  34.906  30.114  1.00  0.00     0.020 A 
ATOM     74  C   UNL A   1      47.539  35.840  29.077  1.00  0.00     0.054 A 
BRANCH  74  75
ATOM     75  S   UNL A   1      48.126  37.529  29.386  1.00  0.00     0.124 S 
ATOM     76  O   UNL A   1      46.873  38.272  29.475  1.00  0.00    -0.237 OA
ATOM     77  O   UNL A   1      48.865  37.381  30.637  1.00  0.00    -0.237 OA
ATOM     78  O   UNL A   1      48.949  37.825  28.216  1.00  0.00    -0.744 OA
ENDBRANCH  74  75
ENDBRANCH  46  69
BRANCH  58  79
ATOM     79  C   UNL A   1      49.405  27.493  25.787  1.00  0.00    -0.014 A 
ATOM     80  C   UNL A   1      50.518  27.124  26.558  1.00  0.00     0.010 A 
ATOM     81  C   UNL A   1      49.504  27.478  24.382  1.00  0.00     0.010 A 
ATOM     82  C   UNL A   1      51.712  26.746  25.935  1.00  0.00     0.020 A 
ATOM     83  C   UNL A   1      50.685  27.079  23.756  1.00  0.00     0.020 A 
ATOM     84  C   UNL A   1      51.785  26.718  24.538  1.00  0.00     0.054 A 
BRANCH  84  85
ATOM     85  S   UNL A   1      53.313  26.132  23.753  1.00  0.00     0.124 S 
ATOM     86  O   UNL A   1      54.261  27.184  24.111  1.00  0.00    -0.237 OA
ATOM     87  O   UNL A   1      53.531  24.841  24.401  1.00  0.00    -0.237 OA
ATOM     88  O   UNL A   1      52.968  26.060  22.334  1.00  0.00    -0.744 OA
ENDBRANCH  84  85
ENDBRANCH  58  79
ENDBRANCH  32  33
ENDBRANCH  25  27
ENDBRANCH  24  25
ENDBRANCH  23  24
ENDBRANCH  22  23
ENDBRANCH   1  22
TORSDOF 20
ENDMDL
