MODEL 1
REMARK VINA RESULT:      -8.7      0.000      0.000
REMARK SMILES CC[C@@](C)(NC(=O)c1cccc2ccccc12)C(=O)OCCOCCOC(=O)c1ccc(-c2c3nc(c(-c4ccc(S(=O)(=O)[O-])cc4)c4ccc([nH]4)c(-c4ccc(S(=O)(=O)[O-])cc4)c4nc(c(-c5ccc(S(=O)(=O)[O-])cc5)c5ccc2[nH]5)C=C4)C=C3)cc1
REMARK SMILES IDX 24 1 23 2 22 3 21 4 20 5 18 6 19 7 3 8 4 9 2 10 1 11 5 12
REMARK SMILES IDX 6 13 7 15 8 16 9 17 17 18 10 19 12 20 16 21 11 22 13 23
REMARK SMILES IDX 15 24 14 25 25 26 26 27 27 28 28 29 29 30 30 31 88 32 31 33
REMARK SMILES IDX 87 34 32 35 33 36 34 37 81 38 35 39 86 40 80 41 82 42 36 43
REMARK SMILES IDX 85 44 79 45 78 46 37 48 67 49 48 50 66 51 49 52 52 53 65 54
REMARK SMILES IDX 83 55 50 56 51 57 64 59 84 60 53 61 38 62 39 63 47 64 40 65
REMARK SMILES IDX 46 66 41 67 42 68 43 69 44 70 45 71 68 72 69 73 77 74 70 75
REMARK SMILES IDX 76 76 71 77 72 78 73 79 74 80 75 81 54 82 55 83 63 84 56 85
REMARK SMILES IDX 62 86 57 87 58 88 59 89 60 90 61 91
REMARK H PARENT 5 14 82 47 52 58
REMARK Flexibility Score: inf
ROOT
ATOM      1  C   UNL A   1      32.737  33.911  27.816  1.00  0.00     0.202 C 
ENDROOT
BRANCH   1   2
ATOM      2  O   UNL A   1      33.855  34.796  27.794  1.00  0.00    -0.374 OA
BRANCH   2   3
ATOM      3  C   UNL A   1      34.202  35.573  28.951  1.00  0.00     0.202 C 
BRANCH   3   4
ATOM      4  C   UNL A   1      33.352  35.173  30.190  1.00  0.00     0.261 C 
BRANCH   4   5
ATOM      5  O   UNL A   1      33.925  34.070  30.889  1.00  0.00    -0.462 OA
BRANCH   5   6
ATOM      6  C   UNL A   1      34.751  34.390  31.910  1.00  0.00     0.331 C 
ATOM      7  O   UNL A   1      34.538  35.321  32.655  1.00  0.00    -0.249 OA
BRANCH   6   8
ATOM      8  C   UNL A   1      35.982  33.448  31.926  1.00  0.00     0.135 C 
ATOM      9  C   UNL A   1      35.553  32.037  31.490  1.00  0.00     0.047 C 
BRANCH   8  10
ATOM     10  C   UNL A   1      37.047  33.919  30.834  1.00  0.00     0.037 C 
ATOM     11  C   UNL A   1      37.291  33.030  29.610  1.00  0.00     0.007 C 
ENDBRANCH   8  10
BRANCH   8  12
ATOM     12  N   UNL A   1      36.649  33.402  33.312  1.00  0.00    -0.336 N 
ATOM     13  C   UNL A   1      37.953  33.748  33.733  1.00  0.00     0.252 C 
ATOM     14  H   UNL A   1      36.064  33.073  34.032  1.00  0.00     0.165 HD
ATOM     15  O   UNL A   1      38.063  34.907  34.155  1.00  0.00    -0.269 OA
BRANCH  13  16
ATOM     16  C   UNL A   1      39.250  32.852  33.756  1.00  0.00     0.047 A 
ATOM     17  C   UNL A   1      40.261  33.616  34.359  1.00  0.00     0.014 A 
ATOM     18  C   UNL A   1      39.561  31.377  33.455  1.00  0.00    -0.006 A 
ATOM     19  C   UNL A   1      41.525  33.093  34.592  1.00  0.00     0.001 A 
ATOM     20  C   UNL A   1      40.890  30.928  33.676  1.00  0.00    -0.018 A 
ATOM     21  C   UNL A   1      38.764  30.223  33.033  1.00  0.00     0.009 A 
ATOM     22  C   UNL A   1      41.834  31.789  34.227  1.00  0.00     0.009 A 
ATOM     23  C   UNL A   1      41.326  29.593  33.422  1.00  0.00     0.009 A 
ATOM     24  C   UNL A   1      39.169  28.897  32.797  1.00  0.00     0.001 A 
ATOM     25  C   UNL A   1      40.483  28.581  32.980  1.00  0.00     0.001 A 
ENDBRANCH  13  16
ENDBRANCH   8  12
ENDBRANCH   6   8
ENDBRANCH   5   6
ENDBRANCH   4   5
ENDBRANCH   3   4
ENDBRANCH   2   3
ENDBRANCH   1   2
BRANCH   1  26
ATOM     26  C   UNL A   1      32.966  32.306  27.545  1.00  0.00     0.261 C 
BRANCH  26  27
ATOM     27  O   UNL A   1      34.053  31.564  28.257  1.00  0.00    -0.460 OA
BRANCH  27  28
ATOM     28  C   UNL A   1      34.448  30.282  27.922  1.00  0.00     0.338 C 
ATOM     29  O   UNL A   1      33.704  29.473  27.385  1.00  0.00    -0.246 OA
BRANCH  28  30
ATOM     30  C   UNL A   1      35.918  29.944  28.224  1.00  0.00     0.060 A 
ATOM     31  C   UNL A   1      36.927  30.012  27.249  1.00  0.00     0.016 A 
ATOM     32  C   UNL A   1      36.312  29.379  29.440  1.00  0.00     0.016 A 
ATOM     33  C   UNL A   1      38.294  29.740  27.509  1.00  0.00     0.010 A 
ATOM     34  C   UNL A   1      37.674  29.021  29.690  1.00  0.00     0.010 A 
ATOM     35  C   UNL A   1      38.695  29.229  28.740  1.00  0.00    -0.014 A 
BRANCH  35  36
ATOM     36  C   UNL A   1      40.119  28.818  29.004  1.00  0.00     0.031 A 
ATOM     37  C   UNL A   1      41.133  29.839  29.467  1.00  0.00     0.074 A 
ATOM     38  C   UNL A   1      40.546  27.545  28.848  1.00  0.00     0.049 A 
ATOM     39  N   UNL A   1      42.443  29.777  29.456  1.00  0.00    -0.248 NA
ATOM     40  C   UNL A   1      40.598  31.084  30.035  1.00  0.00     0.031 C 
ATOM     41  C   UNL A   1      39.690  26.387  28.601  1.00  0.00     0.029 A 
ATOM     42  N   UNL A   1      41.824  27.016  28.856  1.00  0.00    -0.354 N 
ATOM     43  C   UNL A   1      42.889  30.997  29.955  1.00  0.00     0.074 A 
ATOM     44  C   UNL A   1      41.709  31.757  30.310  1.00  0.00     0.031 C 
ATOM     45  C   UNL A   1      40.464  25.298  28.429  1.00  0.00     0.029 A 
ATOM     46  C   UNL A   1      41.875  25.691  28.473  1.00  0.00     0.049 A 
ATOM     47  H   UNL A   1      42.621  27.534  29.110  1.00  0.00     0.167 HD
ATOM     48  C   UNL A   1      44.160  31.460  30.070  1.00  0.00     0.031 A 
ATOM     49  C   UNL A   1      42.919  24.906  28.119  1.00  0.00     0.031 A 
ATOM     50  C   UNL A   1      45.337  30.710  29.712  1.00  0.00     0.049 A 
ATOM     51  C   UNL A   1      44.319  25.482  28.098  1.00  0.00     0.074 A 
ATOM     52  C   UNL A   1      46.661  31.116  29.743  1.00  0.00     0.029 A 
ATOM     53  N   UNL A   1      45.333  29.403  29.253  1.00  0.00    -0.354 N 
ATOM     54  N   UNL A   1      44.729  26.670  28.476  1.00  0.00    -0.248 NA
ATOM     55  C   UNL A   1      45.394  24.621  27.576  1.00  0.00     0.031 C 
ATOM     56  C   UNL A   1      47.452  30.076  29.244  1.00  0.00     0.029 A 
ATOM     57  C   UNL A   1      46.627  28.999  28.963  1.00  0.00     0.049 A 
ATOM     58  H   UNL A   1      44.531  28.843  29.149  1.00  0.00     0.167 HD
ATOM     59  C   UNL A   1      46.103  26.692  28.245  1.00  0.00     0.074 A 
ATOM     60  C   UNL A   1      46.463  25.395  27.715  1.00  0.00     0.031 C 
ATOM     61  C   UNL A   1      46.985  27.703  28.446  1.00  0.00     0.031 A 
BRANCH  48  62
ATOM     62  C   UNL A   1      44.346  32.894  30.495  1.00  0.00    -0.014 A 
ATOM     63  C   UNL A   1      44.390  33.950  29.569  1.00  0.00     0.010 A 
ATOM     64  C   UNL A   1      44.436  33.187  31.870  1.00  0.00     0.010 A 
ATOM     65  C   UNL A   1      44.559  35.268  30.011  1.00  0.00     0.020 A 
ATOM     66  C   UNL A   1      44.582  34.502  32.317  1.00  0.00     0.020 A 
ATOM     67  C   UNL A   1      44.660  35.535  31.381  1.00  0.00     0.054 A 
BRANCH  67  68
ATOM     68  S   UNL A   1      44.873  37.252  31.928  1.00  0.00     0.124 S 
ATOM     69  O   UNL A   1      43.790  37.930  31.219  1.00  0.00    -0.237 OA
ATOM     70  O   UNL A   1      44.709  37.151  33.375  1.00  0.00    -0.237 OA
ATOM     71  O   UNL A   1      46.220  37.596  31.479  1.00  0.00    -0.744 OA
ENDBRANCH  67  68
ENDBRANCH  48  62
BRANCH  49  72
ATOM     72  C   UNL A   1      42.685  23.516  27.613  1.00  0.00    -0.014 A 
ATOM     73  C   UNL A   1      42.774  22.399  28.465  1.00  0.00     0.010 A 
ATOM     74  C   UNL A   1      42.424  23.300  26.245  1.00  0.00     0.010 A 
ATOM     75  C   UNL A   1      42.612  21.101  27.959  1.00  0.00     0.020 A 
ATOM     76  C   UNL A   1      42.230  22.009  25.743  1.00  0.00     0.020 A 
ATOM     77  C   UNL A   1      42.336  20.916  26.601  1.00  0.00     0.054 A 
BRANCH  77  78
ATOM     78  S   UNL A   1      42.075  19.231  25.974  1.00  0.00     0.124 S 
ATOM     79  O   UNL A   1      42.959  19.196  24.813  1.00  0.00    -0.237 OA
ATOM     80  O   UNL A   1      42.486  18.405  27.107  1.00  0.00    -0.237 OA
ATOM     81  O   UNL A   1      40.645  19.196  25.675  1.00  0.00    -0.744 OA
ENDBRANCH  77  78
ENDBRANCH  49  72
BRANCH  61  82
ATOM     82  C   UNL A   1      48.439  27.455  28.132  1.00  0.00    -0.014 A 
ATOM     83  C   UNL A   1      49.323  26.971  29.112  1.00  0.00     0.010 A 
ATOM     84  C   UNL A   1      48.903  27.618  26.813  1.00  0.00     0.010 A 
ATOM     85  C   UNL A   1      50.648  26.662  28.781  1.00  0.00     0.020 A 
ATOM     86  C   UNL A   1      50.219  27.290  26.473  1.00  0.00     0.020 A 
ATOM     87  C   UNL A   1      51.086  26.820  27.462  1.00  0.00     0.054 A 
BRANCH  87  88
ATOM     88  S   UNL A   1      52.786  26.342  27.040  1.00  0.00     0.124 S 
ATOM     89  O   UNL A   1      53.118  27.294  25.984  1.00  0.00    -0.237 OA
ATOM     90  O   UNL A   1      53.497  26.532  28.303  1.00  0.00    -0.237 OA
ATOM     91  O   UNL A   1      52.659  24.952  26.607  1.00  0.00    -0.744 OA
ENDBRANCH  87  88
ENDBRANCH  61  82
ENDBRANCH  35  36
ENDBRANCH  28  30
ENDBRANCH  27  28
ENDBRANCH  26  27
ENDBRANCH   1  26
TORSDOF 20
ENDMDL
MODEL 2
REMARK VINA RESULT:      -8.6      5.449     11.799
REMARK SMILES CC[C@@](C)(NC(=O)c1cccc2ccccc12)C(=O)OCCOCCOC(=O)c1ccc(-c2c3nc(c(-c4ccc(S(=O)(=O)[O-])cc4)c4ccc([nH]4)c(-c4ccc(S(=O)(=O)[O-])cc4)c4nc(c(-c5ccc(S(=O)(=O)[O-])cc5)c5ccc2[nH]5)C=C4)C=C3)cc1
REMARK SMILES IDX 24 1 23 2 22 3 21 4 20 5 18 6 19 7 3 8 4 9 2 10 1 11 5 12
REMARK SMILES IDX 6 13 7 15 8 16 9 17 17 18 10 19 12 20 16 21 11 22 13 23
REMARK SMILES IDX 15 24 14 25 25 26 26 27 27 28 28 29 29 30 30 31 88 32 31 33
REMARK SMILES IDX 87 34 32 35 33 36 34 37 81 38 35 39 86 40 80 41 82 42 36 43
REMARK SMILES IDX 85 44 79 45 78 46 37 48 67 49 48 50 66 51 49 52 52 53 65 54
REMARK SMILES IDX 83 55 50 56 51 57 64 59 84 60 53 61 38 62 39 63 47 64 40 65
REMARK SMILES IDX 46 66 41 67 42 68 43 69 44 70 45 71 68 72 69 73 77 74 70 75
REMARK SMILES IDX 76 76 71 77 72 78 73 79 74 80 75 81 54 82 55 83 63 84 56 85
REMARK SMILES IDX 62 86 57 87 58 88 59 89 60 90 61 91
REMARK H PARENT 5 14 82 47 52 58
REMARK Flexibility Score: inf
ROOT
ATOM      1  C   UNL A   1      33.513  30.737  27.179  1.00  0.00     0.202 C 
ENDROOT
BRANCH   1   2
ATOM      2  O   UNL A   1      33.302  29.719  26.203  1.00  0.00    -0.374 OA
BRANCH   2   3
ATOM      3  C   UNL A   1      31.980  29.239  25.914  1.00  0.00     0.202 C 
BRANCH   3   4
ATOM      4  C   UNL A   1      31.783  27.773  26.393  1.00  0.00     0.261 C 
BRANCH   4   5
ATOM      5  O   UNL A   1      31.514  26.893  25.304  1.00  0.00    -0.462 OA
BRANCH   5   6
ATOM      6  C   UNL A   1      32.593  26.498  24.592  1.00  0.00     0.331 C 
ATOM      7  O   UNL A   1      33.660  26.250  25.107  1.00  0.00    -0.249 OA
BRANCH   6   8
ATOM      8  C   UNL A   1      32.263  26.474  23.077  1.00  0.00     0.135 C 
ATOM      9  C   UNL A   1      31.007  27.322  22.814  1.00  0.00     0.047 C 
BRANCH   8  10
ATOM     10  C   UNL A   1      33.430  27.183  22.250  1.00  0.00     0.037 C 
ATOM     11  C   UNL A   1      33.935  28.553  22.714  1.00  0.00     0.007 C 
ENDBRANCH   8  10
BRANCH   8  12
ATOM     12  N   UNL A   1      32.059  25.040  22.559  1.00  0.00    -0.336 N 
ATOM     13  C   UNL A   1      31.714  23.844  23.230  1.00  0.00     0.252 C 
ATOM     14  H   UNL A   1      32.192  24.936  21.589  1.00  0.00     0.165 HD
ATOM     15  O   UNL A   1      30.501  23.594  23.235  1.00  0.00    -0.269 OA
BRANCH  13  16
ATOM     16  C   UNL A   1      32.663  22.801  23.934  1.00  0.00     0.047 A 
ATOM     17  C   UNL A   1      31.839  21.807  24.483  1.00  0.00     0.014 A 
ATOM     18  C   UNL A   1      34.181  22.564  23.975  1.00  0.00    -0.006 A 
ATOM     19  C   UNL A   1      32.368  20.697  25.124  1.00  0.00     0.001 A 
ATOM     20  C   UNL A   1      34.650  21.430  24.690  1.00  0.00    -0.018 A 
ATOM     21  C   UNL A   1      35.342  23.219  23.367  1.00  0.00     0.009 A 
ATOM     22  C   UNL A   1      33.743  20.535  25.249  1.00  0.00     0.009 A 
ATOM     23  C   UNL A   1      36.031  21.098  24.829  1.00  0.00     0.009 A 
ATOM     24  C   UNL A   1      36.707  22.896  23.474  1.00  0.00     0.001 A 
ATOM     25  C   UNL A   1      37.057  21.822  24.236  1.00  0.00     0.001 A 
ENDBRANCH  13  16
ENDBRANCH   8  12
ENDBRANCH   6   8
ENDBRANCH   5   6
ENDBRANCH   4   5
ENDBRANCH   3   4
ENDBRANCH   2   3
ENDBRANCH   1   2
BRANCH   1  26
ATOM     26  C   UNL A   1      32.457  31.992  27.284  1.00  0.00     0.261 C 
BRANCH  26  27
ATOM     27  O   UNL A   1      32.955  33.403  27.332  1.00  0.00    -0.460 OA
BRANCH  27  28
ATOM     28  C   UNL A   1      33.263  34.064  28.506  1.00  0.00     0.338 C 
ATOM     29  O   UNL A   1      32.535  34.910  29.006  1.00  0.00    -0.246 OA
BRANCH  28  30
ATOM     30  C   UNL A   1      34.574  33.630  29.184  1.00  0.00     0.060 A 
ATOM     31  C   UNL A   1      34.603  32.793  30.312  1.00  0.00     0.016 A 
ATOM     32  C   UNL A   1      35.809  34.182  28.829  1.00  0.00     0.016 A 
ATOM     33  C   UNL A   1      35.798  32.350  30.934  1.00  0.00     0.010 A 
ATOM     34  C   UNL A   1      37.014  33.809  29.503  1.00  0.00     0.010 A 
ATOM     35  C   UNL A   1      37.033  32.858  30.544  1.00  0.00    -0.014 A 
BRANCH  35  36
ATOM     36  C   UNL A   1      38.304  32.498  31.265  1.00  0.00     0.031 A 
ATOM     37  C   UNL A   1      39.187  31.389  30.744  1.00  0.00     0.074 A 
ATOM     38  C   UNL A   1      38.709  33.140  32.384  1.00  0.00     0.049 A 
ATOM     39  N   UNL A   1      40.137  30.721  31.356  1.00  0.00    -0.248 NA
ATOM     40  C   UNL A   1      38.987  30.993  29.343  1.00  0.00     0.031 C 
ATOM     41  C   UNL A   1      38.107  34.354  32.931  1.00  0.00     0.029 A 
ATOM     42  N   UNL A   1      39.721  32.842  33.278  1.00  0.00    -0.354 N 
ATOM     43  C   UNL A   1      40.602  29.786  30.436  1.00  0.00     0.074 A 
ATOM     44  C   UNL A   1      39.869  30.010  29.208  1.00  0.00     0.031 C 
ATOM     45  C   UNL A   1      38.722  34.666  34.088  1.00  0.00     0.029 A 
ATOM     46  C   UNL A   1      39.709  33.633  34.409  1.00  0.00     0.049 A 
ATOM     47  H   UNL A   1      40.386  32.133  33.123  1.00  0.00     0.167 HD
ATOM     48  C   UNL A   1      41.525  28.805  30.608  1.00  0.00     0.031 A 
ATOM     49  C   UNL A   1      40.349  33.502  35.594  1.00  0.00     0.031 A 
ATOM     50  C   UNL A   1      42.253  28.574  31.829  1.00  0.00     0.049 A 
ATOM     51  C   UNL A   1      41.256  32.312  35.830  1.00  0.00     0.074 A 
ATOM     52  C   UNL A   1      43.166  27.572  32.113  1.00  0.00     0.029 A 
ATOM     53  N   UNL A   1      42.148  29.350  32.972  1.00  0.00    -0.354 N 
ATOM     54  N   UNL A   1      41.618  31.370  34.992  1.00  0.00    -0.248 NA
ATOM     55  C   UNL A   1      41.817  32.151  37.184  1.00  0.00     0.031 C 
ATOM     56  C   UNL A   1      43.566  27.706  33.447  1.00  0.00     0.029 A 
ATOM     57  C   UNL A   1      42.950  28.830  33.974  1.00  0.00     0.049 A 
ATOM     58  H   UNL A   1      41.586  30.154  33.060  1.00  0.00     0.167 HD
ATOM     59  C   UNL A   1      42.453  30.517  35.711  1.00  0.00     0.074 A 
ATOM     60  C   UNL A   1      42.561  31.060  37.048  1.00  0.00     0.031 C 
ATOM     61  C   UNL A   1      43.066  29.378  35.301  1.00  0.00     0.031 A 
BRANCH  48  62
ATOM     62  C   UNL A   1      41.719  27.823  29.481  1.00  0.00    -0.014 A 
ATOM     63  C   UNL A   1      42.821  27.889  28.612  1.00  0.00     0.010 A 
ATOM     64  C   UNL A   1      40.786  26.780  29.323  1.00  0.00     0.010 A 
ATOM     65  C   UNL A   1      42.963  26.951  27.582  1.00  0.00     0.020 A 
ATOM     66  C   UNL A   1      40.936  25.828  28.311  1.00  0.00     0.020 A 
ATOM     67  C   UNL A   1      42.017  25.931  27.434  1.00  0.00     0.054 A 
BRANCH  67  68
ATOM     68  S   UNL A   1      42.228  24.725  26.095  1.00  0.00     0.124 S 
ATOM     69  O   UNL A   1      41.100  23.823  26.321  1.00  0.00    -0.237 OA
ATOM     70  O   UNL A   1      42.137  25.555  24.897  1.00  0.00    -0.237 OA
ATOM     71  O   UNL A   1      43.545  24.147  26.350  1.00  0.00    -0.744 OA
ENDBRANCH  67  68
ENDBRANCH  48  62
BRANCH  49  72
ATOM     72  C   UNL A   1      40.059  34.443  36.722  1.00  0.00    -0.014 A 
ATOM     73  C   UNL A   1      40.702  35.692  36.820  1.00  0.00     0.010 A 
ATOM     74  C   UNL A   1      39.166  34.064  37.743  1.00  0.00     0.010 A 
ATOM     75  C   UNL A   1      40.462  36.533  37.916  1.00  0.00     0.020 A 
ATOM     76  C   UNL A   1      38.899  34.915  38.821  1.00  0.00     0.020 A 
ATOM     77  C   UNL A   1      39.558  36.140  38.907  1.00  0.00     0.054 A 
BRANCH  77  78
ATOM     78  S   UNL A   1      39.217  37.267  40.291  1.00  0.00     0.124 S 
ATOM     79  O   UNL A   1      38.422  36.428  41.181  1.00  0.00    -0.237 OA
ATOM     80  O   UNL A   1      40.559  37.599  40.766  1.00  0.00    -0.237 OA
ATOM     81  O   UNL A   1      38.498  38.373  39.661  1.00  0.00    -0.744 OA
ENDBRANCH  77  78
ENDBRANCH  49  72
BRANCH  61  82
ATOM     82  C   UNL A   1      43.944  28.647  36.285  1.00  0.00    -0.014 A 
ATOM     83  C   UNL A   1      43.480  27.509  36.968  1.00  0.00     0.010 A 
ATOM     84  C   UNL A   1      45.282  29.047  36.455  1.00  0.00     0.010 A 
ATOM     85  C   UNL A   1      44.336  26.789  37.810  1.00  0.00     0.020 A 
ATOM     86  C   UNL A   1      46.147  28.319  37.277  1.00  0.00     0.020 A 
ATOM     87  C   UNL A   1      45.666  27.197  37.956  1.00  0.00     0.054 A 
BRANCH  87  88
ATOM     88  S   UNL A   1      46.778  26.205  38.994  1.00  0.00     0.124 S 
ATOM     89  O   UNL A   1      48.094  26.660  38.553  1.00  0.00    -0.237 OA
ATOM     90  O   UNL A   1      46.397  26.605  40.348  1.00  0.00    -0.237 OA
ATOM     91  O   UNL A   1      46.445  24.827  38.642  1.00  0.00    -0.744 OA
ENDBRANCH  87  88
ENDBRANCH  61  82
ENDBRANCH  35  36
ENDBRANCH  28  30
ENDBRANCH  27  28
ENDBRANCH  26  27
ENDBRANCH   1  26
TORSDOF 20
ENDMDL
MODEL 3
REMARK VINA RESULT:      -8.4      1.107      2.213
REMARK SMILES CC[C@@](C)(NC(=O)c1cccc2ccccc12)C(=O)OCCOCCOC(=O)c1ccc(-c2c3nc(c(-c4ccc(S(=O)(=O)[O-])cc4)c4ccc([nH]4)c(-c4ccc(S(=O)(=O)[O-])cc4)c4nc(c(-c5ccc(S(=O)(=O)[O-])cc5)c5ccc2[nH]5)C=C4)C=C3)cc1
REMARK SMILES IDX 24 1 23 2 22 3 21 4 20 5 18 6 19 7 3 8 4 9 2 10 1 11 5 12
REMARK SMILES IDX 6 13 7 15 8 16 9 17 17 18 10 19 12 20 16 21 11 22 13 23
REMARK SMILES IDX 15 24 14 25 25 26 26 27 27 28 28 29 29 30 30 31 88 32 31 33
REMARK SMILES IDX 87 34 32 35 33 36 34 37 81 38 35 39 86 40 80 41 82 42 36 43
REMARK SMILES IDX 85 44 79 45 78 46 37 48 67 49 48 50 66 51 49 52 52 53 65 54
REMARK SMILES IDX 83 55 50 56 51 57 64 59 84 60 53 61 38 62 39 63 47 64 40 65
REMARK SMILES IDX 46 66 41 67 42 68 43 69 44 70 45 71 68 72 69 73 77 74 70 75
REMARK SMILES IDX 76 76 71 77 72 78 73 79 74 80 75 81 54 82 55 83 63 84 56 85
REMARK SMILES IDX 62 86 57 87 58 88 59 89 60 90 61 91
REMARK H PARENT 5 14 82 47 52 58
REMARK Flexibility Score: inf
ROOT
ATOM      1  C   UNL A   1      34.892  34.056  28.211  1.00  0.00     0.202 C 
ENDROOT
BRANCH   1   2
ATOM      2  O   UNL A   1      36.216  33.593  28.467  1.00  0.00    -0.374 OA
BRANCH   2   3
ATOM      3  C   UNL A   1      36.754  33.599  29.798  1.00  0.00     0.202 C 
BRANCH   3   4
ATOM      4  C   UNL A   1      35.639  33.767  30.869  1.00  0.00     0.261 C 
BRANCH   4   5
ATOM      5  O   UNL A   1      36.035  33.233  32.131  1.00  0.00    -0.462 OA
BRANCH   5   6
ATOM      6  C   UNL A   1      36.748  34.067  32.920  1.00  0.00     0.331 C 
ATOM      7  O   UNL A   1      36.455  35.232  33.072  1.00  0.00    -0.249 OA
BRANCH   6   8
ATOM      8  C   UNL A   1      37.973  33.329  33.519  1.00  0.00     0.135 C 
ATOM      9  C   UNL A   1      39.233  33.696  32.716  1.00  0.00     0.047 C 
BRANCH   8  10
ATOM     10  C   UNL A   1      38.255  33.847  35.002  1.00  0.00     0.037 C 
ATOM     11  C   UNL A   1      37.177  33.642  36.072  1.00  0.00     0.007 C 
ENDBRANCH   8  10
BRANCH   8  12
ATOM     12  N   UNL A   1      37.772  31.804  33.532  1.00  0.00    -0.336 N 
ATOM     13  C   UNL A   1      38.502  30.770  34.164  1.00  0.00     0.252 C 
ATOM     14  H   UNL A   1      36.999  31.491  33.010  1.00  0.00     0.165 HD
ATOM     15  O   UNL A   1      38.065  30.443  35.276  1.00  0.00    -0.269 OA
BRANCH  13  16
ATOM     16  C   UNL A   1      39.760  29.985  33.629  1.00  0.00     0.047 A 
ATOM     17  C   UNL A   1      39.275  28.879  32.915  1.00  0.00     0.014 A 
ATOM     18  C   UNL A   1      41.271  30.260  33.569  1.00  0.00    -0.006 A 
ATOM     19  C   UNL A   1      40.131  28.009  32.255  1.00  0.00     0.001 A 
ATOM     20  C   UNL A   1      42.088  29.300  32.916  1.00  0.00    -0.018 A 
ATOM     21  C   UNL A   1      42.132  31.369  33.985  1.00  0.00     0.009 A 
ATOM     22  C   UNL A   1      41.506  28.203  32.286  1.00  0.00     0.009 A 
ATOM     23  C   UNL A   1      43.506  29.413  32.802  1.00  0.00     0.009 A 
ATOM     24  C   UNL A   1      43.527  31.511  33.863  1.00  0.00     0.001 A 
ATOM     25  C   UNL A   1      44.228  30.502  33.274  1.00  0.00     0.001 A 
ENDBRANCH  13  16
ENDBRANCH   8  12
ENDBRANCH   6   8
ENDBRANCH   5   6
ENDBRANCH   4   5
ENDBRANCH   3   4
ENDBRANCH   2   3
ENDBRANCH   1   2
BRANCH   1  26
ATOM     26  C   UNL A   1      33.691  32.969  27.936  1.00  0.00     0.261 C 
BRANCH  26  27
ATOM     27  O   UNL A   1      33.698  31.639  28.622  1.00  0.00    -0.460 OA
BRANCH  27  28
ATOM     28  C   UNL A   1      34.176  30.481  28.038  1.00  0.00     0.338 C 
ATOM     29  O   UNL A   1      33.488  29.755  27.334  1.00  0.00    -0.246 OA
BRANCH  28  30
ATOM     30  C   UNL A   1      35.664  30.180  28.290  1.00  0.00     0.060 A 
ATOM     31  C   UNL A   1      36.600  30.065  27.249  1.00  0.00     0.016 A 
ATOM     32  C   UNL A   1      36.143  29.828  29.555  1.00  0.00     0.016 A 
ATOM     33  C   UNL A   1      37.982  29.823  27.455  1.00  0.00     0.010 A 
ATOM     34  C   UNL A   1      37.519  29.499  29.766  1.00  0.00     0.010 A 
ATOM     35  C   UNL A   1      38.469  29.527  28.725  1.00  0.00    -0.014 A 
BRANCH  35  36
ATOM     36  C   UNL A   1      39.908  29.148  28.955  1.00  0.00     0.031 A 
ATOM     37  C   UNL A   1      40.916  30.197  29.364  1.00  0.00     0.074 A 
ATOM     38  C   UNL A   1      40.354  27.879  28.815  1.00  0.00     0.049 A 
ATOM     39  N   UNL A   1      42.227  30.159  29.314  1.00  0.00    -0.248 NA
ATOM     40  C   UNL A   1      40.376  31.446  29.919  1.00  0.00     0.031 C 
ATOM     41  C   UNL A   1      39.514  26.700  28.622  1.00  0.00     0.029 A 
ATOM     42  N   UNL A   1      41.641  27.374  28.797  1.00  0.00    -0.354 N 
ATOM     43  C   UNL A   1      42.664  31.399  29.772  1.00  0.00     0.074 A 
ATOM     44  C   UNL A   1      41.481  32.145  30.145  1.00  0.00     0.031 C 
ATOM     45  C   UNL A   1      40.302  25.622  28.450  1.00  0.00     0.029 A 
ATOM     46  C   UNL A   1      41.706  26.041  28.443  1.00  0.00     0.049 A 
ATOM     47  H   UNL A   1      42.436  27.912  29.015  1.00  0.00     0.167 HD
ATOM     48  C   UNL A   1      43.929  31.887  29.837  1.00  0.00     0.031 A 
ATOM     49  C   UNL A   1      42.753  25.267  28.076  1.00  0.00     0.031 A 
ATOM     50  C   UNL A   1      45.109  31.151  29.461  1.00  0.00     0.049 A 
ATOM     51  C   UNL A   1      44.142  25.868  28.000  1.00  0.00     0.074 A 
ATOM     52  C   UNL A   1      46.426  31.581  29.443  1.00  0.00     0.029 A 
ATOM     53  N   UNL A   1      45.116  29.832  29.033  1.00  0.00    -0.354 N 
ATOM     54  N   UNL A   1      44.540  27.072  28.337  1.00  0.00    -0.248 NA
ATOM     55  C   UNL A   1      45.217  25.014  27.465  1.00  0.00     0.031 C 
ATOM     56  C   UNL A   1      47.220  30.543  28.945  1.00  0.00     0.029 A 
ATOM     57  C   UNL A   1      46.407  29.446  28.713  1.00  0.00     0.049 A 
ATOM     58  H   UNL A   1      44.321  29.256  28.966  1.00  0.00     0.167 HD
ATOM     59  C   UNL A   1      45.906  27.114  28.064  1.00  0.00     0.074 A 
ATOM     60  C   UNL A   1      46.275  25.811  27.554  1.00  0.00     0.031 C 
ATOM     61  C   UNL A   1      46.775  28.145  28.216  1.00  0.00     0.031 A 
BRANCH  48  62
ATOM     62  C   UNL A   1      44.100  33.334  30.224  1.00  0.00    -0.014 A 
ATOM     63  C   UNL A   1      44.102  33.756  31.564  1.00  0.00     0.010 A 
ATOM     64  C   UNL A   1      44.309  34.286  29.207  1.00  0.00     0.010 A 
ATOM     65  C   UNL A   1      44.271  35.110  31.876  1.00  0.00     0.020 A 
ATOM     66  C   UNL A   1      44.500  35.635  29.515  1.00  0.00     0.020 A 
ATOM     67  C   UNL A   1      44.462  36.042  30.849  1.00  0.00     0.054 A 
BRANCH  67  68
ATOM     68  S   UNL A   1      44.684  37.790  31.281  1.00  0.00     0.124 S 
ATOM     69  O   UNL A   1      46.125  37.862  31.518  1.00  0.00    -0.237 OA
ATOM     70  O   UNL A   1      44.212  38.480  30.083  1.00  0.00    -0.237 OA
ATOM     71  O   UNL A   1      43.850  37.966  32.467  1.00  0.00    -0.744 OA
ENDBRANCH  67  68
ENDBRANCH  48  62
BRANCH  49  72
ATOM     72  C   UNL A   1      42.532  23.862  27.609  1.00  0.00    -0.014 A 
ATOM     73  C   UNL A   1      42.732  22.762  28.465  1.00  0.00     0.010 A 
ATOM     74  C   UNL A   1      42.166  23.614  26.271  1.00  0.00     0.010 A 
ATOM     75  C   UNL A   1      42.577  21.452  27.991  1.00  0.00     0.020 A 
ATOM     76  C   UNL A   1      41.981  22.309  25.803  1.00  0.00     0.020 A 
ATOM     77  C   UNL A   1      42.198  21.235  26.664  1.00  0.00     0.054 A 
BRANCH  77  78
ATOM     78  S   UNL A   1      41.949  19.531  26.082  1.00  0.00     0.124 S 
ATOM     79  O   UNL A   1      40.533  19.532  25.731  1.00  0.00    -0.237 OA
ATOM     80  O   UNL A   1      42.880  19.442  24.960  1.00  0.00    -0.237 OA
ATOM     81  O   UNL A   1      42.306  18.719  27.243  1.00  0.00    -0.744 OA
ENDBRANCH  77  78
ENDBRANCH  49  72
BRANCH  61  82
ATOM     82  C   UNL A   1      48.223  27.916  27.863  1.00  0.00    -0.014 A 
ATOM     83  C   UNL A   1      49.083  27.224  28.734  1.00  0.00     0.010 A 
ATOM     84  C   UNL A   1      48.703  28.315  26.602  1.00  0.00     0.010 A 
ATOM     85  C   UNL A   1      50.400  26.943  28.353  1.00  0.00     0.020 A 
ATOM     86  C   UNL A   1      50.011  28.016  26.209  1.00  0.00     0.020 A 
ATOM     87  C   UNL A   1      50.855  27.338  27.091  1.00  0.00     0.054 A 
BRANCH  87  88
ATOM     88  S   UNL A   1      52.543  26.896  26.589  1.00  0.00     0.124 S 
ATOM     89  O   UNL A   1      52.932  25.946  27.628  1.00  0.00    -0.237 OA
ATOM     90  O   UNL A   1      52.344  26.324  25.258  1.00  0.00    -0.237 OA
ATOM     91  O   UNL A   1      53.257  28.170  26.611  1.00  0.00    -0.744 OA
ENDBRANCH  87  88
ENDBRANCH  61  82
ENDBRANCH  35  36
ENDBRANCH  28  30
ENDBRANCH  27  28
ENDBRANCH  26  27
ENDBRANCH   1  26
TORSDOF 20
ENDMDL
