MODEL 1
REMARK VINA RESULT:     -12.2      0.000      0.000
REMARK SMILES O=C(OCCOCCOC(=O)[C@@H]1[C@H](C(=O)Nc2ccc(Cn3cncn3)cc2)[C@@H]2C=C[C@H]1CC2)c1ccc(-c2c3nc(c(-c4ccc(S(=O)(=O)[O-])cc4)c4ccc([nH]4)c(-c4ccc(S(=O)(=O)[O-])cc4)c4nc(c(-c5ccc(S(=O)(=O)[O-])cc5)c5ccc2[nH]5)C=C4)C=C3)cc1
REMARK SMILES IDX 7 1 6 2 5 3 4 4 3 5 2 6 1 7 35 8 36 9 94 10 37 11 93 12
REMARK SMILES IDX 38 13 39 14 40 15 87 16 41 17 92 18 86 19 88 20 42 21 91 22
REMARK SMILES IDX 85 23 84 24 43 26 73 27 54 28 72 29 55 30 58 31 71 32 89 33
REMARK SMILES IDX 56 34 57 35 70 37 90 38 59 39 44 40 45 41 53 42 46 43 52 44
REMARK SMILES IDX 47 45 48 46 49 47 50 48 51 49 74 50 75 51 83 52 76 53 82 54
REMARK SMILES IDX 77 55 78 56 79 57 80 58 81 59 60 60 61 61 69 62 62 63 68 64
REMARK SMILES IDX 63 65 64 66 65 67 66 68 67 69 8 70 9 71 10 72 11 73 12 74
REMARK SMILES IDX 13 75 32 76 29 77 31 78 33 79 30 80 34 81 14 82 15 83 16 84
REMARK SMILES IDX 17 86 18 87 28 88 19 89 27 90 20 91 21 92 22 93 23 94 26 95
REMARK SMILES IDX 24 96 25 97
REMARK H PARENT 88 25 58 36 16 85
REMARK Flexibility Score: inf
ROOT
ATOM      1  C   UNL A   1      35.399  23.246  25.764  1.00  0.00     0.202 C 
ENDROOT
BRANCH   1   2
ATOM      2  O   UNL A   1      35.926  22.364  24.760  1.00  0.00    -0.374 OA
BRANCH   2   3
ATOM      3  C   UNL A   1      36.409  21.107  25.229  1.00  0.00     0.202 C 
BRANCH   3   4
ATOM      4  C   UNL A   1      37.927  20.986  25.253  1.00  0.00     0.261 C 
BRANCH   4   5
ATOM      5  O   UNL A   1      38.546  22.172  25.788  1.00  0.00    -0.460 OA
BRANCH   5   6
ATOM      6  C   UNL A   1      39.803  22.141  26.316  1.00  0.00     0.338 C 
ATOM      7  O   UNL A   1      40.618  21.276  26.087  1.00  0.00    -0.246 OA
BRANCH   6   8
ATOM      8  C   UNL A   1      40.259  23.428  26.823  1.00  0.00     0.060 A 
ATOM      9  C   UNL A   1      41.259  23.549  27.776  1.00  0.00     0.016 A 
ATOM     10  C   UNL A   1      39.588  24.543  26.309  1.00  0.00     0.016 A 
ATOM     11  C   UNL A   1      41.426  24.764  28.388  1.00  0.00     0.010 A 
ATOM     12  C   UNL A   1      39.813  25.781  26.863  1.00  0.00     0.010 A 
ATOM     13  C   UNL A   1      40.680  25.863  27.946  1.00  0.00    -0.014 A 
BRANCH  13  14
ATOM     14  C   UNL A   1      40.988  27.121  28.585  1.00  0.00     0.031 A 
ATOM     15  C   UNL A   1      42.304  27.689  28.195  1.00  0.00     0.074 A 
ATOM     16  C   UNL A   1      40.140  27.768  29.394  1.00  0.00     0.049 A 
ATOM     17  N   UNL A   1      43.327  27.926  28.947  1.00  0.00    -0.248 NA
ATOM     18  C   UNL A   1      42.544  27.871  26.754  1.00  0.00     0.031 C 
ATOM     19  C   UNL A   1      38.716  27.513  29.617  1.00  0.00     0.029 A 
ATOM     20  N   UNL A   1      40.378  28.904  30.097  1.00  0.00    -0.354 N 
ATOM     21  C   UNL A   1      44.300  28.440  28.097  1.00  0.00     0.074 A 
ATOM     22  C   UNL A   1      43.817  28.258  26.751  1.00  0.00     0.031 C 
ATOM     23  C   UNL A   1      38.169  28.608  30.188  1.00  0.00     0.029 A 
ATOM     24  C   UNL A   1      39.228  29.559  30.490  1.00  0.00     0.049 A 
ATOM     25  H   UNL A   1      41.283  29.229  30.306  1.00  0.00     0.167 HD
ATOM     26  C   UNL A   1      45.366  29.153  28.546  1.00  0.00     0.031 A 
ATOM     27  C   UNL A   1      39.159  30.840  30.916  1.00  0.00     0.031 A 
ATOM     28  C   UNL A   1      45.604  28.973  29.950  1.00  0.00     0.049 A 
ATOM     29  C   UNL A   1      40.521  31.246  31.354  1.00  0.00     0.074 A 
ATOM     30  C   UNL A   1      45.943  27.893  30.740  1.00  0.00     0.029 A 
ATOM     31  N   UNL A   1      45.133  29.938  30.809  1.00  0.00    -0.354 N 
ATOM     32  N   UNL A   1      41.138  30.727  32.380  1.00  0.00    -0.248 NA
ATOM     33  C   UNL A   1      41.379  31.955  30.416  1.00  0.00     0.031 C 
ATOM     34  C   UNL A   1      45.243  28.091  31.965  1.00  0.00     0.029 A 
ATOM     35  C   UNL A   1      44.534  29.291  31.862  1.00  0.00     0.049 A 
ATOM     36  H   UNL A   1      45.210  30.912  30.691  1.00  0.00     0.167 HD
ATOM     37  C   UNL A   1      42.480  30.690  32.022  1.00  0.00     0.074 A 
ATOM     38  C   UNL A   1      42.580  31.570  30.861  1.00  0.00     0.031 C 
ATOM     39  C   UNL A   1      43.328  29.747  32.530  1.00  0.00     0.031 A 
BRANCH  26  40
ATOM     40  C   UNL A   1      45.975  30.265  27.739  1.00  0.00    -0.014 A 
ATOM     41  C   UNL A   1      47.351  30.260  27.456  1.00  0.00     0.010 A 
ATOM     42  C   UNL A   1      45.260  31.451  27.455  1.00  0.00     0.010 A 
ATOM     43  C   UNL A   1      47.984  31.402  26.939  1.00  0.00     0.020 A 
ATOM     44  C   UNL A   1      45.869  32.573  26.898  1.00  0.00     0.020 A 
ATOM     45  C   UNL A   1      47.237  32.553  26.676  1.00  0.00     0.054 A 
BRANCH  45  46
ATOM     46  S   UNL A   1      48.073  34.055  26.113  1.00  0.00     0.124 S 
ATOM     47  O   UNL A   1      49.247  33.509  25.440  1.00  0.00    -0.237 OA
ATOM     48  O   UNL A   1      47.070  34.667  25.246  1.00  0.00    -0.237 OA
ATOM     49  O   UNL A   1      48.342  34.781  27.352  1.00  0.00    -0.744 OA
ENDBRANCH  45  46
ENDBRANCH  26  40
BRANCH  27  50
ATOM     50  C   UNL A   1      38.072  31.794  30.607  1.00  0.00    -0.014 A 
ATOM     51  C   UNL A   1      38.124  32.602  29.462  1.00  0.00     0.010 A 
ATOM     52  C   UNL A   1      36.855  31.739  31.323  1.00  0.00     0.010 A 
ATOM     53  C   UNL A   1      36.986  33.298  29.024  1.00  0.00     0.020 A 
ATOM     54  C   UNL A   1      35.723  32.440  30.904  1.00  0.00     0.020 A 
ATOM     55  C   UNL A   1      35.789  33.202  29.742  1.00  0.00     0.054 A 
BRANCH  55  56
ATOM     56  S   UNL A   1      34.287  33.977  29.082  1.00  0.00     0.124 S 
ATOM     57  O   UNL A   1      33.741  32.920  28.236  1.00  0.00    -0.237 OA
ATOM     58  O   UNL A   1      33.528  34.275  30.292  1.00  0.00    -0.237 OA
ATOM     59  O   UNL A   1      34.790  35.149  28.365  1.00  0.00    -0.744 OA
ENDBRANCH  55  56
ENDBRANCH  27  50
BRANCH  39  60
ATOM     60  C   UNL A   1      42.849  28.911  33.700  1.00  0.00    -0.014 A 
ATOM     61  C   UNL A   1      41.946  27.839  33.555  1.00  0.00     0.010 A 
ATOM     62  C   UNL A   1      43.443  29.114  34.959  1.00  0.00     0.010 A 
ATOM     63  C   UNL A   1      41.622  27.015  34.643  1.00  0.00     0.020 A 
ATOM     64  C   UNL A   1      43.138  28.283  36.044  1.00  0.00     0.020 A 
ATOM     65  C   UNL A   1      42.221  27.243  35.883  1.00  0.00     0.054 A 
BRANCH  65  66
ATOM     66  S   UNL A   1      41.842  26.132  37.268  1.00  0.00     0.124 S 
ATOM     67  O   UNL A   1      40.534  26.607  37.708  1.00  0.00    -0.237 OA
ATOM     68  O   UNL A   1      41.854  24.812  36.642  1.00  0.00    -0.237 OA
ATOM     69  O   UNL A   1      42.936  26.368  38.212  1.00  0.00    -0.744 OA
ENDBRANCH  65  66
ENDBRANCH  39  60
ENDBRANCH  13  14
ENDBRANCH   6   8
ENDBRANCH   5   6
ENDBRANCH   4   5
ENDBRANCH   3   4
ENDBRANCH   2   3
ENDBRANCH   1   2
BRANCH   1  70
ATOM     70  C   UNL A   1      34.523  24.396  25.270  1.00  0.00     0.261 C 
BRANCH  70  71
ATOM     71  O   UNL A   1      34.665  24.566  23.838  1.00  0.00    -0.463 OA
BRANCH  71  72
ATOM     72  C   UNL A   1      34.048  25.627  23.283  1.00  0.00     0.310 C 
ATOM     73  O   UNL A   1      33.999  25.843  22.075  1.00  0.00    -0.252 OA
BRANCH  72  74
ATOM     74  C   UNL A   1      33.351  26.538  24.266  1.00  0.00     0.119 C 
ATOM     75  C   UNL A   1      31.824  26.506  24.480  1.00  0.00     0.100 C 
ATOM     76  C   UNL A   1      33.882  28.013  24.350  1.00  0.00     0.026 C 
ATOM     77  C   UNL A   1      31.382  27.863  25.104  1.00  0.00     0.025 C 
ATOM     78  C   UNL A   1      32.948  29.039  23.733  1.00  0.00    -0.027 C 
ATOM     79  C   UNL A   1      33.793  28.400  25.847  1.00  0.00     0.009 C 
ATOM     80  C   UNL A   1      31.667  28.975  24.139  1.00  0.00    -0.027 C 
ATOM     81  C   UNL A   1      32.322  28.174  26.325  1.00  0.00     0.009 C 
BRANCH  75  82
ATOM     82  C   UNL A   1      30.875  25.787  23.495  1.00  0.00     0.228 C 
ATOM     83  O   UNL A   1      30.102  26.509  22.839  1.00  0.00    -0.274 OA
ATOM     84  N   UNL A   1      30.836  24.471  23.154  1.00  0.00    -0.326 N 
ATOM     85  H   UNL A   1      30.360  24.323  22.306  1.00  0.00     0.169 HD
BRANCH  84  86
ATOM     86  C   UNL A   1      31.305  23.274  23.710  1.00  0.00     0.041 A 
ATOM     87  C   UNL A   1      32.084  22.420  22.921  1.00  0.00     0.026 A 
ATOM     88  C   UNL A   1      30.989  22.853  24.982  1.00  0.00     0.026 A 
ATOM     89  C   UNL A   1      32.661  21.256  23.463  1.00  0.00     0.008 A 
ATOM     90  C   UNL A   1      31.613  21.735  25.549  1.00  0.00     0.008 A 
ATOM     91  C   UNL A   1      32.461  20.922  24.805  1.00  0.00    -0.026 A 
BRANCH  91  92
ATOM     92  C   UNL A   1      33.113  19.740  25.477  1.00  0.00     0.181 C 
BRANCH  92  93
ATOM     93  N   UNL A   1      33.263  18.580  24.617  1.00  0.00    -0.249 N 
ATOM     94  C   UNL A   1      32.303  17.985  23.856  1.00  0.00     0.220 A 
ATOM     95  N   UNL A   1      34.488  18.127  24.276  1.00  0.00    -0.160 NA
ATOM     96  N   UNL A   1      32.858  17.118  23.041  1.00  0.00    -0.224 NA
ATOM     97  C   UNL A   1      34.188  17.237  23.325  1.00  0.00     0.246 A 
ENDBRANCH  92  93
ENDBRANCH  91  92
ENDBRANCH  84  86
ENDBRANCH  75  82
ENDBRANCH  72  74
ENDBRANCH  71  72
ENDBRANCH  70  71
ENDBRANCH   1  70
TORSDOF 21
ENDMDL
MODEL 2
REMARK VINA RESULT:     -11.5      2.479      8.535
REMARK SMILES O=C(OCCOCCOC(=O)[C@@H]1[C@H](C(=O)Nc2ccc(Cn3cncn3)cc2)[C@@H]2C=C[C@H]1CC2)c1ccc(-c2c3nc(c(-c4ccc(S(=O)(=O)[O-])cc4)c4ccc([nH]4)c(-c4ccc(S(=O)(=O)[O-])cc4)c4nc(c(-c5ccc(S(=O)(=O)[O-])cc5)c5ccc2[nH]5)C=C4)C=C3)cc1
REMARK SMILES IDX 7 1 6 2 5 3 4 4 3 5 2 6 1 7 35 8 36 9 94 10 37 11 93 12
REMARK SMILES IDX 38 13 39 14 40 15 87 16 41 17 92 18 86 19 88 20 42 21 91 22
REMARK SMILES IDX 85 23 84 24 43 26 73 27 54 28 72 29 55 30 58 31 71 32 89 33
REMARK SMILES IDX 56 34 57 35 70 37 90 38 59 39 44 40 45 41 53 42 46 43 52 44
REMARK SMILES IDX 47 45 48 46 49 47 50 48 51 49 74 50 75 51 83 52 76 53 82 54
REMARK SMILES IDX 77 55 78 56 79 57 80 58 81 59 60 60 61 61 69 62 62 63 68 64
REMARK SMILES IDX 63 65 64 66 65 67 66 68 67 69 8 70 9 71 10 72 11 73 12 74
REMARK SMILES IDX 13 75 32 76 29 77 31 78 33 79 30 80 34 81 14 82 15 83 16 84
REMARK SMILES IDX 17 86 18 87 28 88 19 89 27 90 20 91 21 92 22 93 23 94 26 95
REMARK SMILES IDX 24 96 25 97
REMARK H PARENT 88 25 58 36 16 85
REMARK Flexibility Score: inf
ROOT
ATOM      1  C   UNL A   1      33.372  29.162  24.031  1.00  0.00     0.202 C 
ENDROOT
BRANCH   1   2
ATOM      2  O   UNL A   1      32.327  29.744  24.827  1.00  0.00    -0.374 OA
BRANCH   2   3
ATOM      3  C   UNL A   1      32.423  29.525  26.232  1.00  0.00     0.202 C 
BRANCH   3   4
ATOM      4  C   UNL A   1      32.960  30.713  27.019  1.00  0.00     0.261 C 
BRANCH   4   5
ATOM      5  O   UNL A   1      34.177  30.380  27.717  1.00  0.00    -0.460 OA
BRANCH   5   6
ATOM      6  C   UNL A   1      35.098  31.334  28.033  1.00  0.00     0.338 C 
ATOM      7  O   UNL A   1      34.824  32.474  28.334  1.00  0.00    -0.246 OA
BRANCH   6   8
ATOM      8  C   UNL A   1      36.397  30.794  28.411  1.00  0.00     0.060 A 
ATOM      9  C   UNL A   1      37.405  31.573  28.958  1.00  0.00     0.016 A 
ATOM     10  C   UNL A   1      36.576  29.431  28.147  1.00  0.00     0.016 A 
ATOM     11  C   UNL A   1      38.668  31.046  29.023  1.00  0.00     0.010 A 
ATOM     12  C   UNL A   1      37.824  28.874  28.290  1.00  0.00     0.010 A 
ATOM     13  C   UNL A   1      38.873  29.709  28.660  1.00  0.00    -0.014 A 
BRANCH  13  14
ATOM     14  C   UNL A   1      40.216  29.212  28.847  1.00  0.00     0.031 A 
ATOM     15  C   UNL A   1      40.629  29.115  30.270  1.00  0.00     0.074 A 
ATOM     16  C   UNL A   1      40.998  28.796  27.844  1.00  0.00     0.049 A 
ATOM     17  N   UNL A   1      41.591  29.738  30.868  1.00  0.00    -0.248 NA
ATOM     18  C   UNL A   1      39.756  28.334  31.160  1.00  0.00     0.031 C 
ATOM     19  C   UNL A   1      40.633  28.527  26.453  1.00  0.00     0.029 A 
ATOM     20  N   UNL A   1      42.292  28.396  27.921  1.00  0.00    -0.354 N 
ATOM     21  C   UNL A   1      41.547  29.307  32.189  1.00  0.00     0.074 A 
ATOM     22  C   UNL A   1      40.326  28.556  32.342  1.00  0.00     0.031 C 
ATOM     23  C   UNL A   1      41.603  27.771  25.893  1.00  0.00     0.029 A 
ATOM     24  C   UNL A   1      42.699  27.637  26.842  1.00  0.00     0.049 A 
ATOM     25  H   UNL A   1      42.884  28.625  28.674  1.00  0.00     0.167 HD
ATOM     26  C   UNL A   1      42.601  29.431  33.038  1.00  0.00     0.031 A 
ATOM     27  C   UNL A   1      43.805  26.861  26.798  1.00  0.00     0.031 A 
ATOM     28  C   UNL A   1      43.571  30.385  32.584  1.00  0.00     0.049 A 
ATOM     29  C   UNL A   1      44.731  27.331  27.861  1.00  0.00     0.074 A 
ATOM     30  C   UNL A   1      43.549  31.746  32.348  1.00  0.00     0.029 A 
ATOM     31  N   UNL A   1      44.689  29.908  31.940  1.00  0.00    -0.354 N 
ATOM     32  N   UNL A   1      45.308  28.501  27.856  1.00  0.00    -0.248 NA
ATOM     33  C   UNL A   1      44.718  26.661  29.154  1.00  0.00     0.031 C 
ATOM     34  C   UNL A   1      44.388  31.944  31.214  1.00  0.00     0.029 A 
ATOM     35  C   UNL A   1      44.892  30.697  30.834  1.00  0.00     0.049 A 
ATOM     36  H   UNL A   1      45.240  29.142  32.221  1.00  0.00     0.167 HD
ATOM     37  C   UNL A   1      45.369  28.889  29.188  1.00  0.00     0.074 A 
ATOM     38  C   UNL A   1      45.106  27.667  29.943  1.00  0.00     0.031 C 
ATOM     39  C   UNL A   1      45.359  30.207  29.549  1.00  0.00     0.031 A 
BRANCH  26  40
ATOM     40  C   UNL A   1      42.874  28.422  34.118  1.00  0.00    -0.014 A 
ATOM     41  C   UNL A   1      43.688  28.761  35.212  1.00  0.00     0.010 A 
ATOM     42  C   UNL A   1      42.542  27.057  33.957  1.00  0.00     0.010 A 
ATOM     43  C   UNL A   1      44.168  27.774  36.085  1.00  0.00     0.020 A 
ATOM     44  C   UNL A   1      42.974  26.076  34.845  1.00  0.00     0.020 A 
ATOM     45  C   UNL A   1      43.816  26.436  35.886  1.00  0.00     0.054 A 
BRANCH  45  46
ATOM     46  S   UNL A   1      44.523  25.154  36.948  1.00  0.00     0.124 S 
ATOM     47  O   UNL A   1      43.767  25.338  38.182  1.00  0.00    -0.237 OA
ATOM     48  O   UNL A   1      44.235  23.933  36.202  1.00  0.00    -0.237 OA
ATOM     49  O   UNL A   1      45.938  25.513  37.020  1.00  0.00    -0.744 OA
ENDBRANCH  45  46
ENDBRANCH  26  40
BRANCH  27  50
ATOM     50  C   UNL A   1      43.906  25.541  26.139  1.00  0.00    -0.014 A 
ATOM     51  C   UNL A   1      45.021  25.207  25.356  1.00  0.00     0.010 A 
ATOM     52  C   UNL A   1      43.004  24.507  26.479  1.00  0.00     0.010 A 
ATOM     53  C   UNL A   1      45.248  23.879  24.961  1.00  0.00     0.020 A 
ATOM     54  C   UNL A   1      43.214  23.187  26.078  1.00  0.00     0.020 A 
ATOM     55  C   UNL A   1      44.349  22.875  25.336  1.00  0.00     0.054 A 
BRANCH  55  56
ATOM     56  S   UNL A   1      44.734  21.144  24.956  1.00  0.00     0.124 S 
ATOM     57  O   UNL A   1      43.754  20.425  25.764  1.00  0.00    -0.237 OA
ATOM     58  O   UNL A   1      44.531  21.085  23.512  1.00  0.00    -0.237 OA
ATOM     59  O   UNL A   1      46.124  20.996  25.389  1.00  0.00    -0.744 OA
ENDBRANCH  55  56
ENDBRANCH  27  50
BRANCH  39  60
ATOM     60  C   UNL A   1      45.559  31.246  28.464  1.00  0.00    -0.014 A 
ATOM     61  C   UNL A   1      44.553  31.587  27.537  1.00  0.00     0.010 A 
ATOM     62  C   UNL A   1      46.739  32.011  28.475  1.00  0.00     0.010 A 
ATOM     63  C   UNL A   1      44.736  32.638  26.627  1.00  0.00     0.020 A 
ATOM     64  C   UNL A   1      46.920  33.074  27.582  1.00  0.00     0.020 A 
ATOM     65  C   UNL A   1      45.921  33.376  26.656  1.00  0.00     0.054 A 
BRANCH  65  66
ATOM     66  S   UNL A   1      46.121  34.775  25.515  1.00  0.00     0.124 S 
ATOM     67  O   UNL A   1      45.114  34.500  24.496  1.00  0.00    -0.237 OA
ATOM     68  O   UNL A   1      45.855  35.932  26.367  1.00  0.00    -0.237 OA
ATOM     69  O   UNL A   1      47.508  34.659  25.062  1.00  0.00    -0.744 OA
ENDBRANCH  65  66
ENDBRANCH  39  60
ENDBRANCH  13  14
ENDBRANCH   6   8
ENDBRANCH   5   6
ENDBRANCH   4   5
ENDBRANCH   3   4
ENDBRANCH   2   3
ENDBRANCH   1   2
BRANCH   1  70
ATOM     70  C   UNL A   1      32.938  28.451  22.749  1.00  0.00     0.261 C 
BRANCH  70  71
ATOM     71  O   UNL A   1      33.783  27.302  22.494  1.00  0.00    -0.463 OA
BRANCH  71  72
ATOM     72  C   UNL A   1      33.202  26.088  22.558  1.00  0.00     0.310 C 
ATOM     73  O   UNL A   1      33.557  25.118  21.895  1.00  0.00    -0.252 OA
BRANCH  72  74
ATOM     74  C   UNL A   1      32.083  25.976  23.567  1.00  0.00     0.119 C 
ATOM     75  C   UNL A   1      32.349  25.749  25.069  1.00  0.00     0.100 C 
ATOM     76  C   UNL A   1      30.809  25.180  23.113  1.00  0.00     0.026 C 
ATOM     77  C   UNL A   1      31.063  25.154  25.716  1.00  0.00     0.025 C 
ATOM     78  C   UNL A   1      30.666  23.820  23.772  1.00  0.00    -0.027 C 
ATOM     79  C   UNL A   1      29.608  25.933  23.734  1.00  0.00     0.009 C 
ATOM     80  C   UNL A   1      30.774  23.811  25.113  1.00  0.00    -0.027 C 
ATOM     81  C   UNL A   1      29.837  26.035  25.277  1.00  0.00     0.009 C 
BRANCH  75  82
ATOM     82  C   UNL A   1      33.731  25.304  25.598  1.00  0.00     0.228 C 
ATOM     83  O   UNL A   1      34.497  26.207  25.982  1.00  0.00    -0.274 OA
ATOM     84  N   UNL A   1      34.199  24.045  25.810  1.00  0.00    -0.326 N 
ATOM     85  H   UNL A   1      34.971  24.036  26.420  1.00  0.00     0.169 HD
BRANCH  84  86
ATOM     86  C   UNL A   1      33.856  22.758  25.378  1.00  0.00     0.041 A 
ATOM     87  C   UNL A   1      33.596  21.769  26.333  1.00  0.00     0.026 A 
ATOM     88  C   UNL A   1      33.819  22.387  24.052  1.00  0.00     0.026 A 
ATOM     89  C   UNL A   1      33.150  20.489  25.951  1.00  0.00     0.008 A 
ATOM     90  C   UNL A   1      33.312  21.142  23.665  1.00  0.00     0.008 A 
ATOM     91  C   UNL A   1      32.965  20.175  24.603  1.00  0.00    -0.026 A 
BRANCH  91  92
ATOM     92  C   UNL A   1      32.412  18.858  24.121  1.00  0.00     0.181 C 
BRANCH  92  93
ATOM     93  N   UNL A   1      33.252  17.715  24.430  1.00  0.00    -0.249 N 
ATOM     94  C   UNL A   1      34.595  17.599  24.234  1.00  0.00     0.220 A 
ATOM     95  N   UNL A   1      32.800  16.720  25.222  1.00  0.00    -0.160 NA
ATOM     96  N   UNL A   1      35.041  16.526  24.846  1.00  0.00    -0.224 NA
ATOM     97  C   UNL A   1      33.919  16.021  25.437  1.00  0.00     0.246 A 
ENDBRANCH  92  93
ENDBRANCH  91  92
ENDBRANCH  84  86
ENDBRANCH  75  82
ENDBRANCH  72  74
ENDBRANCH  71  72
ENDBRANCH  70  71
ENDBRANCH   1  70
TORSDOF 21
ENDMDL
MODEL 3
REMARK VINA RESULT:     -11.5      1.887      3.998
REMARK SMILES O=C(OCCOCCOC(=O)[C@@H]1[C@H](C(=O)Nc2ccc(Cn3cncn3)cc2)[C@@H]2C=C[C@H]1CC2)c1ccc(-c2c3nc(c(-c4ccc(S(=O)(=O)[O-])cc4)c4ccc([nH]4)c(-c4ccc(S(=O)(=O)[O-])cc4)c4nc(c(-c5ccc(S(=O)(=O)[O-])cc5)c5ccc2[nH]5)C=C4)C=C3)cc1
REMARK SMILES IDX 7 1 6 2 5 3 4 4 3 5 2 6 1 7 35 8 36 9 94 10 37 11 93 12
REMARK SMILES IDX 38 13 39 14 40 15 87 16 41 17 92 18 86 19 88 20 42 21 91 22
REMARK SMILES IDX 85 23 84 24 43 26 73 27 54 28 72 29 55 30 58 31 71 32 89 33
REMARK SMILES IDX 56 34 57 35 70 37 90 38 59 39 44 40 45 41 53 42 46 43 52 44
REMARK SMILES IDX 47 45 48 46 49 47 50 48 51 49 74 50 75 51 83 52 76 53 82 54
REMARK SMILES IDX 77 55 78 56 79 57 80 58 81 59 60 60 61 61 69 62 62 63 68 64
REMARK SMILES IDX 63 65 64 66 65 67 66 68 67 69 8 70 9 71 10 72 11 73 12 74
REMARK SMILES IDX 13 75 32 76 29 77 31 78 33 79 30 80 34 81 14 82 15 83 16 84
REMARK SMILES IDX 17 86 18 87 28 88 19 89 27 90 20 91 21 92 22 93 23 94 26 95
REMARK SMILES IDX 24 96 25 97
REMARK H PARENT 88 25 58 36 16 85
REMARK Flexibility Score: inf
ROOT
ATOM      1  C   UNL A   1      38.170  21.127  25.187  1.00  0.00     0.202 C 
ENDROOT
BRANCH   1   2
ATOM      2  O   UNL A   1      38.914  22.131  25.895  1.00  0.00    -0.374 OA
BRANCH   2   3
ATOM      3  C   UNL A   1      39.863  21.647  26.842  1.00  0.00     0.202 C 
BRANCH   3   4
ATOM      4  C   UNL A   1      40.972  20.793  26.242  1.00  0.00     0.261 C 
BRANCH   4   5
ATOM      5  O   UNL A   1      42.277  21.307  26.576  1.00  0.00    -0.460 OA
BRANCH   5   6
ATOM      6  C   UNL A   1      42.841  22.325  25.867  1.00  0.00     0.338 C 
ATOM      7  O   UNL A   1      43.022  22.305  24.670  1.00  0.00    -0.246 OA
BRANCH   6   8
ATOM      8  C   UNL A   1      42.817  23.607  26.559  1.00  0.00     0.060 A 
ATOM      9  C   UNL A   1      43.087  23.737  27.911  1.00  0.00     0.016 A 
ATOM     10  C   UNL A   1      42.460  24.705  25.767  1.00  0.00     0.016 A 
ATOM     11  C   UNL A   1      42.773  24.921  28.524  1.00  0.00     0.010 A 
ATOM     12  C   UNL A   1      42.224  25.919  26.364  1.00  0.00     0.010 A 
ATOM     13  C   UNL A   1      42.315  25.994  27.749  1.00  0.00    -0.014 A 
BRANCH  13  14
ATOM     14  C   UNL A   1      42.097  27.230  28.464  1.00  0.00     0.031 A 
ATOM     15  C   UNL A   1      43.222  28.193  28.360  1.00  0.00     0.074 A 
ATOM     16  C   UNL A   1      40.956  27.526  29.100  1.00  0.00     0.049 A 
ATOM     17  N   UNL A   1      43.965  28.661  29.307  1.00  0.00    -0.248 NA
ATOM     18  C   UNL A   1      43.656  28.556  27.001  1.00  0.00     0.031 C 
ATOM     19  C   UNL A   1      39.665  26.841  29.026  1.00  0.00     0.029 A 
ATOM     20  N   UNL A   1      40.699  28.619  29.861  1.00  0.00    -0.354 N 
ATOM     21  C   UNL A   1      44.872  29.509  28.682  1.00  0.00     0.074 A 
ATOM     22  C   UNL A   1      44.726  29.304  27.263  1.00  0.00     0.031 C 
ATOM     23  C   UNL A   1      38.711  27.673  29.499  1.00  0.00     0.029 A 
ATOM     24  C   UNL A   1      39.351  28.868  30.028  1.00  0.00     0.049 A 
ATOM     25  H   UNL A   1      41.404  29.180  30.256  1.00  0.00     0.167 HD
ATOM     26  C   UNL A   1      45.564  30.468  29.352  1.00  0.00     0.031 A 
ATOM     27  C   UNL A   1      38.813  30.030  30.460  1.00  0.00     0.031 A 
ATOM     28  C   UNL A   1      45.581  30.252  30.771  1.00  0.00     0.049 A 
ATOM     29  C   UNL A   1      39.878  30.786  31.172  1.00  0.00     0.074 A 
ATOM     30  C   UNL A   1      46.084  29.260  31.589  1.00  0.00     0.029 A 
ATOM     31  N   UNL A   1      44.686  30.959  31.539  1.00  0.00    -0.354 N 
ATOM     32  N   UNL A   1      40.424  30.391  32.289  1.00  0.00    -0.248 NA
ATOM     33  C   UNL A   1      40.635  31.793  30.442  1.00  0.00     0.031 C 
ATOM     34  C   UNL A   1      45.144  29.139  32.653  1.00  0.00     0.029 A 
ATOM     35  C   UNL A   1      44.132  30.078  32.435  1.00  0.00     0.049 A 
ATOM     36  H   UNL A   1      44.480  31.918  31.460  1.00  0.00     0.167 HD
ATOM     37  C   UNL A   1      41.754  30.785  32.209  1.00  0.00     0.074 A 
ATOM     38  C   UNL A   1      41.791  31.747  31.111  1.00  0.00     0.031 C 
ATOM     39  C   UNL A   1      42.742  30.098  32.856  1.00  0.00     0.031 A 
BRANCH  26  40
ATOM     40  C   UNL A   1      45.939  31.773  28.708  1.00  0.00    -0.014 A 
ATOM     41  C   UNL A   1      44.964  32.541  28.048  1.00  0.00     0.010 A 
ATOM     42  C   UNL A   1      47.289  32.148  28.527  1.00  0.00     0.010 A 
ATOM     43  C   UNL A   1      45.331  33.615  27.223  1.00  0.00     0.020 A 
ATOM     44  C   UNL A   1      47.661  33.241  27.748  1.00  0.00     0.020 A 
ATOM     45  C   UNL A   1      46.680  33.948  27.071  1.00  0.00     0.054 A 
BRANCH  45  46
ATOM     46  S   UNL A   1      47.155  35.263  25.924  1.00  0.00     0.124 S 
ATOM     47  O   UNL A   1      46.024  35.279  25.003  1.00  0.00    -0.237 OA
ATOM     48  O   UNL A   1      47.274  36.421  26.804  1.00  0.00    -0.237 OA
ATOM     49  O   UNL A   1      48.416  34.785  25.361  1.00  0.00    -0.744 OA
ENDBRANCH  45  46
ENDBRANCH  26  40
BRANCH  27  50
ATOM     50  C   UNL A   1      37.562  30.640  29.960  1.00  0.00    -0.014 A 
ATOM     51  C   UNL A   1      36.566  31.077  30.846  1.00  0.00     0.010 A 
ATOM     52  C   UNL A   1      37.448  31.014  28.602  1.00  0.00     0.010 A 
ATOM     53  C   UNL A   1      35.516  31.893  30.398  1.00  0.00     0.020 A 
ATOM     54  C   UNL A   1      36.399  31.812  28.144  1.00  0.00     0.020 A 
ATOM     55  C   UNL A   1      35.447  32.266  29.051  1.00  0.00     0.054 A 
BRANCH  55  56
ATOM     56  S   UNL A   1      34.178  33.446  28.516  1.00  0.00     0.124 S 
ATOM     57  O   UNL A   1      33.756  34.041  29.780  1.00  0.00    -0.237 OA
ATOM     58  O   UNL A   1      34.922  34.325  27.619  1.00  0.00    -0.237 OA
ATOM     59  O   UNL A   1      33.176  32.604  27.862  1.00  0.00    -0.744 OA
ENDBRANCH  55  56
ENDBRANCH  27  50
BRANCH  39  60
ATOM     60  C   UNL A   1      42.336  29.065  33.888  1.00  0.00    -0.014 A 
ATOM     61  C   UNL A   1      42.127  27.707  33.568  1.00  0.00     0.010 A 
ATOM     62  C   UNL A   1      42.313  29.439  35.243  1.00  0.00     0.010 A 
ATOM     63  C   UNL A   1      41.870  26.761  34.571  1.00  0.00     0.020 A 
ATOM     64  C   UNL A   1      42.077  28.496  36.250  1.00  0.00     0.020 A 
ATOM     65  C   UNL A   1      41.847  27.162  35.908  1.00  0.00     0.054 A 
BRANCH  65  66
ATOM     66  S   UNL A   1      41.577  25.918  37.202  1.00  0.00     0.124 S 
ATOM     67  O   UNL A   1      40.237  26.242  37.681  1.00  0.00    -0.237 OA
ATOM     68  O   UNL A   1      41.697  24.657  36.474  1.00  0.00    -0.237 OA
ATOM     69  O   UNL A   1      42.654  26.173  38.160  1.00  0.00    -0.744 OA
ENDBRANCH  65  66
ENDBRANCH  39  60
ENDBRANCH  13  14
ENDBRANCH   6   8
ENDBRANCH   5   6
ENDBRANCH   4   5
ENDBRANCH   3   4
ENDBRANCH   2   3
ENDBRANCH   1   2
BRANCH   1  70
ATOM     70  C   UNL A   1      36.657  21.332  25.101  1.00  0.00     0.261 C 
BRANCH  70  71
ATOM     71  O   UNL A   1      36.299  21.953  23.842  1.00  0.00    -0.463 OA
BRANCH  71  72
ATOM     72  C   UNL A   1      35.268  22.819  23.857  1.00  0.00     0.310 C 
ATOM     73  O   UNL A   1      35.064  23.665  22.991  1.00  0.00    -0.252 OA
BRANCH  72  74
ATOM     74  C   UNL A   1      34.315  22.646  25.017  1.00  0.00     0.119 C 
ATOM     75  C   UNL A   1      32.836  22.258  24.818  1.00  0.00     0.100 C 
ATOM     76  C   UNL A   1      34.455  23.673  26.196  1.00  0.00     0.026 C 
ATOM     77  C   UNL A   1      32.036  22.682  26.085  1.00  0.00     0.025 C 
ATOM     78  C   UNL A   1      33.327  24.687  26.265  1.00  0.00    -0.027 C 
ATOM     79  C   UNL A   1      34.195  22.860  27.487  1.00  0.00     0.009 C 
ATOM     80  C   UNL A   1      32.083  24.175  26.231  1.00  0.00    -0.027 C 
ATOM     81  C   UNL A   1      32.805  22.157  27.352  1.00  0.00     0.009 C 
BRANCH  75  82
ATOM     82  C   UNL A   1      32.150  22.333  23.435  1.00  0.00     0.228 C 
ATOM     83  O   UNL A   1      32.155  21.291  22.754  1.00  0.00    -0.274 OA
ATOM     84  N   UNL A   1      31.435  23.354  22.892  1.00  0.00    -0.326 N 
ATOM     85  H   UNL A   1      30.862  23.050  22.152  1.00  0.00     0.169 HD
BRANCH  84  86
ATOM     86  C   UNL A   1      31.310  24.729  23.123  1.00  0.00     0.041 A 
ATOM     87  C   UNL A   1      30.118  25.220  23.668  1.00  0.00     0.026 A 
ATOM     88  C   UNL A   1      32.279  25.647  22.786  1.00  0.00     0.026 A 
ATOM     89  C   UNL A   1      29.980  26.578  24.011  1.00  0.00     0.008 A 
ATOM     90  C   UNL A   1      32.178  26.984  23.185  1.00  0.00     0.008 A 
ATOM     91  C   UNL A   1      31.034  27.472  23.808  1.00  0.00    -0.026 A 
BRANCH  91  92
ATOM     92  C   UNL A   1      30.993  28.920  24.227  1.00  0.00     0.181 C 
BRANCH  92  93
ATOM     93  N   UNL A   1      31.923  29.254  25.291  1.00  0.00    -0.249 N 
ATOM     94  C   UNL A   1      31.706  29.178  26.633  1.00  0.00     0.220 A 
ATOM     95  N   UNL A   1      33.237  29.425  25.031  1.00  0.00    -0.160 NA
ATOM     96  N   UNL A   1      32.840  29.334  27.275  1.00  0.00    -0.224 NA
ATOM     97  C   UNL A   1      33.747  29.478  26.265  1.00  0.00     0.246 A 
ENDBRANCH  92  93
ENDBRANCH  91  92
ENDBRANCH  84  86
ENDBRANCH  75  82
ENDBRANCH  72  74
ENDBRANCH  71  72
ENDBRANCH  70  71
ENDBRANCH   1  70
TORSDOF 21
ENDMDL
