MODEL 1
REMARK VINA RESULT:      -9.6      0.000      0.000
REMARK SMILES CCOc1ccc(-c2nc(C(=O)OCCOCCOC(=O)c3ccc(-c4c5nc(c(-c6ccc(S(=O)(=O)[O-])cc6)c6ccc([nH]6)c(-c6ccc(S(=O)(=O)[O-])cc6)c6nc(c(-c7ccc(S(=O)(=O)[O-])cc7)c7ccc4[nH]7)C=C6)C=C5)cc3)cc(=O)[nH]2)cc1
REMARK SMILES IDX 16 1 15 2 14 3 13 4 11 5 12 6 10 7 8 8 9 9 85 10 83 11 82 13
REMARK SMILES IDX 84 14 7 15 4 16 5 17 87 18 6 19 86 20 3 21 2 22 1 23 17 24
REMARK SMILES IDX 18 25 19 26 20 27 21 28 22 29 23 30 81 31 24 32 80 33 25 34
REMARK SMILES IDX 26 35 27 36 74 37 28 38 79 39 73 40 75 41 29 42 78 43 72 44
REMARK SMILES IDX 71 45 30 47 60 48 41 49 59 50 42 51 45 52 58 53 76 54 43 55
REMARK SMILES IDX 44 56 57 58 77 59 46 60 31 61 32 62 40 63 33 64 39 65 34 66
REMARK SMILES IDX 35 67 36 68 37 69 38 70 61 71 62 72 70 73 63 74 69 75 64 76
REMARK SMILES IDX 65 77 66 78 67 79 68 80 47 81 48 82 56 83 49 84 55 85 50 86
REMARK SMILES IDX 51 87 52 88 53 89 54 90
REMARK H PARENT 85 12 75 46 45 57
REMARK Flexibility Score: inf
ROOT
ATOM      1  O   UNL A   1      32.996  34.170  28.623  1.00  0.00    -0.374 OA
ENDROOT
BRANCH   1   2
ATOM      2  C   UNL A   1      32.974  35.155  29.658  1.00  0.00     0.202 C 
BRANCH   2   3
ATOM      3  C   UNL A   1      34.195  35.174  30.584  1.00  0.00     0.261 C 
BRANCH   3   4
ATOM      4  O   UNL A   1      33.793  35.012  31.954  1.00  0.00    -0.459 OA
BRANCH   4   5
ATOM      5  C   UNL A   1      34.658  35.517  32.873  1.00  0.00     0.357 C 
ATOM      6  O   UNL A   1      34.455  36.484  33.594  1.00  0.00    -0.244 OA
BRANCH   5   7
ATOM      7  C   UNL A   1      35.855  34.619  33.014  1.00  0.00     0.156 A 
ATOM      8  C   UNL A   1      37.901  34.039  32.190  1.00  0.00     0.141 A 
ATOM      9  N   UNL A   1      36.884  34.829  32.123  1.00  0.00    -0.223 NA
ATOM     10  N   UNL A   1      38.010  33.033  33.109  1.00  0.00    -0.306 N 
ATOM     11  C   UNL A   1      37.052  32.818  34.054  1.00  0.00     0.251 A 
ATOM     12  H   UNL A   1      38.802  32.449  33.087  1.00  0.00     0.171 HD
ATOM     13  C   UNL A   1      35.870  33.688  33.977  1.00  0.00     0.107 A 
ATOM     14  O   UNL A   1      37.164  31.960  34.921  1.00  0.00    -0.269 OA
BRANCH   8  15
ATOM     15  C   UNL A   1      39.027  34.218  31.262  1.00  0.00     0.018 A 
ATOM     16  C   UNL A   1      41.191  34.796  29.624  1.00  0.00     0.119 A 
ATOM     17  C   UNL A   1      39.892  34.938  29.131  1.00  0.00     0.047 A 
ATOM     18  C   UNL A   1      41.412  34.382  30.936  1.00  0.00     0.047 A 
ATOM     19  C   UNL A   1      38.800  34.637  29.949  1.00  0.00     0.016 A 
ATOM     20  C   UNL A   1      40.327  34.090  31.760  1.00  0.00     0.016 A 
BRANCH  16  21
ATOM     21  O   UNL A   1      42.231  35.219  28.843  1.00  0.00    -0.494 OA
BRANCH  21  22
ATOM     22  C   UNL A   1      41.806  35.734  27.577  1.00  0.00     0.226 C 
ATOM     23  C   UNL A   1      42.670  36.904  27.136  1.00  0.00     0.049 C 
ENDBRANCH  21  22
ENDBRANCH  16  21
ENDBRANCH   8  15
ENDBRANCH   5   7
ENDBRANCH   4   5
ENDBRANCH   3   4
ENDBRANCH   2   3
ENDBRANCH   1   2
BRANCH   1  24
ATOM     24  C   UNL A   1      34.278  33.707  28.197  1.00  0.00     0.202 C 
BRANCH  24  25
ATOM     25  C   UNL A   1      34.575  32.222  28.445  1.00  0.00     0.261 C 
BRANCH  25  26
ATOM     26  O   UNL A   1      35.979  31.928  28.334  1.00  0.00    -0.460 OA
BRANCH  26  27
ATOM     27  C   UNL A   1      36.590  31.621  29.503  1.00  0.00     0.338 C 
ATOM     28  O   UNL A   1      36.160  31.820  30.632  1.00  0.00    -0.246 OA
BRANCH  27  29
ATOM     29  C   UNL A   1      37.806  30.829  29.246  1.00  0.00     0.060 A 
ATOM     30  C   UNL A   1      38.792  30.819  30.241  1.00  0.00     0.016 A 
ATOM     31  C   UNL A   1      38.012  30.159  28.038  1.00  0.00     0.016 A 
ATOM     32  C   UNL A   1      40.009  30.179  30.012  1.00  0.00     0.010 A 
ATOM     33  C   UNL A   1      39.237  29.524  27.807  1.00  0.00     0.010 A 
ATOM     34  C   UNL A   1      40.253  29.561  28.779  1.00  0.00    -0.014 A 
BRANCH  34  35
ATOM     35  C   UNL A   1      41.616  29.072  28.463  1.00  0.00     0.031 A 
ATOM     36  C   UNL A   1      42.760  30.049  28.439  1.00  0.00     0.074 A 
ATOM     37  C   UNL A   1      41.839  27.769  28.215  1.00  0.00     0.049 A 
ATOM     38  N   UNL A   1      44.024  29.837  28.178  1.00  0.00    -0.248 NA
ATOM     39  C   UNL A   1      42.430  31.449  28.745  1.00  0.00     0.031 C 
ATOM     40  C   UNL A   1      40.820  26.721  28.233  1.00  0.00     0.029 A 
ATOM     41  N   UNL A   1      42.998  27.110  27.890  1.00  0.00    -0.354 N 
ATOM     42  C   UNL A   1      44.641  31.079  28.279  1.00  0.00     0.074 A 
ATOM     43  C   UNL A   1      43.606  32.040  28.594  1.00  0.00     0.031 C 
ATOM     44  C   UNL A   1      41.398  25.550  27.915  1.00  0.00     0.029 A 
ATOM     45  C   UNL A   1      42.819  25.772  27.645  1.00  0.00     0.049 A 
ATOM     46  H   UNL A   1      43.875  27.556  27.837  1.00  0.00     0.167 HD
ATOM     47  C   UNL A   1      45.952  31.391  28.126  1.00  0.00     0.031 A 
ATOM     48  C   UNL A   1      43.692  24.833  27.231  1.00  0.00     0.031 A 
ATOM     49  C   UNL A   1      46.975  30.438  27.788  1.00  0.00     0.049 A 
ATOM     50  C   UNL A   1      45.133  25.206  27.014  1.00  0.00     0.074 A 
ATOM     51  C   UNL A   1      48.333  30.650  27.636  1.00  0.00     0.029 A 
ATOM     52  N   UNL A   1      46.749  29.093  27.530  1.00  0.00    -0.354 N 
ATOM     53  N   UNL A   1      45.711  26.375  27.157  1.00  0.00    -0.248 NA
ATOM     54  C   UNL A   1      46.042  24.131  26.592  1.00  0.00     0.031 C 
ATOM     55  C   UNL A   1      48.921  29.446  27.230  1.00  0.00     0.029 A 
ATOM     56  C   UNL A   1      47.938  28.469  27.189  1.00  0.00     0.049 A 
ATOM     57  H   UNL A   1      45.873  28.648  27.582  1.00  0.00     0.167 HD
ATOM     58  C   UNL A   1      47.056  26.173  26.859  1.00  0.00     0.074 A 
ATOM     59  C   UNL A   1      47.205  24.767  26.542  1.00  0.00     0.031 C 
ATOM     60  C   UNL A   1      48.072  27.072  26.856  1.00  0.00     0.031 A 
BRANCH  47  61
ATOM     61  C   UNL A   1      46.330  32.842  28.276  1.00  0.00    -0.014 A 
ATOM     62  C   UNL A   1      46.719  33.373  29.520  1.00  0.00     0.010 A 
ATOM     63  C   UNL A   1      46.275  33.692  27.157  1.00  0.00     0.010 A 
ATOM     64  C   UNL A   1      46.981  34.739  29.655  1.00  0.00     0.020 A 
ATOM     65  C   UNL A   1      46.565  35.054  27.282  1.00  0.00     0.020 A 
ATOM     66  C   UNL A   1      46.888  35.573  28.536  1.00  0.00     0.054 A 
BRANCH  66  67
ATOM     67  S   UNL A   1      47.200  37.348  28.741  1.00  0.00     0.124 S 
ATOM     68  O   UNL A   1      46.476  37.638  29.978  1.00  0.00    -0.237 OA
ATOM     69  O   UNL A   1      48.656  37.412  28.838  1.00  0.00    -0.237 OA
ATOM     70  O   UNL A   1      46.633  37.942  27.535  1.00  0.00    -0.744 OA
ENDBRANCH  66  67
ENDBRANCH  47  61
BRANCH  48  71
ATOM     71  C   UNL A   1      43.204  23.450  26.984  1.00  0.00    -0.014 A 
ATOM     72  C   UNL A   1      43.005  22.980  25.676  1.00  0.00     0.010 A 
ATOM     73  C   UNL A   1      43.004  22.573  28.067  1.00  0.00     0.010 A 
ATOM     74  C   UNL A   1      42.626  21.652  25.453  1.00  0.00     0.020 A 
ATOM     75  C   UNL A   1      42.648  21.240  27.847  1.00  0.00     0.020 A 
ATOM     76  C   UNL A   1      42.461  20.788  26.540  1.00  0.00     0.054 A 
BRANCH  76  77
ATOM     77  S   UNL A   1      42.079  19.042  26.221  1.00  0.00     0.124 S 
ATOM     78  O   UNL A   1      40.667  19.100  25.860  1.00  0.00    -0.237 OA
ATOM     79  O   UNL A   1      42.998  18.714  25.133  1.00  0.00    -0.237 OA
ATOM     80  O   UNL A   1      42.377  18.390  27.494  1.00  0.00    -0.744 OA
ENDBRANCH  76  77
ENDBRANCH  48  71
BRANCH  60  81
ATOM     81  C   UNL A   1      49.448  26.563  26.513  1.00  0.00    -0.014 A 
ATOM     82  C   UNL A   1      49.953  26.651  25.203  1.00  0.00     0.010 A 
ATOM     83  C   UNL A   1      50.270  26.042  27.530  1.00  0.00     0.010 A 
ATOM     84  C   UNL A   1      51.245  26.202  24.912  1.00  0.00     0.020 A 
ATOM     85  C   UNL A   1      51.571  25.617  27.247  1.00  0.00     0.020 A 
ATOM     86  C   UNL A   1      52.046  25.687  25.936  1.00  0.00     0.054 A 
BRANCH  86  87
ATOM     87  S   UNL A   1      53.734  25.152  25.542  1.00  0.00     0.124 S 
ATOM     88  O   UNL A   1      53.565  23.712  25.372  1.00  0.00    -0.237 OA
ATOM     89  O   UNL A   1      54.031  25.899  24.322  1.00  0.00    -0.237 OA
ATOM     90  O   UNL A   1      54.507  25.554  26.715  1.00  0.00    -0.744 OA
ENDBRANCH  86  87
ENDBRANCH  60  81
ENDBRANCH  34  35
ENDBRANCH  27  29
ENDBRANCH  26  27
ENDBRANCH  25  26
ENDBRANCH  24  25
ENDBRANCH   1  24
TORSDOF 20
ENDMDL
MODEL 2
REMARK VINA RESULT:      -9.4      4.920     11.164
REMARK SMILES CCOc1ccc(-c2nc(C(=O)OCCOCCOC(=O)c3ccc(-c4c5nc(c(-c6ccc(S(=O)(=O)[O-])cc6)c6ccc([nH]6)c(-c6ccc(S(=O)(=O)[O-])cc6)c6nc(c(-c7ccc(S(=O)(=O)[O-])cc7)c7ccc4[nH]7)C=C6)C=C5)cc3)cc(=O)[nH]2)cc1
REMARK SMILES IDX 16 1 15 2 14 3 13 4 11 5 12 6 10 7 8 8 9 9 85 10 83 11 82 13
REMARK SMILES IDX 84 14 7 15 4 16 5 17 87 18 6 19 86 20 3 21 2 22 1 23 17 24
REMARK SMILES IDX 18 25 19 26 20 27 21 28 22 29 23 30 81 31 24 32 80 33 25 34
REMARK SMILES IDX 26 35 27 36 74 37 28 38 79 39 73 40 75 41 29 42 78 43 72 44
REMARK SMILES IDX 71 45 30 47 60 48 41 49 59 50 42 51 45 52 58 53 76 54 43 55
REMARK SMILES IDX 44 56 57 58 77 59 46 60 31 61 32 62 40 63 33 64 39 65 34 66
REMARK SMILES IDX 35 67 36 68 37 69 38 70 61 71 62 72 70 73 63 74 69 75 64 76
REMARK SMILES IDX 65 77 66 78 67 79 68 80 47 81 48 82 56 83 49 84 55 85 50 86
REMARK SMILES IDX 51 87 52 88 53 89 54 90
REMARK H PARENT 85 12 75 46 45 57
REMARK Flexibility Score: inf
ROOT
ATOM      1  O   UNL A   1      35.014  20.516  25.274  1.00  0.00    -0.374 OA
ENDROOT
BRANCH   1   2
ATOM      2  C   UNL A   1      33.675  20.018  25.241  1.00  0.00     0.202 C 
BRANCH   2   3
ATOM      3  C   UNL A   1      32.981  20.067  23.876  1.00  0.00     0.261 C 
BRANCH   3   4
ATOM      4  O   UNL A   1      31.972  21.090  23.859  1.00  0.00    -0.459 OA
BRANCH   4   5
ATOM      5  C   UNL A   1      32.442  22.365  23.828  1.00  0.00     0.357 C 
ATOM      6  O   UNL A   1      33.137  22.853  22.948  1.00  0.00    -0.244 OA
BRANCH   5   7
ATOM      7  C   UNL A   1      31.852  23.167  24.953  1.00  0.00     0.156 A 
ATOM      8  C   UNL A   1      31.883  25.138  26.100  1.00  0.00     0.141 A 
ATOM      9  N   UNL A   1      32.336  24.447  25.111  1.00  0.00    -0.223 NA
ATOM     10  N   UNL A   1      30.938  24.672  26.971  1.00  0.00    -0.306 N 
ATOM     11  C   UNL A   1      30.378  23.437  26.828  1.00  0.00     0.251 A 
ATOM     12  H   UNL A   1      30.656  25.243  27.721  1.00  0.00     0.171 HD
ATOM     13  C   UNL A   1      30.902  22.620  25.725  1.00  0.00     0.107 A 
ATOM     14  O   UNL A   1      29.489  23.030  27.565  1.00  0.00    -0.269 OA
BRANCH   8  15
ATOM     15  C   UNL A   1      32.366  26.510  26.314  1.00  0.00     0.018 A 
ATOM     16  C   UNL A   1      33.118  29.174  26.518  1.00  0.00     0.119 A 
ATOM     17  C   UNL A   1      33.954  28.266  25.865  1.00  0.00     0.047 A 
ATOM     18  C   UNL A   1      31.900  28.759  27.054  1.00  0.00     0.047 A 
ATOM     19  C   UNL A   1      33.585  26.922  25.770  1.00  0.00     0.016 A 
ATOM     20  C   UNL A   1      31.521  27.422  26.954  1.00  0.00     0.016 A 
BRANCH  16  21
ATOM     21  O   UNL A   1      33.446  30.501  26.481  1.00  0.00    -0.494 OA
BRANCH  21  22
ATOM     22  C   UNL A   1      34.231  30.913  27.605  1.00  0.00     0.226 C 
ATOM     23  C   UNL A   1      33.985  32.374  27.946  1.00  0.00     0.049 C 
ENDBRANCH  21  22
ENDBRANCH  16  21
ENDBRANCH   8  15
ENDBRANCH   5   7
ENDBRANCH   4   5
ENDBRANCH   3   4
ENDBRANCH   2   3
ENDBRANCH   1   2
BRANCH   1  24
ATOM     24  C   UNL A   1      35.235  21.732  25.989  1.00  0.00     0.202 C 
BRANCH  24  25
ATOM     25  C   UNL A   1      36.022  22.818  25.245  1.00  0.00     0.261 C 
BRANCH  25  26
ATOM     26  O   UNL A   1      36.907  23.539  26.122  1.00  0.00    -0.460 OA
BRANCH  26  27
ATOM     27  C   UNL A   1      38.190  23.105  26.115  1.00  0.00     0.338 C 
ATOM     28  O   UNL A   1      38.611  22.058  25.642  1.00  0.00    -0.246 OA
BRANCH  27  29
ATOM     29  C   UNL A   1      39.085  24.168  26.611  1.00  0.00     0.060 A 
ATOM     30  C   UNL A   1      39.085  24.419  27.989  1.00  0.00     0.016 A 
ATOM     31  C   UNL A   1      39.861  24.944  25.749  1.00  0.00     0.016 A 
ATOM     32  C   UNL A   1      39.826  25.481  28.505  1.00  0.00     0.010 A 
ATOM     33  C   UNL A   1      40.598  26.014  26.267  1.00  0.00     0.010 A 
ATOM     34  C   UNL A   1      40.556  26.309  27.642  1.00  0.00    -0.014 A 
BRANCH  34  35
ATOM     35  C   UNL A   1      41.164  27.556  28.164  1.00  0.00     0.031 A 
ATOM     36  C   UNL A   1      42.661  27.698  28.165  1.00  0.00     0.074 A 
ATOM     37  C   UNL A   1      40.393  28.559  28.618  1.00  0.00     0.049 A 
ATOM     38  N   UNL A   1      43.398  28.695  28.582  1.00  0.00    -0.248 NA
ATOM     39  C   UNL A   1      43.426  26.562  27.629  1.00  0.00     0.031 C 
ATOM     40  C   UNL A   1      38.931  28.554  28.646  1.00  0.00     0.029 A 
ATOM     41  N   UNL A   1      40.738  29.776  29.152  1.00  0.00    -0.354 N 
ATOM     42  C   UNL A   1      44.715  28.304  28.368  1.00  0.00     0.074 A 
ATOM     43  C   UNL A   1      44.674  26.968  27.814  1.00  0.00     0.031 C 
ATOM     44  C   UNL A   1      38.504  29.707  29.186  1.00  0.00     0.029 A 
ATOM     45  C   UNL A   1      39.661  30.519  29.566  1.00  0.00     0.049 A 
ATOM     46  H   UNL A   1      41.669  30.086  29.230  1.00  0.00     0.167 HD
ATOM     47  C   UNL A   1      45.856  28.996  28.609  1.00  0.00     0.031 A 
ATOM     48  C   UNL A   1      39.608  31.708  30.198  1.00  0.00     0.031 A 
ATOM     49  C   UNL A   1      45.896  30.314  29.184  1.00  0.00     0.049 A 
ATOM     50  C   UNL A   1      40.886  32.439  30.507  1.00  0.00     0.074 A 
ATOM     51  C   UNL A   1      46.999  31.108  29.443  1.00  0.00     0.029 A 
ATOM     52  N   UNL A   1      44.783  31.026  29.608  1.00  0.00    -0.354 N 
ATOM     53  N   UNL A   1      42.122  32.078  30.258  1.00  0.00    -0.248 NA
ATOM     54  C   UNL A   1      40.761  33.745  31.170  1.00  0.00     0.031 C 
ATOM     55  C   UNL A   1      46.557  32.276  30.076  1.00  0.00     0.029 A 
ATOM     56  C   UNL A   1      45.174  32.237  30.156  1.00  0.00     0.049 A 
ATOM     57  H   UNL A   1      43.851  30.717  29.530  1.00  0.00     0.167 HD
ATOM     58  C   UNL A   1      42.923  33.119  30.718  1.00  0.00     0.074 A 
ATOM     59  C   UNL A   1      42.029  34.129  31.248  1.00  0.00     0.031 C 
ATOM     60  C   UNL A   1      44.275  33.227  30.697  1.00  0.00     0.031 A 
BRANCH  47  61
ATOM     61  C   UNL A   1      47.155  28.301  28.292  1.00  0.00    -0.014 A 
ATOM     62  C   UNL A   1      47.703  27.339  29.162  1.00  0.00     0.010 A 
ATOM     63  C   UNL A   1      47.848  28.629  27.114  1.00  0.00     0.010 A 
ATOM     64  C   UNL A   1      48.951  26.771  28.892  1.00  0.00     0.020 A 
ATOM     65  C   UNL A   1      49.083  28.041  26.825  1.00  0.00     0.020 A 
ATOM     66  C   UNL A   1      49.639  27.137  27.731  1.00  0.00     0.054 A 
BRANCH  66  67
ATOM     67  S   UNL A   1      51.272  26.413  27.417  1.00  0.00     0.124 S 
ATOM     68  O   UNL A   1      52.062  26.970  28.513  1.00  0.00    -0.237 OA
ATOM     69  O   UNL A   1      51.010  24.978  27.501  1.00  0.00    -0.237 OA
ATOM     70  O   UNL A   1      51.620  26.902  26.087  1.00  0.00    -0.744 OA
ENDBRANCH  66  67
ENDBRANCH  47  61
BRANCH  48  71
ATOM     71  C   UNL A   1      38.285  32.262  30.590  1.00  0.00    -0.014 A 
ATOM     72  C   UNL A   1      37.710  31.943  31.831  1.00  0.00     0.010 A 
ATOM     73  C   UNL A   1      37.626  33.171  29.741  1.00  0.00     0.010 A 
ATOM     74  C   UNL A   1      36.504  32.535  32.223  1.00  0.00     0.020 A 
ATOM     75  C   UNL A   1      36.435  33.782  30.139  1.00  0.00     0.020 A 
ATOM     76  C   UNL A   1      35.881  33.459  31.379  1.00  0.00     0.054 A 
BRANCH  76  77
ATOM     77  S   UNL A   1      34.378  34.298  31.957  1.00  0.00     0.124 S 
ATOM     78  O   UNL A   1      33.763  33.276  32.797  1.00  0.00    -0.237 OA
ATOM     79  O   UNL A   1      34.918  35.458  32.662  1.00  0.00    -0.237 OA
ATOM     80  O   UNL A   1      33.665  34.609  30.720  1.00  0.00    -0.744 OA
ENDBRANCH  76  77
ENDBRANCH  48  71
BRANCH  60  81
ATOM     81  C   UNL A   1      44.879  34.492  31.250  1.00  0.00    -0.014 A 
ATOM     82  C   UNL A   1      45.067  35.626  30.438  1.00  0.00     0.010 A 
ATOM     83  C   UNL A   1      45.209  34.566  32.616  1.00  0.00     0.010 A 
ATOM     84  C   UNL A   1      45.600  36.801  30.979  1.00  0.00     0.020 A 
ATOM     85  C   UNL A   1      45.717  35.747  33.165  1.00  0.00     0.020 A 
ATOM     86  C   UNL A   1      45.922  36.854  32.338  1.00  0.00     0.054 A 
BRANCH  86  87
ATOM     87  S   UNL A   1      46.570  38.403  33.025  1.00  0.00     0.124 S 
ATOM     88  O   UNL A   1      45.955  39.402  32.156  1.00  0.00    -0.237 OA
ATOM     89  O   UNL A   1      46.076  38.376  34.399  1.00  0.00    -0.237 OA
ATOM     90  O   UNL A   1      48.017  38.264  32.887  1.00  0.00    -0.744 OA
ENDBRANCH  86  87
ENDBRANCH  60  81
ENDBRANCH  34  35
ENDBRANCH  27  29
ENDBRANCH  26  27
ENDBRANCH  25  26
ENDBRANCH  24  25
ENDBRANCH   1  24
TORSDOF 20
ENDMDL
MODEL 3
REMARK VINA RESULT:      -9.3      6.932     13.316
REMARK SMILES CCOc1ccc(-c2nc(C(=O)OCCOCCOC(=O)c3ccc(-c4c5nc(c(-c6ccc(S(=O)(=O)[O-])cc6)c6ccc([nH]6)c(-c6ccc(S(=O)(=O)[O-])cc6)c6nc(c(-c7ccc(S(=O)(=O)[O-])cc7)c7ccc4[nH]7)C=C6)C=C5)cc3)cc(=O)[nH]2)cc1
REMARK SMILES IDX 16 1 15 2 14 3 13 4 11 5 12 6 10 7 8 8 9 9 85 10 83 11 82 13
REMARK SMILES IDX 84 14 7 15 4 16 5 17 87 18 6 19 86 20 3 21 2 22 1 23 17 24
REMARK SMILES IDX 18 25 19 26 20 27 21 28 22 29 23 30 81 31 24 32 80 33 25 34
REMARK SMILES IDX 26 35 27 36 74 37 28 38 79 39 73 40 75 41 29 42 78 43 72 44
REMARK SMILES IDX 71 45 30 47 60 48 41 49 59 50 42 51 45 52 58 53 76 54 43 55
REMARK SMILES IDX 44 56 57 58 77 59 46 60 31 61 32 62 40 63 33 64 39 65 34 66
REMARK SMILES IDX 35 67 36 68 37 69 38 70 61 71 62 72 70 73 63 74 69 75 64 76
REMARK SMILES IDX 65 77 66 78 67 79 68 80 47 81 48 82 56 83 49 84 55 85 50 86
REMARK SMILES IDX 51 87 52 88 53 89 54 90
REMARK H PARENT 85 12 75 46 45 57
REMARK Flexibility Score: inf
ROOT
ATOM      1  O   UNL A   1      37.491  21.559  25.493  1.00  0.00    -0.374 OA
ENDROOT
BRANCH   1   2
ATOM      2  C   UNL A   1      36.259  21.722  24.789  1.00  0.00     0.202 C 
BRANCH   2   3
ATOM      3  C   UNL A   1      35.160  22.484  25.538  1.00  0.00     0.261 C 
BRANCH   3   4
ATOM      4  O   UNL A   1      33.908  21.787  25.443  1.00  0.00    -0.459 OA
BRANCH   4   5
ATOM      5  C   UNL A   1      33.063  22.246  24.482  1.00  0.00     0.357 C 
ATOM      6  O   UNL A   1      33.095  21.951  23.296  1.00  0.00    -0.244 OA
BRANCH   5   7
ATOM      7  C   UNL A   1      31.954  23.050  25.102  1.00  0.00     0.156 A 
ATOM      8  C   UNL A   1      30.750  24.986  25.040  1.00  0.00     0.141 A 
ATOM      9  N   UNL A   1      31.661  24.253  24.498  1.00  0.00    -0.223 NA
ATOM     10  N   UNL A   1      30.054  24.614  26.157  1.00  0.00    -0.306 N 
ATOM     11  C   UNL A   1      30.257  23.409  26.760  1.00  0.00     0.251 A 
ATOM     12  H   UNL A   1      29.389  25.234  26.535  1.00  0.00     0.171 HD
ATOM     13  C   UNL A   1      31.314  22.570  26.177  1.00  0.00     0.107 A 
ATOM     14  O   UNL A   1      29.600  23.038  27.725  1.00  0.00    -0.269 OA
BRANCH   8  15
ATOM     15  C   UNL A   1      30.398  26.280  24.438  1.00  0.00     0.018 A 
ATOM     16  C   UNL A   1      29.668  28.804  23.547  1.00  0.00     0.119 A 
ATOM     17  C   UNL A   1      28.790  27.731  23.382  1.00  0.00     0.047 A 
ATOM     18  C   UNL A   1      30.901  28.624  24.170  1.00  0.00     0.047 A 
ATOM     19  C   UNL A   1      29.158  26.456  23.819  1.00  0.00     0.016 A 
ATOM     20  C   UNL A   1      31.271  27.357  24.616  1.00  0.00     0.016 A 
BRANCH  16  21
ATOM     21  O   UNL A   1      29.227  30.058  23.226  1.00  0.00    -0.494 OA
BRANCH  21  22
ATOM     22  C   UNL A   1      29.411  30.379  21.844  1.00  0.00     0.226 C 
ATOM     23  C   UNL A   1      28.085  30.665  21.159  1.00  0.00     0.049 C 
ENDBRANCH  21  22
ENDBRANCH  16  21
ENDBRANCH   8  15
ENDBRANCH   5   7
ENDBRANCH   4   5
ENDBRANCH   3   4
ENDBRANCH   2   3
ENDBRANCH   1   2
BRANCH   1  24
ATOM     24  C   UNL A   1      38.128  22.746  25.968  1.00  0.00     0.202 C 
BRANCH  24  25
ATOM     25  C   UNL A   1      39.590  22.597  26.406  1.00  0.00     0.261 C 
BRANCH  25  26
ATOM     26  O   UNL A   1      39.916  23.471  27.503  1.00  0.00    -0.460 OA
BRANCH  26  27
ATOM     27  C   UNL A   1      40.776  24.472  27.196  1.00  0.00     0.338 C 
ATOM     28  O   UNL A   1      41.526  24.527  26.231  1.00  0.00    -0.246 OA
BRANCH  27  29
ATOM     29  C   UNL A   1      40.567  25.613  28.105  1.00  0.00     0.060 A 
ATOM     30  C   UNL A   1      41.650  26.477  28.316  1.00  0.00     0.016 A 
ATOM     31  C   UNL A   1      39.364  25.807  28.787  1.00  0.00     0.016 A 
ATOM     32  C   UNL A   1      41.549  27.509  29.246  1.00  0.00     0.010 A 
ATOM     33  C   UNL A   1      39.267  26.839  29.726  1.00  0.00     0.010 A 
ATOM     34  C   UNL A   1      40.371  27.672  29.985  1.00  0.00    -0.014 A 
BRANCH  34  35
ATOM     35  C   UNL A   1      40.343  28.629  31.117  1.00  0.00     0.031 A 
ATOM     36  C   UNL A   1      39.351  29.760  31.099  1.00  0.00     0.074 A 
ATOM     37  C   UNL A   1      41.180  28.485  32.160  1.00  0.00     0.049 A 
ATOM     38  N   UNL A   1      39.163  30.710  31.978  1.00  0.00    -0.248 NA
ATOM     39  C   UNL A   1      38.459  29.828  29.932  1.00  0.00     0.031 C 
ATOM     40  C   UNL A   1      42.168  27.418  32.308  1.00  0.00     0.029 A 
ATOM     41  N   UNL A   1      41.335  29.250  33.289  1.00  0.00    -0.354 N 
ATOM     42  C   UNL A   1      38.137  31.497  31.467  1.00  0.00     0.074 A 
ATOM     43  C   UNL A   1      37.767  30.928  30.188  1.00  0.00     0.031 C 
ATOM     44  C   UNL A   1      42.840  27.605  33.456  1.00  0.00     0.029 A 
ATOM     45  C   UNL A   1      42.348  28.819  34.108  1.00  0.00     0.049 A 
ATOM     46  H   UNL A   1      40.774  30.033  33.492  1.00  0.00     0.167 HD
ATOM     47  C   UNL A   1      37.553  32.592  32.013  1.00  0.00     0.031 A 
ATOM     48  C   UNL A   1      42.841  29.349  35.245  1.00  0.00     0.031 A 
ATOM     49  C   UNL A   1      37.940  33.170  33.273  1.00  0.00     0.049 A 
ATOM     50  C   UNL A   1      42.217  30.595  35.812  1.00  0.00     0.074 A 
ATOM     51  C   UNL A   1      37.394  34.262  33.923  1.00  0.00     0.029 A 
ATOM     52  N   UNL A   1      38.984  32.714  34.064  1.00  0.00    -0.354 N 
ATOM     53  N   UNL A   1      41.217  31.303  35.341  1.00  0.00    -0.248 NA
ATOM     54  C   UNL A   1      42.779  31.108  37.069  1.00  0.00     0.031 C 
ATOM     55  C   UNL A   1      38.145  34.501  35.080  1.00  0.00     0.029 A 
ATOM     56  C   UNL A   1      39.120  33.521  35.182  1.00  0.00     0.049 A 
ATOM     57  H   UNL A   1      39.546  31.932  33.863  1.00  0.00     0.167 HD
ATOM     58  C   UNL A   1      41.019  32.335  36.253  1.00  0.00     0.074 A 
ATOM     59  C   UNL A   1      41.994  32.150  37.309  1.00  0.00     0.031 C 
ATOM     60  C   UNL A   1      40.107  33.339  36.219  1.00  0.00     0.031 A 
BRANCH  47  61
ATOM     61  C   UNL A   1      36.465  33.257  31.210  1.00  0.00    -0.014 A 
ATOM     62  C   UNL A   1      36.735  33.853  29.964  1.00  0.00     0.010 A 
ATOM     63  C   UNL A   1      35.156  33.304  31.721  1.00  0.00     0.010 A 
ATOM     64  C   UNL A   1      35.731  34.541  29.277  1.00  0.00     0.020 A 
ATOM     65  C   UNL A   1      34.142  33.966  31.023  1.00  0.00     0.020 A 
ATOM     66  C   UNL A   1      34.444  34.604  29.819  1.00  0.00     0.054 A 
BRANCH  66  67
ATOM     67  S   UNL A   1      33.164  35.530  28.927  1.00  0.00     0.124 S 
ATOM     68  O   UNL A   1      32.500  34.471  28.170  1.00  0.00    -0.237 OA
ATOM     69  O   UNL A   1      32.376  36.116  30.009  1.00  0.00    -0.237 OA
ATOM     70  O   UNL A   1      33.922  36.486  28.126  1.00  0.00    -0.744 OA
ENDBRANCH  66  67
ENDBRANCH  47  61
BRANCH  48  71
ATOM     71  C   UNL A   1      44.003  28.696  35.905  1.00  0.00    -0.014 A 
ATOM     72  C   UNL A   1      45.315  29.108  35.625  1.00  0.00     0.010 A 
ATOM     73  C   UNL A   1      43.788  27.698  36.875  1.00  0.00     0.010 A 
ATOM     74  C   UNL A   1      46.395  28.544  36.312  1.00  0.00     0.020 A 
ATOM     75  C   UNL A   1      44.862  27.149  37.580  1.00  0.00     0.020 A 
ATOM     76  C   UNL A   1      46.160  27.576  37.294  1.00  0.00     0.054 A 
BRANCH  76  77
ATOM     77  S   UNL A   1      47.565  26.940  38.250  1.00  0.00     0.124 S 
ATOM     78  O   UNL A   1      47.026  25.698  38.794  1.00  0.00    -0.237 OA
ATOM     79  O   UNL A   1      48.598  26.789  37.228  1.00  0.00    -0.237 OA
ATOM     80  O   UNL A   1      47.818  27.996  39.228  1.00  0.00    -0.744 OA
ENDBRANCH  76  77
ENDBRANCH  48  71
BRANCH  60  81
ATOM     81  C   UNL A   1      40.104  34.315  37.367  1.00  0.00    -0.014 A 
ATOM     82  C   UNL A   1      39.352  34.070  38.530  1.00  0.00     0.010 A 
ATOM     83  C   UNL A   1      40.914  35.465  37.304  1.00  0.00     0.010 A 
ATOM     84  C   UNL A   1      39.389  34.973  39.598  1.00  0.00     0.020 A 
ATOM     85  C   UNL A   1      40.973  36.354  38.379  1.00  0.00     0.020 A 
ATOM     86  C   UNL A   1      40.199  36.109  39.516  1.00  0.00     0.054 A 
BRANCH  86  87
ATOM     87  S   UNL A   1      40.264  37.243  40.931  1.00  0.00     0.124 S 
ATOM     88  O   UNL A   1      41.420  38.072  40.603  1.00  0.00    -0.237 OA
ATOM     89  O   UNL A   1      38.969  37.915  40.864  1.00  0.00    -0.237 OA
ATOM     90  O   UNL A   1      40.440  36.355  42.078  1.00  0.00    -0.744 OA
ENDBRANCH  86  87
ENDBRANCH  60  81
ENDBRANCH  34  35
ENDBRANCH  27  29
ENDBRANCH  26  27
ENDBRANCH  25  26
ENDBRANCH  24  25
ENDBRANCH   1  24
TORSDOF 20
ENDMDL
