MODEL 1
REMARK VINA RESULT:      -9.8      0.000      0.000
REMARK SMILES Nc1ccc(Cl)c(SC[C@H]2CC[C@H](C(=O)OCCOCCOC(=O)c3ccc(-c4c5nc(c(-c6ccc(S(=O)(=O)[O-])cc6)c6ccc([nH]6)c(-c6ccc(S(=O)(=O)[O-])cc6)c6nc(c(-c7ccc(S(=O)(=O)[O-])cc7)c7ccc4[nH]7)C=C6)C=C5)cc3)O2)c1
REMARK SMILES IDX 18 1 17 2 16 3 14 4 15 5 13 6 10 7 11 8 85 9 12 10 9 11 8 12
REMARK SMILES IDX 7 13 2 14 3 15 86 16 4 17 5 18 6 19 1 20 19 23 20 24 21 25
REMARK SMILES IDX 22 26 23 27 24 28 25 29 26 30 84 31 27 32 83 33 28 34 29 35
REMARK SMILES IDX 30 36 77 37 31 38 82 39 76 40 78 41 32 42 81 43 75 44 74 45
REMARK SMILES IDX 33 47 63 48 44 49 62 50 45 51 48 52 61 53 79 54 46 55 47 56
REMARK SMILES IDX 60 58 80 59 49 60 34 61 35 62 43 63 36 64 42 65 37 66 38 67
REMARK SMILES IDX 39 68 40 69 41 70 64 71 65 72 73 73 66 74 72 75 67 76 68 77
REMARK SMILES IDX 69 78 70 79 71 80 50 81 51 82 59 83 52 84 58 85 53 86 54 87
REMARK SMILES IDX 55 88 56 89 57 90
REMARK H PARENT 1 21 1 22 78 46 48 57
REMARK Flexibility Score: inf
ROOT
ATOM      1  C   UNL A   1      34.853  34.046  29.426  1.00  0.00     0.202 C 
ENDROOT
BRANCH   1   2
ATOM      2  C   UNL A   1      34.605  33.505  28.017  1.00  0.00     0.261 C 
BRANCH   2   3
ATOM      3  O   UNL A   1      33.594  32.487  27.983  1.00  0.00    -0.461 OA
BRANCH   3   4
ATOM      4  C   UNL A   1      34.031  31.258  27.596  1.00  0.00     0.335 C 
ATOM      5  O   UNL A   1      35.209  30.928  27.496  1.00  0.00    -0.249 OA
BRANCH   4   6
ATOM      6  C   UNL A   1      32.880  30.303  27.307  1.00  0.00     0.228 C 
ATOM      7  C   UNL A   1      32.496  28.393  26.036  1.00  0.00     0.129 C 
ATOM      8  C   UNL A   1      31.955  29.555  25.226  1.00  0.00     0.036 C 
ATOM      9  O   UNL A   1      33.360  28.987  27.007  1.00  0.00    -0.362 OA
ATOM     10  C   UNL A   1      31.919  30.709  26.198  1.00  0.00     0.047 C 
BRANCH   7  11
ATOM     11  C   UNL A   1      31.449  27.437  26.652  1.00  0.00     0.107 C 
BRANCH  11  12
ATOM     12  S   UNL A   1      31.123  25.797  25.881  1.00  0.00    -0.122 SA
BRANCH  12  13
ATOM     13  C   UNL A   1      32.749  25.019  25.682  1.00  0.00     0.028 A 
ATOM     14  C   UNL A   1      34.404  23.328  26.343  1.00  0.00     0.033 A 
ATOM     15  C   UNL A   1      35.187  23.657  25.242  1.00  0.00     0.027 A 
ATOM     16  C   UNL A   1      33.239  24.066  26.589  1.00  0.00     0.042 A 
ATOM     17  C   UNL A   1      34.765  24.645  24.352  1.00  0.00     0.024 A 
ATOM     18  C   UNL A   1      33.550  25.310  24.558  1.00  0.00     0.054 A 
ATOM     19  Cl  UNL A   1      33.102  26.482  23.360  1.00  0.00    -0.083 Cl
BRANCH  14  20
ATOM     20  N   UNL A   1      34.830  22.372  27.253  1.00  0.00    -0.399 N 
ATOM     21  H   UNL A   1      34.344  21.519  27.336  1.00  0.00     0.156 HD
ATOM     22  H   UNL A   1      35.618  22.545  27.817  1.00  0.00     0.156 HD
ENDBRANCH  14  20
ENDBRANCH  12  13
ENDBRANCH  11  12
ENDBRANCH   7  11
ENDBRANCH   4   6
ENDBRANCH   3   4
ENDBRANCH   2   3
ENDBRANCH   1   2
BRANCH   1  23
ATOM     23  O   UNL A   1      34.054  33.513  30.481  1.00  0.00    -0.374 OA
BRANCH  23  24
ATOM     24  C   UNL A   1      34.703  32.702  31.458  1.00  0.00     0.202 C 
BRANCH  24  25
ATOM     25  C   UNL A   1      36.149  32.281  31.164  1.00  0.00     0.261 C 
BRANCH  25  26
ATOM     26  O   UNL A   1      36.241  30.935  30.660  1.00  0.00    -0.460 OA
BRANCH  26  27
ATOM     27  C   UNL A   1      36.954  30.081  31.435  1.00  0.00     0.338 C 
ATOM     28  O   UNL A   1      36.613  29.596  32.506  1.00  0.00    -0.246 OA
BRANCH  27  29
ATOM     29  C   UNL A   1      38.164  29.640  30.719  1.00  0.00     0.060 A 
ATOM     30  C   UNL A   1      39.248  29.187  31.483  1.00  0.00     0.016 A 
ATOM     31  C   UNL A   1      38.265  29.735  29.331  1.00  0.00     0.016 A 
ATOM     32  C   UNL A   1      40.446  28.842  30.861  1.00  0.00     0.010 A 
ATOM     33  C   UNL A   1      39.476  29.405  28.710  1.00  0.00     0.010 A 
ATOM     34  C   UNL A   1      40.578  28.976  29.473  1.00  0.00    -0.014 A 
BRANCH  34  35
ATOM     35  C   UNL A   1      41.893  28.755  28.826  1.00  0.00     0.031 A 
ATOM     36  C   UNL A   1      42.244  27.385  28.314  1.00  0.00     0.074 A 
ATOM     37  C   UNL A   1      42.767  29.769  28.695  1.00  0.00     0.049 A 
ATOM     38  N   UNL A   1      43.363  26.963  27.785  1.00  0.00    -0.248 NA
ATOM     39  C   UNL A   1      41.194  26.358  28.407  1.00  0.00     0.031 C 
ATOM     40  C   UNL A   1      42.525  31.152  29.102  1.00  0.00     0.029 A 
ATOM     41  N   UNL A   1      44.045  29.785  28.191  1.00  0.00    -0.354 N 
ATOM     42  C   UNL A   1      43.159  25.621  27.490  1.00  0.00     0.074 A 
ATOM     43  C   UNL A   1      41.814  25.294  27.915  1.00  0.00     0.031 C 
ATOM     44  C   UNL A   1      43.625  31.881  28.845  1.00  0.00     0.029 A 
ATOM     45  C   UNL A   1      44.661  31.008  28.297  1.00  0.00     0.049 A 
ATOM     46  H   UNL A   1      44.478  28.995  27.792  1.00  0.00     0.167 HD
ATOM     47  C   UNL A   1      44.013  24.740  26.916  1.00  0.00     0.031 A 
ATOM     48  C   UNL A   1      45.927  31.376  28.018  1.00  0.00     0.031 A 
ATOM     49  C   UNL A   1      45.357  25.063  26.511  1.00  0.00     0.049 A 
ATOM     50  C   UNL A   1      46.894  30.354  27.480  1.00  0.00     0.074 A 
ATOM     51  C   UNL A   1      46.292  24.244  25.903  1.00  0.00     0.029 A 
ATOM     52  N   UNL A   1      45.961  26.298  26.687  1.00  0.00    -0.354 N 
ATOM     53  N   UNL A   1      46.678  29.095  27.184  1.00  0.00    -0.248 NA
ATOM     54  C   UNL A   1      48.275  30.801  27.246  1.00  0.00     0.031 C 
ATOM     55  C   UNL A   1      47.483  24.965  25.768  1.00  0.00     0.029 A 
ATOM     56  C   UNL A   1      47.270  26.252  26.238  1.00  0.00     0.049 A 
ATOM     57  H   UNL A   1      45.524  27.091  27.074  1.00  0.00     0.167 HD
ATOM     58  C   UNL A   1      47.892  28.604  26.713  1.00  0.00     0.074 A 
ATOM     59  C   UNL A   1      48.832  29.705  26.750  1.00  0.00     0.031 C 
ATOM     60  C   UNL A   1      48.199  27.352  26.290  1.00  0.00     0.031 A 
BRANCH  47  61
ATOM     61  C   UNL A   1      43.534  23.326  26.729  1.00  0.00    -0.014 A 
ATOM     62  C   UNL A   1      43.490  22.734  25.455  1.00  0.00     0.010 A 
ATOM     63  C   UNL A   1      43.163  22.564  27.852  1.00  0.00     0.010 A 
ATOM     64  C   UNL A   1      43.048  21.415  25.304  1.00  0.00     0.020 A 
ATOM     65  C   UNL A   1      42.744  21.239  27.708  1.00  0.00     0.020 A 
ATOM     66  C   UNL A   1      42.674  20.678  26.432  1.00  0.00     0.054 A 
BRANCH  66  67
ATOM     67  S   UNL A   1      42.123  18.964  26.208  1.00  0.00     0.124 S 
ATOM     68  O   UNL A   1      42.277  18.422  27.556  1.00  0.00    -0.237 OA
ATOM     69  O   UNL A   1      40.746  19.127  25.751  1.00  0.00    -0.237 OA
ATOM     70  O   UNL A   1      43.048  18.428  25.213  1.00  0.00    -0.744 OA
ENDBRANCH  66  67
ENDBRANCH  47  61
BRANCH  48  71
ATOM     71  C   UNL A   1      46.369  32.772  28.288  1.00  0.00    -0.014 A 
ATOM     72  C   UNL A   1      46.277  33.761  27.293  1.00  0.00     0.010 A 
ATOM     73  C   UNL A   1      46.880  33.118  29.553  1.00  0.00     0.010 A 
ATOM     74  C   UNL A   1      46.695  35.068  27.557  1.00  0.00     0.020 A 
ATOM     75  C   UNL A   1      47.274  34.430  29.828  1.00  0.00     0.020 A 
ATOM     76  C   UNL A   1      47.186  35.396  28.825  1.00  0.00     0.054 A 
BRANCH  76  77
ATOM     77  S   UNL A   1      47.660  37.113  29.165  1.00  0.00     0.124 S 
ATOM     78  O   UNL A   1      46.542  37.581  29.978  1.00  0.00    -0.237 OA
ATOM     79  O   UNL A   1      48.932  36.956  29.867  1.00  0.00    -0.237 OA
ATOM     80  O   UNL A   1      47.762  37.708  27.835  1.00  0.00    -0.744 OA
ENDBRANCH  76  77
ENDBRANCH  48  71
BRANCH  60  81
ATOM     81  C   UNL A   1      49.607  27.100  25.820  1.00  0.00    -0.014 A 
ATOM     82  C   UNL A   1      50.558  26.510  26.672  1.00  0.00     0.010 A 
ATOM     83  C   UNL A   1      49.961  27.385  24.489  1.00  0.00     0.010 A 
ATOM     84  C   UNL A   1      51.843  26.223  26.203  1.00  0.00     0.020 A 
ATOM     85  C   UNL A   1      51.238  27.076  24.010  1.00  0.00     0.020 A 
ATOM     86  C   UNL A   1      52.174  26.505  24.875  1.00  0.00     0.054 A 
BRANCH  86  87
ATOM     87  S   UNL A   1      53.828  26.060  24.274  1.00  0.00     0.124 S 
ATOM     88  O   UNL A   1      54.683  26.957  25.048  1.00  0.00    -0.237 OA
ATOM     89  O   UNL A   1      53.925  24.645  24.621  1.00  0.00    -0.237 OA
ATOM     90  O   UNL A   1      53.764  26.343  22.842  1.00  0.00    -0.744 OA
ENDBRANCH  86  87
ENDBRANCH  60  81
ENDBRANCH  34  35
ENDBRANCH  27  29
ENDBRANCH  26  27
ENDBRANCH  25  26
ENDBRANCH  24  25
ENDBRANCH  23  24
ENDBRANCH   1  23
TORSDOF 21
ENDMDL
MODEL 2
REMARK VINA RESULT:      -9.5      1.463      2.098
REMARK SMILES Nc1ccc(Cl)c(SC[C@H]2CC[C@H](C(=O)OCCOCCOC(=O)c3ccc(-c4c5nc(c(-c6ccc(S(=O)(=O)[O-])cc6)c6ccc([nH]6)c(-c6ccc(S(=O)(=O)[O-])cc6)c6nc(c(-c7ccc(S(=O)(=O)[O-])cc7)c7ccc4[nH]7)C=C6)C=C5)cc3)O2)c1
REMARK SMILES IDX 18 1 17 2 16 3 14 4 15 5 13 6 10 7 11 8 85 9 12 10 9 11 8 12
REMARK SMILES IDX 7 13 2 14 3 15 86 16 4 17 5 18 6 19 1 20 19 23 20 24 21 25
REMARK SMILES IDX 22 26 23 27 24 28 25 29 26 30 84 31 27 32 83 33 28 34 29 35
REMARK SMILES IDX 30 36 77 37 31 38 82 39 76 40 78 41 32 42 81 43 75 44 74 45
REMARK SMILES IDX 33 47 63 48 44 49 62 50 45 51 48 52 61 53 79 54 46 55 47 56
REMARK SMILES IDX 60 58 80 59 49 60 34 61 35 62 43 63 36 64 42 65 37 66 38 67
REMARK SMILES IDX 39 68 40 69 41 70 64 71 65 72 73 73 66 74 72 75 67 76 68 77
REMARK SMILES IDX 69 78 70 79 71 80 50 81 51 82 59 83 52 84 58 85 53 86 54 87
REMARK SMILES IDX 55 88 56 89 57 90
REMARK H PARENT 1 21 1 22 78 46 48 57
REMARK Flexibility Score: inf
ROOT
ATOM      1  C   UNL A   1      34.904  30.621  27.662  1.00  0.00     0.202 C 
ENDROOT
BRANCH   1   2
ATOM      2  C   UNL A   1      34.088  29.406  27.215  1.00  0.00     0.261 C 
BRANCH   2   3
ATOM      3  O   UNL A   1      33.717  29.466  25.829  1.00  0.00    -0.461 OA
BRANCH   3   4
ATOM      4  C   UNL A   1      32.390  29.296  25.583  1.00  0.00     0.335 C 
ATOM      5  O   UNL A   1      31.509  30.097  25.882  1.00  0.00    -0.249 OA
BRANCH   4   6
ATOM      6  C   UNL A   1      32.102  27.984  24.865  1.00  0.00     0.228 C 
ATOM      7  C   UNL A   1      32.730  25.749  25.030  1.00  0.00     0.129 C 
ATOM      8  C   UNL A   1      33.591  26.351  23.936  1.00  0.00     0.036 C 
ATOM      9  O   UNL A   1      32.218  26.868  25.757  1.00  0.00    -0.362 OA
ATOM     10  C   UNL A   1      32.944  27.680  23.634  1.00  0.00     0.047 C 
BRANCH   7  11
ATOM     11  C   UNL A   1      31.632  24.761  24.575  1.00  0.00     0.107 C 
BRANCH  11  12
ATOM     12  S   UNL A   1      32.019  23.452  23.339  1.00  0.00    -0.122 SA
BRANCH  12  13
ATOM     13  C   UNL A   1      33.087  22.266  24.201  1.00  0.00     0.028 A 
ATOM     14  C   UNL A   1      33.377  20.192  25.484  1.00  0.00     0.033 A 
ATOM     15  C   UNL A   1      34.757  20.300  25.356  1.00  0.00     0.027 A 
ATOM     16  C   UNL A   1      32.568  21.215  24.974  1.00  0.00     0.042 A 
ATOM     17  C   UNL A   1      35.314  21.366  24.650  1.00  0.00     0.024 A 
ATOM     18  C   UNL A   1      34.488  22.333  24.062  1.00  0.00     0.054 A 
ATOM     19  Cl  UNL A   1      35.288  23.583  23.165  1.00  0.00    -0.083 Cl
BRANCH  14  20
ATOM     20  N   UNL A   1      32.813  19.155  26.214  1.00  0.00    -0.399 N 
ATOM     21  H   UNL A   1      32.172  18.543  25.785  1.00  0.00     0.156 HD
ATOM     22  H   UNL A   1      33.054  19.030  27.160  1.00  0.00     0.156 HD
ENDBRANCH  14  20
ENDBRANCH  12  13
ENDBRANCH  11  12
ENDBRANCH   7  11
ENDBRANCH   4   6
ENDBRANCH   3   4
ENDBRANCH   2   3
ENDBRANCH   1   2
BRANCH   1  23
ATOM     23  O   UNL A   1      34.244  31.587  28.477  1.00  0.00    -0.374 OA
BRANCH  23  24
ATOM     24  C   UNL A   1      35.055  32.515  29.193  1.00  0.00     0.202 C 
BRANCH  24  25
ATOM     25  C   UNL A   1      35.266  32.244  30.690  1.00  0.00     0.261 C 
BRANCH  25  26
ATOM     26  O   UNL A   1      36.637  31.932  31.006  1.00  0.00    -0.460 OA
BRANCH  26  27
ATOM     27  C   UNL A   1      36.950  30.614  30.962  1.00  0.00     0.338 C 
ATOM     28  O   UNL A   1      36.193  29.669  31.145  1.00  0.00    -0.246 OA
BRANCH  27  29
ATOM     29  C   UNL A   1      38.326  30.438  30.466  1.00  0.00     0.060 A 
ATOM     30  C   UNL A   1      38.523  30.403  29.079  1.00  0.00     0.016 A 
ATOM     31  C   UNL A   1      39.395  30.237  31.339  1.00  0.00     0.016 A 
ATOM     32  C   UNL A   1      39.791  30.150  28.559  1.00  0.00     0.010 A 
ATOM     33  C   UNL A   1      40.664  29.966  30.814  1.00  0.00     0.010 A 
ATOM     34  C   UNL A   1      40.865  29.902  29.423  1.00  0.00    -0.014 A 
BRANCH  34  35
ATOM     35  C   UNL A   1      42.178  29.486  28.876  1.00  0.00     0.031 A 
ATOM     36  C   UNL A   1      42.377  28.064  28.431  1.00  0.00     0.074 A 
ATOM     37  C   UNL A   1      43.186  30.371  28.777  1.00  0.00     0.049 A 
ATOM     38  N   UNL A   1      43.462  27.479  27.994  1.00  0.00    -0.248 NA
ATOM     39  C   UNL A   1      41.196  27.186  28.481  1.00  0.00     0.031 C 
ATOM     40  C   UNL A   1      43.103  31.789  29.124  1.00  0.00     0.029 A 
ATOM     41  N   UNL A   1      44.484  30.201  28.363  1.00  0.00    -0.354 N 
ATOM     42  C   UNL A   1      43.101  26.164  27.726  1.00  0.00     0.074 A 
ATOM     43  C   UNL A   1      41.701  26.033  28.065  1.00  0.00     0.031 C 
ATOM     44  C   UNL A   1      44.305  32.358  28.924  1.00  0.00     0.029 A 
ATOM     45  C   UNL A   1      45.250  31.337  28.476  1.00  0.00     0.049 A 
ATOM     46  H   UNL A   1      44.834  29.347  28.019  1.00  0.00     0.167 HD
ATOM     47  C   UNL A   1      43.867  25.158  27.239  1.00  0.00     0.031 A 
ATOM     48  C   UNL A   1      46.569  31.525  28.274  1.00  0.00     0.031 A 
ATOM     49  C   UNL A   1      45.265  25.287  26.920  1.00  0.00     0.049 A 
ATOM     50  C   UNL A   1      47.425  30.367  27.836  1.00  0.00     0.074 A 
ATOM     51  C   UNL A   1      46.121  24.330  26.403  1.00  0.00     0.029 A 
ATOM     52  N   UNL A   1      46.015  26.439  27.100  1.00  0.00    -0.354 N 
ATOM     53  N   UNL A   1      47.063  29.135  27.563  1.00  0.00    -0.248 NA
ATOM     54  C   UNL A   1      48.865  30.620  27.685  1.00  0.00     0.031 C 
ATOM     55  C   UNL A   1      47.403  24.885  26.330  1.00  0.00     0.029 A 
ATOM     56  C   UNL A   1      47.333  26.205  26.746  1.00  0.00     0.049 A 
ATOM     57  H   UNL A   1      45.663  27.296  27.432  1.00  0.00     0.167 HD
ATOM     58  C   UNL A   1      48.229  28.472  27.193  1.00  0.00     0.074 A 
ATOM     59  C   UNL A   1      49.302  29.442  27.262  1.00  0.00     0.031 C 
ATOM     60  C   UNL A   1      48.394  27.176  26.829  1.00  0.00     0.031 A 
BRANCH  47  61
ATOM     61  C   UNL A   1      43.218  23.813  27.061  1.00  0.00    -0.014 A 
ATOM     62  C   UNL A   1      43.181  22.876  28.109  1.00  0.00     0.010 A 
ATOM     63  C   UNL A   1      42.598  23.497  25.838  1.00  0.00     0.010 A 
ATOM     64  C   UNL A   1      42.566  21.633  27.924  1.00  0.00     0.020 A 
ATOM     65  C   UNL A   1      41.962  22.266  25.657  1.00  0.00     0.020 A 
ATOM     66  C   UNL A   1      41.965  21.335  26.697  1.00  0.00     0.054 A 
BRANCH  66  67
ATOM     67  S   UNL A   1      41.158  19.723  26.491  1.00  0.00     0.124 S 
ATOM     68  O   UNL A   1      41.030  19.274  27.876  1.00  0.00    -0.237 OA
ATOM     69  O   UNL A   1      39.906  20.073  25.827  1.00  0.00    -0.237 OA
ATOM     70  O   UNL A   1      42.103  18.963  25.676  1.00  0.00    -0.744 OA
ENDBRANCH  66  67
ENDBRANCH  47  61
BRANCH  48  71
ATOM     71  C   UNL A   1      47.173  32.861  28.533  1.00  0.00    -0.014 A 
ATOM     72  C   UNL A   1      47.288  33.811  27.503  1.00  0.00     0.010 A 
ATOM     73  C   UNL A   1      47.632  33.190  29.822  1.00  0.00     0.010 A 
ATOM     74  C   UNL A   1      47.857  35.062  27.757  1.00  0.00     0.020 A 
ATOM     75  C   UNL A   1      48.178  34.449  30.085  1.00  0.00     0.020 A 
ATOM     76  C   UNL A   1      48.294  35.375  29.047  1.00  0.00     0.054 A 
BRANCH  76  77
ATOM     77  S   UNL A   1      48.969  37.028  29.369  1.00  0.00     0.124 S 
ATOM     78  O   UNL A   1      48.942  37.089  30.826  1.00  0.00    -0.237 OA
ATOM     79  O   UNL A   1      50.295  36.950  28.762  1.00  0.00    -0.237 OA
ATOM     80  O   UNL A   1      48.032  37.916  28.686  1.00  0.00    -0.744 OA
ENDBRANCH  76  77
ENDBRANCH  48  71
BRANCH  60  81
ATOM     81  C   UNL A   1      49.784  26.725  26.467  1.00  0.00    -0.014 A 
ATOM     82  C   UNL A   1      50.688  26.303  27.459  1.00  0.00     0.010 A 
ATOM     83  C   UNL A   1      50.164  26.648  25.115  1.00  0.00     0.010 A 
ATOM     84  C   UNL A   1      51.953  25.826  27.103  1.00  0.00     0.020 A 
ATOM     85  C   UNL A   1      51.419  26.148  24.755  1.00  0.00     0.020 A 
ATOM     86  C   UNL A   1      52.309  25.748  25.753  1.00  0.00     0.054 A 
BRANCH  86  87
ATOM     87  S   UNL A   1      53.931  25.062  25.316  1.00  0.00     0.124 S 
ATOM     88  O   UNL A   1      54.607  25.032  26.611  1.00  0.00    -0.237 OA
ATOM     89  O   UNL A   1      53.587  23.758  24.757  1.00  0.00    -0.237 OA
ATOM     90  O   UNL A   1      54.467  26.024  24.357  1.00  0.00    -0.744 OA
ENDBRANCH  86  87
ENDBRANCH  60  81
ENDBRANCH  34  35
ENDBRANCH  27  29
ENDBRANCH  26  27
ENDBRANCH  25  26
ENDBRANCH  24  25
ENDBRANCH  23  24
ENDBRANCH   1  23
TORSDOF 21
ENDMDL
MODEL 3
REMARK VINA RESULT:      -9.5      1.628      2.323
REMARK SMILES Nc1ccc(Cl)c(SC[C@H]2CC[C@H](C(=O)OCCOCCOC(=O)c3ccc(-c4c5nc(c(-c6ccc(S(=O)(=O)[O-])cc6)c6ccc([nH]6)c(-c6ccc(S(=O)(=O)[O-])cc6)c6nc(c(-c7ccc(S(=O)(=O)[O-])cc7)c7ccc4[nH]7)C=C6)C=C5)cc3)O2)c1
REMARK SMILES IDX 18 1 17 2 16 3 14 4 15 5 13 6 10 7 11 8 85 9 12 10 9 11 8 12
REMARK SMILES IDX 7 13 2 14 3 15 86 16 4 17 5 18 6 19 1 20 19 23 20 24 21 25
REMARK SMILES IDX 22 26 23 27 24 28 25 29 26 30 84 31 27 32 83 33 28 34 29 35
REMARK SMILES IDX 30 36 77 37 31 38 82 39 76 40 78 41 32 42 81 43 75 44 74 45
REMARK SMILES IDX 33 47 63 48 44 49 62 50 45 51 48 52 61 53 79 54 46 55 47 56
REMARK SMILES IDX 60 58 80 59 49 60 34 61 35 62 43 63 36 64 42 65 37 66 38 67
REMARK SMILES IDX 39 68 40 69 41 70 64 71 65 72 73 73 66 74 72 75 67 76 68 77
REMARK SMILES IDX 69 78 70 79 71 80 50 81 51 82 59 83 52 84 58 85 53 86 54 87
REMARK SMILES IDX 55 88 56 89 57 90
REMARK H PARENT 1 21 1 22 78 46 48 57
REMARK Flexibility Score: inf
ROOT
ATOM      1  C   UNL A   1      34.595  34.225  29.932  1.00  0.00     0.202 C 
ENDROOT
BRANCH   1   2
ATOM      2  C   UNL A   1      34.162  33.826  28.519  1.00  0.00     0.261 C 
BRANCH   2   3
ATOM      3  O   UNL A   1      33.685  32.475  28.446  1.00  0.00    -0.461 OA
BRANCH   3   4
ATOM      4  C   UNL A   1      34.520  31.606  27.812  1.00  0.00     0.335 C 
ATOM      5  O   UNL A   1      35.722  31.785  27.637  1.00  0.00    -0.249 OA
BRANCH   4   6
ATOM      6  C   UNL A   1      33.796  30.350  27.346  1.00  0.00     0.228 C 
ATOM      7  C   UNL A   1      33.320  29.274  25.338  1.00  0.00     0.129 C 
ATOM      8  C   UNL A   1      32.074  30.058  25.704  1.00  0.00     0.036 C 
ATOM      9  O   UNL A   1      34.363  29.845  26.130  1.00  0.00    -0.362 OA
ATOM     10  C   UNL A   1      32.292  30.466  27.140  1.00  0.00     0.047 C 
BRANCH   7  11
ATOM     11  C   UNL A   1      33.227  27.737  25.465  1.00  0.00     0.107 C 
BRANCH  11  12
ATOM     12  S   UNL A   1      32.656  26.722  24.038  1.00  0.00    -0.122 SA
BRANCH  12  13
ATOM     13  C   UNL A   1      30.882  27.059  23.878  1.00  0.00     0.028 A 
ATOM     14  C   UNL A   1      29.032  28.369  22.931  1.00  0.00     0.033 A 
ATOM     15  C   UNL A   1      28.117  27.458  23.446  1.00  0.00     0.027 A 
ATOM     16  C   UNL A   1      30.392  28.199  23.221  1.00  0.00     0.042 A 
ATOM     17  C   UNL A   1      28.561  26.346  24.160  1.00  0.00     0.024 A 
ATOM     18  C   UNL A   1      29.932  26.136  24.362  1.00  0.00     0.054 A 
ATOM     19  Cl  UNL A   1      30.370  24.694  25.218  1.00  0.00    -0.083 Cl
BRANCH  14  20
ATOM     20  N   UNL A   1      28.600  29.498  22.249  1.00  0.00    -0.399 N 
ATOM     21  H   UNL A   1      27.742  29.483  21.766  1.00  0.00     0.156 HD
ATOM     22  H   UNL A   1      29.150  30.314  22.248  1.00  0.00     0.156 HD
ENDBRANCH  14  20
ENDBRANCH  12  13
ENDBRANCH  11  12
ENDBRANCH   7  11
ENDBRANCH   4   6
ENDBRANCH   3   4
ENDBRANCH   2   3
ENDBRANCH   1   2
BRANCH   1  23
ATOM     23  O   UNL A   1      33.985  33.535  31.021  1.00  0.00    -0.374 OA
BRANCH  23  24
ATOM     24  C   UNL A   1      34.807  32.669  31.800  1.00  0.00     0.202 C 
BRANCH  24  25
ATOM     25  C   UNL A   1      36.216  32.381  31.265  1.00  0.00     0.261 C 
BRANCH  25  26
ATOM     26  O   UNL A   1      36.327  31.068  30.681  1.00  0.00    -0.460 OA
BRANCH  26  27
ATOM     27  C   UNL A   1      37.002  30.163  31.430  1.00  0.00     0.338 C 
ATOM     28  O   UNL A   1      36.627  29.641  32.473  1.00  0.00    -0.246 OA
BRANCH  27  29
ATOM     29  C   UNL A   1      38.214  29.721  30.719  1.00  0.00     0.060 A 
ATOM     30  C   UNL A   1      39.249  29.157  31.478  1.00  0.00     0.016 A 
ATOM     31  C   UNL A   1      38.368  29.920  29.347  1.00  0.00     0.016 A 
ATOM     32  C   UNL A   1      40.451  28.805  30.867  1.00  0.00     0.010 A 
ATOM     33  C   UNL A   1      39.583  29.581  28.740  1.00  0.00     0.010 A 
ATOM     34  C   UNL A   1      40.637  29.041  29.499  1.00  0.00    -0.014 A 
BRANCH  34  35
ATOM     35  C   UNL A   1      41.962  28.807  28.878  1.00  0.00     0.031 A 
ATOM     36  C   UNL A   1      42.308  27.436  28.367  1.00  0.00     0.074 A 
ATOM     37  C   UNL A   1      42.850  29.812  28.768  1.00  0.00     0.049 A 
ATOM     38  N   UNL A   1      43.432  27.004  27.859  1.00  0.00    -0.248 NA
ATOM     39  C   UNL A   1      41.245  26.420  28.435  1.00  0.00     0.031 C 
ATOM     40  C   UNL A   1      42.615  31.197  29.175  1.00  0.00     0.029 A 
ATOM     41  N   UNL A   1      44.137  29.816  28.290  1.00  0.00    -0.354 N 
ATOM     42  C   UNL A   1      43.220  25.665  27.555  1.00  0.00     0.074 A 
ATOM     43  C   UNL A   1      41.864  25.352  27.952  1.00  0.00     0.031 C 
ATOM     44  C   UNL A   1      43.728  31.915  28.943  1.00  0.00     0.029 A 
ATOM     45  C   UNL A   1      44.765  31.032  28.413  1.00  0.00     0.049 A 
ATOM     46  H   UNL A   1      44.569  29.023  27.896  1.00  0.00     0.167 HD
ATOM     47  C   UNL A   1      44.075  24.777  26.994  1.00  0.00     0.031 A 
ATOM     48  C   UNL A   1      46.040  31.387  28.160  1.00  0.00     0.031 A 
ATOM     49  C   UNL A   1      45.430  25.087  26.617  1.00  0.00     0.049 A 
ATOM     50  C   UNL A   1      47.006  30.357  27.637  1.00  0.00     0.074 A 
ATOM     51  C   UNL A   1      46.368  24.259  26.024  1.00  0.00     0.029 A 
ATOM     52  N   UNL A   1      46.044  26.314  26.809  1.00  0.00    -0.354 N 
ATOM     53  N   UNL A   1      46.783  29.101  27.332  1.00  0.00    -0.248 NA
ATOM     54  C   UNL A   1      48.396  30.789  27.432  1.00  0.00     0.031 C 
ATOM     55  C   UNL A   1      47.569  24.968  25.916  1.00  0.00     0.029 A 
ATOM     56  C   UNL A   1      47.362  26.255  26.387  1.00  0.00     0.049 A 
ATOM     57  H   UNL A   1      45.609  27.110  27.191  1.00  0.00     0.167 HD
ATOM     58  C   UNL A   1      48.000  28.598  26.883  1.00  0.00     0.074 A 
ATOM     59  C   UNL A   1      48.951  29.688  26.943  1.00  0.00     0.031 C 
ATOM     60  C   UNL A   1      48.301  27.345  26.461  1.00  0.00     0.031 A 
BRANCH  47  61
ATOM     61  C   UNL A   1      43.585  23.369  26.792  1.00  0.00    -0.014 A 
ATOM     62  C   UNL A   1      43.851  22.668  25.603  1.00  0.00     0.010 A 
ATOM     63  C   UNL A   1      42.883  22.723  27.826  1.00  0.00     0.010 A 
ATOM     64  C   UNL A   1      43.392  21.356  25.438  1.00  0.00     0.020 A 
ATOM     65  C   UNL A   1      42.443  21.405  27.674  1.00  0.00     0.020 A 
ATOM     66  C   UNL A   1      42.687  20.736  26.474  1.00  0.00     0.054 A 
BRANCH  66  67
ATOM     67  S   UNL A   1      42.120  19.029  26.240  1.00  0.00     0.124 S 
ATOM     68  O   UNL A   1      42.986  18.571  25.156  1.00  0.00    -0.237 OA
ATOM     69  O   UNL A   1      42.375  18.424  27.545  1.00  0.00    -0.237 OA
ATOM     70  O   UNL A   1      40.710  19.176  25.889  1.00  0.00    -0.744 OA
ENDBRANCH  66  67
ENDBRANCH  47  61
BRANCH  48  71
ATOM     71  C   UNL A   1      46.492  32.777  28.444  1.00  0.00    -0.014 A 
ATOM     72  C   UNL A   1      46.761  33.191  29.760  1.00  0.00     0.010 A 
ATOM     73  C   UNL A   1      46.662  33.693  27.388  1.00  0.00     0.010 A 
ATOM     74  C   UNL A   1      47.185  34.499  30.015  1.00  0.00     0.020 A 
ATOM     75  C   UNL A   1      47.110  34.993  27.638  1.00  0.00     0.020 A 
ATOM     76  C   UNL A   1      47.361  35.390  28.952  1.00  0.00     0.054 A 
BRANCH  76  77
ATOM     77  S   UNL A   1      47.974  37.061  29.300  1.00  0.00     0.124 S 
ATOM     78  O   UNL A   1      48.945  36.813  30.361  1.00  0.00    -0.237 OA
ATOM     79  O   UNL A   1      48.533  37.466  28.012  1.00  0.00    -0.237 OA
ATOM     80  O   UNL A   1      46.773  37.787  29.704  1.00  0.00    -0.744 OA
ENDBRANCH  76  77
ENDBRANCH  48  71
BRANCH  60  81
ATOM     81  C   UNL A   1      49.716  27.079  26.019  1.00  0.00    -0.014 A 
ATOM     82  C   UNL A   1      50.665  26.549  26.912  1.00  0.00     0.010 A 
ATOM     83  C   UNL A   1      50.079  27.288  24.676  1.00  0.00     0.010 A 
ATOM     84  C   UNL A   1      51.956  26.247  26.471  1.00  0.00     0.020 A 
ATOM     85  C   UNL A   1      51.363  26.964  24.227  1.00  0.00     0.020 A 
ATOM     86  C   UNL A   1      52.296  26.453  25.130  1.00  0.00     0.054 A 
BRANCH  86  87
ATOM     87  S   UNL A   1      53.959  25.990  24.570  1.00  0.00     0.124 S 
ATOM     88  O   UNL A   1      53.889  26.283  23.140  1.00  0.00    -0.237 OA
ATOM     89  O   UNL A   1      54.818  26.876  25.351  1.00  0.00    -0.237 OA
ATOM     90  O   UNL A   1      54.057  24.574  24.911  1.00  0.00    -0.744 OA
ENDBRANCH  86  87
ENDBRANCH  60  81
ENDBRANCH  34  35
ENDBRANCH  27  29
ENDBRANCH  26  27
ENDBRANCH  25  26
ENDBRANCH  24  25
ENDBRANCH  23  24
ENDBRANCH   1  23
TORSDOF 21
ENDMDL
