MODEL 1
REMARK VINA RESULT:      -9.1      0.000      0.000
REMARK SMILES CC(C)[C@H](NC(=O)[C@H](C)NC(=O)C[NH3+])C(=O)OCCOCCOC(=O)c1ccc(-c2c3nc(c(-c4ccc(S(=O)(=O)[O-])cc4)c4ccc([nH]4)c(-c4ccc(S(=O)(=O)[O-])cc4)c4nc(c(-c5ccc(S(=O)(=O)[O-])cc5)c5ccc2[nH]5)C=C4)C=C3)cc1
REMARK SMILES IDX 19 1 18 2 17 3 15 4 16 5 4 6 2 7 1 8 3 9 5 10 6 11 7 13 8 14
REMARK SMILES IDX 9 15 10 16 11 17 12 19 13 20 14 21 20 25 21 26 22 27 23 28
REMARK SMILES IDX 24 29 25 30 26 31 27 32 85 33 28 34 84 35 29 36 30 37 31 38
REMARK SMILES IDX 78 39 32 40 83 41 77 42 79 43 33 44 82 45 76 46 75 47 34 49
REMARK SMILES IDX 64 50 45 51 63 52 46 53 49 54 62 55 80 56 47 57 48 58 61 60
REMARK SMILES IDX 81 61 50 62 35 63 36 64 44 65 37 66 43 67 38 68 39 69 40 70
REMARK SMILES IDX 41 71 42 72 65 73 66 74 74 75 67 76 73 77 68 78 69 79 70 80
REMARK SMILES IDX 71 81 72 82 51 83 52 84 60 85 53 86 59 87 54 88 55 89 56 90
REMARK SMILES IDX 57 91 58 92
REMARK H PARENT 5 12 10 18 14 22 14 23 14 24 79 48 49 59
REMARK Flexibility Score: inf
ROOT
ATOM      1  C   UNL A   1      34.194  29.268  27.305  1.00  0.00     0.202 C 
ENDROOT
BRANCH   1   2
ATOM      2  C   UNL A   1      34.170  28.168  26.246  1.00  0.00     0.261 C 
BRANCH   2   3
ATOM      3  O   UNL A   1      32.829  27.676  26.038  1.00  0.00    -0.462 OA
BRANCH   3   4
ATOM      4  C   UNL A   1      32.480  27.463  24.739  1.00  0.00     0.328 C 
ATOM      5  O   UNL A   1      33.241  27.057  23.866  1.00  0.00    -0.250 OA
BRANCH   4   6
ATOM      6  C   UNL A   1      31.066  27.978  24.413  1.00  0.00     0.194 C 
BRANCH   6   7
ATOM      7  C   UNL A   1      30.138  26.728  24.563  1.00  0.00     0.017 C 
ATOM      8  C   UNL A   1      30.097  25.950  23.243  1.00  0.00     0.010 C 
ATOM      9  C   UNL A   1      30.475  25.777  25.714  1.00  0.00     0.010 C 
ENDBRANCH   6   7
BRANCH   6  10
ATOM     10  N   UNL A   1      30.920  28.646  23.116  1.00  0.00    -0.341 N 
ATOM     11  C   UNL A   1      30.019  29.561  22.658  1.00  0.00     0.243 C 
ATOM     12  H   UNL A   1      31.599  28.384  22.452  1.00  0.00     0.164 HD
ATOM     13  O   UNL A   1      29.978  29.699  21.431  1.00  0.00    -0.273 OA
BRANCH  11  14
ATOM     14  C   UNL A   1      28.993  30.288  23.579  1.00  0.00     0.168 C 
ATOM     15  C   UNL A   1      27.575  30.020  23.049  1.00  0.00     0.041 C 
BRANCH  14  16
ATOM     16  N   UNL A   1      29.188  31.737  23.608  1.00  0.00    -0.340 N 
ATOM     17  C   UNL A   1      28.761  32.733  22.797  1.00  0.00     0.275 C 
ATOM     18  H   UNL A   1      29.737  32.049  24.365  1.00  0.00     0.164 HD
ATOM     19  O   UNL A   1      29.147  33.878  23.035  1.00  0.00    -0.268 OA
BRANCH  17  20
ATOM     20  C   UNL A   1      27.908  32.416  21.582  1.00  0.00     0.360 C 
BRANCH  20  21
ATOM     21  N   UNL A   1      28.799  32.141  20.447  1.00  0.00    -0.350 N 
ATOM     22  H   UNL A   1      28.857  31.133  20.299  1.00  0.00     0.344 HD
ATOM     23  H   UNL A   1      29.728  32.509  20.647  1.00  0.00     0.344 HD
ATOM     24  H   UNL A   1      28.429  32.587  19.608  1.00  0.00     0.344 HD
ENDBRANCH  20  21
ENDBRANCH  17  20
ENDBRANCH  14  16
ENDBRANCH  11  14
ENDBRANCH   6  10
ENDBRANCH   4   6
ENDBRANCH   3   4
ENDBRANCH   2   3
ENDBRANCH   1   2
BRANCH   1  25
ATOM     25  O   UNL A   1      33.950  30.607  26.869  1.00  0.00    -0.374 OA
BRANCH  25  26
ATOM     26  C   UNL A   1      32.639  31.125  27.036  1.00  0.00     0.202 C 
BRANCH  26  27
ATOM     27  C   UNL A   1      32.481  32.634  27.295  1.00  0.00     0.261 C 
BRANCH  27  28
ATOM     28  O   UNL A   1      33.693  33.328  27.507  1.00  0.00    -0.460 OA
BRANCH  28  29
ATOM     29  C   UNL A   1      33.634  34.179  28.554  1.00  0.00     0.338 C 
ATOM     30  O   UNL A   1      32.776  35.003  28.811  1.00  0.00    -0.246 OA
BRANCH  29  31
ATOM     31  C   UNL A   1      34.722  33.788  29.445  1.00  0.00     0.060 A 
ATOM     32  C   UNL A   1      36.004  34.238  29.119  1.00  0.00     0.016 A 
ATOM     33  C   UNL A   1      34.466  33.039  30.597  1.00  0.00     0.016 A 
ATOM     34  C   UNL A   1      37.066  33.880  29.929  1.00  0.00     0.010 A 
ATOM     35  C   UNL A   1      35.534  32.673  31.403  1.00  0.00     0.010 A 
ATOM     36  C   UNL A   1      36.836  33.055  31.038  1.00  0.00    -0.014 A 
BRANCH  36  37
ATOM     37  C   UNL A   1      37.989  32.401  31.674  1.00  0.00     0.031 A 
ATOM     38  C   UNL A   1      38.397  32.890  33.032  1.00  0.00     0.074 A 
ATOM     39  C   UNL A   1      38.600  31.372  31.066  1.00  0.00     0.049 A 
ATOM     40  N   UNL A   1      39.376  32.488  33.794  1.00  0.00    -0.248 NA
ATOM     41  C   UNL A   1      37.592  33.984  33.612  1.00  0.00     0.031 C 
ATOM     42  C   UNL A   1      38.222  30.810  29.768  1.00  0.00     0.029 A 
ATOM     43  N   UNL A   1      39.664  30.613  31.468  1.00  0.00    -0.354 N 
ATOM     44  C   UNL A   1      39.307  33.276  34.937  1.00  0.00     0.074 A 
ATOM     45  C   UNL A   1      38.219  34.209  34.755  1.00  0.00     0.031 C 
ATOM     46  C   UNL A   1      39.045  29.788  29.482  1.00  0.00     0.029 A 
ATOM     47  C   UNL A   1      40.024  29.652  30.556  1.00  0.00     0.049 A 
ATOM     48  H   UNL A   1      40.125  30.743  32.327  1.00  0.00     0.167 HD
ATOM     49  C   UNL A   1      40.082  33.215  36.042  1.00  0.00     0.031 A 
ATOM     50  C   UNL A   1      41.047  28.777  30.592  1.00  0.00     0.031 A 
ATOM     51  C   UNL A   1      41.167  32.285  36.186  1.00  0.00     0.049 A 
ATOM     52  C   UNL A   1      41.944  28.783  31.803  1.00  0.00     0.074 A 
ATOM     53  C   UNL A   1      42.033  32.128  37.250  1.00  0.00     0.029 A 
ATOM     54  N   UNL A   1      41.531  31.350  35.225  1.00  0.00    -0.354 N 
ATOM     55  N   UNL A   1      41.868  29.529  32.881  1.00  0.00    -0.248 NA
ATOM     56  C   UNL A   1      43.054  27.824  31.808  1.00  0.00     0.031 C 
ATOM     57  C   UNL A   1      42.957  31.136  36.910  1.00  0.00     0.029 A 
ATOM     58  C   UNL A   1      42.623  30.625  35.664  1.00  0.00     0.049 A 
ATOM     59  H   UNL A   1      41.079  31.224  34.360  1.00  0.00     0.167 HD
ATOM     60  C   UNL A   1      42.900  29.105  33.710  1.00  0.00     0.074 A 
ATOM     61  C   UNL A   1      43.576  28.030  33.010  1.00  0.00     0.031 C 
ATOM     62  C   UNL A   1      43.259  29.555  34.939  1.00  0.00     0.031 A 
BRANCH  49  63
ATOM     63  C   UNL A   1      39.799  34.191  37.151  1.00  0.00    -0.014 A 
ATOM     64  C   UNL A   1      39.062  33.812  38.289  1.00  0.00     0.010 A 
ATOM     65  C   UNL A   1      40.301  35.503  37.070  1.00  0.00     0.010 A 
ATOM     66  C   UNL A   1      38.813  34.733  39.311  1.00  0.00     0.020 A 
ATOM     67  C   UNL A   1      40.078  36.418  38.102  1.00  0.00     0.020 A 
ATOM     68  C   UNL A   1      39.326  36.030  39.212  1.00  0.00     0.054 A 
BRANCH  68  69
ATOM     69  S   UNL A   1      39.026  37.188  40.575  1.00  0.00     0.124 S 
ATOM     70  O   UNL A   1      38.199  38.205  39.932  1.00  0.00    -0.237 OA
ATOM     71  O   UNL A   1      38.342  36.352  41.559  1.00  0.00    -0.237 OA
ATOM     72  O   UNL A   1      40.366  37.627  40.959  1.00  0.00    -0.744 OA
ENDBRANCH  68  69
ENDBRANCH  49  63
BRANCH  50  73
ATOM     73  C   UNL A   1      41.281  27.849  29.454  1.00  0.00    -0.014 A 
ATOM     74  C   UNL A   1      42.281  28.113  28.502  1.00  0.00     0.010 A 
ATOM     75  C   UNL A   1      40.497  26.688  29.313  1.00  0.00     0.010 A 
ATOM     76  C   UNL A   1      42.471  27.253  27.416  1.00  0.00     0.020 A 
ATOM     77  C   UNL A   1      40.703  25.810  28.247  1.00  0.00     0.020 A 
ATOM     78  C   UNL A   1      41.679  26.106  27.294  1.00  0.00     0.054 A 
BRANCH  78  79
ATOM     79  S   UNL A   1      41.957  24.993  25.889  1.00  0.00     0.124 S 
ATOM     80  O   UNL A   1      41.098  25.577  24.865  1.00  0.00    -0.237 OA
ATOM     81  O   UNL A   1      43.394  25.126  25.664  1.00  0.00    -0.237 OA
ATOM     82  O   UNL A   1      41.532  23.691  26.396  1.00  0.00    -0.744 OA
ENDBRANCH  78  79
ENDBRANCH  50  73
BRANCH  62  83
ATOM     83  C   UNL A   1      44.396  28.849  35.623  1.00  0.00    -0.014 A 
ATOM     84  C   UNL A   1      45.722  29.296  35.489  1.00  0.00     0.010 A 
ATOM     85  C   UNL A   1      44.117  27.762  36.472  1.00  0.00     0.010 A 
ATOM     86  C   UNL A   1      46.754  28.647  36.169  1.00  0.00     0.020 A 
ATOM     87  C   UNL A   1      45.141  27.133  37.179  1.00  0.00     0.020 A 
ATOM     88  C   UNL A   1      46.456  27.571  37.012  1.00  0.00     0.054 A 
BRANCH  88  89
ATOM     89  S   UNL A   1      47.808  26.779  37.923  1.00  0.00     0.124 S 
ATOM     90  O   UNL A   1      47.570  27.246  39.285  1.00  0.00    -0.237 OA
ATOM     91  O   UNL A   1      47.558  25.357  37.693  1.00  0.00    -0.237 OA
ATOM     92  O   UNL A   1      49.013  27.304  37.284  1.00  0.00    -0.744 OA
ENDBRANCH  88  89
ENDBRANCH  62  83
ENDBRANCH  36  37
ENDBRANCH  29  31
ENDBRANCH  28  29
ENDBRANCH  27  28
ENDBRANCH  26  27
ENDBRANCH  25  26
ENDBRANCH   1  25
TORSDOF 23
ENDMDL
MODEL 2
REMARK VINA RESULT:      -9.0      5.719     11.052
REMARK SMILES CC(C)[C@H](NC(=O)[C@H](C)NC(=O)C[NH3+])C(=O)OCCOCCOC(=O)c1ccc(-c2c3nc(c(-c4ccc(S(=O)(=O)[O-])cc4)c4ccc([nH]4)c(-c4ccc(S(=O)(=O)[O-])cc4)c4nc(c(-c5ccc(S(=O)(=O)[O-])cc5)c5ccc2[nH]5)C=C4)C=C3)cc1
REMARK SMILES IDX 19 1 18 2 17 3 15 4 16 5 4 6 2 7 1 8 3 9 5 10 6 11 7 13 8 14
REMARK SMILES IDX 9 15 10 16 11 17 12 19 13 20 14 21 20 25 21 26 22 27 23 28
REMARK SMILES IDX 24 29 25 30 26 31 27 32 85 33 28 34 84 35 29 36 30 37 31 38
REMARK SMILES IDX 78 39 32 40 83 41 77 42 79 43 33 44 82 45 76 46 75 47 34 49
REMARK SMILES IDX 64 50 45 51 63 52 46 53 49 54 62 55 80 56 47 57 48 58 61 60
REMARK SMILES IDX 81 61 50 62 35 63 36 64 44 65 37 66 43 67 38 68 39 69 40 70
REMARK SMILES IDX 41 71 42 72 65 73 66 74 74 75 67 76 73 77 68 78 69 79 70 80
REMARK SMILES IDX 71 81 72 82 51 83 52 84 60 85 53 86 59 87 54 88 55 89 56 90
REMARK SMILES IDX 57 91 58 92
REMARK H PARENT 5 12 10 18 14 22 14 23 14 24 79 48 49 59
REMARK Flexibility Score: inf
ROOT
ATOM      1  C   UNL A   1      36.295  23.819  25.766  1.00  0.00     0.202 C 
ENDROOT
BRANCH   1   2
ATOM      2  C   UNL A   1      34.790  24.079  25.807  1.00  0.00     0.261 C 
BRANCH   2   3
ATOM      3  O   UNL A   1      34.507  25.495  25.787  1.00  0.00    -0.462 OA
BRANCH   3   4
ATOM      4  C   UNL A   1      33.529  25.882  24.921  1.00  0.00     0.328 C 
ATOM      5  O   UNL A   1      33.673  25.998  23.708  1.00  0.00    -0.250 OA
BRANCH   4   6
ATOM      6  C   UNL A   1      32.255  26.361  25.642  1.00  0.00     0.194 C 
BRANCH   6   7
ATOM      7  C   UNL A   1      32.686  27.662  26.396  1.00  0.00     0.017 C 
ATOM      8  C   UNL A   1      32.745  28.837  25.413  1.00  0.00     0.010 C 
ATOM      9  C   UNL A   1      31.839  28.045  27.610  1.00  0.00     0.010 C 
ENDBRANCH   6   7
BRANCH   6  10
ATOM     10  N   UNL A   1      31.617  25.376  26.519  1.00  0.00    -0.341 N 
ATOM     11  C   UNL A   1      31.234  24.084  26.313  1.00  0.00     0.243 C 
ATOM     12  H   UNL A   1      31.429  25.711  27.426  1.00  0.00     0.164 HD
ATOM     13  O   UNL A   1      30.450  23.622  27.148  1.00  0.00    -0.273 OA
BRANCH  11  14
ATOM     14  C   UNL A   1      31.620  23.269  25.042  1.00  0.00     0.168 C 
ATOM     15  C   UNL A   1      30.686  23.673  23.890  1.00  0.00     0.041 C 
BRANCH  14  16
ATOM     16  N   UNL A   1      31.486  21.825  25.235  1.00  0.00    -0.340 N 
ATOM     17  C   UNL A   1      32.339  20.793  25.032  1.00  0.00     0.275 C 
ATOM     18  H   UNL A   1      30.605  21.550  25.579  1.00  0.00     0.164 HD
ATOM     19  O   UNL A   1      31.920  19.651  25.220  1.00  0.00    -0.268 OA
BRANCH  17  20
ATOM     20  C   UNL A   1      33.737  21.051  24.498  1.00  0.00     0.360 C 
BRANCH  20  21
ATOM     21  N   UNL A   1      34.698  20.328  25.341  1.00  0.00    -0.350 N 
ATOM     22  H   UNL A   1      35.642  20.658  25.138  1.00  0.00     0.344 HD
ATOM     23  H   UNL A   1      34.638  19.329  25.145  1.00  0.00     0.344 HD
ATOM     24  H   UNL A   1      34.483  20.496  26.323  1.00  0.00     0.344 HD
ENDBRANCH  20  21
ENDBRANCH  17  20
ENDBRANCH  14  16
ENDBRANCH  11  14
ENDBRANCH   6  10
ENDBRANCH   4   6
ENDBRANCH   3   4
ENDBRANCH   2   3
ENDBRANCH   1   2
BRANCH   1  25
ATOM     25  O   UNL A   1      36.727  22.456  25.765  1.00  0.00    -0.374 OA
BRANCH  25  26
ATOM     26  C   UNL A   1      37.962  22.158  25.133  1.00  0.00     0.202 C 
BRANCH  26  27
ATOM     27  C   UNL A   1      38.837  21.043  25.734  1.00  0.00     0.261 C 
BRANCH  27  28
ATOM     28  O   UNL A   1      39.630  21.442  26.833  1.00  0.00    -0.460 OA
BRANCH  28  29
ATOM     29  C   UNL A   1      40.885  21.789  26.477  1.00  0.00     0.338 C 
ATOM     30  O   UNL A   1      41.646  21.208  25.726  1.00  0.00    -0.246 OA
BRANCH  29  31
ATOM     31  C   UNL A   1      41.098  23.125  27.024  1.00  0.00     0.060 A 
ATOM     32  C   UNL A   1      40.800  24.208  26.192  1.00  0.00     0.016 A 
ATOM     33  C   UNL A   1      41.534  23.296  28.341  1.00  0.00     0.016 A 
ATOM     34  C   UNL A   1      41.000  25.492  26.664  1.00  0.00     0.010 A 
ATOM     35  C   UNL A   1      41.743  24.585  28.810  1.00  0.00     0.010 A 
ATOM     36  C   UNL A   1      41.521  25.675  27.953  1.00  0.00    -0.014 A 
BRANCH  36  37
ATOM     37  C   UNL A   1      42.054  26.998  28.309  1.00  0.00     0.031 A 
ATOM     38  C   UNL A   1      43.532  27.209  28.161  1.00  0.00     0.074 A 
ATOM     39  C   UNL A   1      41.223  27.979  28.693  1.00  0.00     0.049 A 
ATOM     40  N   UNL A   1      44.243  28.272  28.414  1.00  0.00    -0.248 NA
ATOM     41  C   UNL A   1      44.318  26.064  27.661  1.00  0.00     0.031 C 
ATOM     42  C   UNL A   1      39.768  27.859  28.808  1.00  0.00     0.029 A 
ATOM     43  N   UNL A   1      41.485  29.272  29.052  1.00  0.00    -0.354 N 
ATOM     44  C   UNL A   1      45.554  27.926  28.108  1.00  0.00     0.074 A 
ATOM     45  C   UNL A   1      45.551  26.544  27.691  1.00  0.00     0.031 C 
ATOM     46  C   UNL A   1      39.266  29.039  29.209  1.00  0.00     0.029 A 
ATOM     47  C   UNL A   1      40.365  29.978  29.412  1.00  0.00     0.049 A 
ATOM     48  H   UNL A   1      42.391  29.658  29.052  1.00  0.00     0.167 HD
ATOM     49  C   UNL A   1      46.658  28.702  28.164  1.00  0.00     0.031 A 
ATOM     50  C   UNL A   1      40.257  31.239  29.871  1.00  0.00     0.031 A 
ATOM     51  C   UNL A   1      46.631  30.071  28.599  1.00  0.00     0.049 A 
ATOM     52  C   UNL A   1      41.515  32.059  29.998  1.00  0.00     0.074 A 
ATOM     53  C   UNL A   1      47.680  30.962  28.711  1.00  0.00     0.029 A 
ATOM     54  N   UNL A   1      45.482  30.745  28.995  1.00  0.00    -0.354 N 
ATOM     55  N   UNL A   1      42.749  31.724  29.701  1.00  0.00    -0.248 NA
ATOM     56  C   UNL A   1      41.365  33.426  30.508  1.00  0.00     0.031 C 
ATOM     57  C   UNL A   1      47.176  32.159  29.227  1.00  0.00     0.029 A 
ATOM     58  C   UNL A   1      45.800  32.036  29.371  1.00  0.00     0.049 A 
ATOM     59  H   UNL A   1      44.577  30.359  29.007  1.00  0.00     0.167 HD
ATOM     60  C   UNL A   1      43.520  32.852  29.955  1.00  0.00     0.074 A 
ATOM     61  C   UNL A   1      42.608  33.879  30.419  1.00  0.00     0.031 C 
ATOM     62  C   UNL A   1      44.859  33.031  29.817  1.00  0.00     0.031 A 
BRANCH  49  63
ATOM     63  C   UNL A   1      47.972  28.081  27.777  1.00  0.00    -0.014 A 
ATOM     64  C   UNL A   1      48.454  28.152  26.456  1.00  0.00     0.010 A 
ATOM     65  C   UNL A   1      48.754  27.438  28.753  1.00  0.00     0.010 A 
ATOM     66  C   UNL A   1      49.679  27.572  26.115  1.00  0.00     0.020 A 
ATOM     67  C   UNL A   1      49.993  26.881  28.424  1.00  0.00     0.020 A 
ATOM     68  C   UNL A   1      50.442  26.943  27.104  1.00  0.00     0.054 A 
BRANCH  68  69
ATOM     69  S   UNL A   1      52.050  26.240  26.642  1.00  0.00     0.124 S 
ATOM     70  O   UNL A   1      51.729  24.823  26.490  1.00  0.00    -0.237 OA
ATOM     71  O   UNL A   1      52.364  26.949  25.404  1.00  0.00    -0.237 OA
ATOM     72  O   UNL A   1      52.910  26.565  27.778  1.00  0.00    -0.744 OA
ENDBRANCH  68  69
ENDBRANCH  49  63
BRANCH  50  73
ATOM     73  C   UNL A   1      38.928  31.788  30.252  1.00  0.00    -0.014 A 
ATOM     74  C   UNL A   1      38.087  32.376  29.291  1.00  0.00     0.010 A 
ATOM     75  C   UNL A   1      38.495  31.729  31.590  1.00  0.00     0.010 A 
ATOM     76  C   UNL A   1      36.855  32.920  29.665  1.00  0.00     0.020 A 
ATOM     77  C   UNL A   1      37.251  32.244  31.964  1.00  0.00     0.020 A 
ATOM     78  C   UNL A   1      36.445  32.852  31.001  1.00  0.00     0.054 A 
BRANCH  78  79
ATOM     79  S   UNL A   1      34.833  33.545  31.460  1.00  0.00     0.124 S 
ATOM     80  O   UNL A   1      34.293  33.942  30.164  1.00  0.00    -0.237 OA
ATOM     81  O   UNL A   1      34.174  32.409  32.101  1.00  0.00    -0.237 OA
ATOM     82  O   UNL A   1      35.176  34.644  32.359  1.00  0.00    -0.744 OA
ENDBRANCH  78  79
ENDBRANCH  50  73
BRANCH  62  83
ATOM     83  C   UNL A   1      45.403  34.400  30.118  1.00  0.00    -0.014 A 
ATOM     84  C   UNL A   1      45.886  34.731  31.395  1.00  0.00     0.010 A 
ATOM     85  C   UNL A   1      45.495  35.344  29.078  1.00  0.00     0.010 A 
ATOM     86  C   UNL A   1      46.424  35.997  31.635  1.00  0.00     0.020 A 
ATOM     87  C   UNL A   1      46.063  36.597  29.307  1.00  0.00     0.020 A 
ATOM     88  C   UNL A   1      46.512  36.920  30.589  1.00  0.00     0.054 A 
BRANCH  88  89
ATOM     89  S   UNL A   1      47.262  38.537  30.915  1.00  0.00     0.124 S 
ATOM     90  O   UNL A   1      47.497  39.041  29.565  1.00  0.00    -0.237 OA
ATOM     91  O   UNL A   1      46.219  39.227  31.671  1.00  0.00    -0.237 OA
ATOM     92  O   UNL A   1      48.466  38.214  31.679  1.00  0.00    -0.744 OA
ENDBRANCH  88  89
ENDBRANCH  62  83
ENDBRANCH  36  37
ENDBRANCH  29  31
ENDBRANCH  28  29
ENDBRANCH  27  28
ENDBRANCH  26  27
ENDBRANCH  25  26
ENDBRANCH   1  25
TORSDOF 23
ENDMDL
MODEL 3
REMARK VINA RESULT:      -8.8      6.215     11.727
REMARK SMILES CC(C)[C@H](NC(=O)[C@H](C)NC(=O)C[NH3+])C(=O)OCCOCCOC(=O)c1ccc(-c2c3nc(c(-c4ccc(S(=O)(=O)[O-])cc4)c4ccc([nH]4)c(-c4ccc(S(=O)(=O)[O-])cc4)c4nc(c(-c5ccc(S(=O)(=O)[O-])cc5)c5ccc2[nH]5)C=C4)C=C3)cc1
REMARK SMILES IDX 19 1 18 2 17 3 15 4 16 5 4 6 2 7 1 8 3 9 5 10 6 11 7 13 8 14
REMARK SMILES IDX 9 15 10 16 11 17 12 19 13 20 14 21 20 25 21 26 22 27 23 28
REMARK SMILES IDX 24 29 25 30 26 31 27 32 85 33 28 34 84 35 29 36 30 37 31 38
REMARK SMILES IDX 78 39 32 40 83 41 77 42 79 43 33 44 82 45 76 46 75 47 34 49
REMARK SMILES IDX 64 50 45 51 63 52 46 53 49 54 62 55 80 56 47 57 48 58 61 60
REMARK SMILES IDX 81 61 50 62 35 63 36 64 44 65 37 66 43 67 38 68 39 69 40 70
REMARK SMILES IDX 41 71 42 72 65 73 66 74 74 75 67 76 73 77 68 78 69 79 70 80
REMARK SMILES IDX 71 81 72 82 51 83 52 84 60 85 53 86 59 87 54 88 55 89 56 90
REMARK SMILES IDX 57 91 58 92
REMARK H PARENT 5 12 10 18 14 22 14 23 14 24 79 48 49 59
REMARK Flexibility Score: inf
ROOT
ATOM      1  C   UNL A   1      35.953  21.563  25.841  1.00  0.00     0.202 C 
ENDROOT
BRANCH   1   2
ATOM      2  C   UNL A   1      35.984  23.091  25.843  1.00  0.00     0.261 C 
BRANCH   2   3
ATOM      3  O   UNL A   1      34.787  23.635  25.246  1.00  0.00    -0.462 OA
BRANCH   3   4
ATOM      4  C   UNL A   1      34.795  23.706  23.886  1.00  0.00     0.328 C 
ATOM      5  O   UNL A   1      35.805  23.693  23.189  1.00  0.00    -0.250 OA
BRANCH   4   6
ATOM      6  C   UNL A   1      33.403  24.012  23.301  1.00  0.00     0.194 C 
BRANCH   6   7
ATOM      7  C   UNL A   1      32.560  22.723  23.576  1.00  0.00     0.017 C 
ATOM      8  C   UNL A   1      31.310  23.084  24.386  1.00  0.00     0.010 C 
ATOM      9  C   UNL A   1      32.162  21.907  22.346  1.00  0.00     0.010 C 
ENDBRANCH   6   7
BRANCH   6  10
ATOM     10  N   UNL A   1      33.385  24.417  21.893  1.00  0.00    -0.341 N 
ATOM     11  C   UNL A   1      32.907  25.532  21.271  1.00  0.00     0.243 C 
ATOM     12  H   UNL A   1      33.794  23.761  21.282  1.00  0.00     0.164 HD
ATOM     13  O   UNL A   1      32.766  25.441  20.047  1.00  0.00    -0.273 OA
BRANCH  11  14
ATOM     14  C   UNL A   1      32.418  26.798  22.039  1.00  0.00     0.168 C 
ATOM     15  C   UNL A   1      33.413  27.107  23.170  1.00  0.00     0.041 C 
BRANCH  14  16
ATOM     16  N   UNL A   1      31.100  26.618  22.646  1.00  0.00    -0.340 N 
ATOM     17  C   UNL A   1      30.080  27.475  22.887  1.00  0.00     0.275 C 
ATOM     18  H   UNL A   1      30.918  25.693  22.934  1.00  0.00     0.164 HD
ATOM     19  O   UNL A   1      29.095  27.046  23.487  1.00  0.00    -0.268 OA
BRANCH  17  20
ATOM     20  C   UNL A   1      30.207  28.939  22.506  1.00  0.00     0.360 C 
BRANCH  20  21
ATOM     21  N   UNL A   1      28.860  29.476  22.269  1.00  0.00    -0.350 N 
ATOM     22  H   UNL A   1      28.883  30.494  22.345  1.00  0.00     0.344 HD
ATOM     23  H   UNL A   1      28.217  29.098  22.963  1.00  0.00     0.344 HD
ATOM     24  H   UNL A   1      28.548  29.212  21.335  1.00  0.00     0.344 HD
ENDBRANCH  20  21
ENDBRANCH  17  20
ENDBRANCH  14  16
ENDBRANCH  11  14
ENDBRANCH   6  10
ENDBRANCH   4   6
ENDBRANCH   3   4
ENDBRANCH   2   3
ENDBRANCH   1   2
BRANCH   1  25
ATOM     25  O   UNL A   1      36.981  20.887  25.113  1.00  0.00    -0.374 OA
BRANCH  25  26
ATOM     26  C   UNL A   1      38.325  21.269  25.364  1.00  0.00     0.202 C 
BRANCH  26  27
ATOM     27  C   UNL A   1      39.358  20.160  25.634  1.00  0.00     0.261 C 
BRANCH  27  28
ATOM     28  O   UNL A   1      40.245  20.424  26.702  1.00  0.00    -0.460 OA
BRANCH  28  29
ATOM     29  C   UNL A   1      41.527  20.124  26.406  1.00  0.00     0.338 C 
ATOM     30  O   UNL A   1      41.974  19.093  25.941  1.00  0.00    -0.246 OA
BRANCH  29  31
ATOM     31  C   UNL A   1      42.275  21.366  26.575  1.00  0.00     0.060 A 
ATOM     32  C   UNL A   1      42.731  21.664  27.862  1.00  0.00     0.016 A 
ATOM     33  C   UNL A   1      42.558  22.183  25.477  1.00  0.00     0.016 A 
ATOM     34  C   UNL A   1      43.433  22.837  28.070  1.00  0.00     0.010 A 
ATOM     35  C   UNL A   1      43.254  23.365  25.689  1.00  0.00     0.010 A 
ATOM     36  C   UNL A   1      43.646  23.709  26.994  1.00  0.00    -0.014 A 
BRANCH  36  37
ATOM     37  C   UNL A   1      44.069  25.087  27.284  1.00  0.00     0.031 A 
ATOM     38  C   UNL A   1      45.505  25.437  27.022  1.00  0.00     0.074 A 
ATOM     39  C   UNL A   1      43.174  25.991  27.711  1.00  0.00     0.049 A 
ATOM     40  N   UNL A   1      46.122  26.572  27.201  1.00  0.00    -0.248 NA
ATOM     41  C   UNL A   1      46.362  24.362  26.487  1.00  0.00     0.031 C 
ATOM     42  C   UNL A   1      41.751  25.732  27.936  1.00  0.00     0.029 A 
ATOM     43  N   UNL A   1      43.333  27.312  28.025  1.00  0.00    -0.354 N 
ATOM     44  C   UNL A   1      47.436  26.347  26.805  1.00  0.00     0.074 A 
ATOM     45  C   UNL A   1      47.540  24.961  26.415  1.00  0.00     0.031 C 
ATOM     46  C   UNL A   1      41.164  26.867  28.351  1.00  0.00     0.029 A 
ATOM     47  C   UNL A   1      42.176  27.915  28.454  1.00  0.00     0.049 A 
ATOM     48  H   UNL A   1      44.193  27.785  27.950  1.00  0.00     0.167 HD
ATOM     49  C   UNL A   1      48.458  27.229  26.763  1.00  0.00     0.031 A 
ATOM     50  C   UNL A   1      41.976  29.171  28.896  1.00  0.00     0.031 A 
ATOM     51  C   UNL A   1      48.326  28.600  27.173  1.00  0.00     0.049 A 
ATOM     52  C   UNL A   1      43.153  30.112  28.913  1.00  0.00     0.074 A 
ATOM     53  C   UNL A   1      49.287  29.591  27.189  1.00  0.00     0.029 A 
ATOM     54  N   UNL A   1      47.148  29.168  27.641  1.00  0.00    -0.354 N 
ATOM     55  N   UNL A   1      44.390  29.892  28.531  1.00  0.00    -0.248 NA
ATOM     56  C   UNL A   1      42.905  31.471  29.407  1.00  0.00     0.031 C 
ATOM     57  C   UNL A   1      48.704  30.746  27.720  1.00  0.00     0.029 A 
ATOM     58  C   UNL A   1      47.362  30.493  27.968  1.00  0.00     0.049 A 
ATOM     59  H   UNL A   1      46.289  28.696  27.728  1.00  0.00     0.167 HD
ATOM     60  C   UNL A   1      45.061  31.097  28.706  1.00  0.00     0.074 A 
ATOM     61  C   UNL A   1      44.087  32.042  29.217  1.00  0.00     0.031 C 
ATOM     62  C   UNL A   1      46.361  31.403  28.464  1.00  0.00     0.031 A 
BRANCH  49  63
ATOM     63  C   UNL A   1      49.796  26.729  26.291  1.00  0.00    -0.014 A 
ATOM     64  C   UNL A   1      50.232  26.946  24.970  1.00  0.00     0.010 A 
ATOM     65  C   UNL A   1      50.645  26.056  27.187  1.00  0.00     0.010 A 
ATOM     66  C   UNL A   1      51.480  26.477  24.550  1.00  0.00     0.020 A 
ATOM     67  C   UNL A   1      51.905  25.611  26.780  1.00  0.00     0.020 A 
ATOM     68  C   UNL A   1      52.311  25.815  25.460  1.00  0.00     0.054 A 
BRANCH  68  69
ATOM     69  S   UNL A   1      53.944  25.260  24.898  1.00  0.00     0.124 S 
ATOM     70  O   UNL A   1      54.076  25.951  23.619  1.00  0.00    -0.237 OA
ATOM     71  O   UNL A   1      54.825  25.733  25.963  1.00  0.00    -0.237 OA
ATOM     72  O   UNL A   1      53.805  23.808  24.809  1.00  0.00    -0.744 OA
ENDBRANCH  68  69
ENDBRANCH  49  63
BRANCH  50  73
ATOM     73  C   UNL A   1      40.631  29.597  29.365  1.00  0.00    -0.014 A 
ATOM     74  C   UNL A   1      40.307  29.586  30.733  1.00  0.00     0.010 A 
ATOM     75  C   UNL A   1      39.657  30.015  28.439  1.00  0.00     0.010 A 
ATOM     76  C   UNL A   1      39.029  29.955  31.162  1.00  0.00     0.020 A 
ATOM     77  C   UNL A   1      38.388  30.414  28.865  1.00  0.00     0.020 A 
ATOM     78  C   UNL A   1      38.076  30.365  30.224  1.00  0.00     0.054 A 
BRANCH  78  79
ATOM     79  S   UNL A   1      36.430  30.860  30.805  1.00  0.00     0.124 S 
ATOM     80  O   UNL A   1      35.765  31.224  29.558  1.00  0.00    -0.237 OA
ATOM     81  O   UNL A   1      35.946  29.642  31.451  1.00  0.00    -0.237 OA
ATOM     82  O   UNL A   1      36.708  31.969  31.714  1.00  0.00    -0.744 OA
ENDBRANCH  78  79
ENDBRANCH  50  73
BRANCH  62  83
ATOM     83  C   UNL A   1      46.787  32.825  28.698  1.00  0.00    -0.014 A 
ATOM     84  C   UNL A   1      46.668  33.799  27.692  1.00  0.00     0.010 A 
ATOM     85  C   UNL A   1      47.247  33.203  29.973  1.00  0.00     0.010 A 
ATOM     86  C   UNL A   1      47.032  35.122  27.949  1.00  0.00     0.020 A 
ATOM     87  C   UNL A   1      47.580  34.530  30.242  1.00  0.00     0.020 A 
ATOM     88  C   UNL A   1      47.484  35.479  29.223  1.00  0.00     0.054 A 
BRANCH  88  89
ATOM     89  S   UNL A   1      47.901  37.213  29.545  1.00  0.00     0.124 S 
ATOM     90  O   UNL A   1      47.862  37.789  28.204  1.00  0.00    -0.237 OA
ATOM     91  O   UNL A   1      46.829  37.638  30.443  1.00  0.00    -0.237 OA
ATOM     92  O   UNL A   1      49.227  37.144  30.157  1.00  0.00    -0.744 OA
ENDBRANCH  88  89
ENDBRANCH  62  83
ENDBRANCH  36  37
ENDBRANCH  29  31
ENDBRANCH  28  29
ENDBRANCH  27  28
ENDBRANCH  26  27
ENDBRANCH  25  26
ENDBRANCH   1  25
TORSDOF 23
ENDMDL
