MODEL 1
REMARK VINA RESULT:     -11.1      0.000      0.000
REMARK SMILES Cc1cccc(OCC(=O)Nc2cc(C(=O)OCCOCCOC(=O)c3ccc(-c4c5nc(c(-c6ccc(S(=O)(=O)[O-])cc6)c6ccc([nH]6)c(-c6ccc(S(=O)(=O)[O-])cc6)c6nc(c(-c7ccc(S(=O)(=O)[O-])cc7)c7ccc4[nH]7)C=C6)C=C5)cc3)c(Cl)cc2Cl)c1
REMARK SMILES IDX 19 1 18 2 17 3 15 4 16 5 14 6 12 7 13 8 89 9 88 10 90 11
REMARK SMILES IDX 86 12 87 13 11 14 9 15 10 16 8 18 7 19 6 20 1 21 2 22 3 23
REMARK SMILES IDX 91 24 4 25 5 26 20 27 21 28 22 29 23 30 24 31 25 32 26 33
REMARK SMILES IDX 27 34 85 35 28 36 84 37 29 38 30 39 31 40 78 41 32 42 83 43
REMARK SMILES IDX 77 44 79 45 33 46 82 47 76 48 75 49 34 51 64 52 45 53 63 54
REMARK SMILES IDX 46 55 49 56 62 57 80 58 47 59 48 60 61 62 81 63 50 64 35 65
REMARK SMILES IDX 36 66 44 67 37 68 43 69 38 70 39 71 40 72 41 73 42 74 65 75
REMARK SMILES IDX 66 76 74 77 67 78 73 79 68 80 69 81 70 82 71 83 72 84 51 85
REMARK SMILES IDX 52 86 60 87 53 88 59 89 54 90 55 91 56 92 57 93 58 94
REMARK H PARENT 11 17 79 50 49 61
REMARK Flexibility Score: inf
ROOT
ATOM      1  C   UNL A   1      31.047  30.223  25.028  1.00  0.00     0.202 C 
ENDROOT
BRANCH   1   2
ATOM      2  C   UNL A   1      30.357  29.669  23.850  1.00  0.00     0.261 C 
BRANCH   2   3
ATOM      3  O   UNL A   1      30.374  28.242  23.907  1.00  0.00    -0.460 OA
BRANCH   3   4
ATOM      4  C   UNL A   1      30.860  27.573  22.819  1.00  0.00     0.339 C 
ATOM      5  O   UNL A   1      30.621  27.772  21.660  1.00  0.00    -0.246 OA
BRANCH   4   6
ATOM      6  C   UNL A   1      31.763  26.544  23.379  1.00  0.00     0.080 A 
ATOM      7  C   UNL A   1      32.092  24.879  25.133  1.00  0.00     0.061 A 
ATOM      8  C   UNL A   1      31.259  25.705  24.405  1.00  0.00     0.045 A 
ATOM      9  C   UNL A   1      33.463  24.889  24.794  1.00  0.00     0.066 A 
ATOM     10  C   UNL A   1      33.958  25.656  23.729  1.00  0.00     0.044 A 
ATOM     11  Cl  UNL A   1      34.610  23.969  25.706  1.00  0.00    -0.082 Cl
ATOM     12  C   UNL A   1      33.107  26.492  23.012  1.00  0.00     0.057 A 
ATOM     13  Cl  UNL A   1      33.823  27.466  21.779  1.00  0.00    -0.083 Cl
BRANCH   7  14
ATOM     14  N   UNL A   1      31.660  24.165  26.269  1.00  0.00    -0.322 N 
ATOM     15  C   UNL A   1      31.172  22.911  26.543  1.00  0.00     0.262 C 
ATOM     16  O   UNL A   1      30.729  22.774  27.692  1.00  0.00    -0.271 OA
ATOM     17  H   UNL A   1      31.724  24.712  27.085  1.00  0.00     0.170 HD
BRANCH  15  18
ATOM     18  C   UNL A   1      31.350  21.675  25.604  1.00  0.00     0.329 C 
BRANCH  18  19
ATOM     19  O   UNL A   1      32.272  21.509  24.523  1.00  0.00    -0.484 OA
BRANCH  19  20
ATOM     20  C   UNL A   1      32.492  20.258  24.028  1.00  0.00     0.120 A 
ATOM     21  C   UNL A   1      34.844  17.365  24.489  1.00  0.00     0.044 C 
ATOM     22  C   UNL A   1      33.630  18.125  24.063  1.00  0.00    -0.047 A 
ATOM     23  C   UNL A   1      32.968  17.718  22.904  1.00  0.00     0.003 A 
ATOM     24  C   UNL A   1      33.311  19.352  24.671  1.00  0.00     0.049 A 
ATOM     25  C   UNL A   1      32.273  18.669  22.190  1.00  0.00     0.004 A 
ATOM     26  C   UNL A   1      32.157  19.966  22.708  1.00  0.00     0.046 A 
ENDBRANCH  19  20
ENDBRANCH  18  19
ENDBRANCH  15  18
ENDBRANCH   7  14
ENDBRANCH   4   6
ENDBRANCH   3   4
ENDBRANCH   2   3
ENDBRANCH   1   2
BRANCH   1  27
ATOM     27  O   UNL A   1      31.071  29.104  25.901  1.00  0.00    -0.374 OA
BRANCH  27  28
ATOM     28  C   UNL A   1      32.191  29.043  26.742  1.00  0.00     0.202 C 
BRANCH  28  29
ATOM     29  C   UNL A   1      32.812  30.418  27.012  1.00  0.00     0.261 C 
BRANCH  29  30
ATOM     30  O   UNL A   1      34.214  30.395  26.657  1.00  0.00    -0.460 OA
BRANCH  30  31
ATOM     31  C   UNL A   1      35.059  31.147  27.428  1.00  0.00     0.338 C 
ATOM     32  O   UNL A   1      34.919  32.339  27.627  1.00  0.00    -0.246 OA
BRANCH  31  33
ATOM     33  C   UNL A   1      36.143  30.286  27.995  1.00  0.00     0.060 A 
ATOM     34  C   UNL A   1      36.054  29.749  29.295  1.00  0.00     0.016 A 
ATOM     35  C   UNL A   1      37.341  30.188  27.292  1.00  0.00     0.016 A 
ATOM     36  C   UNL A   1      37.198  29.248  29.943  1.00  0.00     0.010 A 
ATOM     37  C   UNL A   1      38.473  29.744  27.944  1.00  0.00     0.010 A 
ATOM     38  C   UNL A   1      38.420  29.308  29.284  1.00  0.00    -0.014 A 
BRANCH  38  39
ATOM     39  C   UNL A   1      39.740  28.991  29.838  1.00  0.00     0.031 A 
ATOM     40  C   UNL A   1      40.272  27.662  29.528  1.00  0.00     0.074 A 
ATOM     41  C   UNL A   1      40.569  29.964  30.286  1.00  0.00     0.049 A 
ATOM     42  N   UNL A   1      41.342  27.178  30.044  1.00  0.00    -0.248 NA
ATOM     43  C   UNL A   1      39.616  26.733  28.607  1.00  0.00     0.031 C 
ATOM     44  C   UNL A   1      42.026  30.054  30.353  1.00  0.00     0.029 A 
ATOM     45  N   UNL A   1      40.200  31.151  30.885  1.00  0.00    -0.354 N 
ATOM     46  C   UNL A   1      41.749  26.194  29.178  1.00  0.00     0.074 A 
ATOM     47  C   UNL A   1      40.558  25.799  28.474  1.00  0.00     0.031 C 
ATOM     48  C   UNL A   1      42.382  31.005  31.244  1.00  0.00     0.029 A 
ATOM     49  C   UNL A   1      41.150  31.483  31.842  1.00  0.00     0.049 A 
ATOM     50  H   UNL A   1      39.394  31.676  30.670  1.00  0.00     0.167 HD
ATOM     51  C   UNL A   1      43.087  26.028  28.988  1.00  0.00     0.031 A 
ATOM     52  C   UNL A   1      40.749  31.554  33.138  1.00  0.00     0.031 A 
ATOM     53  C   UNL A   1      43.865  26.871  29.917  1.00  0.00     0.049 A 
ATOM     54  C   UNL A   1      41.570  30.535  33.853  1.00  0.00     0.074 A 
ATOM     55  C   UNL A   1      44.745  27.929  29.757  1.00  0.00     0.029 A 
ATOM     56  N   UNL A   1      43.531  26.856  31.273  1.00  0.00    -0.354 N 
ATOM     57  N   UNL A   1      41.903  29.396  33.300  1.00  0.00    -0.248 NA
ATOM     58  C   UNL A   1      42.332  30.846  35.058  1.00  0.00     0.031 C 
ATOM     59  C   UNL A   1      44.885  28.579  31.025  1.00  0.00     0.029 A 
ATOM     60  C   UNL A   1      44.084  27.923  31.950  1.00  0.00     0.049 A 
ATOM     61  H   UNL A   1      42.967  26.167  31.695  1.00  0.00     0.167 HD
ATOM     62  C   UNL A   1      43.040  28.951  33.912  1.00  0.00     0.074 A 
ATOM     63  C   UNL A   1      43.227  29.844  35.051  1.00  0.00     0.031 C 
ATOM     64  C   UNL A   1      43.904  28.033  33.393  1.00  0.00     0.031 A 
BRANCH  51  65
ATOM     65  C   UNL A   1      43.691  25.289  27.812  1.00  0.00    -0.014 A 
ATOM     66  C   UNL A   1      44.910  24.605  27.982  1.00  0.00     0.010 A 
ATOM     67  C   UNL A   1      43.139  25.237  26.514  1.00  0.00     0.010 A 
ATOM     68  C   UNL A   1      45.525  23.900  26.935  1.00  0.00     0.020 A 
ATOM     69  C   UNL A   1      43.731  24.528  25.460  1.00  0.00     0.020 A 
ATOM     70  C   UNL A   1      44.921  23.851  25.682  1.00  0.00     0.054 A 
BRANCH  70  71
ATOM     71  S   UNL A   1      45.676  22.862  24.370  1.00  0.00     0.124 S 
ATOM     72  O   UNL A   1      46.641  23.793  23.792  1.00  0.00    -0.237 OA
ATOM     73  O   UNL A   1      46.245  21.742  25.114  1.00  0.00    -0.237 OA
ATOM     74  O   UNL A   1      44.552  22.519  23.500  1.00  0.00    -0.744 OA
ENDBRANCH  70  71
ENDBRANCH  51  65
BRANCH  52  75
ATOM     75  C   UNL A   1      39.305  31.965  33.226  1.00  0.00    -0.014 A 
ATOM     76  C   UNL A   1      39.080  33.352  33.032  1.00  0.00     0.010 A 
ATOM     77  C   UNL A   1      38.186  31.132  33.096  1.00  0.00     0.010 A 
ATOM     78  C   UNL A   1      37.838  33.891  32.682  1.00  0.00     0.020 A 
ATOM     79  C   UNL A   1      36.920  31.671  32.731  1.00  0.00     0.020 A 
ATOM     80  C   UNL A   1      36.758  33.046  32.516  1.00  0.00     0.054 A 
BRANCH  80  81
ATOM     81  S   UNL A   1      35.232  33.764  31.832  1.00  0.00     0.124 S 
ATOM     82  O   UNL A   1      35.062  34.955  32.658  1.00  0.00    -0.237 OA
ATOM     83  O   UNL A   1      35.592  34.017  30.435  1.00  0.00    -0.237 OA
ATOM     84  O   UNL A   1      34.252  32.704  32.032  1.00  0.00    -0.744 OA
ENDBRANCH  80  81
ENDBRANCH  52  75
BRANCH  64  85
ATOM     85  C   UNL A   1      44.614  27.048  34.280  1.00  0.00    -0.014 A 
ATOM     86  C   UNL A   1      44.000  25.917  34.833  1.00  0.00     0.010 A 
ATOM     87  C   UNL A   1      46.021  27.146  34.406  1.00  0.00     0.010 A 
ATOM     88  C   UNL A   1      44.740  24.955  35.515  1.00  0.00     0.020 A 
ATOM     89  C   UNL A   1      46.778  26.159  35.026  1.00  0.00     0.020 A 
ATOM     90  C   UNL A   1      46.124  25.080  35.602  1.00  0.00     0.054 A 
BRANCH  90  91
ATOM     91  S   UNL A   1      47.051  23.793  36.449  1.00  0.00     0.124 S 
ATOM     92  O   UNL A   1      47.810  24.572  37.424  1.00  0.00    -0.237 OA
ATOM     93  O   UNL A   1      45.992  22.952  37.004  1.00  0.00    -0.237 OA
ATOM     94  O   UNL A   1      47.841  23.174  35.388  1.00  0.00    -0.744 OA
ENDBRANCH  90  91
ENDBRANCH  64  85
ENDBRANCH  38  39
ENDBRANCH  31  33
ENDBRANCH  30  31
ENDBRANCH  29  30
ENDBRANCH  28  29
ENDBRANCH  27  28
ENDBRANCH   1  27
TORSDOF 21
ENDMDL
MODEL 2
REMARK VINA RESULT:     -11.0      2.936      3.931
REMARK SMILES Cc1cccc(OCC(=O)Nc2cc(C(=O)OCCOCCOC(=O)c3ccc(-c4c5nc(c(-c6ccc(S(=O)(=O)[O-])cc6)c6ccc([nH]6)c(-c6ccc(S(=O)(=O)[O-])cc6)c6nc(c(-c7ccc(S(=O)(=O)[O-])cc7)c7ccc4[nH]7)C=C6)C=C5)cc3)c(Cl)cc2Cl)c1
REMARK SMILES IDX 19 1 18 2 17 3 15 4 16 5 14 6 12 7 13 8 89 9 88 10 90 11
REMARK SMILES IDX 86 12 87 13 11 14 9 15 10 16 8 18 7 19 6 20 1 21 2 22 3 23
REMARK SMILES IDX 91 24 4 25 5 26 20 27 21 28 22 29 23 30 24 31 25 32 26 33
REMARK SMILES IDX 27 34 85 35 28 36 84 37 29 38 30 39 31 40 78 41 32 42 83 43
REMARK SMILES IDX 77 44 79 45 33 46 82 47 76 48 75 49 34 51 64 52 45 53 63 54
REMARK SMILES IDX 46 55 49 56 62 57 80 58 47 59 48 60 61 62 81 63 50 64 35 65
REMARK SMILES IDX 36 66 44 67 37 68 43 69 38 70 39 71 40 72 41 73 42 74 65 75
REMARK SMILES IDX 66 76 74 77 67 78 73 79 68 80 69 81 70 82 71 83 72 84 51 85
REMARK SMILES IDX 52 86 60 87 53 88 59 89 54 90 55 91 56 92 57 93 58 94
REMARK H PARENT 11 17 79 50 49 61
REMARK Flexibility Score: inf
ROOT
ATOM      1  C   UNL A   1      31.795  28.409  27.579  1.00  0.00     0.202 C 
ENDROOT
BRANCH   1   2
ATOM      2  C   UNL A   1      31.267  27.593  26.472  1.00  0.00     0.261 C 
BRANCH   2   3
ATOM      3  O   UNL A   1      31.192  26.224  26.873  1.00  0.00    -0.460 OA
BRANCH   3   4
ATOM      4  C   UNL A   1      30.218  25.453  26.305  1.00  0.00     0.339 C 
ATOM      5  O   UNL A   1      29.138  25.179  26.749  1.00  0.00    -0.246 OA
BRANCH   4   6
ATOM      6  C   UNL A   1      30.779  25.030  25.003  1.00  0.00     0.080 A 
ATOM      7  C   UNL A   1      32.594  23.858  23.868  1.00  0.00     0.061 A 
ATOM      8  C   UNL A   1      31.871  24.125  25.013  1.00  0.00     0.045 A 
ATOM      9  C   UNL A   1      32.184  24.506  22.682  1.00  0.00     0.066 A 
ATOM     10  C   UNL A   1      31.058  25.342  22.646  1.00  0.00     0.044 A 
ATOM     11  Cl  UNL A   1      33.078  24.320  21.213  1.00  0.00    -0.082 Cl
ATOM     12  C   UNL A   1      30.346  25.610  23.812  1.00  0.00     0.057 A 
ATOM     13  Cl  UNL A   1      29.030  26.721  23.687  1.00  0.00    -0.083 Cl
BRANCH   7  14
ATOM     14  N   UNL A   1      33.785  23.103  23.874  1.00  0.00    -0.322 N 
ATOM     15  C   UNL A   1      34.207  21.893  24.368  1.00  0.00     0.262 C 
ATOM     16  O   UNL A   1      35.430  21.711  24.298  1.00  0.00    -0.271 OA
ATOM     17  H   UNL A   1      34.509  23.569  23.396  1.00  0.00     0.170 HD
BRANCH  15  18
ATOM     18  C   UNL A   1      33.248  20.730  24.776  1.00  0.00     0.329 C 
BRANCH  18  19
ATOM     19  O   UNL A   1      32.806  19.625  23.981  1.00  0.00    -0.484 OA
BRANCH  19  20
ATOM     20  C   UNL A   1      33.277  18.377  24.264  1.00  0.00     0.120 A 
ATOM     21  C   UNL A   1      32.164  15.207  25.946  1.00  0.00     0.044 C 
ATOM     22  C   UNL A   1      32.972  16.124  25.085  1.00  0.00    -0.047 A 
ATOM     23  C   UNL A   1      34.328  15.845  24.914  1.00  0.00     0.003 A 
ATOM     24  C   UNL A   1      32.440  17.354  24.664  1.00  0.00     0.049 A 
ATOM     25  C   UNL A   1      35.177  16.900  24.659  1.00  0.00     0.004 A 
ATOM     26  C   UNL A   1      34.640  18.180  24.466  1.00  0.00     0.046 A 
ENDBRANCH  19  20
ENDBRANCH  18  19
ENDBRANCH  15  18
ENDBRANCH   7  14
ENDBRANCH   4   6
ENDBRANCH   3   4
ENDBRANCH   2   3
ENDBRANCH   1   2
BRANCH   1  27
ATOM     27  O   UNL A   1      33.196  28.269  27.397  1.00  0.00    -0.374 OA
BRANCH  27  28
ATOM     28  C   UNL A   1      33.775  29.235  26.561  1.00  0.00     0.202 C 
BRANCH  28  29
ATOM     29  C   UNL A   1      34.650  30.238  27.320  1.00  0.00     0.261 C 
BRANCH  29  30
ATOM     30  O   UNL A   1      36.017  29.765  27.348  1.00  0.00    -0.460 OA
BRANCH  30  31
ATOM     31  C   UNL A   1      36.675  29.850  28.545  1.00  0.00     0.338 C 
ATOM     32  O   UNL A   1      36.296  30.524  29.485  1.00  0.00    -0.246 OA
BRANCH  31  33
ATOM     33  C   UNL A   1      37.894  28.983  28.525  1.00  0.00     0.060 A 
ATOM     34  C   UNL A   1      38.292  28.243  29.658  1.00  0.00     0.016 A 
ATOM     35  C   UNL A   1      38.749  29.073  27.430  1.00  0.00     0.016 A 
ATOM     36  C   UNL A   1      39.595  27.722  29.752  1.00  0.00     0.010 A 
ATOM     37  C   UNL A   1      40.042  28.606  27.542  1.00  0.00     0.010 A 
ATOM     38  C   UNL A   1      40.488  27.963  28.714  1.00  0.00    -0.014 A 
BRANCH  38  39
ATOM     39  C   UNL A   1      41.920  27.649  28.690  1.00  0.00     0.031 A 
ATOM     40  C   UNL A   1      42.274  26.228  28.738  1.00  0.00     0.074 A 
ATOM     41  C   UNL A   1      42.835  28.561  28.282  1.00  0.00     0.049 A 
ATOM     42  N   UNL A   1      43.472  25.789  28.862  1.00  0.00    -0.248 NA
ATOM     43  C   UNL A   1      41.281  25.155  28.673  1.00  0.00     0.031 C 
ATOM     44  C   UNL A   1      44.141  28.417  27.644  1.00  0.00     0.029 A 
ATOM     45  N   UNL A   1      42.767  29.929  28.449  1.00  0.00    -0.354 N 
ATOM     46  C   UNL A   1      43.439  24.504  28.384  1.00  0.00     0.074 A 
ATOM     47  C   UNL A   1      42.068  24.090  28.519  1.00  0.00     0.031 C 
ATOM     48  C   UNL A   1      44.856  29.552  27.811  1.00  0.00     0.029 A 
ATOM     49  C   UNL A   1      44.051  30.419  28.651  1.00  0.00     0.049 A 
ATOM     50  H   UNL A   1      41.944  30.468  28.428  1.00  0.00     0.167 HD
ATOM     51  C   UNL A   1      44.525  24.053  27.697  1.00  0.00     0.031 A 
ATOM     52  C   UNL A   1      44.321  31.025  29.835  1.00  0.00     0.031 A 
ATOM     53  C   UNL A   1      45.630  25.030  27.748  1.00  0.00     0.049 A 
ATOM     54  C   UNL A   1      45.413  30.213  30.446  1.00  0.00     0.074 A 
ATOM     55  C   UNL A   1      46.296  25.789  26.800  1.00  0.00     0.029 A 
ATOM     56  N   UNL A   1      45.990  25.568  28.985  1.00  0.00    -0.354 N 
ATOM     57  N   UNL A   1      45.469  28.912  30.314  1.00  0.00    -0.248 NA
ATOM     58  C   UNL A   1      46.651  30.806  30.938  1.00  0.00     0.031 C 
ATOM     59  C   UNL A   1      47.011  26.822  27.485  1.00  0.00     0.029 A 
ATOM     60  C   UNL A   1      46.771  26.696  28.848  1.00  0.00     0.049 A 
ATOM     61  H   UNL A   1      45.718  25.188  29.853  1.00  0.00     0.167 HD
ATOM     62  C   UNL A   1      46.772  28.532  30.469  1.00  0.00     0.074 A 
ATOM     63  C   UNL A   1      47.459  29.733  30.933  1.00  0.00     0.031 C 
ATOM     64  C   UNL A   1      47.305  27.354  30.035  1.00  0.00     0.031 A 
BRANCH  51  65
ATOM     65  C   UNL A   1      44.509  22.844  26.785  1.00  0.00    -0.014 A 
ATOM     66  C   UNL A   1      45.671  22.513  26.061  1.00  0.00     0.010 A 
ATOM     67  C   UNL A   1      43.397  22.002  26.570  1.00  0.00     0.010 A 
ATOM     68  C   UNL A   1      45.725  21.407  25.198  1.00  0.00     0.020 A 
ATOM     69  C   UNL A   1      43.436  20.886  25.723  1.00  0.00     0.020 A 
ATOM     70  C   UNL A   1      44.609  20.587  25.048  1.00  0.00     0.054 A 
BRANCH  70  71
ATOM     71  S   UNL A   1      44.724  19.114  24.007  1.00  0.00     0.124 S 
ATOM     72  O   UNL A   1      46.114  18.708  24.191  1.00  0.00    -0.237 OA
ATOM     73  O   UNL A   1      43.723  18.234  24.603  1.00  0.00    -0.237 OA
ATOM     74  O   UNL A   1      44.395  19.606  22.669  1.00  0.00    -0.744 OA
ENDBRANCH  70  71
ENDBRANCH  51  65
BRANCH  52  75
ATOM     75  C   UNL A   1      43.087  31.681  30.390  1.00  0.00    -0.014 A 
ATOM     76  C   UNL A   1      42.872  33.006  29.930  1.00  0.00     0.010 A 
ATOM     77  C   UNL A   1      41.983  31.039  30.967  1.00  0.00     0.010 A 
ATOM     78  C   UNL A   1      41.633  33.651  29.985  1.00  0.00     0.020 A 
ATOM     79  C   UNL A   1      40.715  31.686  31.020  1.00  0.00     0.020 A 
ATOM     80  C   UNL A   1      40.548  32.983  30.518  1.00  0.00     0.054 A 
BRANCH  80  81
ATOM     81  S   UNL A   1      38.917  33.772  30.351  1.00  0.00     0.124 S 
ATOM     82  O   UNL A   1      38.387  33.663  31.706  1.00  0.00    -0.237 OA
ATOM     83  O   UNL A   1      39.257  35.130  29.920  1.00  0.00    -0.237 OA
ATOM     84  O   UNL A   1      38.258  32.954  29.342  1.00  0.00    -0.744 OA
ENDBRANCH  80  81
ENDBRANCH  52  75
BRANCH  64  85
ATOM     85  C   UNL A   1      48.381  26.654  30.818  1.00  0.00    -0.014 A 
ATOM     86  C   UNL A   1      48.292  26.385  32.190  1.00  0.00     0.010 A 
ATOM     87  C   UNL A   1      49.450  26.056  30.109  1.00  0.00     0.010 A 
ATOM     88  C   UNL A   1      49.243  25.597  32.833  1.00  0.00     0.020 A 
ATOM     89  C   UNL A   1      50.366  25.212  30.727  1.00  0.00     0.020 A 
ATOM     90  C   UNL A   1      50.269  25.012  32.096  1.00  0.00     0.054 A 
BRANCH  90  91
ATOM     91  S   UNL A   1      51.450  23.961  32.954  1.00  0.00     0.124 S 
ATOM     92  O   UNL A   1      52.702  24.333  32.299  1.00  0.00    -0.237 OA
ATOM     93  O   UNL A   1      51.314  24.396  34.342  1.00  0.00    -0.237 OA
ATOM     94  O   UNL A   1      50.976  22.607  32.680  1.00  0.00    -0.744 OA
ENDBRANCH  90  91
ENDBRANCH  64  85
ENDBRANCH  38  39
ENDBRANCH  31  33
ENDBRANCH  30  31
ENDBRANCH  29  30
ENDBRANCH  28  29
ENDBRANCH  27  28
ENDBRANCH   1  27
TORSDOF 21
ENDMDL
MODEL 3
REMARK VINA RESULT:     -10.7      2.036      3.342
REMARK SMILES Cc1cccc(OCC(=O)Nc2cc(C(=O)OCCOCCOC(=O)c3ccc(-c4c5nc(c(-c6ccc(S(=O)(=O)[O-])cc6)c6ccc([nH]6)c(-c6ccc(S(=O)(=O)[O-])cc6)c6nc(c(-c7ccc(S(=O)(=O)[O-])cc7)c7ccc4[nH]7)C=C6)C=C5)cc3)c(Cl)cc2Cl)c1
REMARK SMILES IDX 19 1 18 2 17 3 15 4 16 5 14 6 12 7 13 8 89 9 88 10 90 11
REMARK SMILES IDX 86 12 87 13 11 14 9 15 10 16 8 18 7 19 6 20 1 21 2 22 3 23
REMARK SMILES IDX 91 24 4 25 5 26 20 27 21 28 22 29 23 30 24 31 25 32 26 33
REMARK SMILES IDX 27 34 85 35 28 36 84 37 29 38 30 39 31 40 78 41 32 42 83 43
REMARK SMILES IDX 77 44 79 45 33 46 82 47 76 48 75 49 34 51 64 52 45 53 63 54
REMARK SMILES IDX 46 55 49 56 62 57 80 58 47 59 48 60 61 62 81 63 50 64 35 65
REMARK SMILES IDX 36 66 44 67 37 68 43 69 38 70 39 71 40 72 41 73 42 74 65 75
REMARK SMILES IDX 66 76 74 77 67 78 73 79 68 80 69 81 70 82 71 83 72 84 51 85
REMARK SMILES IDX 52 86 60 87 53 88 59 89 54 90 55 91 56 92 57 93 58 94
REMARK H PARENT 11 17 79 50 49 61
REMARK Flexibility Score: inf
ROOT
ATOM      1  C   UNL A   1      31.081  28.740  24.968  1.00  0.00     0.202 C 
ENDROOT
BRANCH   1   2
ATOM      2  C   UNL A   1      30.907  27.588  24.067  1.00  0.00     0.261 C 
BRANCH   2   3
ATOM      3  O   UNL A   1      31.885  27.636  23.027  1.00  0.00    -0.460 OA
BRANCH   3   4
ATOM      4  C   UNL A   1      33.130  27.150  23.311  1.00  0.00     0.339 C 
ATOM      5  O   UNL A   1      34.145  27.767  23.482  1.00  0.00    -0.246 OA
BRANCH   4   6
ATOM      6  C   UNL A   1      32.959  25.681  23.372  1.00  0.00     0.080 A 
ATOM      7  C   UNL A   1      33.180  23.675  24.744  1.00  0.00     0.061 A 
ATOM      8  C   UNL A   1      33.098  25.048  24.633  1.00  0.00     0.045 A 
ATOM      9  C   UNL A   1      33.093  22.927  23.549  1.00  0.00     0.066 A 
ATOM     10  C   UNL A   1      32.877  23.540  22.306  1.00  0.00     0.044 A 
ATOM     11  Cl  UNL A   1      33.282  21.208  23.561  1.00  0.00    -0.082 Cl
ATOM     12  C   UNL A   1      32.808  24.927  22.210  1.00  0.00     0.057 A 
ATOM     13  Cl  UNL A   1      32.631  25.594  20.627  1.00  0.00    -0.083 Cl
BRANCH   7  14
ATOM     14  N   UNL A   1      33.491  23.022  25.954  1.00  0.00    -0.322 N 
ATOM     15  C   UNL A   1      34.589  22.425  26.522  1.00  0.00     0.262 C 
ATOM     16  O   UNL A   1      34.349  21.793  27.560  1.00  0.00    -0.271 OA
ATOM     17  H   UNL A   1      32.710  22.983  26.554  1.00  0.00     0.170 HD
BRANCH  15  18
ATOM     18  C   UNL A   1      36.061  22.682  26.067  1.00  0.00     0.329 C 
BRANCH  18  19
ATOM     19  O   UNL A   1      36.863  23.849  26.276  1.00  0.00    -0.484 OA
BRANCH  19  20
ATOM     20  C   UNL A   1      38.210  23.706  26.434  1.00  0.00     0.120 A 
ATOM     21  C   UNL A   1      41.378  25.657  25.918  1.00  0.00     0.044 C 
ATOM     22  C   UNL A   1      40.459  24.592  26.421  1.00  0.00    -0.047 A 
ATOM     23  C   UNL A   1      40.991  23.329  26.681  1.00  0.00     0.003 A 
ATOM     24  C   UNL A   1      39.067  24.787  26.399  1.00  0.00     0.049 A 
ATOM     25  C   UNL A   1      40.154  22.240  26.568  1.00  0.00     0.004 A 
ATOM     26  C   UNL A   1      38.791  22.446  26.315  1.00  0.00     0.046 A 
ENDBRANCH  19  20
ENDBRANCH  18  19
ENDBRANCH  15  18
ENDBRANCH   7  14
ENDBRANCH   4   6
ENDBRANCH   3   4
ENDBRANCH   2   3
ENDBRANCH   1   2
BRANCH   1  27
ATOM     27  O   UNL A   1      31.334  28.099  26.210  1.00  0.00    -0.374 OA
BRANCH  27  28
ATOM     28  C   UNL A   1      32.539  28.470  26.824  1.00  0.00     0.202 C 
BRANCH  28  29
ATOM     29  C   UNL A   1      32.619  29.969  27.129  1.00  0.00     0.261 C 
BRANCH  29  30
ATOM     30  O   UNL A   1      33.946  30.457  26.824  1.00  0.00    -0.460 OA
BRANCH  30  31
ATOM     31  C   UNL A   1      34.519  31.301  27.736  1.00  0.00     0.338 C 
ATOM     32  O   UNL A   1      34.129  32.432  27.955  1.00  0.00    -0.246 OA
BRANCH  31  33
ATOM     33  C   UNL A   1      35.660  30.620  28.423  1.00  0.00     0.060 A 
ATOM     34  C   UNL A   1      35.604  30.285  29.791  1.00  0.00     0.016 A 
ATOM     35  C   UNL A   1      36.867  30.503  27.737  1.00  0.00     0.016 A 
ATOM     36  C   UNL A   1      36.778  29.975  30.502  1.00  0.00     0.010 A 
ATOM     37  C   UNL A   1      38.024  30.249  28.444  1.00  0.00     0.010 A 
ATOM     38  C   UNL A   1      37.996  30.022  29.835  1.00  0.00    -0.014 A 
BRANCH  38  39
ATOM     39  C   UNL A   1      39.332  29.892  30.424  1.00  0.00     0.031 A 
ATOM     40  C   UNL A   1      40.020  28.619  30.200  1.00  0.00     0.074 A 
ATOM     41  C   UNL A   1      40.034  30.979  30.824  1.00  0.00     0.049 A 
ATOM     42  N   UNL A   1      41.127  28.292  30.757  1.00  0.00    -0.248 NA
ATOM     43  C   UNL A   1      39.492  27.569  29.327  1.00  0.00     0.031 C 
ATOM     44  C   UNL A   1      41.470  31.241  30.905  1.00  0.00     0.029 A 
ATOM     45  N   UNL A   1      39.519  32.147  31.348  1.00  0.00    -0.354 N 
ATOM     46  C   UNL A   1      41.662  27.315  29.956  1.00  0.00     0.074 A 
ATOM     47  C   UNL A   1      40.538  26.744  29.262  1.00  0.00     0.031 C 
ATOM     48  C   UNL A   1      41.696  32.277  31.744  1.00  0.00     0.029 A 
ATOM     49  C   UNL A   1      40.406  32.641  32.296  1.00  0.00     0.049 A 
ATOM     50  H   UNL A   1      38.664  32.562  31.091  1.00  0.00     0.167 HD
ATOM     51  C   UNL A   1      43.014  27.294  29.794  1.00  0.00     0.031 A 
ATOM     52  C   UNL A   1      39.974  32.740  33.580  1.00  0.00     0.031 A 
ATOM     53  C   UNL A   1      43.671  28.274  30.681  1.00  0.00     0.049 A 
ATOM     54  C   UNL A   1      40.893  31.865  34.365  1.00  0.00     0.074 A 
ATOM     55  C   UNL A   1      44.426  29.415  30.471  1.00  0.00     0.029 A 
ATOM     56  N   UNL A   1      43.314  28.297  32.031  1.00  0.00    -0.354 N 
ATOM     57  N   UNL A   1      41.365  30.742  33.884  1.00  0.00    -0.248 NA
ATOM     58  C   UNL A   1      41.590  32.331  35.559  1.00  0.00     0.031 C 
ATOM     59  C   UNL A   1      44.466  30.148  31.700  1.00  0.00     0.029 A 
ATOM     60  C   UNL A   1      43.727  29.457  32.652  1.00  0.00     0.049 A 
ATOM     61  H   UNL A   1      42.825  27.572  32.486  1.00  0.00     0.167 HD
ATOM     62  C   UNL A   1      42.533  30.467  34.536  1.00  0.00     0.074 A 
ATOM     63  C   UNL A   1      42.593  31.440  35.623  1.00  0.00     0.031 C 
ATOM     64  C   UNL A   1      43.508  29.628  34.084  1.00  0.00     0.031 A 
BRANCH  51  65
ATOM     65  C   UNL A   1      43.722  26.564  28.671  1.00  0.00    -0.014 A 
ATOM     66  C   UNL A   1      44.233  27.302  27.586  1.00  0.00     0.010 A 
ATOM     67  C   UNL A   1      43.906  25.167  28.599  1.00  0.00     0.010 A 
ATOM     68  C   UNL A   1      44.900  26.690  26.513  1.00  0.00     0.020 A 
ATOM     69  C   UNL A   1      44.581  24.540  27.542  1.00  0.00     0.020 A 
ATOM     70  C   UNL A   1      45.086  25.310  26.507  1.00  0.00     0.054 A 
BRANCH  70  71
ATOM     71  S   UNL A   1      46.028  24.548  25.165  1.00  0.00     0.124 S 
ATOM     72  O   UNL A   1      46.757  25.684  24.609  1.00  0.00    -0.237 OA
ATOM     73  O   UNL A   1      46.838  23.563  25.876  1.00  0.00    -0.237 OA
ATOM     74  O   UNL A   1      44.998  23.986  24.291  1.00  0.00    -0.744 OA
ENDBRANCH  70  71
ENDBRANCH  51  65
BRANCH  52  75
ATOM     75  C   UNL A   1      38.491  32.985  33.625  1.00  0.00    -0.014 A 
ATOM     76  C   UNL A   1      38.107  34.307  33.287  1.00  0.00     0.010 A 
ATOM     77  C   UNL A   1      37.479  32.016  33.583  1.00  0.00     0.010 A 
ATOM     78  C   UNL A   1      36.816  34.658  32.882  1.00  0.00     0.020 A 
ATOM     79  C   UNL A   1      36.163  32.362  33.164  1.00  0.00     0.020 A 
ATOM     80  C   UNL A   1      35.844  33.678  32.806  1.00  0.00     0.054 A 
BRANCH  80  81
ATOM     81  S   UNL A   1      34.253  34.136  32.051  1.00  0.00     0.124 S 
ATOM     82  O   UNL A   1      33.297  33.464  32.926  1.00  0.00    -0.237 OA
ATOM     83  O   UNL A   1      34.262  35.598  32.140  1.00  0.00    -0.237 OA
ATOM     84  O   UNL A   1      34.364  33.601  30.700  1.00  0.00    -0.744 OA
ENDBRANCH  80  81
ENDBRANCH  52  75
BRANCH  64  85
ATOM     85  C   UNL A   1      44.309  28.784  35.036  1.00  0.00    -0.014 A 
ATOM     86  C   UNL A   1      45.646  29.042  35.366  1.00  0.00     0.010 A 
ATOM     87  C   UNL A   1      43.633  27.798  35.795  1.00  0.00     0.010 A 
ATOM     88  C   UNL A   1      46.291  28.325  36.369  1.00  0.00     0.020 A 
ATOM     89  C   UNL A   1      44.247  27.124  36.845  1.00  0.00     0.020 A 
ATOM     90  C   UNL A   1      45.585  27.376  37.106  1.00  0.00     0.054 A 
BRANCH  90  91
ATOM     91  S   UNL A   1      46.441  26.505  38.427  1.00  0.00     0.124 S 
ATOM     92  O   UNL A   1      46.039  25.123  38.175  1.00  0.00    -0.237 OA
ATOM     93  O   UNL A   1      47.843  26.812  38.154  1.00  0.00    -0.237 OA
ATOM     94  O   UNL A   1      45.902  27.104  39.646  1.00  0.00    -0.744 OA
ENDBRANCH  90  91
ENDBRANCH  64  85
ENDBRANCH  38  39
ENDBRANCH  31  33
ENDBRANCH  30  31
ENDBRANCH  29  30
ENDBRANCH  28  29
ENDBRANCH  27  28
ENDBRANCH   1  27
TORSDOF 21
ENDMDL
