MODEL 1
REMARK VINA RESULT:      -8.3      0.000      0.000
REMARK SMILES COc1cc([C@@H]2[NH2+][C@H](C(=O)OCCOCCOC(=O)c3ccc(-c4c5nc(c(-c6ccc(S(=O)(=O)[O-])cc6)c6ccc([nH]6)c(-c6ccc(S(=O)(=O)[O-])cc6)c6nc(c(-c7ccc(S(=O)(=O)[O-])cc7)c7ccc4[nH]7)C=C6)C=C5)cc3)CS2)ccc1OCc1ccc(Cl)cc1
REMARK SMILES IDX 13 1 12 2 11 3 9 4 10 5 8 6 6 7 7 8 81 9 80 12 5 13 3 14
REMARK SMILES IDX 4 15 84 16 83 17 82 18 2 19 1 20 85 21 86 22 87 23 88 24
REMARK SMILES IDX 93 25 89 26 92 27 90 28 91 29 14 30 15 31 16 32 17 33 18 34
REMARK SMILES IDX 19 35 20 36 21 37 79 38 22 39 78 40 23 41 24 42 25 43 72 44
REMARK SMILES IDX 26 45 77 46 71 47 73 48 27 49 76 50 70 51 69 52 28 54 58 55
REMARK SMILES IDX 39 56 57 57 40 58 43 59 56 60 74 61 41 62 42 63 55 65 75 66
REMARK SMILES IDX 44 67 29 68 30 69 38 70 31 71 37 72 32 73 33 74 34 75 35 76
REMARK SMILES IDX 36 77 59 78 60 79 68 80 61 81 67 82 62 83 63 84 64 85 65 86
REMARK SMILES IDX 66 87 45 88 46 89 54 90 47 91 53 92 48 93 49 94 50 95 51 96
REMARK SMILES IDX 52 97
REMARK H PARENT 7 10 7 11 73 53 43 64
REMARK Flexibility Score: inf
ROOT
ATOM      1  C   UNL A   1      49.802  25.468  40.473  1.00  0.00     0.202 C 
ENDROOT
BRANCH   1   2
ATOM      2  C   UNL A   1      48.911  24.779  39.435  1.00  0.00     0.261 C 
BRANCH   2   3
ATOM      3  O   UNL A   1      48.571  23.462  39.905  1.00  0.00    -0.459 OA
BRANCH   3   4
ATOM      4  C   UNL A   1      47.468  22.862  39.390  1.00  0.00     0.365 C 
ATOM      5  O   UNL A   1      46.455  22.585  40.023  1.00  0.00    -0.245 OA
BRANCH   4   6
ATOM      6  C   UNL A   1      47.638  22.523  37.904  1.00  0.00     0.304 C 
ATOM      7  C   UNL A   1      47.272  20.387  36.789  1.00  0.00     0.274 C 
ATOM      8  N   UNL A   1      48.142  21.134  37.697  1.00  0.00    -0.319 N 
ATOM      9  S   UNL A   1      46.259  21.565  35.871  1.00  0.00    -0.087 SA
ATOM     10  H   UNL A   1      49.080  21.174  37.300  1.00  0.00     0.348 HD
ATOM     11  H   UNL A   1      48.154  20.657  38.599  1.00  0.00     0.348 HD
ATOM     12  C   UNL A   1      46.335  22.806  37.174  1.00  0.00     0.153 C 
BRANCH   7  13
ATOM     13  C   UNL A   1      46.490  19.304  37.513  1.00  0.00     0.024 A 
ATOM     14  C   UNL A   1      46.079  17.990  39.551  1.00  0.00     0.161 A 
ATOM     15  C   UNL A   1      46.788  18.988  38.853  1.00  0.00     0.061 A 
ATOM     16  C   UNL A   1      45.033  17.310  38.923  1.00  0.00     0.161 A 
ATOM     17  C   UNL A   1      44.702  17.656  37.611  1.00  0.00     0.051 A 
ATOM     18  C   UNL A   1      45.424  18.623  36.912  1.00  0.00     0.015 A 
BRANCH  14  19
ATOM     19  O   UNL A   1      46.344  17.791  40.880  1.00  0.00    -0.493 OA
ATOM     20  C   UNL A   1      45.949  18.900  41.686  1.00  0.00     0.278 C 
ENDBRANCH  14  19
BRANCH  16  21
ATOM     21  O   UNL A   1      44.248  16.303  39.402  1.00  0.00    -0.485 OA
BRANCH  21  22
ATOM     22  C   UNL A   1      43.250  16.548  40.391  1.00  0.00     0.265 C 
BRANCH  22  23
ATOM     23  C   UNL A   1      42.593  15.329  40.999  1.00  0.00    -0.011 A 
ATOM     24  C   UNL A   1      42.146  14.245  40.234  1.00  0.00     0.009 A 
ATOM     25  C   UNL A   1      42.403  15.302  42.390  1.00  0.00     0.009 A 
ATOM     26  C   UNL A   1      41.582  13.128  40.852  1.00  0.00     0.021 A 
ATOM     27  C   UNL A   1      41.828  14.192  43.008  1.00  0.00     0.021 A 
ATOM     28  C   UNL A   1      41.433  13.103  42.236  1.00  0.00     0.041 A 
ATOM     29  Cl  UNL A   1      40.761  11.714  42.997  1.00  0.00    -0.084 Cl
ENDBRANCH  22  23
ENDBRANCH  21  22
ENDBRANCH  16  21
ENDBRANCH   7  13
ENDBRANCH   4   6
ENDBRANCH   3   4
ENDBRANCH   2   3
ENDBRANCH   1   2
BRANCH   1  30
ATOM     30  O   UNL A   1      49.066  26.076  41.543  1.00  0.00    -0.374 OA
BRANCH  30  31
ATOM     31  C   UNL A   1      48.167  27.112  41.152  1.00  0.00     0.202 C 
BRANCH  31  32
ATOM     32  C   UNL A   1      47.210  27.598  42.246  1.00  0.00     0.261 C 
BRANCH  32  33
ATOM     33  O   UNL A   1      46.068  28.286  41.717  1.00  0.00    -0.460 OA
BRANCH  33  34
ATOM     34  C   UNL A   1      45.096  27.475  41.234  1.00  0.00     0.338 C 
ATOM     35  O   UNL A   1      44.222  26.909  41.877  1.00  0.00    -0.246 OA
BRANCH  34  36
ATOM     36  C   UNL A   1      45.153  27.434  39.762  1.00  0.00     0.060 A 
ATOM     37  C   UNL A   1      44.917  26.213  39.122  1.00  0.00     0.016 A 
ATOM     38  C   UNL A   1      45.506  28.558  39.018  1.00  0.00     0.016 A 
ATOM     39  C   UNL A   1      45.056  26.106  37.735  1.00  0.00     0.010 A 
ATOM     40  C   UNL A   1      45.647  28.441  37.632  1.00  0.00     0.010 A 
ATOM     41  C   UNL A   1      45.438  27.217  36.970  1.00  0.00    -0.014 A 
BRANCH  41  42
ATOM     42  C   UNL A   1      45.694  27.078  35.505  1.00  0.00     0.031 A 
ATOM     43  C   UNL A   1      44.637  27.498  34.510  1.00  0.00     0.074 A 
ATOM     44  C   UNL A   1      46.854  26.562  35.045  1.00  0.00     0.049 A 
ATOM     45  N   UNL A   1      44.672  27.462  33.201  1.00  0.00    -0.248 NA
ATOM     46  C   UNL A   1      43.363  27.991  35.058  1.00  0.00     0.031 C 
ATOM     47  C   UNL A   1      47.946  26.046  35.874  1.00  0.00     0.029 A 
ATOM     48  N   UNL A   1      47.300  26.368  33.758  1.00  0.00    -0.354 N 
ATOM     49  C   UNL A   1      43.426  27.906  32.773  1.00  0.00     0.074 A 
ATOM     50  C   UNL A   1      42.636  28.144  33.961  1.00  0.00     0.031 C 
ATOM     51  C   UNL A   1      48.938  25.611  35.078  1.00  0.00     0.029 A 
ATOM     52  C   UNL A   1      48.556  25.810  33.682  1.00  0.00     0.049 A 
ATOM     53  H   UNL A   1      46.769  26.606  32.964  1.00  0.00     0.167 HD
ATOM     54  C   UNL A   1      42.980  28.134  31.514  1.00  0.00     0.031 A 
ATOM     55  C   UNL A   1      49.321  25.505  32.614  1.00  0.00     0.031 A 
ATOM     56  C   UNL A   1      43.772  27.963  30.325  1.00  0.00     0.049 A 
ATOM     57  C   UNL A   1      48.823  25.811  31.225  1.00  0.00     0.074 A 
ATOM     58  C   UNL A   1      43.438  28.272  29.018  1.00  0.00     0.029 A 
ATOM     59  N   UNL A   1      45.056  27.445  30.298  1.00  0.00    -0.354 N 
ATOM     60  N   UNL A   1      47.677  26.329  30.852  1.00  0.00    -0.248 NA
ATOM     61  C   UNL A   1      49.740  25.516  30.112  1.00  0.00     0.031 C 
ATOM     62  C   UNL A   1      44.510  27.911  28.193  1.00  0.00     0.029 A 
ATOM     63  C   UNL A   1      45.525  27.415  28.995  1.00  0.00     0.049 A 
ATOM     64  H   UNL A   1      45.561  27.143  31.087  1.00  0.00     0.167 HD
ATOM     65  C   UNL A   1      47.755  26.461  29.469  1.00  0.00     0.074 A 
ATOM     66  C   UNL A   1      49.060  25.977  29.072  1.00  0.00     0.031 C 
ATOM     67  C   UNL A   1      46.829  26.945  28.605  1.00  0.00     0.031 A 
BRANCH  54  68
ATOM     68  C   UNL A   1      41.564  28.622  31.357  1.00  0.00    -0.014 A 
ATOM     69  C   UNL A   1      41.284  29.991  31.188  1.00  0.00     0.010 A 
ATOM     70  C   UNL A   1      40.502  27.700  31.340  1.00  0.00     0.010 A 
ATOM     71  C   UNL A   1      39.966  30.434  31.058  1.00  0.00     0.020 A 
ATOM     72  C   UNL A   1      39.184  28.136  31.179  1.00  0.00     0.020 A 
ATOM     73  C   UNL A   1      38.924  29.503  31.060  1.00  0.00     0.054 A 
BRANCH  73  74
ATOM     74  S   UNL A   1      37.222  30.102  30.869  1.00  0.00     0.124 S 
ATOM     75  O   UNL A   1      37.421  31.546  30.778  1.00  0.00    -0.237 OA
ATOM     76  O   UNL A   1      36.787  29.449  29.637  1.00  0.00    -0.237 OA
ATOM     77  O   UNL A   1      36.555  29.640  32.084  1.00  0.00    -0.744 OA
ENDBRANCH  73  74
ENDBRANCH  54  68
BRANCH  55  78
ATOM     78  C   UNL A   1      50.677  24.918  32.799  1.00  0.00    -0.014 A 
ATOM     79  C   UNL A   1      51.791  25.757  32.987  1.00  0.00     0.010 A 
ATOM     80  C   UNL A   1      50.871  23.528  32.737  1.00  0.00     0.010 A 
ATOM     81  C   UNL A   1      53.079  25.220  33.070  1.00  0.00     0.020 A 
ATOM     82  C   UNL A   1      52.156  22.985  32.846  1.00  0.00     0.020 A 
ATOM     83  C   UNL A   1      53.253  23.836  32.994  1.00  0.00     0.054 A 
BRANCH  83  84
ATOM     84  S   UNL A   1      54.932  23.159  33.121  1.00  0.00     0.124 S 
ATOM     85  O   UNL A   1      54.762  22.110  34.120  1.00  0.00    -0.237 OA
ATOM     86  O   UNL A   1      55.193  22.699  31.758  1.00  0.00    -0.237 OA
ATOM     87  O   UNL A   1      55.730  24.307  33.544  1.00  0.00    -0.744 OA
ENDBRANCH  83  84
ENDBRANCH  55  78
BRANCH  67  88
ATOM     88  C   UNL A   1      47.212  27.031  27.152  1.00  0.00    -0.014 A 
ATOM     89  C   UNL A   1      47.005  25.951  26.275  1.00  0.00     0.010 A 
ATOM     90  C   UNL A   1      47.771  28.221  26.652  1.00  0.00     0.010 A 
ATOM     91  C   UNL A   1      47.392  26.045  24.935  1.00  0.00     0.020 A 
ATOM     92  C   UNL A   1      48.136  28.328  25.308  1.00  0.00     0.020 A 
ATOM     93  C   UNL A   1      47.964  27.231  24.462  1.00  0.00     0.054 A 
BRANCH  93  94
ATOM     94  S   UNL A   1      48.447  27.339  22.717  1.00  0.00     0.124 S 
ATOM     95  O   UNL A   1      49.762  27.967  22.805  1.00  0.00    -0.237 OA
ATOM     96  O   UNL A   1      48.446  25.941  22.292  1.00  0.00    -0.237 OA
ATOM     97  O   UNL A   1      47.401  28.165  22.120  1.00  0.00    -0.744 OA
ENDBRANCH  93  94
ENDBRANCH  67  88
ENDBRANCH  41  42
ENDBRANCH  34  36
ENDBRANCH  33  34
ENDBRANCH  32  33
ENDBRANCH  31  32
ENDBRANCH  30  31
ENDBRANCH   1  30
TORSDOF 22
ENDMDL
MODEL 2
REMARK VINA RESULT:      -8.2      9.929     15.947
REMARK SMILES COc1cc([C@@H]2[NH2+][C@H](C(=O)OCCOCCOC(=O)c3ccc(-c4c5nc(c(-c6ccc(S(=O)(=O)[O-])cc6)c6ccc([nH]6)c(-c6ccc(S(=O)(=O)[O-])cc6)c6nc(c(-c7ccc(S(=O)(=O)[O-])cc7)c7ccc4[nH]7)C=C6)C=C5)cc3)CS2)ccc1OCc1ccc(Cl)cc1
REMARK SMILES IDX 13 1 12 2 11 3 9 4 10 5 8 6 6 7 7 8 81 9 80 12 5 13 3 14
REMARK SMILES IDX 4 15 84 16 83 17 82 18 2 19 1 20 85 21 86 22 87 23 88 24
REMARK SMILES IDX 93 25 89 26 92 27 90 28 91 29 14 30 15 31 16 32 17 33 18 34
REMARK SMILES IDX 19 35 20 36 21 37 79 38 22 39 78 40 23 41 24 42 25 43 72 44
REMARK SMILES IDX 26 45 77 46 71 47 73 48 27 49 76 50 70 51 69 52 28 54 58 55
REMARK SMILES IDX 39 56 57 57 40 58 43 59 56 60 74 61 41 62 42 63 55 65 75 66
REMARK SMILES IDX 44 67 29 68 30 69 38 70 31 71 37 72 32 73 33 74 34 75 35 76
REMARK SMILES IDX 36 77 59 78 60 79 68 80 61 81 67 82 62 83 63 84 64 85 65 86
REMARK SMILES IDX 66 87 45 88 46 89 54 90 47 91 53 92 48 93 49 94 50 95 51 96
REMARK SMILES IDX 52 97
REMARK H PARENT 7 10 7 11 73 53 43 64
REMARK Flexibility Score: inf
ROOT
ATOM      1  C   UNL A   1      40.028  24.927  27.719  1.00  0.00     0.202 C 
ENDROOT
BRANCH   1   2
ATOM      2  C   UNL A   1      39.449  26.345  27.712  1.00  0.00     0.261 C 
BRANCH   2   3
ATOM      3  O   UNL A   1      40.154  27.148  28.677  1.00  0.00    -0.459 OA
BRANCH   3   4
ATOM      4  C   UNL A   1      39.453  27.659  29.721  1.00  0.00     0.365 C 
ATOM      5  O   UNL A   1      38.693  27.020  30.440  1.00  0.00    -0.245 OA
BRANCH   4   6
ATOM      6  C   UNL A   1      39.689  29.165  29.890  1.00  0.00     0.304 C 
ATOM      7  C   UNL A   1      38.360  31.010  29.014  1.00  0.00     0.274 C 
ATOM      8  N   UNL A   1      39.293  29.936  28.675  1.00  0.00    -0.319 N 
ATOM      9  S   UNL A   1      38.465  31.320  30.788  1.00  0.00    -0.087 SA
ATOM     10  H   UNL A   1      40.127  30.342  28.252  1.00  0.00     0.348 HD
ATOM     11  H   UNL A   1      38.833  29.300  28.024  1.00  0.00     0.348 HD
ATOM     12  C   UNL A   1      38.995  29.640  31.157  1.00  0.00     0.153 C 
BRANCH   7  13
ATOM     13  C   UNL A   1      36.958  30.727  28.499  1.00  0.00     0.024 A 
ATOM     14  C   UNL A   1      34.683  31.519  28.002  1.00  0.00     0.161 A 
ATOM     15  C   UNL A   1      35.990  31.751  28.476  1.00  0.00     0.061 A 
ATOM     16  C   UNL A   1      34.332  30.260  27.512  1.00  0.00     0.161 A 
ATOM     17  C   UNL A   1      35.304  29.256  27.488  1.00  0.00     0.051 A 
ATOM     18  C   UNL A   1      36.588  29.479  27.984  1.00  0.00     0.015 A 
BRANCH  14  19
ATOM     19  O   UNL A   1      33.813  32.572  27.911  1.00  0.00    -0.493 OA
ATOM     20  C   UNL A   1      34.472  33.834  28.001  1.00  0.00     0.278 C 
ENDBRANCH  14  19
BRANCH  16  21
ATOM     21  O   UNL A   1      33.130  29.821  27.041  1.00  0.00    -0.485 OA
BRANCH  21  22
ATOM     22  C   UNL A   1      32.709  30.105  25.708  1.00  0.00     0.265 C 
BRANCH  22  23
ATOM     23  C   UNL A   1      32.577  28.921  24.778  1.00  0.00    -0.011 A 
ATOM     24  C   UNL A   1      31.517  28.009  24.854  1.00  0.00     0.009 A 
ATOM     25  C   UNL A   1      33.579  28.718  23.815  1.00  0.00     0.009 A 
ATOM     26  C   UNL A   1      31.424  26.956  23.944  1.00  0.00     0.021 A 
ATOM     27  C   UNL A   1      33.494  27.658  22.913  1.00  0.00     0.021 A 
ATOM     28  C   UNL A   1      32.408  26.789  22.973  1.00  0.00     0.041 A 
ATOM     29  Cl  UNL A   1      32.277  25.505  21.836  1.00  0.00    -0.084 Cl
ENDBRANCH  22  23
ENDBRANCH  21  22
ENDBRANCH  16  21
ENDBRANCH   7  13
ENDBRANCH   4   6
ENDBRANCH   3   4
ENDBRANCH   2   3
ENDBRANCH   1   2
BRANCH   1  30
ATOM     30  O   UNL A   1      41.222  24.795  26.936  1.00  0.00    -0.374 OA
BRANCH  30  31
ATOM     31  C   UNL A   1      42.256  24.013  27.530  1.00  0.00     0.202 C 
BRANCH  31  32
ATOM     32  C   UNL A   1      43.677  24.334  27.055  1.00  0.00     0.261 C 
BRANCH  32  33
ATOM     33  O   UNL A   1      44.190  25.548  27.624  1.00  0.00    -0.460 OA
BRANCH  33  34
ATOM     34  C   UNL A   1      44.096  26.631  26.816  1.00  0.00     0.338 C 
ATOM     35  O   UNL A   1      43.934  26.633  25.602  1.00  0.00    -0.246 OA
BRANCH  34  36
ATOM     36  C   UNL A   1      44.105  27.867  27.619  1.00  0.00     0.060 A 
ATOM     37  C   UNL A   1      43.277  28.922  27.223  1.00  0.00     0.016 A 
ATOM     38  C   UNL A   1      44.967  28.021  28.702  1.00  0.00     0.016 A 
ATOM     39  C   UNL A   1      43.326  30.146  27.897  1.00  0.00     0.010 A 
ATOM     40  C   UNL A   1      45.013  29.250  29.368  1.00  0.00     0.010 A 
ATOM     41  C   UNL A   1      44.207  30.333  28.972  1.00  0.00    -0.014 A 
BRANCH  41  42
ATOM     42  C   UNL A   1      44.339  31.672  29.621  1.00  0.00     0.031 A 
ATOM     43  C   UNL A   1      45.384  32.649  29.133  1.00  0.00     0.074 A 
ATOM     44  C   UNL A   1      43.550  32.025  30.659  1.00  0.00     0.049 A 
ATOM     45  N   UNL A   1      45.649  33.858  29.561  1.00  0.00    -0.248 NA
ATOM     46  C   UNL A   1      46.265  32.195  28.047  1.00  0.00     0.031 C 
ATOM     47  C   UNL A   1      42.542  31.171  31.293  1.00  0.00     0.029 A 
ATOM     48  N   UNL A   1      43.487  33.196  31.378  1.00  0.00    -0.354 N 
ATOM     49  C   UNL A   1      46.735  34.298  28.813  1.00  0.00     0.074 A 
ATOM     50  C   UNL A   1      47.120  33.203  27.950  1.00  0.00     0.031 C 
ATOM     51  C   UNL A   1      41.953  31.851  32.292  1.00  0.00     0.029 A 
ATOM     52  C   UNL A   1      42.540  33.185  32.377  1.00  0.00     0.049 A 
ATOM     53  H   UNL A   1      44.066  33.970  31.196  1.00  0.00     0.167 HD
ATOM     54  C   UNL A   1      47.341  35.510  28.808  1.00  0.00     0.031 A 
ATOM     55  C   UNL A   1      42.175  34.143  33.254  1.00  0.00     0.031 A 
ATOM     56  C   UNL A   1      46.933  36.629  29.614  1.00  0.00     0.049 A 
ATOM     57  C   UNL A   1      42.831  35.498  33.199  1.00  0.00     0.074 A 
ATOM     58  C   UNL A   1      47.420  37.925  29.596  1.00  0.00     0.029 A 
ATOM     59  N   UNL A   1      45.936  36.590  30.574  1.00  0.00    -0.354 N 
ATOM     60  N   UNL A   1      43.789  35.922  32.409  1.00  0.00    -0.248 NA
ATOM     61  C   UNL A   1      42.333  36.514  34.139  1.00  0.00     0.031 C 
ATOM     62  C   UNL A   1      46.739  38.664  30.570  1.00  0.00     0.029 A 
ATOM     63  C   UNL A   1      45.801  37.836  31.165  1.00  0.00     0.049 A 
ATOM     64  H   UNL A   1      45.403  35.796  30.804  1.00  0.00     0.167 HD
ATOM     65  C   UNL A   1      43.974  37.264  32.729  1.00  0.00     0.074 A 
ATOM     66  C   UNL A   1      43.028  37.583  33.776  1.00  0.00     0.031 C 
ATOM     67  C   UNL A   1      44.849  38.153  32.197  1.00  0.00     0.031 A 
BRANCH  54  68
ATOM     68  C   UNL A   1      48.509  35.697  27.875  1.00  0.00    -0.014 A 
ATOM     69  C   UNL A   1      48.310  36.038  26.525  1.00  0.00     0.010 A 
ATOM     70  C   UNL A   1      49.823  35.570  28.362  1.00  0.00     0.010 A 
ATOM     71  C   UNL A   1      49.400  36.196  25.666  1.00  0.00     0.020 A 
ATOM     72  C   UNL A   1      50.917  35.757  27.513  1.00  0.00     0.020 A 
ATOM     73  C   UNL A   1      50.697  36.049  26.165  1.00  0.00     0.054 A 
BRANCH  73  74
ATOM     74  S   UNL A   1      52.096  36.278  25.033  1.00  0.00     0.124 S 
ATOM     75  O   UNL A   1      52.694  37.510  25.543  1.00  0.00    -0.237 OA
ATOM     76  O   UNL A   1      52.883  35.065  25.244  1.00  0.00    -0.237 OA
ATOM     77  O   UNL A   1      51.465  36.388  23.721  1.00  0.00    -0.744 OA
ENDBRANCH  73  74
ENDBRANCH  54  68
BRANCH  55  78
ATOM     78  C   UNL A   1      41.089  33.888  34.241  1.00  0.00    -0.014 A 
ATOM     79  C   UNL A   1      41.366  33.195  35.434  1.00  0.00     0.010 A 
ATOM     80  C   UNL A   1      39.769  34.289  33.974  1.00  0.00     0.010 A 
ATOM     81  C   UNL A   1      40.337  32.873  36.323  1.00  0.00     0.020 A 
ATOM     82  C   UNL A   1      38.740  33.990  34.874  1.00  0.00     0.020 A 
ATOM     83  C   UNL A   1      39.029  33.268  36.034  1.00  0.00     0.054 A 
BRANCH  83  84
ATOM     84  S   UNL A   1      37.710  32.853  37.210  1.00  0.00     0.124 S 
ATOM     85  O   UNL A   1      38.134  33.570  38.407  1.00  0.00    -0.237 OA
ATOM     86  O   UNL A   1      36.517  33.375  36.547  1.00  0.00    -0.237 OA
ATOM     87  O   UNL A   1      37.776  31.396  37.294  1.00  0.00    -0.744 OA
ENDBRANCH  83  84
ENDBRANCH  55  78
BRANCH  67  88
ATOM     88  C   UNL A   1      44.786  39.572  32.697  1.00  0.00    -0.014 A 
ATOM     89  C   UNL A   1      45.581  40.006  33.772  1.00  0.00     0.010 A 
ATOM     90  C   UNL A   1      43.930  40.492  32.064  1.00  0.00     0.010 A 
ATOM     91  C   UNL A   1      45.487  41.322  34.235  1.00  0.00     0.020 A 
ATOM     92  C   UNL A   1      43.851  41.814  32.508  1.00  0.00     0.020 A 
ATOM     93  C   UNL A   1      44.615  42.216  33.605  1.00  0.00     0.054 A 
BRANCH  93  94
ATOM     94  S   UNL A   1      44.517  43.923  34.210  1.00  0.00     0.124 S 
ATOM     95  O   UNL A   1      45.395  43.882  35.376  1.00  0.00    -0.237 OA
ATOM     96  O   UNL A   1      45.014  44.698  33.077  1.00  0.00    -0.237 OA
ATOM     97  O   UNL A   1      43.098  44.103  34.505  1.00  0.00    -0.744 OA
ENDBRANCH  93  94
ENDBRANCH  67  88
ENDBRANCH  41  42
ENDBRANCH  34  36
ENDBRANCH  33  34
ENDBRANCH  32  33
ENDBRANCH  31  32
ENDBRANCH  30  31
ENDBRANCH   1  30
TORSDOF 22
ENDMDL
MODEL 3
REMARK VINA RESULT:      -8.0      9.677     17.638
REMARK SMILES COc1cc([C@@H]2[NH2+][C@H](C(=O)OCCOCCOC(=O)c3ccc(-c4c5nc(c(-c6ccc(S(=O)(=O)[O-])cc6)c6ccc([nH]6)c(-c6ccc(S(=O)(=O)[O-])cc6)c6nc(c(-c7ccc(S(=O)(=O)[O-])cc7)c7ccc4[nH]7)C=C6)C=C5)cc3)CS2)ccc1OCc1ccc(Cl)cc1
REMARK SMILES IDX 13 1 12 2 11 3 9 4 10 5 8 6 6 7 7 8 81 9 80 12 5 13 3 14
REMARK SMILES IDX 4 15 84 16 83 17 82 18 2 19 1 20 85 21 86 22 87 23 88 24
REMARK SMILES IDX 93 25 89 26 92 27 90 28 91 29 14 30 15 31 16 32 17 33 18 34
REMARK SMILES IDX 19 35 20 36 21 37 79 38 22 39 78 40 23 41 24 42 25 43 72 44
REMARK SMILES IDX 26 45 77 46 71 47 73 48 27 49 76 50 70 51 69 52 28 54 58 55
REMARK SMILES IDX 39 56 57 57 40 58 43 59 56 60 74 61 41 62 42 63 55 65 75 66
REMARK SMILES IDX 44 67 29 68 30 69 38 70 31 71 37 72 32 73 33 74 34 75 35 76
REMARK SMILES IDX 36 77 59 78 60 79 68 80 61 81 67 82 62 83 63 84 64 85 65 86
REMARK SMILES IDX 66 87 45 88 46 89 54 90 47 91 53 92 48 93 49 94 50 95 51 96
REMARK SMILES IDX 52 97
REMARK H PARENT 7 10 7 11 73 53 43 64
REMARK Flexibility Score: inf
ROOT
ATOM      1  C   UNL A   1      46.091  41.441  23.191  1.00  0.00     0.202 C 
ENDROOT
BRANCH   1   2
ATOM      2  C   UNL A   1      47.498  41.785  22.695  1.00  0.00     0.261 C 
BRANCH   2   3
ATOM      3  O   UNL A   1      47.505  41.787  21.256  1.00  0.00    -0.459 OA
BRANCH   3   4
ATOM      4  C   UNL A   1      48.146  42.799  20.618  1.00  0.00     0.365 C 
ATOM      5  O   UNL A   1      49.273  43.200  20.887  1.00  0.00    -0.245 OA
BRANCH   4   6
ATOM      6  C   UNL A   1      47.279  43.430  19.522  1.00  0.00     0.304 C 
ATOM      7  C   UNL A   1      44.851  43.620  19.438  1.00  0.00     0.274 C 
ATOM      8  N   UNL A   1      45.987  42.705  19.339  1.00  0.00    -0.319 N 
ATOM      9  S   UNL A   1      45.453  45.305  19.208  1.00  0.00    -0.087 SA
ATOM     10  H   UNL A   1      45.979  42.263  18.421  1.00  0.00     0.348 HD
ATOM     11  H   UNL A   1      45.903  42.004  20.076  1.00  0.00     0.348 HD
ATOM     12  C   UNL A   1      47.102  44.911  19.814  1.00  0.00     0.153 C 
BRANCH   7  13
ATOM     13  C   UNL A   1      44.051  43.398  20.711  1.00  0.00     0.024 A 
ATOM     14  C   UNL A   1      43.624  43.952  23.069  1.00  0.00     0.161 A 
ATOM     15  C   UNL A   1      44.349  44.136  21.875  1.00  0.00     0.061 A 
ATOM     16  C   UNL A   1      42.563  43.046  23.109  1.00  0.00     0.161 A 
ATOM     17  C   UNL A   1      42.233  42.349  21.944  1.00  0.00     0.051 A 
ATOM     18  C   UNL A   1      42.971  42.510  20.771  1.00  0.00     0.015 A 
BRANCH  14  19
ATOM     19  O   UNL A   1      43.890  44.764  24.140  1.00  0.00    -0.493 OA
ATOM     20  C   UNL A   1      44.501  44.059  25.219  1.00  0.00     0.278 C 
ENDBRANCH  14  19
BRANCH  16  21
ATOM     21  O   UNL A   1      41.761  42.700  24.157  1.00  0.00    -0.485 OA
BRANCH  21  22
ATOM     22  C   UNL A   1      41.595  41.337  24.543  1.00  0.00     0.265 C 
BRANCH  22  23
ATOM     23  C   UNL A   1      42.085  40.965  25.924  1.00  0.00    -0.011 A 
ATOM     24  C   UNL A   1      43.444  40.889  26.253  1.00  0.00     0.009 A 
ATOM     25  C   UNL A   1      41.130  40.660  26.908  1.00  0.00     0.009 A 
ATOM     26  C   UNL A   1      43.840  40.579  27.554  1.00  0.00     0.021 A 
ATOM     27  C   UNL A   1      41.526  40.338  28.206  1.00  0.00     0.021 A 
ATOM     28  C   UNL A   1      42.880  40.313  28.527  1.00  0.00     0.041 A 
ATOM     29  Cl  UNL A   1      43.371  39.956  30.137  1.00  0.00    -0.084 Cl
ENDBRANCH  22  23
ENDBRANCH  21  22
ENDBRANCH  16  21
ENDBRANCH   7  13
ENDBRANCH   4   6
ENDBRANCH   3   4
ENDBRANCH   2   3
ENDBRANCH   1   2
BRANCH   1  30
ATOM     30  O   UNL A   1      46.068  40.913  24.523  1.00  0.00    -0.374 OA
BRANCH  30  31
ATOM     31  C   UNL A   1      47.283  40.303  24.957  1.00  0.00     0.202 C 
BRANCH  31  32
ATOM     32  C   UNL A   1      47.179  38.817  25.316  1.00  0.00     0.261 C 
BRANCH  32  33
ATOM     33  O   UNL A   1      46.758  38.602  26.671  1.00  0.00    -0.460 OA
BRANCH  33  34
ATOM     34  C   UNL A   1      47.576  37.799  27.393  1.00  0.00     0.338 C 
ATOM     35  O   UNL A   1      48.614  38.119  27.957  1.00  0.00    -0.246 OA
BRANCH  34  36
ATOM     36  C   UNL A   1      46.989  36.452  27.513  1.00  0.00     0.060 A 
ATOM     37  C   UNL A   1      47.263  35.710  28.666  1.00  0.00     0.016 A 
ATOM     38  C   UNL A   1      46.240  35.892  26.480  1.00  0.00     0.016 A 
ATOM     39  C   UNL A   1      46.808  34.392  28.779  1.00  0.00     0.010 A 
ATOM     40  C   UNL A   1      45.793  34.573  26.599  1.00  0.00     0.010 A 
ATOM     41  C   UNL A   1      46.077  33.798  27.740  1.00  0.00    -0.014 A 
BRANCH  41  42
ATOM     42  C   UNL A   1      45.686  32.359  27.813  1.00  0.00     0.031 A 
ATOM     43  C   UNL A   1      44.323  31.972  28.338  1.00  0.00     0.074 A 
ATOM     44  C   UNL A   1      46.540  31.384  27.434  1.00  0.00     0.049 A 
ATOM     45  N   UNL A   1      43.796  30.780  28.472  1.00  0.00    -0.248 NA
ATOM     46  C   UNL A   1      43.453  33.063  28.802  1.00  0.00     0.031 C 
ATOM     47  C   UNL A   1      47.915  31.587  26.971  1.00  0.00     0.029 A 
ATOM     48  N   UNL A   1      46.380  30.018  27.397  1.00  0.00    -0.354 N 
ATOM     49  C   UNL A   1      42.548  30.978  29.052  1.00  0.00     0.074 A 
ATOM     50  C   UNL A   1      42.423  32.396  29.304  1.00  0.00     0.031 C 
ATOM     51  C   UNL A   1      48.465  30.394  26.683  1.00  0.00     0.029 A 
ATOM     52  C   UNL A   1      47.489  29.339  26.943  1.00  0.00     0.049 A 
ATOM     53  H   UNL A   1      45.550  29.567  27.671  1.00  0.00     0.167 HD
ATOM     54  C   UNL A   1      41.573  30.076  29.322  1.00  0.00     0.031 A 
ATOM     55  C   UNL A   1      47.694  28.021  26.746  1.00  0.00     0.031 A 
ATOM     56  C   UNL A   1      41.655  28.671  29.022  1.00  0.00     0.049 A 
ATOM     57  C   UNL A   1      46.580  27.042  27.009  1.00  0.00     0.074 A 
ATOM     58  C   UNL A   1      40.675  27.704  29.161  1.00  0.00     0.029 A 
ATOM     59  N   UNL A   1      42.776  28.035  28.515  1.00  0.00    -0.354 N 
ATOM     60  N   UNL A   1      45.370  27.268  27.462  1.00  0.00    -0.248 NA
ATOM     61  C   UNL A   1      46.853  25.629  26.704  1.00  0.00     0.031 C 
ATOM     62  C   UNL A   1      41.215  26.473  28.769  1.00  0.00     0.029 A 
ATOM     63  C   UNL A   1      42.517  26.685  28.347  1.00  0.00     0.049 A 
ATOM     64  H   UNL A   1      43.631  28.477  28.306  1.00  0.00     0.167 HD
ATOM     65  C   UNL A   1      44.727  26.033  27.453  1.00  0.00     0.074 A 
ATOM     66  C   UNL A   1      45.677  25.067  26.945  1.00  0.00     0.031 C 
ATOM     67  C   UNL A   1      43.460  25.729  27.829  1.00  0.00     0.031 A 
BRANCH  54  68
ATOM     68  C   UNL A   1      40.309  30.591  29.960  1.00  0.00    -0.014 A 
ATOM     69  C   UNL A   1      39.174  30.886  29.182  1.00  0.00     0.010 A 
ATOM     70  C   UNL A   1      40.241  30.746  31.356  1.00  0.00     0.010 A 
ATOM     71  C   UNL A   1      38.013  31.376  29.783  1.00  0.00     0.020 A 
ATOM     72  C   UNL A   1      39.071  31.207  31.964  1.00  0.00     0.020 A 
ATOM     73  C   UNL A   1      37.970  31.539  31.170  1.00  0.00     0.054 A 
BRANCH  73  74
ATOM     74  S   UNL A   1      36.443  32.159  31.928  1.00  0.00     0.124 S 
ATOM     75  O   UNL A   1      36.708  31.950  33.349  1.00  0.00    -0.237 OA
ATOM     76  O   UNL A   1      36.410  33.553  31.493  1.00  0.00    -0.237 OA
ATOM     77  O   UNL A   1      35.403  31.307  31.357  1.00  0.00    -0.744 OA
ENDBRANCH  73  74
ENDBRANCH  54  68
BRANCH  55  78
ATOM     78  C   UNL A   1      48.998  27.531  26.218  1.00  0.00    -0.014 A 
ATOM     79  C   UNL A   1      50.086  27.338  27.089  1.00  0.00     0.010 A 
ATOM     80  C   UNL A   1      49.174  27.305  24.842  1.00  0.00     0.010 A 
ATOM     81  C   UNL A   1      51.337  26.965  26.589  1.00  0.00     0.020 A 
ATOM     82  C   UNL A   1      50.419  26.907  24.342  1.00  0.00     0.020 A 
ATOM     83  C   UNL A   1      51.497  26.758  25.217  1.00  0.00     0.054 A 
BRANCH  83  84
ATOM     84  S   UNL A   1      53.126  26.260  24.593  1.00  0.00     0.124 S 
ATOM     85  O   UNL A   1      52.988  24.810  24.506  1.00  0.00    -0.237 OA
ATOM     86  O   UNL A   1      53.207  26.966  23.316  1.00  0.00    -0.237 OA
ATOM     87  O   UNL A   1      54.046  26.743  25.620  1.00  0.00    -0.744 OA
ENDBRANCH  83  84
ENDBRANCH  55  78
BRANCH  67  88
ATOM     88  C   UNL A   1      43.006  24.305  27.652  1.00  0.00    -0.014 A 
ATOM     89  C   UNL A   1      42.576  23.823  26.403  1.00  0.00     0.010 A 
ATOM     90  C   UNL A   1      43.031  23.429  28.752  1.00  0.00     0.010 A 
ATOM     91  C   UNL A   1      42.135  22.503  26.269  1.00  0.00     0.020 A 
ATOM     92  C   UNL A   1      42.615  22.102  28.616  1.00  0.00     0.020 A 
ATOM     93  C   UNL A   1      42.149  21.653  27.380  1.00  0.00     0.054 A 
BRANCH  93  94
ATOM     94  S   UNL A   1      41.587  19.939  27.183  1.00  0.00     0.124 S 
ATOM     95  O   UNL A   1      40.872  19.999  25.910  1.00  0.00    -0.237 OA
ATOM     96  O   UNL A   1      42.838  19.187  27.165  1.00  0.00    -0.237 OA
ATOM     97  O   UNL A   1      40.748  19.714  28.358  1.00  0.00    -0.744 OA
ENDBRANCH  93  94
ENDBRANCH  67  88
ENDBRANCH  41  42
ENDBRANCH  34  36
ENDBRANCH  33  34
ENDBRANCH  32  33
ENDBRANCH  31  32
ENDBRANCH  30  31
ENDBRANCH   1  30
TORSDOF 22
ENDMDL
