MODEL 1
REMARK VINA RESULT:      -9.2      0.000      0.000
REMARK SMILES Cc1c(I)cccc1[C@H]([NH3+])C(=O)OCCOCCOC(=O)c1ccc(-c2c3nc(c(-c4ccc(S(=O)(=O)[O-])cc4)c4ccc([nH]4)c(-c4ccc(S(=O)(=O)[O-])cc4)c4nc(c(-c5ccc(S(=O)(=O)[O-])cc5)c5ccc2[nH]5)C=C4)C=C3)cc1
REMARK SMILES IDX 17 1 16 2 15 3 14 4 13 5 11 6 12 7 9 8 8 9 1 10 2 11 3 12
REMARK SMILES IDX 4 13 5 14 7 15 6 16 10 17 18 21 19 22 20 23 21 24 22 25
REMARK SMILES IDX 23 26 81 27 24 28 80 29 25 30 26 31 27 32 74 33 28 34 79 35
REMARK SMILES IDX 73 36 75 37 29 38 78 39 72 40 71 41 30 43 60 44 41 45 59 46
REMARK SMILES IDX 42 47 45 48 58 49 76 50 43 51 44 52 57 54 77 55 46 56 31 57
REMARK SMILES IDX 32 58 40 59 33 60 39 61 34 62 35 63 36 64 37 65 38 66 61 67
REMARK SMILES IDX 62 68 70 69 63 70 69 71 64 72 65 73 66 74 67 75 68 76 47 77
REMARK SMILES IDX 48 78 56 79 49 80 55 81 50 82 51 83 52 84 53 85 54 86
REMARK H PARENT 10 18 10 19 10 20 75 42 45 53
REMARK Flexibility Score: inf
ROOT
ATOM      1  C   UNL A   1      41.160  19.588  26.583  1.00  0.00     0.202 C 
ENDROOT
BRANCH   1   2
ATOM      2  O   UNL A   1      41.912  18.709  25.751  1.00  0.00    -0.374 OA
BRANCH   2   3
ATOM      3  C   UNL A   1      43.332  18.717  25.877  1.00  0.00     0.202 C 
BRANCH   3   4
ATOM      4  C   UNL A   1      44.144  19.514  24.852  1.00  0.00     0.261 C 
BRANCH   4   5
ATOM      5  O   UNL A   1      43.908  20.924  24.951  1.00  0.00    -0.459 OA
BRANCH   5   6
ATOM      6  C   UNL A   1      44.801  21.618  25.712  1.00  0.00     0.369 C 
ATOM      7  O   UNL A   1      46.017  21.447  25.695  1.00  0.00    -0.245 OA
BRANCH   6   8
ATOM      8  C   UNL A   1      44.137  22.676  26.608  1.00  0.00     0.323 C 
BRANCH   8   9
ATOM      9  C   UNL A   1      45.034  23.889  26.785  1.00  0.00     0.025 A 
ATOM     10  C   UNL A   1      43.881  25.295  25.000  1.00  0.00     0.046 C 
ATOM     11  C   UNL A   1      44.960  25.100  26.041  1.00  0.00    -0.028 A 
ATOM     12  C   UNL A   1      45.913  26.104  26.323  1.00  0.00     0.016 A 
ATOM     13  I   UNL A   1      46.083  27.908  25.239  1.00  0.00    -0.044 I 
ATOM     14  C   UNL A   1      46.844  25.953  27.361  1.00  0.00     0.015 A 
ATOM     15  C   UNL A   1      45.976  23.775  27.834  1.00  0.00     0.011 A 
ATOM     16  C   UNL A   1      46.863  24.797  28.128  1.00  0.00     0.002 A 
ENDBRANCH   8   9
BRANCH   8  17
ATOM     17  N   UNL A   1      43.549  22.143  27.858  1.00  0.00    -0.342 N 
ATOM     18  H   UNL A   1      43.770  22.769  28.631  1.00  0.00     0.345 HD
ATOM     19  H   UNL A   1      43.935  21.217  28.047  1.00  0.00     0.345 HD
ATOM     20  H   UNL A   1      42.537  22.073  27.754  1.00  0.00     0.345 HD
ENDBRANCH   8  17
ENDBRANCH   6   8
ENDBRANCH   5   6
ENDBRANCH   4   5
ENDBRANCH   3   4
ENDBRANCH   2   3
ENDBRANCH   1   2
BRANCH   1  21
ATOM     21  C   UNL A   1      40.711  20.940  26.012  1.00  0.00     0.261 C 
BRANCH  21  22
ATOM     22  O   UNL A   1      40.058  21.785  26.972  1.00  0.00    -0.460 OA
BRANCH  22  23
ATOM     23  C   UNL A   1      39.155  22.651  26.451  1.00  0.00     0.338 C 
ATOM     24  O   UNL A   1      38.167  22.372  25.786  1.00  0.00    -0.246 OA
BRANCH  23  25
ATOM     25  C   UNL A   1      39.413  24.006  26.971  1.00  0.00     0.060 A 
ATOM     26  C   UNL A   1      38.932  24.415  28.215  1.00  0.00     0.016 A 
ATOM     27  C   UNL A   1      40.199  24.868  26.195  1.00  0.00     0.016 A 
ATOM     28  C   UNL A   1      39.267  25.686  28.693  1.00  0.00     0.010 A 
ATOM     29  C   UNL A   1      40.529  26.136  26.672  1.00  0.00     0.010 A 
ATOM     30  C   UNL A   1      40.082  26.548  27.935  1.00  0.00    -0.014 A 
BRANCH  30  31
ATOM     31  C   UNL A   1      40.564  27.832  28.505  1.00  0.00     0.031 A 
ATOM     32  C   UNL A   1      39.642  29.004  28.675  1.00  0.00     0.074 A 
ATOM     33  C   UNL A   1      41.863  27.935  28.852  1.00  0.00     0.049 A 
ATOM     34  N   UNL A   1      39.901  30.178  29.191  1.00  0.00    -0.248 NA
ATOM     35  C   UNL A   1      38.255  28.845  28.208  1.00  0.00     0.031 C 
ATOM     36  C   UNL A   1      42.853  26.863  28.716  1.00  0.00     0.029 A 
ATOM     37  N   UNL A   1      42.574  28.974  29.401  1.00  0.00    -0.354 N 
ATOM     38  C   UNL A   1      38.709  30.889  29.137  1.00  0.00     0.074 A 
ATOM     39  C   UNL A   1      37.738  30.036  28.488  1.00  0.00     0.031 C 
ATOM     40  C   UNL A   1      44.027  27.285  29.210  1.00  0.00     0.029 A 
ATOM     41  C   UNL A   1      43.891  28.668  29.657  1.00  0.00     0.049 A 
ATOM     42  H   UNL A   1      42.178  29.855  29.593  1.00  0.00     0.167 HD
ATOM     43  C   UNL A   1      38.449  32.129  29.614  1.00  0.00     0.031 A 
ATOM     44  C   UNL A   1      44.879  29.412  30.198  1.00  0.00     0.031 A 
ATOM     45  C   UNL A   1      39.429  32.971  30.256  1.00  0.00     0.049 A 
ATOM     46  C   UNL A   1      44.574  30.813  30.653  1.00  0.00     0.074 A 
ATOM     47  C   UNL A   1      39.247  34.235  30.791  1.00  0.00     0.029 A 
ATOM     48  N   UNL A   1      40.762  32.644  30.453  1.00  0.00    -0.354 N 
ATOM     49  N   UNL A   1      43.424  31.444  30.656  1.00  0.00    -0.248 NA
ATOM     50  C   UNL A   1      45.691  31.601  31.195  1.00  0.00     0.031 C 
ATOM     51  C   UNL A   1      40.481  34.703  31.241  1.00  0.00     0.029 A 
ATOM     52  C   UNL A   1      41.418  33.696  31.073  1.00  0.00     0.049 A 
ATOM     53  H   UNL A   1      41.180  31.792  30.193  1.00  0.00     0.167 HD
ATOM     54  C   UNL A   1      43.674  32.687  31.230  1.00  0.00     0.074 A 
ATOM     55  C   UNL A   1      45.078  32.713  31.579  1.00  0.00     0.031 C 
ATOM     56  C   UNL A   1      42.813  33.710  31.445  1.00  0.00     0.031 A 
BRANCH  43  57
ATOM     57  C   UNL A   1      37.043  32.668  29.518  1.00  0.00    -0.014 A 
ATOM     58  C   UNL A   1      36.630  33.356  28.361  1.00  0.00     0.010 A 
ATOM     59  C   UNL A   1      36.206  32.667  30.648  1.00  0.00     0.010 A 
ATOM     60  C   UNL A   1      35.438  34.086  28.358  1.00  0.00     0.020 A 
ATOM     61  C   UNL A   1      34.998  33.371  30.638  1.00  0.00     0.020 A 
ATOM     62  C   UNL A   1      34.639  34.104  29.504  1.00  0.00     0.054 A 
BRANCH  62  63
ATOM     63  S   UNL A   1      33.148  35.138  29.513  1.00  0.00     0.124 S 
ATOM     64  O   UNL A   1      32.347  34.534  28.453  1.00  0.00    -0.237 OA
ATOM     65  O   UNL A   1      32.643  34.953  30.871  1.00  0.00    -0.237 OA
ATOM     66  O   UNL A   1      33.657  36.477  29.224  1.00  0.00    -0.744 OA
ENDBRANCH  62  63
ENDBRANCH  43  57
BRANCH  44  67
ATOM     67  C   UNL A   1      46.235  28.818  30.386  1.00  0.00    -0.014 A 
ATOM     68  C   UNL A   1      47.204  28.894  29.367  1.00  0.00     0.010 A 
ATOM     69  C   UNL A   1      46.553  28.134  31.573  1.00  0.00     0.010 A 
ATOM     70  C   UNL A   1      48.443  28.264  29.513  1.00  0.00     0.020 A 
ATOM     71  C   UNL A   1      47.807  27.536  31.740  1.00  0.00     0.020 A 
ATOM     72  C   UNL A   1      48.734  27.583  30.698  1.00  0.00     0.054 A 
BRANCH  72  73
ATOM     73  S   UNL A   1      50.342  26.759  30.856  1.00  0.00     0.124 S 
ATOM     74  O   UNL A   1      50.085  25.803  31.930  1.00  0.00    -0.237 OA
ATOM     75  O   UNL A   1      50.534  26.179  29.529  1.00  0.00    -0.237 OA
ATOM     76  O   UNL A   1      51.254  27.849  31.194  1.00  0.00    -0.744 OA
ENDBRANCH  72  73
ENDBRANCH  44  67
BRANCH  56  77
ATOM     77  C   UNL A   1      43.327  34.964  32.109  1.00  0.00    -0.014 A 
ATOM     78  C   UNL A   1      43.295  35.068  33.515  1.00  0.00     0.010 A 
ATOM     79  C   UNL A   1      43.684  36.092  31.351  1.00  0.00     0.010 A 
ATOM     80  C   UNL A   1      43.549  36.289  34.144  1.00  0.00     0.020 A 
ATOM     81  C   UNL A   1      43.977  37.306  31.979  1.00  0.00     0.020 A 
ATOM     82  C   UNL A   1      43.875  37.406  33.369  1.00  0.00     0.054 A 
BRANCH  82  83
ATOM     83  S   UNL A   1      44.130  38.998  34.198  1.00  0.00     0.124 S 
ATOM     84  O   UNL A   1      45.548  39.247  33.957  1.00  0.00    -0.237 OA
ATOM     85  O   UNL A   1      43.207  39.881  33.488  1.00  0.00    -0.237 OA
ATOM     86  O   UNL A   1      43.773  38.724  35.588  1.00  0.00    -0.744 OA
ENDBRANCH  82  83
ENDBRANCH  56  77
ENDBRANCH  30  31
ENDBRANCH  23  25
ENDBRANCH  22  23
ENDBRANCH  21  22
ENDBRANCH   1  21
TORSDOF 19
ENDMDL
MODEL 2
REMARK VINA RESULT:      -8.8      2.523      3.072
REMARK SMILES Cc1c(I)cccc1[C@H]([NH3+])C(=O)OCCOCCOC(=O)c1ccc(-c2c3nc(c(-c4ccc(S(=O)(=O)[O-])cc4)c4ccc([nH]4)c(-c4ccc(S(=O)(=O)[O-])cc4)c4nc(c(-c5ccc(S(=O)(=O)[O-])cc5)c5ccc2[nH]5)C=C4)C=C3)cc1
REMARK SMILES IDX 17 1 16 2 15 3 14 4 13 5 11 6 12 7 9 8 8 9 1 10 2 11 3 12
REMARK SMILES IDX 4 13 5 14 7 15 6 16 10 17 18 21 19 22 20 23 21 24 22 25
REMARK SMILES IDX 23 26 81 27 24 28 80 29 25 30 26 31 27 32 74 33 28 34 79 35
REMARK SMILES IDX 73 36 75 37 29 38 78 39 72 40 71 41 30 43 60 44 41 45 59 46
REMARK SMILES IDX 42 47 45 48 58 49 76 50 43 51 44 52 57 54 77 55 46 56 31 57
REMARK SMILES IDX 32 58 40 59 33 60 39 61 34 62 35 63 36 64 37 65 38 66 61 67
REMARK SMILES IDX 62 68 70 69 63 70 69 71 64 72 65 73 66 74 67 75 68 76 47 77
REMARK SMILES IDX 48 78 56 79 49 80 55 81 50 82 51 83 52 84 53 85 54 86
REMARK H PARENT 10 18 10 19 10 20 75 42 45 53
REMARK Flexibility Score: inf
ROOT
ATOM      1  C   UNL A   1      41.415  19.722  25.870  1.00  0.00     0.202 C 
ENDROOT
BRANCH   1   2
ATOM      2  O   UNL A   1      42.082  18.463  25.834  1.00  0.00    -0.374 OA
BRANCH   2   3
ATOM      3  C   UNL A   1      43.500  18.452  25.985  1.00  0.00     0.202 C 
BRANCH   3   4
ATOM      4  C   UNL A   1      44.356  18.917  24.804  1.00  0.00     0.261 C 
BRANCH   4   5
ATOM      5  O   UNL A   1      44.083  20.275  24.437  1.00  0.00    -0.459 OA
BRANCH   5   6
ATOM      6  C   UNL A   1      45.076  21.168  24.707  1.00  0.00     0.369 C 
ATOM      7  O   UNL A   1      46.270  20.888  24.782  1.00  0.00    -0.245 OA
BRANCH   6   8
ATOM      8  C   UNL A   1      44.560  22.604  24.899  1.00  0.00     0.323 C 
BRANCH   8   9
ATOM      9  C   UNL A   1      45.042  23.191  26.215  1.00  0.00     0.025 A 
ATOM     10  C   UNL A   1      47.012  24.450  25.201  1.00  0.00     0.046 C 
ATOM     11  C   UNL A   1      46.184  24.022  26.391  1.00  0.00    -0.028 A 
ATOM     12  C   UNL A   1      46.498  24.437  27.705  1.00  0.00     0.016 A 
ATOM     13  I   UNL A   1      48.226  25.539  28.212  1.00  0.00    -0.044 I 
ATOM     14  C   UNL A   1      45.666  24.119  28.787  1.00  0.00     0.015 A 
ATOM     15  C   UNL A   1      44.216  22.901  27.326  1.00  0.00     0.011 A 
ATOM     16  C   UNL A   1      44.516  23.368  28.595  1.00  0.00     0.002 A 
ENDBRANCH   8   9
BRANCH   8  17
ATOM     17  N   UNL A   1      43.116  22.780  24.626  1.00  0.00    -0.342 N 
ATOM     18  H   UNL A   1      42.772  21.983  24.091  1.00  0.00     0.345 HD
ATOM     19  H   UNL A   1      42.973  23.637  24.092  1.00  0.00     0.345 HD
ATOM     20  H   UNL A   1      42.608  22.842  25.509  1.00  0.00     0.345 HD
ENDBRANCH   8  17
ENDBRANCH   6   8
ENDBRANCH   5   6
ENDBRANCH   4   5
ENDBRANCH   3   4
ENDBRANCH   2   3
ENDBRANCH   1   2
BRANCH   1  21
ATOM     21  C   UNL A   1      41.461  20.544  27.165  1.00  0.00     0.261 C 
BRANCH  21  22
ATOM     22  O   UNL A   1      40.183  21.060  27.568  1.00  0.00    -0.460 OA
BRANCH  22  23
ATOM     23  C   UNL A   1      39.641  21.969  26.722  1.00  0.00     0.338 C 
ATOM     24  O   UNL A   1      38.830  21.754  25.831  1.00  0.00    -0.246 OA
BRANCH  23  25
ATOM     25  C   UNL A   1      40.013  23.329  27.154  1.00  0.00     0.060 A 
ATOM     26  C   UNL A   1      40.782  23.547  28.297  1.00  0.00     0.016 A 
ATOM     27  C   UNL A   1      39.607  24.406  26.354  1.00  0.00     0.016 A 
ATOM     28  C   UNL A   1      41.168  24.852  28.622  1.00  0.00     0.010 A 
ATOM     29  C   UNL A   1      39.990  25.706  26.682  1.00  0.00     0.010 A 
ATOM     30  C   UNL A   1      40.792  25.937  27.808  1.00  0.00    -0.014 A 
BRANCH  30  31
ATOM     31  C   UNL A   1      41.329  27.298  28.064  1.00  0.00     0.031 A 
ATOM     32  C   UNL A   1      40.488  28.356  28.718  1.00  0.00     0.074 A 
ATOM     33  C   UNL A   1      42.589  27.577  27.676  1.00  0.00     0.049 A 
ATOM     34  N   UNL A   1      40.822  29.578  29.043  1.00  0.00    -0.248 NA
ATOM     35  C   UNL A   1      39.098  28.005  29.049  1.00  0.00     0.031 C 
ATOM     36  C   UNL A   1      43.491  26.628  27.017  1.00  0.00     0.029 A 
ATOM     37  N   UNL A   1      43.339  28.723  27.787  1.00  0.00    -0.354 N 
ATOM     38  C   UNL A   1      39.699  30.136  29.640  1.00  0.00     0.074 A 
ATOM     39  C   UNL A   1      38.653  29.137  29.583  1.00  0.00     0.031 C 
ATOM     40  C   UNL A   1      44.682  27.216  26.826  1.00  0.00     0.029 A 
ATOM     41  C   UNL A   1      44.621  28.594  27.304  1.00  0.00     0.049 A 
ATOM     42  H   UNL A   1      42.991  29.558  28.177  1.00  0.00     0.167 HD
ATOM     43  C   UNL A   1      39.567  31.358  30.207  1.00  0.00     0.031 A 
ATOM     44  C   UNL A   1      45.638  29.480  27.257  1.00  0.00     0.031 A 
ATOM     45  C   UNL A   1      40.619  32.345  30.251  1.00  0.00     0.049 A 
ATOM     46  C   UNL A   1      45.436  30.855  27.833  1.00  0.00     0.074 A 
ATOM     47  C   UNL A   1      40.580  33.604  30.828  1.00  0.00     0.029 A 
ATOM     48  N   UNL A   1      41.886  32.194  29.710  1.00  0.00    -0.354 N 
ATOM     49  N   UNL A   1      44.388  31.341  28.454  1.00  0.00    -0.248 NA
ATOM     50  C   UNL A   1      46.557  31.801  27.720  1.00  0.00     0.031 C 
ATOM     51  C   UNL A   1      41.793  34.242  30.568  1.00  0.00     0.029 A 
ATOM     52  C   UNL A   1      42.624  33.349  29.911  1.00  0.00     0.049 A 
ATOM     53  H   UNL A   1      42.212  31.387  29.251  1.00  0.00     0.167 HD
ATOM     54  C   UNL A   1      44.737  32.633  28.835  1.00  0.00     0.074 A 
ATOM     55  C   UNL A   1      46.097  32.849  28.392  1.00  0.00     0.031 C 
ATOM     56  C   UNL A   1      43.990  33.554  29.492  1.00  0.00     0.031 A 
BRANCH  43  57
ATOM     57  C   UNL A   1      38.264  31.715  30.877  1.00  0.00    -0.014 A 
ATOM     58  C   UNL A   1      37.325  32.520  30.206  1.00  0.00     0.010 A 
ATOM     59  C   UNL A   1      38.064  31.421  32.238  1.00  0.00     0.010 A 
ATOM     60  C   UNL A   1      36.246  33.078  30.899  1.00  0.00     0.020 A 
ATOM     61  C   UNL A   1      36.969  31.952  32.926  1.00  0.00     0.020 A 
ATOM     62  C   UNL A   1      36.087  32.805  32.259  1.00  0.00     0.054 A 
BRANCH  62  63
ATOM     63  S   UNL A   1      34.738  33.618  33.161  1.00  0.00     0.124 S 
ATOM     64  O   UNL A   1      35.153  33.453  34.551  1.00  0.00    -0.237 OA
ATOM     65  O   UNL A   1      34.790  34.983  32.644  1.00  0.00    -0.237 OA
ATOM     66  O   UNL A   1      33.554  32.857  32.769  1.00  0.00    -0.744 OA
ENDBRANCH  62  63
ENDBRANCH  43  57
BRANCH  44  67
ATOM     67  C   UNL A   1      46.955  29.067  26.690  1.00  0.00    -0.014 A 
ATOM     68  C   UNL A   1      48.157  29.389  27.347  1.00  0.00     0.010 A 
ATOM     69  C   UNL A   1      47.017  28.381  25.463  1.00  0.00     0.010 A 
ATOM     70  C   UNL A   1      49.391  29.076  26.771  1.00  0.00     0.020 A 
ATOM     71  C   UNL A   1      48.249  28.030  24.902  1.00  0.00     0.020 A 
ATOM     72  C   UNL A   1      49.429  28.403  25.547  1.00  0.00     0.054 A 
BRANCH  72  73
ATOM     73  S   UNL A   1      51.043  28.022  24.812  1.00  0.00     0.124 S 
ATOM     74  O   UNL A   1      51.001  26.564  24.738  1.00  0.00    -0.237 OA
ATOM     75  O   UNL A   1      50.981  28.721  23.531  1.00  0.00    -0.237 OA
ATOM     76  O   UNL A   1      51.995  28.572  25.774  1.00  0.00    -0.744 OA
ENDBRANCH  72  73
ENDBRANCH  44  67
BRANCH  56  77
ATOM     77  C   UNL A   1      44.607  34.894  29.810  1.00  0.00    -0.014 A 
ATOM     78  C   UNL A   1      45.179  35.111  31.080  1.00  0.00     0.010 A 
ATOM     79  C   UNL A   1      44.477  35.979  28.927  1.00  0.00     0.010 A 
ATOM     80  C   UNL A   1      45.552  36.396  31.482  1.00  0.00     0.020 A 
ATOM     81  C   UNL A   1      44.885  37.260  29.312  1.00  0.00     0.020 A 
ATOM     82  C   UNL A   1      45.387  37.466  30.599  1.00  0.00     0.054 A 
BRANCH  82  83
ATOM     83  S   UNL A   1      45.808  39.137  31.166  1.00  0.00     0.124 S 
ATOM     84  O   UNL A   1      45.039  39.975  30.250  1.00  0.00    -0.237 OA
ATOM     85  O   UNL A   1      45.347  39.131  32.552  1.00  0.00    -0.237 OA
ATOM     86  O   UNL A   1      47.259  39.202  30.999  1.00  0.00    -0.744 OA
ENDBRANCH  82  83
ENDBRANCH  56  77
ENDBRANCH  30  31
ENDBRANCH  23  25
ENDBRANCH  22  23
ENDBRANCH  21  22
ENDBRANCH   1  21
TORSDOF 19
ENDMDL
MODEL 3
REMARK VINA RESULT:      -8.8      4.195     12.263
REMARK SMILES Cc1c(I)cccc1[C@H]([NH3+])C(=O)OCCOCCOC(=O)c1ccc(-c2c3nc(c(-c4ccc(S(=O)(=O)[O-])cc4)c4ccc([nH]4)c(-c4ccc(S(=O)(=O)[O-])cc4)c4nc(c(-c5ccc(S(=O)(=O)[O-])cc5)c5ccc2[nH]5)C=C4)C=C3)cc1
REMARK SMILES IDX 17 1 16 2 15 3 14 4 13 5 11 6 12 7 9 8 8 9 1 10 2 11 3 12
REMARK SMILES IDX 4 13 5 14 7 15 6 16 10 17 18 21 19 22 20 23 21 24 22 25
REMARK SMILES IDX 23 26 81 27 24 28 80 29 25 30 26 31 27 32 74 33 28 34 79 35
REMARK SMILES IDX 73 36 75 37 29 38 78 39 72 40 71 41 30 43 60 44 41 45 59 46
REMARK SMILES IDX 42 47 45 48 58 49 76 50 43 51 44 52 57 54 77 55 46 56 31 57
REMARK SMILES IDX 32 58 40 59 33 60 39 61 34 62 35 63 36 64 37 65 38 66 61 67
REMARK SMILES IDX 62 68 70 69 63 70 69 71 64 72 65 73 66 74 67 75 68 76 47 77
REMARK SMILES IDX 48 78 56 79 49 80 55 81 50 82 51 83 52 84 53 85 54 86
REMARK H PARENT 10 18 10 19 10 20 75 42 45 53
REMARK Flexibility Score: inf
ROOT
ATOM      1  C   UNL A   1      36.238  33.275  33.536  1.00  0.00     0.202 C 
ENDROOT
BRANCH   1   2
ATOM      2  O   UNL A   1      34.875  33.103  33.914  1.00  0.00    -0.374 OA
BRANCH   2   3
ATOM      3  C   UNL A   1      33.903  33.967  33.331  1.00  0.00     0.202 C 
BRANCH   3   4
ATOM      4  C   UNL A   1      34.321  34.817  32.127  1.00  0.00     0.261 C 
BRANCH   4   5
ATOM      5  O   UNL A   1      33.502  34.571  30.978  1.00  0.00    -0.459 OA
BRANCH   5   6
ATOM      6  C   UNL A   1      33.161  35.672  30.252  1.00  0.00     0.369 C 
ATOM      7  O   UNL A   1      32.612  36.671  30.710  1.00  0.00    -0.245 OA
BRANCH   6   8
ATOM      8  C   UNL A   1      33.548  35.560  28.768  1.00  0.00     0.323 C 
BRANCH   8   9
ATOM      9  C   UNL A   1      34.235  34.236  28.476  1.00  0.00     0.025 A 
ATOM     10  C   UNL A   1      32.175  33.123  27.469  1.00  0.00     0.046 C 
ATOM     11  C   UNL A   1      33.622  33.086  27.904  1.00  0.00    -0.028 A 
ATOM     12  C   UNL A   1      34.417  31.928  27.748  1.00  0.00     0.016 A 
ATOM     13  I   UNL A   1      33.677  30.071  27.069  1.00  0.00    -0.044 I 
ATOM     14  C   UNL A   1      35.784  31.936  28.060  1.00  0.00     0.015 A 
ATOM     15  C   UNL A   1      35.618  34.215  28.766  1.00  0.00     0.011 A 
ATOM     16  C   UNL A   1      36.389  33.084  28.551  1.00  0.00     0.002 A 
ENDBRANCH   8   9
BRANCH   8  17
ATOM     17  N   UNL A   1      34.230  36.754  28.219  1.00  0.00    -0.342 N 
ATOM     18  H   UNL A   1      33.719  37.093  27.404  1.00  0.00     0.345 HD
ATOM     19  H   UNL A   1      35.181  36.506  27.945  1.00  0.00     0.345 HD
ATOM     20  H   UNL A   1      34.261  37.485  28.930  1.00  0.00     0.345 HD
ENDBRANCH   8  17
ENDBRANCH   6   8
ENDBRANCH   5   6
ENDBRANCH   4   5
ENDBRANCH   3   4
ENDBRANCH   2   3
ENDBRANCH   1   2
BRANCH   1  21
ATOM     21  C   UNL A   1      37.098  32.028  33.289  1.00  0.00     0.261 C 
BRANCH  21  22
ATOM     22  O   UNL A   1      37.414  31.809  31.906  1.00  0.00    -0.460 OA
BRANCH  22  23
ATOM     23  C   UNL A   1      37.151  30.560  31.450  1.00  0.00     0.338 C 
ATOM     24  O   UNL A   1      36.065  29.997  31.432  1.00  0.00    -0.246 OA
BRANCH  23  25
ATOM     25  C   UNL A   1      38.343  30.019  30.773  1.00  0.00     0.060 A 
ATOM     26  C   UNL A   1      38.478  30.064  29.385  1.00  0.00     0.016 A 
ATOM     27  C   UNL A   1      39.368  29.492  31.569  1.00  0.00     0.016 A 
ATOM     28  C   UNL A   1      39.661  29.603  28.798  1.00  0.00     0.010 A 
ATOM     29  C   UNL A   1      40.546  29.030  30.982  1.00  0.00     0.010 A 
ATOM     30  C   UNL A   1      40.709  29.101  29.592  1.00  0.00    -0.014 A 
BRANCH  30  31
ATOM     31  C   UNL A   1      42.022  28.758  28.986  1.00  0.00     0.031 A 
ATOM     32  C   UNL A   1      43.121  29.774  28.882  1.00  0.00     0.074 A 
ATOM     33  C   UNL A   1      42.203  27.511  28.507  1.00  0.00     0.049 A 
ATOM     34  N   UNL A   1      44.333  29.620  28.415  1.00  0.00    -0.248 NA
ATOM     35  C   UNL A   1      42.830  31.136  29.358  1.00  0.00     0.031 C 
ATOM     36  C   UNL A   1      41.196  26.446  28.542  1.00  0.00     0.029 A 
ATOM     37  N   UNL A   1      43.291  26.918  27.913  1.00  0.00    -0.354 N 
ATOM     38  C   UNL A   1      44.959  30.851  28.564  1.00  0.00     0.074 A 
ATOM     39  C   UNL A   1      43.977  31.760  29.113  1.00  0.00     0.031 C 
ATOM     40  C   UNL A   1      41.729  25.323  28.037  1.00  0.00     0.029 A 
ATOM     41  C   UNL A   1      43.096  25.592  27.601  1.00  0.00     0.049 A 
ATOM     42  H   UNL A   1      44.131  27.397  27.729  1.00  0.00     0.167 HD
ATOM     43  C   UNL A   1      46.244  31.179  28.291  1.00  0.00     0.031 A 
ATOM     44  C   UNL A   1      43.924  24.689  27.035  1.00  0.00     0.031 A 
ATOM     45  C   UNL A   1      47.212  30.262  27.738  1.00  0.00     0.049 A 
ATOM     46  C   UNL A   1      45.325  25.105  26.678  1.00  0.00     0.074 A 
ATOM     47  C   UNL A   1      48.545  30.503  27.451  1.00  0.00     0.029 A 
ATOM     48  N   UNL A   1      46.962  28.943  27.392  1.00  0.00    -0.354 N 
ATOM     49  N   UNL A   1      45.920  26.256  26.889  1.00  0.00    -0.248 NA
ATOM     50  C   UNL A   1      46.177  24.101  26.023  1.00  0.00     0.031 C 
ATOM     51  C   UNL A   1      49.081  29.359  26.862  1.00  0.00     0.029 A 
ATOM     52  C   UNL A   1      48.109  28.371  26.865  1.00  0.00     0.049 A 
ATOM     53  H   UNL A   1      46.100  28.483  27.503  1.00  0.00     0.167 HD
ATOM     54  C   UNL A   1      47.222  26.100  26.425  1.00  0.00     0.074 A 
ATOM     55  C   UNL A   1      47.336  24.743  25.939  1.00  0.00     0.031 C 
ATOM     56  C   UNL A   1      48.229  27.008  26.405  1.00  0.00     0.031 A 
BRANCH  43  57
ATOM     57  C   UNL A   1      46.727  32.570  28.618  1.00  0.00    -0.014 A 
ATOM     58  C   UNL A   1      46.680  33.580  27.638  1.00  0.00     0.010 A 
ATOM     59  C   UNL A   1      47.411  32.817  29.822  1.00  0.00     0.010 A 
ATOM     60  C   UNL A   1      47.360  34.786  27.831  1.00  0.00     0.020 A 
ATOM     61  C   UNL A   1      48.066  34.034  30.030  1.00  0.00     0.020 A 
ATOM     62  C   UNL A   1      48.065  34.997  29.019  1.00  0.00     0.054 A 
BRANCH  62  63
ATOM     63  S   UNL A   1      49.023  36.527  29.206  1.00  0.00     0.124 S 
ATOM     64  O   UNL A   1      48.012  37.468  29.679  1.00  0.00    -0.237 OA
ATOM     65  O   UNL A   1      50.040  36.146  30.183  1.00  0.00    -0.237 OA
ATOM     66  O   UNL A   1      49.530  36.782  27.859  1.00  0.00    -0.744 OA
ENDBRANCH  62  63
ENDBRANCH  43  57
BRANCH  44  67
ATOM     67  C   UNL A   1      43.459  23.287  26.824  1.00  0.00    -0.014 A 
ATOM     68  C   UNL A   1      43.088  22.478  27.914  1.00  0.00     0.010 A 
ATOM     69  C   UNL A   1      43.422  22.737  25.529  1.00  0.00     0.010 A 
ATOM     70  C   UNL A   1      42.735  21.139  27.722  1.00  0.00     0.020 A 
ATOM     71  C   UNL A   1      43.030  21.410  25.328  1.00  0.00     0.020 A 
ATOM     72  C   UNL A   1      42.715  20.612  26.428  1.00  0.00     0.054 A 
BRANCH  72  73
ATOM     73  S   UNL A   1      42.268  18.868  26.206  1.00  0.00     0.124 S 
ATOM     74  O   UNL A   1      40.874  18.967  25.784  1.00  0.00    -0.237 OA
ATOM     75  O   UNL A   1      43.208  18.428  25.178  1.00  0.00    -0.237 OA
ATOM     76  O   UNL A   1      42.481  18.288  27.530  1.00  0.00    -0.744 OA
ENDBRANCH  72  73
ENDBRANCH  44  67
BRANCH  56  77
ATOM     77  C   UNL A   1      49.573  26.587  25.862  1.00  0.00    -0.014 A 
ATOM     78  C   UNL A   1      50.474  25.895  26.696  1.00  0.00     0.010 A 
ATOM     79  C   UNL A   1      50.009  27.016  24.596  1.00  0.00     0.010 A 
ATOM     80  C   UNL A   1      51.798  25.693  26.301  1.00  0.00     0.020 A 
ATOM     81  C   UNL A   1      51.324  26.781  24.182  1.00  0.00     0.020 A 
ATOM     82  C   UNL A   1      52.218  26.152  25.050  1.00  0.00     0.054 A 
BRANCH  82  83
ATOM     83  S   UNL A   1      53.960  25.945  24.585  1.00  0.00     0.124 S 
ATOM     84  O   UNL A   1      53.939  26.272  23.163  1.00  0.00    -0.237 OA
ATOM     85  O   UNL A   1      54.638  26.914  25.444  1.00  0.00    -0.237 OA
ATOM     86  O   UNL A   1      54.236  24.545  24.899  1.00  0.00    -0.744 OA
ENDBRANCH  82  83
ENDBRANCH  56  77
ENDBRANCH  30  31
ENDBRANCH  23  25
ENDBRANCH  22  23
ENDBRANCH  21  22
ENDBRANCH   1  21
TORSDOF 19
ENDMDL
