MODEL 1
REMARK VINA RESULT:      -9.1      0.000      0.000
REMARK SMILES O=C(OCCOCCOC(=O)c1ccc(C[NH2+]Cc2cc(F)ccc2F)nc1)c1ccc(-c2c3nc(c(-c4ccc(S(=O)(=O)[O-])cc4)c4ccc([nH]4)c(-c4ccc(S(=O)(=O)[O-])cc4)c4nc(c(-c5ccc(S(=O)(=O)[O-])cc5)c5ccc2[nH]5)C=C4)C=C3)cc1
REMARK SMILES IDX 7 1 6 2 5 3 4 4 3 5 2 6 1 7 29 8 30 9 88 10 31 11 87 12
REMARK SMILES IDX 32 13 33 14 34 15 81 16 35 17 86 18 80 19 82 20 36 21 85 22
REMARK SMILES IDX 79 23 78 24 37 26 67 27 48 28 66 29 49 30 52 31 65 32 83 33
REMARK SMILES IDX 50 34 51 35 64 37 84 38 53 39 38 40 39 41 47 42 40 43 46 44
REMARK SMILES IDX 41 45 42 46 43 47 44 48 45 49 68 50 69 51 77 52 70 53 76 54
REMARK SMILES IDX 71 55 72 56 73 57 74 58 75 59 54 60 55 61 63 62 56 63 62 64
REMARK SMILES IDX 57 65 58 66 59 67 60 68 61 69 8 70 9 71 10 72 11 73 12 74
REMARK SMILES IDX 13 75 28 76 14 77 27 78 15 79 16 80 17 81 18 84 19 85 20 86
REMARK SMILES IDX 25 87 21 88 24 89 26 90 22 91 23 92
REMARK H PARENT 82 25 52 36 17 82 17 83
REMARK Flexibility Score: inf
ROOT
ATOM      1  C   UNL A   1      34.313  35.698  28.470  1.00  0.00     0.202 C 
ENDROOT
BRANCH   1   2
ATOM      2  O   UNL A   1      34.129  34.497  27.707  1.00  0.00    -0.374 OA
BRANCH   2   3
ATOM      3  C   UNL A   1      34.923  33.376  28.107  1.00  0.00     0.202 C 
BRANCH   3   4
ATOM      4  C   UNL A   1      34.155  32.253  28.810  1.00  0.00     0.261 C 
BRANCH   4   5
ATOM      5  O   UNL A   1      33.862  31.191  27.885  1.00  0.00    -0.460 OA
BRANCH   5   6
ATOM      6  C   UNL A   1      34.645  30.140  27.540  1.00  0.00     0.338 C 
ATOM      7  O   UNL A   1      34.240  29.364  26.677  1.00  0.00    -0.246 OA
BRANCH   6   8
ATOM      8  C   UNL A   1      35.972  29.864  28.169  1.00  0.00     0.060 A 
ATOM      9  C   UNL A   1      36.145  29.310  29.437  1.00  0.00     0.016 A 
ATOM     10  C   UNL A   1      37.118  30.082  27.385  1.00  0.00     0.016 A 
ATOM     11  C   UNL A   1      37.406  29.054  29.952  1.00  0.00     0.010 A 
ATOM     12  C   UNL A   1      38.392  29.769  27.872  1.00  0.00     0.010 A 
ATOM     13  C   UNL A   1      38.537  29.264  29.168  1.00  0.00    -0.014 A 
BRANCH  13  14
ATOM     14  C   UNL A   1      39.849  28.973  29.772  1.00  0.00     0.031 A 
ATOM     15  C   UNL A   1      40.237  29.679  31.034  1.00  0.00     0.074 A 
ATOM     16  C   UNL A   1      40.592  27.972  29.262  1.00  0.00     0.049 A 
ATOM     17  N   UNL A   1      41.322  29.552  31.746  1.00  0.00    -0.248 NA
ATOM     18  C   UNL A   1      39.265  30.642  31.580  1.00  0.00     0.031 C 
ATOM     19  C   UNL A   1      40.224  27.157  28.097  1.00  0.00     0.029 A 
ATOM     20  N   UNL A   1      41.780  27.433  29.678  1.00  0.00    -0.354 N 
ATOM     21  C   UNL A   1      41.173  30.427  32.815  1.00  0.00     0.074 A 
ATOM     22  C   UNL A   1      39.897  31.087  32.656  1.00  0.00     0.031 C 
ATOM     23  C   UNL A   1      41.148  26.200  27.920  1.00  0.00     0.029 A 
ATOM     24  C   UNL A   1      42.204  26.375  28.908  1.00  0.00     0.049 A 
ATOM     25  H   UNL A   1      42.283  27.772  30.454  1.00  0.00     0.167 HD
ATOM     26  C   UNL A   1      42.035  30.657  33.832  1.00  0.00     0.031 A 
ATOM     27  C   UNL A   1      43.336  25.649  28.982  1.00  0.00     0.031 A 
ATOM     28  C   UNL A   1      43.306  29.998  33.951  1.00  0.00     0.049 A 
ATOM     29  C   UNL A   1      44.320  26.000  30.066  1.00  0.00     0.074 A 
ATOM     30  C   UNL A   1      44.304  30.204  34.885  1.00  0.00     0.029 A 
ATOM     31  N   UNL A   1      43.751  28.994  33.100  1.00  0.00    -0.354 N 
ATOM     32  N   UNL A   1      44.201  26.884  31.030  1.00  0.00    -0.248 NA
ATOM     33  C   UNL A   1      45.594  25.272  30.064  1.00  0.00     0.031 C 
ATOM     34  C   UNL A   1      45.371  29.354  34.570  1.00  0.00     0.029 A 
ATOM     35  C   UNL A   1      45.015  28.581  33.475  1.00  0.00     0.049 A 
ATOM     36  H   UNL A   1      43.240  28.630  32.341  1.00  0.00     0.167 HD
ATOM     37  C   UNL A   1      45.384  26.815  31.755  1.00  0.00     0.074 A 
ATOM     38  C   UNL A   1      46.189  25.779  31.136  1.00  0.00     0.031 C 
ATOM     39  C   UNL A   1      45.780  27.546  32.827  1.00  0.00     0.031 A 
BRANCH  26  40
ATOM     40  C   UNL A   1      41.650  31.706  34.838  1.00  0.00    -0.014 A 
ATOM     41  C   UNL A   1      42.028  33.051  34.676  1.00  0.00     0.010 A 
ATOM     42  C   UNL A   1      40.899  31.337  35.968  1.00  0.00     0.010 A 
ATOM     43  C   UNL A   1      41.691  34.002  35.644  1.00  0.00     0.020 A 
ATOM     44  C   UNL A   1      40.541  32.288  36.928  1.00  0.00     0.020 A 
ATOM     45  C   UNL A   1      40.953  33.612  36.767  1.00  0.00     0.054 A 
BRANCH  45  46
ATOM     46  S   UNL A   1      40.519  34.867  38.004  1.00  0.00     0.124 S 
ATOM     47  O   UNL A   1      40.328  36.055  37.174  1.00  0.00    -0.237 OA
ATOM     48  O   UNL A   1      39.305  34.320  38.604  1.00  0.00    -0.237 OA
ATOM     49  O   UNL A   1      41.684  34.905  38.884  1.00  0.00    -0.744 OA
ENDBRANCH  45  46
ENDBRANCH  26  40
BRANCH  27  50
ATOM     50  C   UNL A   1      43.634  24.595  27.972  1.00  0.00    -0.014 A 
ATOM     51  C   UNL A   1      43.131  23.289  28.106  1.00  0.00     0.010 A 
ATOM     52  C   UNL A   1      44.458  24.892  26.870  1.00  0.00     0.010 A 
ATOM     53  C   UNL A   1      43.474  22.296  27.179  1.00  0.00     0.020 A 
ATOM     54  C   UNL A   1      44.777  23.914  25.924  1.00  0.00     0.020 A 
ATOM     55  C   UNL A   1      44.300  22.615  26.097  1.00  0.00     0.054 A 
BRANCH  55  56
ATOM     56  S   UNL A   1      44.735  21.318  24.903  1.00  0.00     0.124 S 
ATOM     57  O   UNL A   1      44.643  22.033  23.634  1.00  0.00    -0.237 OA
ATOM     58  O   UNL A   1      46.082  20.939  25.320  1.00  0.00    -0.237 OA
ATOM     59  O   UNL A   1      43.713  20.297  25.122  1.00  0.00    -0.744 OA
ENDBRANCH  55  56
ENDBRANCH  27  50
BRANCH  39  60
ATOM     60  C   UNL A   1      47.132  27.226  33.397  1.00  0.00    -0.014 A 
ATOM     61  C   UNL A   1      47.278  26.267  34.414  1.00  0.00     0.010 A 
ATOM     62  C   UNL A   1      48.272  27.865  32.877  1.00  0.00     0.010 A 
ATOM     63  C   UNL A   1      48.543  25.975  34.927  1.00  0.00     0.020 A 
ATOM     64  C   UNL A   1      49.540  27.555  33.369  1.00  0.00     0.020 A 
ATOM     65  C   UNL A   1      49.666  26.624  34.402  1.00  0.00     0.054 A 
BRANCH  65  66
ATOM     66  S   UNL A   1      51.302  26.201  35.057  1.00  0.00     0.124 S 
ATOM     67  O   UNL A   1      51.066  24.881  35.634  1.00  0.00    -0.237 OA
ATOM     68  O   UNL A   1      52.143  26.226  33.863  1.00  0.00    -0.237 OA
ATOM     69  O   UNL A   1      51.572  27.265  36.022  1.00  0.00    -0.744 OA
ENDBRANCH  65  66
ENDBRANCH  39  60
ENDBRANCH  13  14
ENDBRANCH   6   8
ENDBRANCH   5   6
ENDBRANCH   4   5
ENDBRANCH   3   4
ENDBRANCH   2   3
ENDBRANCH   1   2
BRANCH   1  70
ATOM     70  C   UNL A   1      32.988  36.094  29.131  1.00  0.00     0.261 C 
BRANCH  70  71
ATOM     71  O   UNL A   1      32.763  35.203  30.234  1.00  0.00    -0.460 OA
BRANCH  71  72
ATOM     72  C   UNL A   1      32.675  35.829  31.434  1.00  0.00     0.339 C 
ATOM     73  O   UNL A   1      31.827  36.626  31.796  1.00  0.00    -0.246 OA
BRANCH  72  74
ATOM     74  C   UNL A   1      33.641  35.194  32.340  1.00  0.00     0.078 A 
ATOM     75  C   UNL A   1      33.811  33.814  32.432  1.00  0.00     0.019 A 
ATOM     76  C   UNL A   1      34.344  36.009  33.211  1.00  0.00     0.127 A 
ATOM     77  C   UNL A   1      34.695  33.305  33.381  1.00  0.00     0.031 A 
ATOM     78  N   UNL A   1      35.187  35.537  34.158  1.00  0.00    -0.254 NA
ATOM     79  C   UNL A   1      35.374  34.193  34.218  1.00  0.00     0.094 A 
BRANCH  79  80
ATOM     80  C   UNL A   1      36.481  33.692  35.133  1.00  0.00     0.318 C 
BRANCH  80  81
ATOM     81  N   UNL A   1      37.723  33.515  34.373  1.00  0.00    -0.337 N 
ATOM     82  H   UNL A   1      37.594  32.730  33.735  1.00  0.00     0.346 HD
ATOM     83  H   UNL A   1      38.459  33.361  35.063  1.00  0.00     0.346 HD
BRANCH  81  84
ATOM     84  C   UNL A   1      38.134  34.666  33.593  1.00  0.00     0.300 C 
BRANCH  84  85
ATOM     85  C   UNL A   1      38.735  34.412  32.228  1.00  0.00     0.045 A 
ATOM     86  C   UNL A   1      40.137  34.434  32.122  1.00  0.00     0.051 A 
ATOM     87  C   UNL A   1      38.003  34.208  31.050  1.00  0.00     0.132 A 
ATOM     88  C   UNL A   1      40.760  34.221  30.895  1.00  0.00     0.123 A 
ATOM     89  C   UNL A   1      38.630  33.970  29.826  1.00  0.00     0.043 A 
ATOM     90  F   UNL A   1      36.665  34.241  31.057  1.00  0.00    -0.206 F 
ATOM     91  F   UNL A   1      42.097  34.257  30.822  1.00  0.00    -0.207 F 
ATOM     92  C   UNL A   1      40.019  33.974  29.747  1.00  0.00     0.042 A 
ENDBRANCH  84  85
ENDBRANCH  81  84
ENDBRANCH  80  81
ENDBRANCH  79  80
ENDBRANCH  72  74
ENDBRANCH  71  72
ENDBRANCH  70  71
ENDBRANCH   1  70
TORSDOF 21
ENDMDL
MODEL 2
REMARK VINA RESULT:      -8.9      4.264     12.459
REMARK SMILES O=C(OCCOCCOC(=O)c1ccc(C[NH2+]Cc2cc(F)ccc2F)nc1)c1ccc(-c2c3nc(c(-c4ccc(S(=O)(=O)[O-])cc4)c4ccc([nH]4)c(-c4ccc(S(=O)(=O)[O-])cc4)c4nc(c(-c5ccc(S(=O)(=O)[O-])cc5)c5ccc2[nH]5)C=C4)C=C3)cc1
REMARK SMILES IDX 7 1 6 2 5 3 4 4 3 5 2 6 1 7 29 8 30 9 88 10 31 11 87 12
REMARK SMILES IDX 32 13 33 14 34 15 81 16 35 17 86 18 80 19 82 20 36 21 85 22
REMARK SMILES IDX 79 23 78 24 37 26 67 27 48 28 66 29 49 30 52 31 65 32 83 33
REMARK SMILES IDX 50 34 51 35 64 37 84 38 53 39 38 40 39 41 47 42 40 43 46 44
REMARK SMILES IDX 41 45 42 46 43 47 44 48 45 49 68 50 69 51 77 52 70 53 76 54
REMARK SMILES IDX 71 55 72 56 73 57 74 58 75 59 54 60 55 61 63 62 56 63 62 64
REMARK SMILES IDX 57 65 58 66 59 67 60 68 61 69 8 70 9 71 10 72 11 73 12 74
REMARK SMILES IDX 13 75 28 76 14 77 27 78 15 79 16 80 17 81 18 84 19 85 20 86
REMARK SMILES IDX 25 87 21 88 24 89 26 90 22 91 23 92
REMARK H PARENT 82 25 52 36 17 82 17 83
REMARK Flexibility Score: inf
ROOT
ATOM      1  C   UNL A   1      44.672  20.057  24.897  1.00  0.00     0.202 C 
ENDROOT
BRANCH   1   2
ATOM      2  O   UNL A   1      43.820  21.194  24.697  1.00  0.00    -0.374 OA
BRANCH   2   3
ATOM      3  C   UNL A   1      44.128  22.349  25.483  1.00  0.00     0.202 C 
BRANCH   3   4
ATOM      4  C   UNL A   1      43.442  23.644  25.032  1.00  0.00     0.261 C 
BRANCH   4   5
ATOM      5  O   UNL A   1      42.717  24.234  26.125  1.00  0.00    -0.460 OA
BRANCH   5   6
ATOM      6  C   UNL A   1      41.856  25.280  26.092  1.00  0.00     0.338 C 
ATOM      7  O   UNL A   1      41.282  25.535  25.036  1.00  0.00    -0.246 OA
BRANCH   6   8
ATOM      8  C   UNL A   1      41.581  26.155  27.272  1.00  0.00     0.060 A 
ATOM      9  C   UNL A   1      40.719  25.823  28.317  1.00  0.00     0.016 A 
ATOM     10  C   UNL A   1      42.321  27.344  27.382  1.00  0.00     0.016 A 
ATOM     11  C   UNL A   1      40.527  26.670  29.397  1.00  0.00     0.010 A 
ATOM     12  C   UNL A   1      42.181  28.176  28.499  1.00  0.00     0.010 A 
ATOM     13  C   UNL A   1      41.270  27.842  29.505  1.00  0.00    -0.014 A 
BRANCH  13  14
ATOM     14  C   UNL A   1      41.021  28.701  30.678  1.00  0.00     0.031 A 
ATOM     15  C   UNL A   1      41.972  28.640  31.833  1.00  0.00     0.074 A 
ATOM     16  C   UNL A   1      40.041  29.623  30.613  1.00  0.00     0.049 A 
ATOM     17  N   UNL A   1      41.961  29.325  32.943  1.00  0.00    -0.248 NA
ATOM     18  C   UNL A   1      43.098  27.697  31.715  1.00  0.00     0.031 C 
ATOM     19  C   UNL A   1      39.144  29.820  29.467  1.00  0.00     0.029 A 
ATOM     20  N   UNL A   1      39.665  30.597  31.498  1.00  0.00    -0.354 N 
ATOM     21  C   UNL A   1      43.065  28.889  33.663  1.00  0.00     0.074 A 
ATOM     22  C   UNL A   1      43.721  27.873  32.871  1.00  0.00     0.031 C 
ATOM     23  C   UNL A   1      38.350  30.876  29.707  1.00  0.00     0.029 A 
ATOM     24  C   UNL A   1      38.631  31.384  31.043  1.00  0.00     0.049 A 
ATOM     25  H   UNL A   1      40.092  30.722  32.376  1.00  0.00     0.167 HD
ATOM     26  C   UNL A   1      43.484  29.301  34.882  1.00  0.00     0.031 A 
ATOM     27  C   UNL A   1      37.971  32.385  31.657  1.00  0.00     0.031 A 
ATOM     28  C   UNL A   1      42.796  30.299  35.653  1.00  0.00     0.049 A 
ATOM     29  C   UNL A   1      38.398  32.749  33.053  1.00  0.00     0.074 A 
ATOM     30  C   UNL A   1      43.068  30.743  36.934  1.00  0.00     0.029 A 
ATOM     31  N   UNL A   1      41.693  31.015  35.204  1.00  0.00    -0.354 N 
ATOM     32  N   UNL A   1      39.402  32.276  33.757  1.00  0.00    -0.248 NA
ATOM     33  C   UNL A   1      37.599  33.766  33.746  1.00  0.00     0.031 C 
ATOM     34  C   UNL A   1      42.101  31.696  37.275  1.00  0.00     0.029 A 
ATOM     35  C   UNL A   1      41.261  31.885  36.188  1.00  0.00     0.049 A 
ATOM     36  H   UNL A   1      41.280  30.916  34.316  1.00  0.00     0.167 HD
ATOM     37  C   UNL A   1      39.358  32.942  34.975  1.00  0.00     0.074 A 
ATOM     38  C   UNL A   1      38.249  33.875  34.896  1.00  0.00     0.031 C 
ATOM     39  C   UNL A   1      40.150  32.794  36.066  1.00  0.00     0.031 A 
BRANCH  26  40
ATOM     40  C   UNL A   1      44.690  28.618  35.464  1.00  0.00    -0.014 A 
ATOM     41  C   UNL A   1      44.568  27.456  36.247  1.00  0.00     0.010 A 
ATOM     42  C   UNL A   1      45.969  29.153  35.227  1.00  0.00     0.010 A 
ATOM     43  C   UNL A   1      45.702  26.860  36.809  1.00  0.00     0.020 A 
ATOM     44  C   UNL A   1      47.106  28.549  35.769  1.00  0.00     0.020 A 
ATOM     45  C   UNL A   1      46.964  27.415  36.570  1.00  0.00     0.054 A 
BRANCH  45  46
ATOM     46  S   UNL A   1      48.420  26.617  37.302  1.00  0.00     0.124 S 
ATOM     47  O   UNL A   1      48.677  25.533  36.357  1.00  0.00    -0.237 OA
ATOM     48  O   UNL A   1      49.408  27.693  37.307  1.00  0.00    -0.237 OA
ATOM     49  O   UNL A   1      47.957  26.195  38.622  1.00  0.00    -0.744 OA
ENDBRANCH  45  46
ENDBRANCH  26  40
BRANCH  27  50
ATOM     50  C   UNL A   1      36.807  33.045  31.001  1.00  0.00    -0.014 A 
ATOM     51  C   UNL A   1      36.974  33.884  29.885  1.00  0.00     0.010 A 
ATOM     52  C   UNL A   1      35.511  32.855  31.518  1.00  0.00     0.010 A 
ATOM     53  C   UNL A   1      35.874  34.545  29.323  1.00  0.00     0.020 A 
ATOM     54  C   UNL A   1      34.406  33.487  30.940  1.00  0.00     0.020 A 
ATOM     55  C   UNL A   1      34.598  34.346  29.858  1.00  0.00     0.054 A 
BRANCH  55  56
ATOM     56  S   UNL A   1      33.182  35.208  29.117  1.00  0.00     0.124 S 
ATOM     57  O   UNL A   1      32.353  35.486  30.285  1.00  0.00    -0.237 OA
ATOM     58  O   UNL A   1      33.808  36.371  28.493  1.00  0.00    -0.237 OA
ATOM     59  O   UNL A   1      32.639  34.226  28.181  1.00  0.00    -0.744 OA
ENDBRANCH  55  56
ENDBRANCH  27  50
BRANCH  39  60
ATOM     60  C   UNL A   1      39.848  33.677  37.242  1.00  0.00    -0.014 A 
ATOM     61  C   UNL A   1      40.449  34.942  37.368  1.00  0.00     0.010 A 
ATOM     62  C   UNL A   1      38.920  33.251  38.208  1.00  0.00     0.010 A 
ATOM     63  C   UNL A   1      40.150  35.753  38.464  1.00  0.00     0.020 A 
ATOM     64  C   UNL A   1      38.599  34.072  39.290  1.00  0.00     0.020 A 
ATOM     65  C   UNL A   1      39.229  35.312  39.419  1.00  0.00     0.054 A 
BRANCH  65  66
ATOM     66  S   UNL A   1      38.828  36.399  40.812  1.00  0.00     0.124 S 
ATOM     67  O   UNL A   1      37.785  35.641  41.497  1.00  0.00    -0.237 OA
ATOM     68  O   UNL A   1      40.102  36.499  41.520  1.00  0.00    -0.237 OA
ATOM     69  O   UNL A   1      38.382  37.633  40.169  1.00  0.00    -0.744 OA
ENDBRANCH  65  66
ENDBRANCH  39  60
ENDBRANCH  13  14
ENDBRANCH   6   8
ENDBRANCH   5   6
ENDBRANCH   4   5
ENDBRANCH   3   4
ENDBRANCH   2   3
ENDBRANCH   1   2
BRANCH   1  70
ATOM     70  C   UNL A   1      43.836  18.870  25.390  1.00  0.00     0.261 C 
BRANCH  70  71
ATOM     71  O   UNL A   1      42.451  19.232  25.280  1.00  0.00    -0.460 OA
BRANCH  71  72
ATOM     72  C   UNL A   1      41.835  19.406  26.475  1.00  0.00     0.339 C 
ATOM     73  O   UNL A   1      42.275  19.149  27.582  1.00  0.00    -0.246 OA
BRANCH  72  74
ATOM     74  C   UNL A   1      40.625  20.204  26.240  1.00  0.00     0.078 A 
ATOM     75  C   UNL A   1      39.514  19.726  25.548  1.00  0.00     0.019 A 
ATOM     76  C   UNL A   1      40.634  21.529  26.646  1.00  0.00     0.127 A 
ATOM     77  C   UNL A   1      38.447  20.587  25.307  1.00  0.00     0.031 A 
ATOM     78  N   UNL A   1      39.622  22.391  26.400  1.00  0.00    -0.254 NA
ATOM     79  C   UNL A   1      38.528  21.907  25.755  1.00  0.00     0.094 A 
BRANCH  79  80
ATOM     80  C   UNL A   1      37.314  22.821  25.677  1.00  0.00     0.318 C 
BRANCH  80  81
ATOM     81  N   UNL A   1      36.223  22.152  24.962  1.00  0.00    -0.337 N 
ATOM     82  H   UNL A   1      35.796  21.477  25.596  1.00  0.00     0.346 HD
ATOM     83  H   UNL A   1      36.643  21.724  24.137  1.00  0.00     0.346 HD
BRANCH  81  84
ATOM     84  C   UNL A   1      35.179  23.032  24.474  1.00  0.00     0.300 C 
BRANCH  84  85
ATOM     85  C   UNL A   1      33.777  22.820  24.999  1.00  0.00     0.045 A 
ATOM     86  C   UNL A   1      33.190  23.871  25.726  1.00  0.00     0.051 A 
ATOM     87  C   UNL A   1      33.036  21.638  24.863  1.00  0.00     0.132 A 
ATOM     88  C   UNL A   1      31.906  23.742  26.251  1.00  0.00     0.123 A 
ATOM     89  C   UNL A   1      31.740  21.520  25.369  1.00  0.00     0.043 A 
ATOM     90  F   UNL A   1      33.551  20.570  24.244  1.00  0.00    -0.206 F 
ATOM     91  F   UNL A   1      31.377  24.756  26.946  1.00  0.00    -0.207 F 
ATOM     92  C   UNL A   1      31.169  22.581  26.066  1.00  0.00     0.042 A 
ENDBRANCH  84  85
ENDBRANCH  81  84
ENDBRANCH  80  81
ENDBRANCH  79  80
ENDBRANCH  72  74
ENDBRANCH  71  72
ENDBRANCH  70  71
ENDBRANCH   1  70
TORSDOF 21
ENDMDL
MODEL 3
REMARK VINA RESULT:      -8.8      4.733     10.902
REMARK SMILES O=C(OCCOCCOC(=O)c1ccc(C[NH2+]Cc2cc(F)ccc2F)nc1)c1ccc(-c2c3nc(c(-c4ccc(S(=O)(=O)[O-])cc4)c4ccc([nH]4)c(-c4ccc(S(=O)(=O)[O-])cc4)c4nc(c(-c5ccc(S(=O)(=O)[O-])cc5)c5ccc2[nH]5)C=C4)C=C3)cc1
REMARK SMILES IDX 7 1 6 2 5 3 4 4 3 5 2 6 1 7 29 8 30 9 88 10 31 11 87 12
REMARK SMILES IDX 32 13 33 14 34 15 81 16 35 17 86 18 80 19 82 20 36 21 85 22
REMARK SMILES IDX 79 23 78 24 37 26 67 27 48 28 66 29 49 30 52 31 65 32 83 33
REMARK SMILES IDX 50 34 51 35 64 37 84 38 53 39 38 40 39 41 47 42 40 43 46 44
REMARK SMILES IDX 41 45 42 46 43 47 44 48 45 49 68 50 69 51 77 52 70 53 76 54
REMARK SMILES IDX 71 55 72 56 73 57 74 58 75 59 54 60 55 61 63 62 56 63 62 64
REMARK SMILES IDX 57 65 58 66 59 67 60 68 61 69 8 70 9 71 10 72 11 73 12 74
REMARK SMILES IDX 13 75 28 76 14 77 27 78 15 79 16 80 17 81 18 84 19 85 20 86
REMARK SMILES IDX 25 87 21 88 24 89 26 90 22 91 23 92
REMARK H PARENT 82 25 52 36 17 82 17 83
REMARK Flexibility Score: inf
ROOT
ATOM      1  C   UNL A   1      33.922  22.332  27.433  1.00  0.00     0.202 C 
ENDROOT
BRANCH   1   2
ATOM      2  O   UNL A   1      34.180  23.285  26.391  1.00  0.00    -0.374 OA
BRANCH   2   3
ATOM      3  C   UNL A   1      35.221  22.938  25.474  1.00  0.00     0.202 C 
BRANCH   3   4
ATOM      4  C   UNL A   1      36.421  23.892  25.461  1.00  0.00     0.261 C 
BRANCH   4   5
ATOM      5  O   UNL A   1      37.647  23.153  25.327  1.00  0.00    -0.460 OA
BRANCH   5   6
ATOM      6  C   UNL A   1      38.729  23.170  26.142  1.00  0.00     0.338 C 
ATOM      7  O   UNL A   1      39.377  22.134  26.281  1.00  0.00    -0.246 OA
BRANCH   6   8
ATOM      8  C   UNL A   1      39.168  24.381  26.900  1.00  0.00     0.060 A 
ATOM      9  C   UNL A   1      38.913  24.601  28.253  1.00  0.00     0.016 A 
ATOM     10  C   UNL A   1      39.980  25.308  26.224  1.00  0.00     0.016 A 
ATOM     11  C   UNL A   1      39.371  25.736  28.903  1.00  0.00     0.010 A 
ATOM     12  C   UNL A   1      40.500  26.426  26.888  1.00  0.00     0.010 A 
ATOM     13  C   UNL A   1      40.182  26.646  28.232  1.00  0.00    -0.014 A 
BRANCH  13  14
ATOM     14  C   UNL A   1      40.639  27.833  28.977  1.00  0.00     0.031 A 
ATOM     15  C   UNL A   1      42.065  27.899  29.430  1.00  0.00     0.074 A 
ATOM     16  C   UNL A   1      39.808  28.887  29.094  1.00  0.00     0.049 A 
ATOM     17  N   UNL A   1      42.681  28.855  30.068  1.00  0.00    -0.248 NA
ATOM     18  C   UNL A   1      42.917  26.743  29.102  1.00  0.00     0.031 C 
ATOM     19  C   UNL A   1      38.436  28.940  28.575  1.00  0.00     0.029 A 
ATOM     20  N   UNL A   1      40.003  30.128  29.638  1.00  0.00    -0.354 N 
ATOM     21  C   UNL A   1      43.987  28.414  30.233  1.00  0.00     0.074 A 
ATOM     22  C   UNL A   1      44.076  27.100  29.636  1.00  0.00     0.031 C 
ATOM     23  C   UNL A   1      37.930  30.165  28.792  1.00  0.00     0.029 A 
ATOM     24  C   UNL A   1      38.910  30.957  29.523  1.00  0.00     0.049 A 
ATOM     25  H   UNL A   1      40.844  30.401  30.071  1.00  0.00     0.167 HD
ATOM     26  C   UNL A   1      45.015  29.053  30.836  1.00  0.00     0.031 A 
ATOM     27  C   UNL A   1      38.720  32.207  29.986  1.00  0.00     0.031 A 
ATOM     28  C   UNL A   1      44.889  30.352  31.438  1.00  0.00     0.049 A 
ATOM     29  C   UNL A   1      39.851  32.851  30.742  1.00  0.00     0.074 A 
ATOM     30  C   UNL A   1      45.829  31.070  32.153  1.00  0.00     0.029 A 
ATOM     31  N   UNL A   1      43.739  31.130  31.388  1.00  0.00    -0.354 N 
ATOM     32  N   UNL A   1      41.063  32.391  30.958  1.00  0.00    -0.248 NA
ATOM     33  C   UNL A   1      39.588  34.168  31.332  1.00  0.00     0.031 C 
ATOM     34  C   UNL A   1      45.232  32.264  32.573  1.00  0.00     0.029 A 
ATOM     35  C   UNL A   1      43.939  32.314  32.074  1.00  0.00     0.049 A 
ATOM     36  H   UNL A   1      42.905  30.876  30.932  1.00  0.00     0.167 HD
ATOM     37  C   UNL A   1      41.711  33.368  31.704  1.00  0.00     0.074 A 
ATOM     38  C   UNL A   1      40.765  34.456  31.872  1.00  0.00     0.031 C 
ATOM     39  C   UNL A   1      42.966  33.368  32.217  1.00  0.00     0.031 A 
BRANCH  26  40
ATOM     40  C   UNL A   1      46.325  28.321  30.928  1.00  0.00    -0.014 A 
ATOM     41  C   UNL A   1      46.615  27.469  32.008  1.00  0.00     0.010 A 
ATOM     42  C   UNL A   1      47.285  28.493  29.915  1.00  0.00     0.010 A 
ATOM     43  C   UNL A   1      47.855  26.827  32.091  1.00  0.00     0.020 A 
ATOM     44  C   UNL A   1      48.518  27.838  29.983  1.00  0.00     0.020 A 
ATOM     45  C   UNL A   1      48.801  27.021  31.078  1.00  0.00     0.054 A 
BRANCH  45  46
ATOM     46  S   UNL A   1      50.399  26.170  31.203  1.00  0.00     0.124 S 
ATOM     47  O   UNL A   1      51.007  26.480  29.911  1.00  0.00    -0.237 OA
ATOM     48  O   UNL A   1      51.017  26.816  32.359  1.00  0.00    -0.237 OA
ATOM     49  O   UNL A   1      50.032  24.770  31.398  1.00  0.00    -0.744 OA
ENDBRANCH  45  46
ENDBRANCH  26  40
BRANCH  27  50
ATOM     50  C   UNL A   1      37.405  32.888  29.823  1.00  0.00    -0.014 A 
ATOM     51  C   UNL A   1      36.398  32.779  30.798  1.00  0.00     0.010 A 
ATOM     52  C   UNL A   1      37.142  33.637  28.659  1.00  0.00     0.010 A 
ATOM     53  C   UNL A   1      35.146  33.375  30.596  1.00  0.00     0.020 A 
ATOM     54  C   UNL A   1      35.906  34.260  28.468  1.00  0.00     0.020 A 
ATOM     55  C   UNL A   1      34.907  34.107  29.429  1.00  0.00     0.054 A 
BRANCH  55  56
ATOM     56  S   UNL A   1      33.281  34.876  29.182  1.00  0.00     0.124 S 
ATOM     57  O   UNL A   1      32.720  34.834  30.528  1.00  0.00    -0.237 OA
ATOM     58  O   UNL A   1      33.629  36.203  28.681  1.00  0.00    -0.237 OA
ATOM     59  O   UNL A   1      32.635  34.000  28.207  1.00  0.00    -0.744 OA
ENDBRANCH  55  56
ENDBRANCH  27  50
BRANCH  39  60
ATOM     60  C   UNL A   1      43.381  34.590  32.984  1.00  0.00    -0.014 A 
ATOM     61  C   UNL A   1      43.885  35.723  32.321  1.00  0.00     0.010 A 
ATOM     62  C   UNL A   1      43.223  34.617  34.381  1.00  0.00     0.010 A 
ATOM     63  C   UNL A   1      44.257  36.854  33.049  1.00  0.00     0.020 A 
ATOM     64  C   UNL A   1      43.569  35.757  35.108  1.00  0.00     0.020 A 
ATOM     65  C   UNL A   1      44.098  36.862  34.438  1.00  0.00     0.054 A 
BRANCH  65  66
ATOM     66  S   UNL A   1      44.553  38.356  35.359  1.00  0.00     0.124 S 
ATOM     67  O   UNL A   1      43.760  39.380  34.685  1.00  0.00    -0.237 OA
ATOM     68  O   UNL A   1      44.138  38.033  36.722  1.00  0.00    -0.237 OA
ATOM     69  O   UNL A   1      45.997  38.456  35.162  1.00  0.00    -0.744 OA
ENDBRANCH  65  66
ENDBRANCH  39  60
ENDBRANCH  13  14
ENDBRANCH   6   8
ENDBRANCH   5   6
ENDBRANCH   4   5
ENDBRANCH   3   4
ENDBRANCH   2   3
ENDBRANCH   1   2
BRANCH   1  70
ATOM     70  C   UNL A   1      32.606  21.600  27.144  1.00  0.00     0.261 C 
BRANCH  70  71
ATOM     71  O   UNL A   1      31.952  22.281  26.062  1.00  0.00    -0.460 OA
BRANCH  71  72
ATOM     72  C   UNL A   1      30.922  23.070  26.456  1.00  0.00     0.339 C 
ATOM     73  O   UNL A   1      30.348  23.061  27.531  1.00  0.00    -0.246 OA
BRANCH  72  74
ATOM     74  C   UNL A   1      30.764  24.131  25.453  1.00  0.00     0.078 A 
ATOM     75  C   UNL A   1      31.221  24.019  24.141  1.00  0.00     0.019 A 
ATOM     76  C   UNL A   1      30.221  25.336  25.866  1.00  0.00     0.127 A 
ATOM     77  C   UNL A   1      31.097  25.112  23.288  1.00  0.00     0.031 A 
ATOM     78  N   UNL A   1      30.114  26.419  25.063  1.00  0.00    -0.254 NA
ATOM     79  C   UNL A   1      30.530  26.290  23.776  1.00  0.00     0.094 A 
BRANCH  79  80
ATOM     80  C   UNL A   1      30.207  27.437  22.830  1.00  0.00     0.318 C 
BRANCH  80  81
ATOM     81  N   UNL A   1      31.413  27.851  22.107  1.00  0.00    -0.337 N 
ATOM     82  H   UNL A   1      31.131  28.180  21.183  1.00  0.00     0.346 HD
ATOM     83  H   UNL A   1      32.023  27.034  22.079  1.00  0.00     0.346 HD
BRANCH  81  84
ATOM     84  C   UNL A   1      32.179  28.905  22.744  1.00  0.00     0.300 C 
BRANCH  84  85
ATOM     85  C   UNL A   1      32.608  28.694  24.179  1.00  0.00     0.045 A 
ATOM     86  C   UNL A   1      32.093  29.574  25.147  1.00  0.00     0.051 A 
ATOM     87  C   UNL A   1      33.521  27.722  24.612  1.00  0.00     0.132 A 
ATOM     88  C   UNL A   1      32.454  29.447  26.486  1.00  0.00     0.123 A 
ATOM     89  C   UNL A   1      33.862  27.581  25.958  1.00  0.00     0.043 A 
ATOM     90  F   UNL A   1      34.106  26.892  23.741  1.00  0.00    -0.206 F 
ATOM     91  F   UNL A   1      31.955  30.306  27.385  1.00  0.00    -0.207 F 
ATOM     92  C   UNL A   1      33.324  28.449  26.903  1.00  0.00     0.042 A 
ENDBRANCH  84  85
ENDBRANCH  81  84
ENDBRANCH  80  81
ENDBRANCH  79  80
ENDBRANCH  72  74
ENDBRANCH  71  72
ENDBRANCH  70  71
ENDBRANCH   1  70
TORSDOF 21
ENDMDL
