MODEL 1
REMARK VINA RESULT:      -8.2      0.000      0.000
REMARK SMILES Cc1c(CC(=O)OCCOCCOC(=O)c2ccc(-c3c4nc(c(-c5ccc(S(=O)(=O)[O-])cc5)c5ccc([nH]5)c(-c5ccc(S(=O)(=O)[O-])cc5)c5nc(c(-c6ccc(S(=O)(=O)[O-])cc6)c6ccc3[nH]6)C=C5)C=C4)cc2)cc(-c2ccc(S(C)(=O)=O)cc2)n1-c1ccccc1
REMARK SMILES IDX 10 1 9 2 8 3 7 4 5 5 6 6 4 7 3 8 1 9 2 10 88 11 76 12 77 13
REMARK SMILES IDX 89 14 90 15 94 16 91 17 93 18 92 19 78 20 79 21 87 22 80 23
REMARK SMILES IDX 86 24 81 25 82 26 83 27 84 28 85 29 11 30 12 31 13 32 14 33
REMARK SMILES IDX 15 34 16 35 17 36 75 37 18 38 74 39 19 40 20 41 21 42 68 43
REMARK SMILES IDX 22 44 73 45 67 46 69 47 23 48 72 49 66 50 65 51 24 53 54 54
REMARK SMILES IDX 35 55 53 56 36 57 39 58 52 59 70 60 37 61 38 62 51 64 71 65
REMARK SMILES IDX 40 66 25 67 26 68 34 69 27 70 33 71 28 72 29 73 30 74 31 75
REMARK SMILES IDX 32 76 55 77 56 78 64 79 57 80 63 81 58 82 59 83 60 84 61 85
REMARK SMILES IDX 62 86 41 87 42 88 50 89 43 90 49 91 44 92 45 93 46 94 47 95
REMARK SMILES IDX 48 96
REMARK H PARENT 69 52 39 63
REMARK Flexibility Score: inf
ROOT
ATOM      1  O   UNL A   1      44.101  20.132  24.584  1.00  0.00    -0.374 OA
ENDROOT
BRANCH   1   2
ATOM      2  C   UNL A   1      43.501  20.669  25.751  1.00  0.00     0.202 C 
BRANCH   2   3
ATOM      3  C   UNL A   1      42.285  19.887  26.276  1.00  0.00     0.261 C 
BRANCH   3   4
ATOM      4  O   UNL A   1      41.028  20.569  26.064  1.00  0.00    -0.463 OA
BRANCH   4   5
ATOM      5  C   UNL A   1      40.582  21.339  27.093  1.00  0.00     0.310 C 
ATOM      6  O   UNL A   1      40.776  21.075  28.280  1.00  0.00    -0.252 OA
BRANCH   5   7
ATOM      7  C   UNL A   1      39.728  22.531  26.700  1.00  0.00     0.160 C 
BRANCH   7   8
ATOM      8  C   UNL A   1      40.062  23.916  27.208  1.00  0.00    -0.015 A 
ATOM      9  C   UNL A   1      42.671  23.907  27.379  1.00  0.00     0.065 C 
ATOM     10  C   UNL A   1      41.305  24.502  27.481  1.00  0.00     0.024 A 
ATOM     11  N   UNL A   1      41.096  25.782  28.013  1.00  0.00    -0.314 N 
ATOM     12  C   UNL A   1      39.092  24.823  27.705  1.00  0.00     0.033 A 
ATOM     13  C   UNL A   1      39.735  25.911  28.263  1.00  0.00     0.053 A 
BRANCH  11  14
ATOM     14  C   UNL A   1      42.082  26.784  28.288  1.00  0.00     0.046 A 
ATOM     15  C   UNL A   1      42.613  26.963  29.563  1.00  0.00     0.026 A 
ATOM     16  C   UNL A   1      42.381  27.737  27.315  1.00  0.00     0.026 A 
ATOM     17  C   UNL A   1      43.456  28.058  29.821  1.00  0.00     0.002 A 
ATOM     18  C   UNL A   1      43.222  28.823  27.557  1.00  0.00     0.002 A 
ATOM     19  C   UNL A   1      43.766  28.983  28.820  1.00  0.00     0.000 A 
ENDBRANCH  11  14
BRANCH  13  20
ATOM     20  C   UNL A   1      39.118  27.067  28.899  1.00  0.00    -0.001 A 
ATOM     21  C   UNL A   1      38.735  28.165  28.124  1.00  0.00     0.011 A 
ATOM     22  C   UNL A   1      38.903  27.081  30.281  1.00  0.00     0.011 A 
ATOM     23  C   UNL A   1      38.153  29.281  28.718  1.00  0.00     0.021 A 
ATOM     24  C   UNL A   1      38.328  28.199  30.886  1.00  0.00     0.021 A 
ATOM     25  C   UNL A   1      37.961  29.295  30.098  1.00  0.00     0.067 A 
BRANCH  25  26
ATOM     26  S   UNL A   1      37.186  30.702  30.849  1.00  0.00     0.175 S 
ATOM     27  C   UNL A   1      38.395  31.996  30.721  1.00  0.00     0.163 C 
ATOM     28  O   UNL A   1      36.046  31.045  30.005  1.00  0.00    -0.224 OA
ATOM     29  O   UNL A   1      37.004  30.406  32.250  1.00  0.00    -0.224 OA
ENDBRANCH  25  26
ENDBRANCH  13  20
ENDBRANCH   7   8
ENDBRANCH   5   7
ENDBRANCH   4   5
ENDBRANCH   3   4
ENDBRANCH   2   3
ENDBRANCH   1   2
BRANCH   1  30
ATOM     30  C   UNL A   1      44.961  21.028  23.877  1.00  0.00     0.202 C 
BRANCH  30  31
ATOM     31  C   UNL A   1      44.687  22.567  23.974  1.00  0.00     0.261 C 
BRANCH  31  32
ATOM     32  O   UNL A   1      45.771  23.615  24.109  1.00  0.00    -0.460 OA
BRANCH  32  33
ATOM     33  C   UNL A   1      46.307  23.793  25.403  1.00  0.00     0.338 C 
ATOM     34  O   UNL A   1      46.403  22.826  26.153  1.00  0.00    -0.246 OA
BRANCH  33  35
ATOM     35  C   UNL A   1      46.870  25.193  25.931  1.00  0.00     0.060 A 
ATOM     36  C   UNL A   1      46.283  25.814  27.034  1.00  0.00     0.016 A 
ATOM     37  C   UNL A   1      47.664  26.122  25.202  1.00  0.00     0.016 A 
ATOM     38  C   UNL A   1      46.553  27.219  27.421  1.00  0.00     0.010 A 
ATOM     39  C   UNL A   1      47.897  27.587  25.576  1.00  0.00     0.010 A 
ATOM     40  C   UNL A   1      47.359  28.213  26.723  1.00  0.00    -0.014 A 
BRANCH  40  41
ATOM     41  C   UNL A   1      47.107  29.886  27.107  1.00  0.00     0.031 A 
ATOM     42  C   UNL A   1      48.147  30.051  28.153  1.00  0.00     0.074 A 
ATOM     43  C   UNL A   1      46.299  31.069  27.032  1.00  0.00     0.049 A 
ATOM     44  N   UNL A   1      48.069  29.263  29.184  1.00  0.00    -0.248 NA
ATOM     45  C   UNL A   1      49.442  30.699  27.972  1.00  0.00     0.031 C 
ATOM     46  C   UNL A   1      44.963  31.244  26.418  1.00  0.00     0.029 A 
ATOM     47  N   UNL A   1      46.462  32.455  27.516  1.00  0.00    -0.354 N 
ATOM     48  C   UNL A   1      49.175  29.498  29.948  1.00  0.00     0.074 A 
ATOM     49  C   UNL A   1      50.073  30.226  29.055  1.00  0.00     0.031 C 
ATOM     50  C   UNL A   1      44.539  32.552  26.396  1.00  0.00     0.029 A 
ATOM     51  C   UNL A   1      45.493  33.465  27.038  1.00  0.00     0.049 A 
ATOM     52  H   UNL A   1      47.189  32.698  28.133  1.00  0.00     0.167 HD
ATOM     53  C   UNL A   1      48.905  29.710  31.267  1.00  0.00     0.031 A 
ATOM     54  C   UNL A   1      45.389  34.875  27.206  1.00  0.00     0.031 A 
ATOM     55  C   UNL A   1      48.892  31.120  31.563  1.00  0.00     0.049 A 
ATOM     56  C   UNL A   1      46.005  35.148  28.509  1.00  0.00     0.074 A 
ATOM     57  C   UNL A   1      49.764  32.141  31.240  1.00  0.00     0.029 A 
ATOM     58  N   UNL A   1      47.673  31.704  31.842  1.00  0.00    -0.354 N 
ATOM     59  N   UNL A   1      45.363  34.927  29.614  1.00  0.00    -0.248 NA
ATOM     60  C   UNL A   1      47.300  35.794  28.662  1.00  0.00     0.031 C 
ATOM     61  C   UNL A   1      48.941  33.230  30.888  1.00  0.00     0.029 A 
ATOM     62  C   UNL A   1      47.659  33.004  31.369  1.00  0.00     0.049 A 
ATOM     63  H   UNL A   1      46.927  31.263  32.307  1.00  0.00     0.167 HD
ATOM     64  C   UNL A   1      46.365  34.830  30.528  1.00  0.00     0.074 A 
ATOM     65  C   UNL A   1      47.454  35.618  29.975  1.00  0.00     0.031 C 
ATOM     66  C   UNL A   1      46.393  33.695  31.273  1.00  0.00     0.031 A 
BRANCH  53  67
ATOM     67  C   UNL A   1      47.955  28.680  31.845  1.00  0.00    -0.014 A 
ATOM     68  C   UNL A   1      48.400  27.357  31.982  1.00  0.00     0.010 A 
ATOM     69  C   UNL A   1      46.580  28.945  32.051  1.00  0.00     0.010 A 
ATOM     70  C   UNL A   1      47.491  26.326  32.262  1.00  0.00     0.020 A 
ATOM     71  C   UNL A   1      45.664  27.917  32.297  1.00  0.00     0.020 A 
ATOM     72  C   UNL A   1      46.126  26.608  32.395  1.00  0.00     0.054 A 
BRANCH  72  73
ATOM     73  S   UNL A   1      44.965  25.231  32.626  1.00  0.00     0.124 S 
ATOM     74  O   UNL A   1      43.819  25.879  33.262  1.00  0.00    -0.237 OA
ATOM     75  O   UNL A   1      44.740  24.785  31.255  1.00  0.00    -0.237 OA
ATOM     76  O   UNL A   1      45.685  24.297  33.488  1.00  0.00    -0.744 OA
ENDBRANCH  72  73
ENDBRANCH  53  67
BRANCH  54  77
ATOM     77  C   UNL A   1      44.710  36.272  26.744  1.00  0.00    -0.014 A 
ATOM     78  C   UNL A   1      43.264  36.426  26.727  1.00  0.00     0.010 A 
ATOM     79  C   UNL A   1      45.379  37.510  26.757  1.00  0.00     0.010 A 
ATOM     80  C   UNL A   1      42.566  37.666  26.876  1.00  0.00     0.020 A 
ATOM     81  C   UNL A   1      44.682  38.771  26.877  1.00  0.00     0.020 A 
ATOM     82  C   UNL A   1      43.287  38.841  26.995  1.00  0.00     0.054 A 
BRANCH  82  83
ATOM     83  S   UNL A   1      42.419  40.401  27.471  1.00  0.00     0.124 S 
ATOM     84  O   UNL A   1      43.323  41.448  27.004  1.00  0.00    -0.237 OA
ATOM     85  O   UNL A   1      41.153  40.303  26.745  1.00  0.00    -0.237 OA
ATOM     86  O   UNL A   1      42.294  40.296  28.924  1.00  0.00    -0.744 OA
ENDBRANCH  82  83
ENDBRANCH  54  77
BRANCH  66  87
ATOM     87  C   UNL A   1      45.061  33.142  31.778  1.00  0.00    -0.014 A 
ATOM     88  C   UNL A   1      44.348  33.609  32.910  1.00  0.00     0.010 A 
ATOM     89  C   UNL A   1      44.520  32.033  31.105  1.00  0.00     0.010 A 
ATOM     90  C   UNL A   1      43.210  32.950  33.396  1.00  0.00     0.020 A 
ATOM     91  C   UNL A   1      43.353  31.400  31.551  1.00  0.00     0.020 A 
ATOM     92  C   UNL A   1      42.726  31.838  32.717  1.00  0.00     0.054 A 
BRANCH  92  93
ATOM     93  S   UNL A   1      41.296  30.950  33.392  1.00  0.00     0.124 S 
ATOM     94  O   UNL A   1      41.868  30.285  34.561  1.00  0.00    -0.237 OA
ATOM     95  O   UNL A   1      40.356  32.028  33.686  1.00  0.00    -0.237 OA
ATOM     96  O   UNL A   1      40.904  30.053  32.307  1.00  0.00    -0.744 OA
ENDBRANCH  92  93
ENDBRANCH  66  87
ENDBRANCH  40  41
ENDBRANCH  33  35
ENDBRANCH  32  33
ENDBRANCH  31  32
ENDBRANCH  30  31
ENDBRANCH   1  30
TORSDOF 21
ENDMDL
MODEL 2
REMARK VINA RESULT:      -7.9      4.047     12.067
REMARK SMILES Cc1c(CC(=O)OCCOCCOC(=O)c2ccc(-c3c4nc(c(-c5ccc(S(=O)(=O)[O-])cc5)c5ccc([nH]5)c(-c5ccc(S(=O)(=O)[O-])cc5)c5nc(c(-c6ccc(S(=O)(=O)[O-])cc6)c6ccc3[nH]6)C=C5)C=C4)cc2)cc(-c2ccc(S(C)(=O)=O)cc2)n1-c1ccccc1
REMARK SMILES IDX 10 1 9 2 8 3 7 4 5 5 6 6 4 7 3 8 1 9 2 10 88 11 76 12 77 13
REMARK SMILES IDX 89 14 90 15 94 16 91 17 93 18 92 19 78 20 79 21 87 22 80 23
REMARK SMILES IDX 86 24 81 25 82 26 83 27 84 28 85 29 11 30 12 31 13 32 14 33
REMARK SMILES IDX 15 34 16 35 17 36 75 37 18 38 74 39 19 40 20 41 21 42 68 43
REMARK SMILES IDX 22 44 73 45 67 46 69 47 23 48 72 49 66 50 65 51 24 53 54 54
REMARK SMILES IDX 35 55 53 56 36 57 39 58 52 59 70 60 37 61 38 62 51 64 71 65
REMARK SMILES IDX 40 66 25 67 26 68 34 69 27 70 33 71 28 72 29 73 30 74 31 75
REMARK SMILES IDX 32 76 55 77 56 78 64 79 57 80 63 81 58 82 59 83 60 84 61 85
REMARK SMILES IDX 62 86 41 87 42 88 50 89 43 90 49 91 44 92 45 93 46 94 47 95
REMARK SMILES IDX 48 96
REMARK H PARENT 69 52 39 63
REMARK Flexibility Score: inf
ROOT
ATOM      1  O   UNL A   1      35.056  34.289  34.447  1.00  0.00    -0.374 OA
ENDROOT
BRANCH   1   2
ATOM      2  C   UNL A   1      36.243  33.771  35.022  1.00  0.00     0.202 C 
BRANCH   2   3
ATOM      3  C   UNL A   1      37.493  33.861  34.128  1.00  0.00     0.261 C 
BRANCH   3   4
ATOM      4  O   UNL A   1      38.177  35.131  34.223  1.00  0.00    -0.463 OA
BRANCH   4   5
ATOM      5  C   UNL A   1      39.521  35.075  34.425  1.00  0.00     0.310 C 
ATOM      6  O   UNL A   1      40.333  34.782  33.547  1.00  0.00    -0.252 OA
BRANCH   5   7
ATOM      7  C   UNL A   1      39.981  35.308  35.853  1.00  0.00     0.160 C 
BRANCH   7   8
ATOM      8  C   UNL A   1      41.346  34.837  36.306  1.00  0.00    -0.015 A 
ATOM      9  C   UNL A   1      42.958  36.739  35.517  1.00  0.00     0.065 C 
ATOM     10  C   UNL A   1      42.600  35.448  36.178  1.00  0.00     0.024 A 
ATOM     11  N   UNL A   1      43.580  34.581  36.682  1.00  0.00    -0.314 N 
ATOM     12  C   UNL A   1      41.603  33.528  36.787  1.00  0.00     0.033 A 
ATOM     13  C   UNL A   1      42.967  33.360  36.932  1.00  0.00     0.053 A 
BRANCH  11  14
ATOM     14  C   UNL A   1      44.970  34.862  36.888  1.00  0.00     0.046 A 
ATOM     15  C   UNL A   1      45.421  35.560  38.005  1.00  0.00     0.026 A 
ATOM     16  C   UNL A   1      45.879  34.613  35.861  1.00  0.00     0.026 A 
ATOM     17  C   UNL A   1      46.769  35.951  38.087  1.00  0.00     0.002 A 
ATOM     18  C   UNL A   1      47.220  34.989  35.934  1.00  0.00     0.002 A 
ATOM     19  C   UNL A   1      47.669  35.661  37.058  1.00  0.00     0.000 A 
ENDBRANCH  11  14
BRANCH  13  20
ATOM     20  C   UNL A   1      43.662  32.164  37.385  1.00  0.00    -0.001 A 
ATOM     21  C   UNL A   1      43.915  31.124  36.487  1.00  0.00     0.011 A 
ATOM     22  C   UNL A   1      44.083  32.054  38.714  1.00  0.00     0.011 A 
ATOM     23  C   UNL A   1      44.570  29.970  36.907  1.00  0.00     0.021 A 
ATOM     24  C   UNL A   1      44.734  30.898  39.147  1.00  0.00     0.021 A 
ATOM     25  C   UNL A   1      44.968  29.860  38.238  1.00  0.00     0.067 A 
BRANCH  25  26
ATOM     26  S   UNL A   1      45.835  28.405  38.764  1.00  0.00     0.175 S 
ATOM     27  C   UNL A   1      47.322  29.020  39.512  1.00  0.00     0.163 C 
ATOM     28  O   UNL A   1      45.014  27.786  39.798  1.00  0.00    -0.224 OA
ATOM     29  O   UNL A   1      46.210  27.668  37.580  1.00  0.00    -0.224 OA
ENDBRANCH  25  26
ENDBRANCH  13  20
ENDBRANCH   7   8
ENDBRANCH   5   7
ENDBRANCH   4   5
ENDBRANCH   3   4
ENDBRANCH   2   3
ENDBRANCH   1   2
BRANCH   1  30
ATOM     30  C   UNL A   1      35.252  35.139  33.315  1.00  0.00     0.202 C 
BRANCH  30  31
ATOM     31  C   UNL A   1      34.089  35.290  32.277  1.00  0.00     0.261 C 
BRANCH  31  32
ATOM     32  O   UNL A   1      33.548  34.152  31.438  1.00  0.00    -0.460 OA
BRANCH  32  33
ATOM     33  C   UNL A   1      34.409  33.653  30.438  1.00  0.00     0.338 C 
ATOM     34  O   UNL A   1      34.212  33.960  29.266  1.00  0.00    -0.246 OA
BRANCH  33  35
ATOM     35  C   UNL A   1      35.691  32.752  30.756  1.00  0.00     0.060 A 
ATOM     36  C   UNL A   1      36.808  32.802  29.921  1.00  0.00     0.016 A 
ATOM     37  C   UNL A   1      35.733  31.588  31.573  1.00  0.00     0.016 A 
ATOM     38  C   UNL A   1      37.915  31.818  29.977  1.00  0.00     0.010 A 
ATOM     39  C   UNL A   1      36.853  30.545  31.589  1.00  0.00     0.010 A 
ATOM     40  C   UNL A   1      38.019  30.615  30.794  1.00  0.00    -0.014 A 
BRANCH  40  41
ATOM     41  C   UNL A   1      39.156  29.397  30.312  1.00  0.00     0.031 A 
ATOM     42  C   UNL A   1      39.982  29.339  31.545  1.00  0.00     0.074 A 
ATOM     43  C   UNL A   1      39.756  28.594  29.286  1.00  0.00     0.049 A 
ATOM     44  N   UNL A   1      40.540  30.450  31.925  1.00  0.00    -0.248 NA
ATOM     45  C   UNL A   1      39.911  28.304  32.571  1.00  0.00     0.031 C 
ATOM     46  C   UNL A   1      39.511  28.618  27.825  1.00  0.00     0.029 A 
ATOM     47  N   UNL A   1      40.785  27.534  29.282  1.00  0.00    -0.354 N 
ATOM     48  C   UNL A   1      41.140  30.202  33.126  1.00  0.00     0.074 A 
ATOM     49  C   UNL A   1      40.545  28.942  33.564  1.00  0.00     0.031 C 
ATOM     50  C   UNL A   1      40.153  27.609  27.147  1.00  0.00     0.029 A 
ATOM     51  C   UNL A   1      40.979  26.774  28.028  1.00  0.00     0.049 A 
ATOM     52  H   UNL A   1      41.321  27.339  30.084  1.00  0.00     0.167 HD
ATOM     53  C   UNL A   1      42.436  30.619  33.197  1.00  0.00     0.031 A 
ATOM     54  C   UNL A   1      41.784  25.652  27.681  1.00  0.00     0.031 A 
ATOM     55  C   UNL A   1      43.337  29.520  32.971  1.00  0.00     0.049 A 
ATOM     56  C   UNL A   1      42.952  25.735  28.564  1.00  0.00     0.074 A 
ATOM     57  C   UNL A   1      43.380  28.237  33.483  1.00  0.00     0.029 A 
ATOM     58  N   UNL A   1      44.042  29.503  31.784  1.00  0.00    -0.354 N 
ATOM     59  N   UNL A   1      43.922  26.559  28.318  1.00  0.00    -0.248 NA
ATOM     60  C   UNL A   1      43.173  24.831  29.685  1.00  0.00     0.031 C 
ATOM     61  C   UNL A   1      43.697  27.413  32.384  1.00  0.00     0.029 A 
ATOM     62  C   UNL A   1      44.220  28.197  31.365  1.00  0.00     0.049 A 
ATOM     63  H   UNL A   1      44.368  30.300  31.308  1.00  0.00     0.167 HD
ATOM     64  C   UNL A   1      44.520  26.689  29.533  1.00  0.00     0.074 A 
ATOM     65  C   UNL A   1      44.220  25.452  30.233  1.00  0.00     0.031 C 
ATOM     66  C   UNL A   1      44.652  27.956  30.006  1.00  0.00     0.031 A 
BRANCH  53  67
ATOM     67  C   UNL A   1      42.626  32.034  32.686  1.00  0.00    -0.014 A 
ATOM     68  C   UNL A   1      42.267  32.323  31.362  1.00  0.00     0.010 A 
ATOM     69  C   UNL A   1      43.343  33.015  33.412  1.00  0.00     0.010 A 
ATOM     70  C   UNL A   1      42.659  33.532  30.767  1.00  0.00     0.020 A 
ATOM     71  C   UNL A   1      43.766  34.206  32.813  1.00  0.00     0.020 A 
ATOM     72  C   UNL A   1      43.426  34.456  31.488  1.00  0.00     0.054 A 
BRANCH  72  73
ATOM     73  S   UNL A   1      44.026  35.946  30.642  1.00  0.00     0.124 S 
ATOM     74  O   UNL A   1      45.368  35.555  30.214  1.00  0.00    -0.237 OA
ATOM     75  O   UNL A   1      43.054  36.101  29.564  1.00  0.00    -0.237 OA
ATOM     76  O   UNL A   1      43.999  36.979  31.675  1.00  0.00    -0.744 OA
ENDBRANCH  72  73
ENDBRANCH  53  67
BRANCH  54  77
ATOM     77  C   UNL A   1      42.122  24.473  26.622  1.00  0.00    -0.014 A 
ATOM     78  C   UNL A   1      43.175  24.640  25.633  1.00  0.00     0.010 A 
ATOM     79  C   UNL A   1      41.789  23.121  26.823  1.00  0.00     0.010 A 
ATOM     80  C   UNL A   1      43.925  23.577  25.039  1.00  0.00     0.020 A 
ATOM     81  C   UNL A   1      42.520  22.038  26.204  1.00  0.00     0.020 A 
ATOM     82  C   UNL A   1      43.618  22.267  25.364  1.00  0.00     0.054 A 
BRANCH  82  83
ATOM     83  S   UNL A   1      44.750  20.906  24.833  1.00  0.00     0.124 S 
ATOM     84  O   UNL A   1      44.728  20.997  23.376  1.00  0.00    -0.237 OA
ATOM     85  O   UNL A   1      46.019  21.275  25.460  1.00  0.00    -0.237 OA
ATOM     86  O   UNL A   1      44.127  19.705  25.386  1.00  0.00    -0.744 OA
ENDBRANCH  82  83
ENDBRANCH  54  77
BRANCH  66  87
ATOM     87  C   UNL A   1      45.056  29.047  29.016  1.00  0.00    -0.014 A 
ATOM     88  C   UNL A   1      46.379  29.335  28.598  1.00  0.00     0.010 A 
ATOM     89  C   UNL A   1      44.041  29.883  28.521  1.00  0.00     0.010 A 
ATOM     90  C   UNL A   1      46.681  30.451  27.804  1.00  0.00     0.020 A 
ATOM     91  C   UNL A   1      44.326  30.968  27.682  1.00  0.00     0.020 A 
ATOM     92  C   UNL A   1      45.648  31.269  27.360  1.00  0.00     0.054 A 
BRANCH  92  93
ATOM     93  S   UNL A   1      46.055  32.748  26.393  1.00  0.00     0.124 S 
ATOM     94  O   UNL A   1      45.198  32.595  25.218  1.00  0.00    -0.237 OA
ATOM     95  O   UNL A   1      45.687  33.836  27.295  1.00  0.00    -0.237 OA
ATOM     96  O   UNL A   1      47.485  32.607  26.130  1.00  0.00    -0.744 OA
ENDBRANCH  92  93
ENDBRANCH  66  87
ENDBRANCH  40  41
ENDBRANCH  33  35
ENDBRANCH  32  33
ENDBRANCH  31  32
ENDBRANCH  30  31
ENDBRANCH   1  30
TORSDOF 21
ENDMDL
MODEL 3
REMARK VINA RESULT:      -7.9      6.202     12.163
REMARK SMILES Cc1c(CC(=O)OCCOCCOC(=O)c2ccc(-c3c4nc(c(-c5ccc(S(=O)(=O)[O-])cc5)c5ccc([nH]5)c(-c5ccc(S(=O)(=O)[O-])cc5)c5nc(c(-c6ccc(S(=O)(=O)[O-])cc6)c6ccc3[nH]6)C=C5)C=C4)cc2)cc(-c2ccc(S(C)(=O)=O)cc2)n1-c1ccccc1
REMARK SMILES IDX 10 1 9 2 8 3 7 4 5 5 6 6 4 7 3 8 1 9 2 10 88 11 76 12 77 13
REMARK SMILES IDX 89 14 90 15 94 16 91 17 93 18 92 19 78 20 79 21 87 22 80 23
REMARK SMILES IDX 86 24 81 25 82 26 83 27 84 28 85 29 11 30 12 31 13 32 14 33
REMARK SMILES IDX 15 34 16 35 17 36 75 37 18 38 74 39 19 40 20 41 21 42 68 43
REMARK SMILES IDX 22 44 73 45 67 46 69 47 23 48 72 49 66 50 65 51 24 53 54 54
REMARK SMILES IDX 35 55 53 56 36 57 39 58 52 59 70 60 37 61 38 62 51 64 71 65
REMARK SMILES IDX 40 66 25 67 26 68 34 69 27 70 33 71 28 72 29 73 30 74 31 75
REMARK SMILES IDX 32 76 55 77 56 78 64 79 57 80 63 81 58 82 59 83 60 84 61 85
REMARK SMILES IDX 62 86 41 87 42 88 50 89 43 90 49 91 44 92 45 93 46 94 47 95
REMARK SMILES IDX 48 96
REMARK H PARENT 69 52 39 63
REMARK Flexibility Score: inf
ROOT
ATOM      1  O   UNL A   1      45.578  24.221  36.425  1.00  0.00    -0.374 OA
ENDROOT
BRANCH   1   2
ATOM      2  C   UNL A   1      45.566  24.705  35.093  1.00  0.00     0.202 C 
BRANCH   2   3
ATOM      3  C   UNL A   1      45.888  23.655  34.015  1.00  0.00     0.261 C 
BRANCH   3   4
ATOM      4  O   UNL A   1      46.556  22.484  34.536  1.00  0.00    -0.463 OA
BRANCH   4   5
ATOM      5  C   UNL A   1      45.779  21.383  34.722  1.00  0.00     0.310 C 
ATOM      6  O   UNL A   1      44.549  21.396  34.670  1.00  0.00    -0.252 OA
BRANCH   5   7
ATOM      7  C   UNL A   1      46.520  20.112  35.100  1.00  0.00     0.160 C 
BRANCH   7   8
ATOM      8  C   UNL A   1      46.958  19.875  36.528  1.00  0.00    -0.015 A 
ATOM      9  C   UNL A   1      49.530  20.343  36.479  1.00  0.00     0.065 C 
ATOM     10  C   UNL A   1      48.226  19.987  37.113  1.00  0.00     0.024 A 
ATOM     11  N   UNL A   1      48.145  19.580  38.452  1.00  0.00    -0.314 N 
ATOM     12  C   UNL A   1      46.133  19.272  37.510  1.00  0.00     0.033 A 
ATOM     13  C   UNL A   1      46.885  19.025  38.643  1.00  0.00     0.053 A 
BRANCH  11  14
ATOM     14  C   UNL A   1      49.162  19.679  39.457  1.00  0.00     0.046 A 
ATOM     15  C   UNL A   1      49.407  20.867  40.140  1.00  0.00     0.026 A 
ATOM     16  C   UNL A   1      50.064  18.629  39.625  1.00  0.00     0.026 A 
ATOM     17  C   UNL A   1      50.515  20.962  41.001  1.00  0.00     0.002 A 
ATOM     18  C   UNL A   1      51.162  18.709  40.481  1.00  0.00     0.002 A 
ATOM     19  C   UNL A   1      51.387  19.884  41.176  1.00  0.00     0.000 A 
ENDBRANCH  11  14
BRANCH  13  20
ATOM     20  C   UNL A   1      46.435  18.405  39.881  1.00  0.00    -0.001 A 
ATOM     21  C   UNL A   1      46.440  17.013  40.004  1.00  0.00     0.011 A 
ATOM     22  C   UNL A   1      46.001  19.197  40.949  1.00  0.00     0.011 A 
ATOM     23  C   UNL A   1      46.004  16.405  41.177  1.00  0.00     0.021 A 
ATOM     24  C   UNL A   1      45.554  18.596  42.126  1.00  0.00     0.021 A 
ATOM     25  C   UNL A   1      45.554  17.201  42.229  1.00  0.00     0.067 A 
BRANCH  25  26
ATOM     26  S   UNL A   1      45.032  16.427  43.737  1.00  0.00     0.175 S 
ATOM     27  C   UNL A   1      43.752  15.302  43.238  1.00  0.00     0.163 C 
ATOM     28  O   UNL A   1      46.171  15.653  44.219  1.00  0.00    -0.224 OA
ATOM     29  O   UNL A   1      44.428  17.444  44.564  1.00  0.00    -0.224 OA
ENDBRANCH  25  26
ENDBRANCH  13  20
ENDBRANCH   7   8
ENDBRANCH   5   7
ENDBRANCH   4   5
ENDBRANCH   3   4
ENDBRANCH   2   3
ENDBRANCH   1   2
BRANCH   1  30
ATOM     30  C   UNL A   1      46.761  24.523  37.168  1.00  0.00     0.202 C 
BRANCH  30  31
ATOM     31  C   UNL A   1      46.661  25.526  38.367  1.00  0.00     0.261 C 
BRANCH  31  32
ATOM     32  O   UNL A   1      47.337  26.879  38.399  1.00  0.00    -0.460 OA
BRANCH  32  33
ATOM     33  C   UNL A   1      46.726  27.899  37.638  1.00  0.00     0.338 C 
ATOM     34  O   UNL A   1      46.040  28.745  38.205  1.00  0.00    -0.246 OA
BRANCH  33  35
ATOM     35  C   UNL A   1      46.938  28.060  36.062  1.00  0.00     0.060 A 
ATOM     36  C   UNL A   1      45.852  28.348  35.234  1.00  0.00     0.016 A 
ATOM     37  C   UNL A   1      48.031  27.569  35.294  1.00  0.00     0.016 A 
ATOM     38  C   UNL A   1      45.900  28.245  33.757  1.00  0.00     0.010 A 
ATOM     39  C   UNL A   1      48.058  27.413  33.773  1.00  0.00     0.010 A 
ATOM     40  C   UNL A   1      46.988  27.759  32.916  1.00  0.00    -0.014 A 
BRANCH  40  41
ATOM     41  C   UNL A   1      46.613  27.276  31.293  1.00  0.00     0.031 A 
ATOM     42  C   UNL A   1      46.960  28.533  30.582  1.00  0.00     0.074 A 
ATOM     43  C   UNL A   1      45.992  26.358  30.383  1.00  0.00     0.049 A 
ATOM     44  N   UNL A   1      46.336  29.608  30.962  1.00  0.00    -0.248 NA
ATOM     45  C   UNL A   1      48.175  28.767  29.809  1.00  0.00     0.031 C 
ATOM     46  C   UNL A   1      45.176  25.159  30.685  1.00  0.00     0.029 A 
ATOM     47  N   UNL A   1      45.912  26.267  28.911  1.00  0.00    -0.354 N 
ATOM     48  C   UNL A   1      46.888  30.650  30.274  1.00  0.00     0.074 A 
ATOM     49  C   UNL A   1      48.137  30.105  29.749  1.00  0.00     0.031 C 
ATOM     50  C   UNL A   1      44.858  24.420  29.570  1.00  0.00     0.029 A 
ATOM     51  C   UNL A   1      45.360  25.024  28.330  1.00  0.00     0.049 A 
ATOM     52  H   UNL A   1      46.217  27.007  28.336  1.00  0.00     0.167 HD
ATOM     53  C   UNL A   1      45.976  31.463  29.670  1.00  0.00     0.031 A 
ATOM     54  C   UNL A   1      45.217  24.549  26.995  1.00  0.00     0.031 A 
ATOM     55  C   UNL A   1      45.844  31.131  28.274  1.00  0.00     0.049 A 
ATOM     56  C   UNL A   1      45.070  25.757  26.176  1.00  0.00     0.074 A 
ATOM     57  C   UNL A   1      46.781  30.902  27.285  1.00  0.00     0.029 A 
ATOM     58  N   UNL A   1      44.673  30.524  27.868  1.00  0.00    -0.354 N 
ATOM     59  N   UNL A   1      43.941  26.392  26.114  1.00  0.00    -0.248 NA
ATOM     60  C   UNL A   1      46.112  26.251  25.287  1.00  0.00     0.031 C 
ATOM     61  C   UNL A   1      46.289  29.797  26.561  1.00  0.00     0.029 A 
ATOM     62  C   UNL A   1      44.940  29.637  26.841  1.00  0.00     0.049 A 
ATOM     63  H   UNL A   1      43.784  30.697  28.251  1.00  0.00     0.167 HD
ATOM     64  C   UNL A   1      44.318  27.631  25.697  1.00  0.00     0.074 A 
ATOM     65  C   UNL A   1      45.554  27.420  24.963  1.00  0.00     0.031 C 
ATOM     66  C   UNL A   1      43.925  28.672  26.476  1.00  0.00     0.031 A 
BRANCH  53  67
ATOM     67  C   UNL A   1      44.839  31.857  30.592  1.00  0.00    -0.014 A 
ATOM     68  C   UNL A   1      45.144  32.516  31.791  1.00  0.00     0.010 A 
ATOM     69  C   UNL A   1      43.512  31.401  30.401  1.00  0.00     0.010 A 
ATOM     70  C   UNL A   1      44.168  32.668  32.788  1.00  0.00     0.020 A 
ATOM     71  C   UNL A   1      42.545  31.519  31.404  1.00  0.00     0.020 A 
ATOM     72  C   UNL A   1      42.882  32.148  32.598  1.00  0.00     0.054 A 
BRANCH  72  73
ATOM     73  S   UNL A   1      41.687  32.247  33.962  1.00  0.00     0.124 S 
ATOM     74  O   UNL A   1      42.219  33.339  34.777  1.00  0.00    -0.237 OA
ATOM     75  O   UNL A   1      40.443  32.548  33.261  1.00  0.00    -0.237 OA
ATOM     76  O   UNL A   1      41.758  30.933  34.596  1.00  0.00    -0.744 OA
ENDBRANCH  72  73
ENDBRANCH  53  67
BRANCH  54  77
ATOM     77  C   UNL A   1      44.913  23.307  26.000  1.00  0.00    -0.014 A 
ATOM     78  C   UNL A   1      45.969  22.735  25.180  1.00  0.00     0.010 A 
ATOM     79  C   UNL A   1      43.822  22.431  26.151  1.00  0.00     0.010 A 
ATOM     80  C   UNL A   1      46.006  21.386  24.706  1.00  0.00     0.020 A 
ATOM     81  C   UNL A   1      43.836  21.075  25.650  1.00  0.00     0.020 A 
ATOM     82  C   UNL A   1      44.946  20.540  24.983  1.00  0.00     0.054 A 
BRANCH  82  83
ATOM     83  S   UNL A   1      45.103  18.734  24.629  1.00  0.00     0.124 S 
ATOM     84  O   UNL A   1      45.125  18.676  23.170  1.00  0.00    -0.237 OA
ATOM     85  O   UNL A   1      46.362  18.382  25.285  1.00  0.00    -0.237 OA
ATOM     86  O   UNL A   1      43.913  18.157  25.251  1.00  0.00    -0.744 OA
ENDBRANCH  82  83
ENDBRANCH  54  77
BRANCH  66  87
ATOM     87  C   UNL A   1      42.513  28.635  27.056  1.00  0.00    -0.014 A 
ATOM     88  C   UNL A   1      41.321  28.929  26.349  1.00  0.00     0.010 A 
ATOM     89  C   UNL A   1      42.380  28.347  28.425  1.00  0.00     0.010 A 
ATOM     90  C   UNL A   1      40.078  29.020  26.992  1.00  0.00     0.020 A 
ATOM     91  C   UNL A   1      41.135  28.382  29.066  1.00  0.00     0.020 A 
ATOM     92  C   UNL A   1      39.996  28.756  28.354  1.00  0.00     0.054 A 
BRANCH  92  93
ATOM     93  S   UNL A   1      38.398  28.944  29.191  1.00  0.00     0.124 S 
ATOM     94  O   UNL A   1      38.522  30.267  29.801  1.00  0.00    -0.237 OA
ATOM     95  O   UNL A   1      37.444  28.854  28.089  1.00  0.00    -0.237 OA
ATOM     96  O   UNL A   1      38.371  27.832  30.138  1.00  0.00    -0.744 OA
ENDBRANCH  92  93
ENDBRANCH  66  87
ENDBRANCH  40  41
ENDBRANCH  33  35
ENDBRANCH  32  33
ENDBRANCH  31  32
ENDBRANCH  30  31
ENDBRANCH   1  30
TORSDOF 21
ENDMDL
