MODEL 1
REMARK VINA RESULT:      -8.6      0.000      0.000
REMARK SMILES CN(C(=O)N1CCC(C(=O)OCCOCCOC(=O)c2ccc(-c3c4nc(c(-c5ccc(S(=O)(=O)[O-])cc5)c5ccc([nH]5)c(-c5ccc(S(=O)(=O)[O-])cc5)c5nc(c(-c6ccc(S(=O)(=O)[O-])cc6)c6ccc3[nH]6)C=C5)C=C4)cc2)CC1)[C@H]1CCSC1
REMARK SMILES IDX 15 1 14 2 13 3 12 4 11 5 9 6 10 7 8 8 3 9 4 10 5 11 6 12
REMARK SMILES IDX 81 13 7 14 80 15 2 16 1 17 82 18 83 19 86 20 84 21 85 22
REMARK SMILES IDX 16 23 17 24 18 25 19 26 20 27 21 28 79 29 22 30 78 31 23 32
REMARK SMILES IDX 24 33 25 34 72 35 26 36 77 37 71 38 73 39 27 40 76 41 70 42
REMARK SMILES IDX 69 43 28 45 58 46 39 47 57 48 40 49 43 50 56 51 74 52 41 53
REMARK SMILES IDX 42 54 55 56 75 57 44 58 29 59 30 60 38 61 31 62 37 63 32 64
REMARK SMILES IDX 33 65 34 66 35 67 36 68 59 69 60 70 68 71 61 72 67 73 62 74
REMARK SMILES IDX 63 75 64 76 65 77 66 78 45 79 46 80 54 81 47 82 53 83 48 84
REMARK SMILES IDX 49 85 50 86 51 87 52 88
REMARK H PARENT 73 44 43 55
REMARK Flexibility Score: inf
ROOT
ATOM      1  C   UNL A   1      34.253  34.156  29.939  1.00  0.00     0.202 C 
ENDROOT
BRANCH   1   2
ATOM      2  O   UNL A   1      35.544  33.927  30.500  1.00  0.00    -0.374 OA
BRANCH   2   3
ATOM      3  C   UNL A   1      35.657  32.937  31.523  1.00  0.00     0.202 C 
BRANCH   3   4
ATOM      4  C   UNL A   1      37.074  32.503  31.900  1.00  0.00     0.261 C 
BRANCH   4   5
ATOM      5  O   UNL A   1      37.100  31.796  33.151  1.00  0.00    -0.463 OA
BRANCH   5   6
ATOM      6  C   UNL A   1      37.611  30.542  33.098  1.00  0.00     0.309 C 
ATOM      7  O   UNL A   1      36.985  29.532  32.796  1.00  0.00    -0.252 OA
BRANCH   6   8
ATOM      8  C   UNL A   1      39.074  30.478  33.471  1.00  0.00     0.103 C 
ATOM      9  C   UNL A   1      42.227  28.852  35.617  1.00  0.00     0.320 C 
ATOM     10  O   UNL A   1      42.064  29.038  36.820  1.00  0.00    -0.248 OA
ATOM     11  N   UNL A   1      41.522  29.578  34.673  1.00  0.00    -0.325 N 
ATOM     12  C   UNL A   1      40.991  30.894  35.027  1.00  0.00     0.122 C 
ATOM     13  C   UNL A   1      41.075  29.002  33.405  1.00  0.00     0.122 C 
ATOM     14  C   UNL A   1      39.471  30.976  34.864  1.00  0.00     0.037 C 
ATOM     15  C   UNL A   1      39.560  29.045  33.286  1.00  0.00     0.037 C 
BRANCH   9  16
ATOM     16  N   UNL A   1      43.104  27.896  35.125  1.00  0.00    -0.324 N 
ATOM     17  C   UNL A   1      44.323  28.261  34.414  1.00  0.00     0.149 C 
BRANCH  16  18
ATOM     18  C   UNL A   1      42.931  26.476  35.444  1.00  0.00     0.097 C 
ATOM     19  C   UNL A   1      41.494  26.005  35.665  1.00  0.00     0.037 C 
ATOM     20  C   UNL A   1      43.519  25.542  34.384  1.00  0.00     0.094 C 
ATOM     21  C   UNL A   1      41.587  24.511  35.939  1.00  0.00     0.072 C 
ATOM     22  S   UNL A   1      42.914  23.895  34.860  1.00  0.00    -0.160 SA
ENDBRANCH  16  18
ENDBRANCH   9  16
ENDBRANCH   6   8
ENDBRANCH   5   6
ENDBRANCH   4   5
ENDBRANCH   3   4
ENDBRANCH   2   3
ENDBRANCH   1   2
BRANCH   1  23
ATOM     23  C   UNL A   1      33.955  33.512  28.581  1.00  0.00     0.261 C 
BRANCH  23  24
ATOM     24  O   UNL A   1      35.007  32.630  28.147  1.00  0.00    -0.460 OA
BRANCH  24  25
ATOM     25  C   UNL A   1      34.657  31.325  28.105  1.00  0.00     0.338 C 
ATOM     26  O   UNL A   1      33.536  30.873  27.901  1.00  0.00    -0.246 OA
BRANCH  25  27
ATOM     27  C   UNL A   1      35.847  30.454  28.154  1.00  0.00     0.060 A 
ATOM     28  C   UNL A   1      36.178  29.902  29.397  1.00  0.00     0.016 A 
ATOM     29  C   UNL A   1      36.684  30.271  27.049  1.00  0.00     0.016 A 
ATOM     30  C   UNL A   1      37.393  29.246  29.568  1.00  0.00     0.010 A 
ATOM     31  C   UNL A   1      37.908  29.613  27.225  1.00  0.00     0.010 A 
ATOM     32  C   UNL A   1      38.290  29.152  28.498  1.00  0.00    -0.014 A 
BRANCH  32  33
ATOM     33  C   UNL A   1      39.696  28.771  28.785  1.00  0.00     0.031 A 
ATOM     34  C   UNL A   1      40.585  29.763  29.487  1.00  0.00     0.074 A 
ATOM     35  C   UNL A   1      40.153  27.538  28.505  1.00  0.00     0.049 A 
ATOM     36  N   UNL A   1      41.818  29.626  29.902  1.00  0.00    -0.248 NA
ATOM     37  C   UNL A   1      40.001  31.088  29.761  1.00  0.00     0.031 C 
ATOM     38  C   UNL A   1      39.382  26.477  27.861  1.00  0.00     0.029 A 
ATOM     39  N   UNL A   1      41.381  26.972  28.738  1.00  0.00    -0.354 N 
ATOM     40  C   UNL A   1      42.159  30.842  30.482  1.00  0.00     0.074 A 
ATOM     41  C   UNL A   1      41.016  31.717  30.332  1.00  0.00     0.031 C 
ATOM     42  C   UNL A   1      40.159  25.386  27.744  1.00  0.00     0.029 A 
ATOM     43  C   UNL A   1      41.484  25.679  28.290  1.00  0.00     0.049 A 
ATOM     44  H   UNL A   1      42.119  27.449  29.183  1.00  0.00     0.167 HD
ATOM     45  C   UNL A   1      43.312  31.201  31.097  1.00  0.00     0.031 A 
ATOM     46  C   UNL A   1      42.529  24.828  28.310  1.00  0.00     0.031 A 
ATOM     47  C   UNL A   1      44.457  30.341  31.226  1.00  0.00     0.049 A 
ATOM     48  C   UNL A   1      43.819  25.256  28.958  1.00  0.00     0.074 A 
ATOM     49  C   UNL A   1      45.676  30.609  31.825  1.00  0.00     0.029 A 
ATOM     50  N   UNL A   1      44.528  29.044  30.737  1.00  0.00    -0.354 N 
ATOM     51  N   UNL A   1      44.117  26.401  29.524  1.00  0.00    -0.248 NA
ATOM     52  C   UNL A   1      44.906  24.267  28.989  1.00  0.00     0.031 C 
ATOM     53  C   UNL A   1      46.498  29.488  31.660  1.00  0.00     0.029 A 
ATOM     54  C   UNL A   1      45.773  28.503  31.008  1.00  0.00     0.049 A 
ATOM     55  H   UNL A   1      43.800  28.577  30.268  1.00  0.00     0.167 HD
ATOM     56  C   UNL A   1      45.418  26.263  30.000  1.00  0.00     0.074 A 
ATOM     57  C   UNL A   1      45.843  24.919  29.665  1.00  0.00     0.031 C 
ATOM     58  C   UNL A   1      46.186  27.166  30.661  1.00  0.00     0.031 A 
BRANCH  45  59
ATOM     59  C   UNL A   1      43.388  32.605  31.636  1.00  0.00    -0.014 A 
ATOM     60  C   UNL A   1      43.895  33.660  30.853  1.00  0.00     0.010 A 
ATOM     61  C   UNL A   1      42.972  32.870  32.952  1.00  0.00     0.010 A 
ATOM     62  C   UNL A   1      44.043  34.938  31.398  1.00  0.00     0.020 A 
ATOM     63  C   UNL A   1      43.092  34.154  33.492  1.00  0.00     0.020 A 
ATOM     64  C   UNL A   1      43.653  35.174  32.720  1.00  0.00     0.054 A 
BRANCH  64  65
ATOM     65  S   UNL A   1      43.880  36.833  33.416  1.00  0.00     0.124 S 
ATOM     66  O   UNL A   1      43.984  37.652  32.210  1.00  0.00    -0.237 OA
ATOM     67  O   UNL A   1      42.663  37.025  34.201  1.00  0.00    -0.237 OA
ATOM     68  O   UNL A   1      45.109  36.716  34.196  1.00  0.00    -0.744 OA
ENDBRANCH  64  65
ENDBRANCH  45  59
BRANCH  46  69
ATOM     69  C   UNL A   1      42.384  23.482  27.695  1.00  0.00    -0.014 A 
ATOM     70  C   UNL A   1      42.847  23.229  26.392  1.00  0.00     0.010 A 
ATOM     71  C   UNL A   1      41.820  22.429  28.438  1.00  0.00     0.010 A 
ATOM     72  C   UNL A   1      42.753  21.945  25.846  1.00  0.00     0.020 A 
ATOM     73  C   UNL A   1      41.746  21.139  27.905  1.00  0.00     0.020 A 
ATOM     74  C   UNL A   1      42.211  20.906  26.610  1.00  0.00     0.054 A 
BRANCH  74  75
ATOM     75  S   UNL A   1      42.187  19.229  25.917  1.00  0.00     0.124 S 
ATOM     76  O   UNL A   1      40.764  19.021  25.671  1.00  0.00    -0.237 OA
ATOM     77  O   UNL A   1      43.022  19.368  24.726  1.00  0.00    -0.237 OA
ATOM     78  O   UNL A   1      42.767  18.412  26.980  1.00  0.00    -0.744 OA
ENDBRANCH  74  75
ENDBRANCH  46  69
BRANCH  58  79
ATOM     79  C   UNL A   1      47.556  26.720  31.098  1.00  0.00    -0.014 A 
ATOM     80  C   UNL A   1      47.755  26.047  32.317  1.00  0.00     0.010 A 
ATOM     81  C   UNL A   1      48.658  26.938  30.248  1.00  0.00     0.010 A 
ATOM     82  C   UNL A   1      49.036  25.637  32.696  1.00  0.00     0.020 A 
ATOM     83  C   UNL A   1      49.936  26.505  30.612  1.00  0.00     0.020 A 
ATOM     84  C   UNL A   1      50.120  25.873  31.843  1.00  0.00     0.054 A 
BRANCH  84  85
ATOM     85  S   UNL A   1      51.769  25.306  32.343  1.00  0.00     0.124 S 
ATOM     86  O   UNL A   1      52.575  25.649  31.174  1.00  0.00    -0.237 OA
ATOM     87  O   UNL A   1      52.033  26.096  33.543  1.00  0.00    -0.237 OA
ATOM     88  O   UNL A   1      51.587  23.874  32.575  1.00  0.00    -0.744 OA
ENDBRANCH  84  85
ENDBRANCH  58  79
ENDBRANCH  32  33
ENDBRANCH  25  27
ENDBRANCH  24  25
ENDBRANCH  23  24
ENDBRANCH   1  23
TORSDOF 19
ENDMDL
MODEL 2
REMARK VINA RESULT:      -8.5      4.093      7.036
REMARK SMILES CN(C(=O)N1CCC(C(=O)OCCOCCOC(=O)c2ccc(-c3c4nc(c(-c5ccc(S(=O)(=O)[O-])cc5)c5ccc([nH]5)c(-c5ccc(S(=O)(=O)[O-])cc5)c5nc(c(-c6ccc(S(=O)(=O)[O-])cc6)c6ccc3[nH]6)C=C5)C=C4)cc2)CC1)[C@H]1CCSC1
REMARK SMILES IDX 15 1 14 2 13 3 12 4 11 5 9 6 10 7 8 8 3 9 4 10 5 11 6 12
REMARK SMILES IDX 81 13 7 14 80 15 2 16 1 17 82 18 83 19 86 20 84 21 85 22
REMARK SMILES IDX 16 23 17 24 18 25 19 26 20 27 21 28 79 29 22 30 78 31 23 32
REMARK SMILES IDX 24 33 25 34 72 35 26 36 77 37 71 38 73 39 27 40 76 41 70 42
REMARK SMILES IDX 69 43 28 45 58 46 39 47 57 48 40 49 43 50 56 51 74 52 41 53
REMARK SMILES IDX 42 54 55 56 75 57 44 58 29 59 30 60 38 61 31 62 37 63 32 64
REMARK SMILES IDX 33 65 34 66 35 67 36 68 59 69 60 70 68 71 61 72 67 73 62 74
REMARK SMILES IDX 63 75 64 76 65 77 66 78 45 79 46 80 54 81 47 82 53 83 48 84
REMARK SMILES IDX 49 85 50 86 51 87 52 88
REMARK H PARENT 73 44 43 55
REMARK Flexibility Score: inf
ROOT
ATOM      1  C   UNL A   1      34.565  32.671  29.640  1.00  0.00     0.202 C 
ENDROOT
BRANCH   1   2
ATOM      2  O   UNL A   1      35.090  32.375  28.347  1.00  0.00    -0.374 OA
BRANCH   2   3
ATOM      3  C   UNL A   1      34.623  31.195  27.694  1.00  0.00     0.202 C 
BRANCH   3   4
ATOM      4  C   UNL A   1      33.161  31.196  27.245  1.00  0.00     0.261 C 
BRANCH   4   5
ATOM      5  O   UNL A   1      32.776  29.930  26.683  1.00  0.00    -0.463 OA
BRANCH   5   6
ATOM      6  C   UNL A   1      31.813  29.988  25.731  1.00  0.00     0.309 C 
ATOM      7  O   UNL A   1      31.089  30.952  25.510  1.00  0.00    -0.252 OA
BRANCH   6   8
ATOM      8  C   UNL A   1      31.685  28.710  24.935  1.00  0.00     0.103 C 
ATOM      9  C   UNL A   1      33.323  25.595  22.740  1.00  0.00     0.320 C 
ATOM     10  O   UNL A   1      33.846  26.025  21.716  1.00  0.00    -0.248 OA
ATOM     11  N   UNL A   1      32.418  26.355  23.462  1.00  0.00    -0.325 N 
ATOM     12  C   UNL A   1      31.675  27.419  22.789  1.00  0.00     0.122 C 
ATOM     13  C   UNL A   1      32.333  26.307  24.921  1.00  0.00     0.122 C 
ATOM     14  C   UNL A   1      31.913  28.792  23.422  1.00  0.00     0.037 C 
ATOM     15  C   UNL A   1      32.625  27.669  25.533  1.00  0.00     0.037 C 
BRANCH   9  16
ATOM     16  N   UNL A   1      33.613  24.339  23.253  1.00  0.00    -0.324 N 
ATOM     17  C   UNL A   1      32.719  23.203  23.064  1.00  0.00     0.149 C 
BRANCH  16  18
ATOM     18  C   UNL A   1      34.914  24.054  23.864  1.00  0.00     0.097 C 
ATOM     19  C   UNL A   1      34.919  23.868  25.381  1.00  0.00     0.037 C 
ATOM     20  C   UNL A   1      35.594  22.810  23.287  1.00  0.00     0.094 C 
ATOM     21  C   UNL A   1      36.361  23.551  25.753  1.00  0.00     0.072 C 
ATOM     22  S   UNL A   1      37.002  22.519  24.400  1.00  0.00    -0.160 SA
ENDBRANCH  16  18
ENDBRANCH   9  16
ENDBRANCH   6   8
ENDBRANCH   5   6
ENDBRANCH   4   5
ENDBRANCH   3   4
ENDBRANCH   2   3
ENDBRANCH   1   2
BRANCH   1  23
ATOM     23  C   UNL A   1      35.560  33.121  30.714  1.00  0.00     0.261 C 
BRANCH  23  24
ATOM     24  O   UNL A   1      36.844  32.483  30.578  1.00  0.00    -0.460 OA
BRANCH  24  25
ATOM     25  C   UNL A   1      36.934  31.279  31.186  1.00  0.00     0.338 C 
ATOM     26  O   UNL A   1      36.207  30.850  32.075  1.00  0.00    -0.246 OA
BRANCH  25  27
ATOM     27  C   UNL A   1      37.935  30.422  30.522  1.00  0.00     0.060 A 
ATOM     28  C   UNL A   1      38.846  29.753  31.348  1.00  0.00     0.016 A 
ATOM     29  C   UNL A   1      38.059  30.361  29.131  1.00  0.00     0.016 A 
ATOM     30  C   UNL A   1      39.940  29.098  30.793  1.00  0.00     0.010 A 
ATOM     31  C   UNL A   1      39.164  29.703  28.575  1.00  0.00     0.010 A 
ATOM     32  C   UNL A   1      40.138  29.122  29.408  1.00  0.00    -0.014 A 
BRANCH  32  33
ATOM     33  C   UNL A   1      41.467  28.731  28.876  1.00  0.00     0.031 A 
ATOM     34  C   UNL A   1      42.562  29.763  28.838  1.00  0.00     0.074 A 
ATOM     35  C   UNL A   1      41.724  27.464  28.510  1.00  0.00     0.049 A 
ATOM     36  N   UNL A   1      43.816  29.634  28.484  1.00  0.00    -0.248 NA
ATOM     37  C   UNL A   1      42.195  31.126  29.262  1.00  0.00     0.031 C 
ATOM     38  C   UNL A   1      40.761  26.365  28.534  1.00  0.00     0.029 A 
ATOM     39  N   UNL A   1      42.883  26.889  28.054  1.00  0.00    -0.354 N 
ATOM     40  C   UNL A   1      44.385  30.893  28.639  1.00  0.00     0.074 A 
ATOM     41  C   UNL A   1      43.332  31.781  29.083  1.00  0.00     0.031 C 
ATOM     42  C   UNL A   1      41.369  25.246  28.104  1.00  0.00     0.029 A 
ATOM     43  C   UNL A   1      42.757  25.554  27.761  1.00  0.00     0.049 A 
ATOM     44  H   UNL A   1      43.726  27.386  27.947  1.00  0.00     0.167 HD
ATOM     45  C   UNL A   1      45.668  31.278  28.444  1.00  0.00     0.031 A 
ATOM     46  C   UNL A   1      43.654  24.679  27.265  1.00  0.00     0.031 A 
ATOM     47  C   UNL A   1      46.710  30.403  27.980  1.00  0.00     0.049 A 
ATOM     48  C   UNL A   1      45.067  25.133  27.011  1.00  0.00     0.074 A 
ATOM     49  C   UNL A   1      48.043  30.694  27.743  1.00  0.00     0.029 A 
ATOM     50  N   UNL A   1      46.534  29.061  27.673  1.00  0.00    -0.354 N 
ATOM     51  N   UNL A   1      45.596  26.321  27.186  1.00  0.00    -0.248 NA
ATOM     52  C   UNL A   1      46.010  24.121  26.515  1.00  0.00     0.031 C 
ATOM     53  C   UNL A   1      48.661  29.539  27.251  1.00  0.00     0.029 A 
ATOM     54  C   UNL A   1      47.728  28.514  27.234  1.00  0.00     0.049 A 
ATOM     55  H   UNL A   1      45.685  28.570  27.754  1.00  0.00     0.167 HD
ATOM     56  C   UNL A   1      46.939  26.194  26.843  1.00  0.00     0.074 A 
ATOM     57  C   UNL A   1      47.142  24.811  26.463  1.00  0.00     0.031 C 
ATOM     58  C   UNL A   1      47.915  27.137  26.851  1.00  0.00     0.031 A 
BRANCH  45  59
ATOM     59  C   UNL A   1      45.991  32.727  28.697  1.00  0.00    -0.014 A 
ATOM     60  C   UNL A   1      46.574  33.144  29.908  1.00  0.00     0.010 A 
ATOM     61  C   UNL A   1      45.682  33.691  27.721  1.00  0.00     0.010 A 
ATOM     62  C   UNL A   1      46.784  34.502  30.163  1.00  0.00     0.020 A 
ATOM     63  C   UNL A   1      45.917  35.047  27.960  1.00  0.00     0.020 A 
ATOM     64  C   UNL A   1      46.441  35.447  29.192  1.00  0.00     0.054 A 
BRANCH  64  65
ATOM     65  S   UNL A   1      46.695  37.205  29.555  1.00  0.00     0.124 S 
ATOM     66  O   UNL A   1      45.506  37.809  28.958  1.00  0.00    -0.237 OA
ATOM     67  O   UNL A   1      46.745  37.231  31.015  1.00  0.00    -0.237 OA
ATOM     68  O   UNL A   1      47.955  37.519  28.886  1.00  0.00    -0.744 OA
ENDBRANCH  64  65
ENDBRANCH  45  59
BRANCH  46  69
ATOM     69  C   UNL A   1      43.230  23.282  26.983  1.00  0.00    -0.014 A 
ATOM     70  C   UNL A   1      43.158  22.801  25.664  1.00  0.00     0.010 A 
ATOM     71  C   UNL A   1      42.942  22.408  28.048  1.00  0.00     0.010 A 
ATOM     72  C   UNL A   1      42.809  21.470  25.417  1.00  0.00     0.020 A 
ATOM     73  C   UNL A   1      42.618  21.071  27.806  1.00  0.00     0.020 A 
ATOM     74  C   UNL A   1      42.550  20.610  26.490  1.00  0.00     0.054 A 
BRANCH  74  75
ATOM     75  S   UNL A   1      42.195  18.864  26.149  1.00  0.00     0.124 S 
ATOM     76  O   UNL A   1      40.800  18.915  25.722  1.00  0.00    -0.237 OA
ATOM     77  O   UNL A   1      43.165  18.543  25.105  1.00  0.00    -0.237 OA
ATOM     78  O   UNL A   1      42.435  18.209  27.432  1.00  0.00    -0.744 OA
ENDBRANCH  74  75
ENDBRANCH  46  69
BRANCH  58  79
ATOM     79  C   UNL A   1      49.303  26.698  26.467  1.00  0.00    -0.014 A 
ATOM     80  C   UNL A   1      50.160  26.078  27.395  1.00  0.00     0.010 A 
ATOM     81  C   UNL A   1      49.740  26.868  25.139  1.00  0.00     0.010 A 
ATOM     82  C   UNL A   1      51.441  25.673  27.012  1.00  0.00     0.020 A 
ATOM     83  C   UNL A   1      51.011  26.440  24.746  1.00  0.00     0.020 A 
ATOM     84  C   UNL A   1      51.861  25.861  25.691  1.00  0.00     0.054 A 
BRANCH  84  85
ATOM     85  S   UNL A   1      53.518  25.301  25.209  1.00  0.00     0.124 S 
ATOM     86  O   UNL A   1      53.559  25.659  23.794  1.00  0.00    -0.237 OA
ATOM     87  O   UNL A   1      54.390  26.083  26.082  1.00  0.00    -0.237 OA
ATOM     88  O   UNL A   1      53.493  23.867  25.488  1.00  0.00    -0.744 OA
ENDBRANCH  84  85
ENDBRANCH  58  79
ENDBRANCH  32  33
ENDBRANCH  25  27
ENDBRANCH  24  25
ENDBRANCH  23  24
ENDBRANCH   1  23
TORSDOF 19
ENDMDL
MODEL 3
REMARK VINA RESULT:      -8.5      4.406     11.426
REMARK SMILES CN(C(=O)N1CCC(C(=O)OCCOCCOC(=O)c2ccc(-c3c4nc(c(-c5ccc(S(=O)(=O)[O-])cc5)c5ccc([nH]5)c(-c5ccc(S(=O)(=O)[O-])cc5)c5nc(c(-c6ccc(S(=O)(=O)[O-])cc6)c6ccc3[nH]6)C=C5)C=C4)cc2)CC1)[C@H]1CCSC1
REMARK SMILES IDX 15 1 14 2 13 3 12 4 11 5 9 6 10 7 8 8 3 9 4 10 5 11 6 12
REMARK SMILES IDX 81 13 7 14 80 15 2 16 1 17 82 18 83 19 86 20 84 21 85 22
REMARK SMILES IDX 16 23 17 24 18 25 19 26 20 27 21 28 79 29 22 30 78 31 23 32
REMARK SMILES IDX 24 33 25 34 72 35 26 36 77 37 71 38 73 39 27 40 76 41 70 42
REMARK SMILES IDX 69 43 28 45 58 46 39 47 57 48 40 49 43 50 56 51 74 52 41 53
REMARK SMILES IDX 42 54 55 56 75 57 44 58 29 59 30 60 38 61 31 62 37 63 32 64
REMARK SMILES IDX 33 65 34 66 35 67 36 68 59 69 60 70 68 71 61 72 67 73 62 74
REMARK SMILES IDX 63 75 64 76 65 77 66 78 45 79 46 80 54 81 47 82 53 83 48 84
REMARK SMILES IDX 49 85 50 86 51 87 52 88
REMARK H PARENT 73 44 43 55
REMARK Flexibility Score: inf
ROOT
ATOM      1  C   UNL A   1      36.450  21.051  25.605  1.00  0.00     0.202 C 
ENDROOT
BRANCH   1   2
ATOM      2  O   UNL A   1      35.810  19.889  25.079  1.00  0.00    -0.374 OA
BRANCH   2   3
ATOM      3  C   UNL A   1      34.425  19.987  24.747  1.00  0.00     0.202 C 
BRANCH   3   4
ATOM      4  C   UNL A   1      33.822  21.393  24.734  1.00  0.00     0.261 C 
BRANCH   4   5
ATOM      5  O   UNL A   1      33.445  21.798  23.407  1.00  0.00    -0.463 OA
BRANCH   5   6
ATOM      6  C   UNL A   1      34.021  22.942  22.965  1.00  0.00     0.309 C 
ATOM      7  O   UNL A   1      35.184  23.055  22.594  1.00  0.00    -0.252 OA
BRANCH   6   8
ATOM      8  C   UNL A   1      33.082  24.126  22.979  1.00  0.00     0.103 C 
ATOM      9  C   UNL A   1      31.045  27.147  24.960  1.00  0.00     0.320 C 
ATOM     10  O   UNL A   1      30.243  26.668  25.756  1.00  0.00    -0.248 OA
ATOM     11  N   UNL A   1      31.592  26.386  23.941  1.00  0.00    -0.325 N 
ATOM     12  C   UNL A   1      30.874  25.206  23.460  1.00  0.00     0.122 C 
ATOM     13  C   UNL A   1      32.967  26.561  23.475  1.00  0.00     0.122 C 
ATOM     14  C   UNL A   1      31.696  23.922  23.599  1.00  0.00     0.037 C 
ATOM     15  C   UNL A   1      33.780  25.291  23.671  1.00  0.00     0.037 C 
BRANCH   9  16
ATOM     16  N   UNL A   1      31.471  28.465  25.036  1.00  0.00    -0.324 N 
ATOM     17  C   UNL A   1      30.914  29.507  24.182  1.00  0.00     0.149 C 
BRANCH  16  18
ATOM     18  C   UNL A   1      32.383  28.904  26.096  1.00  0.00     0.097 C 
ATOM     19  C   UNL A   1      33.873  28.669  25.844  1.00  0.00     0.037 C 
ATOM     20  C   UNL A   1      32.245  30.390  26.435  1.00  0.00     0.094 C 
ATOM     21  C   UNL A   1      34.592  29.239  27.058  1.00  0.00     0.072 C 
ATOM     22  S   UNL A   1      33.659  30.727  27.527  1.00  0.00    -0.160 SA
ENDBRANCH  16  18
ENDBRANCH   9  16
ENDBRANCH   6   8
ENDBRANCH   5   6
ENDBRANCH   4   5
ENDBRANCH   3   4
ENDBRANCH   2   3
ENDBRANCH   1   2
BRANCH   1  23
ATOM     23  C   UNL A   1      37.807  21.433  25.006  1.00  0.00     0.261 C 
BRANCH  23  24
ATOM     24  O   UNL A   1      38.538  22.352  25.840  1.00  0.00    -0.460 OA
BRANCH  24  25
ATOM     25  C   UNL A   1      38.096  23.629  25.782  1.00  0.00     0.338 C 
ATOM     26  O   UNL A   1      37.061  24.023  25.255  1.00  0.00    -0.246 OA
BRANCH  25  27
ATOM     27  C   UNL A   1      38.933  24.519  26.608  1.00  0.00     0.060 A 
ATOM     28  C   UNL A   1      38.573  24.661  27.954  1.00  0.00     0.016 A 
ATOM     29  C   UNL A   1      39.968  25.286  26.065  1.00  0.00     0.016 A 
ATOM     30  C   UNL A   1      39.180  25.636  28.739  1.00  0.00     0.010 A 
ATOM     31  C   UNL A   1      40.575  26.269  26.857  1.00  0.00     0.010 A 
ATOM     32  C   UNL A   1      40.140  26.485  28.177  1.00  0.00    -0.014 A 
BRANCH  32  33
ATOM     33  C   UNL A   1      40.511  27.719  28.914  1.00  0.00     0.031 A 
ATOM     34  C   UNL A   1      41.891  27.820  29.506  1.00  0.00     0.074 A 
ATOM     35  C   UNL A   1      39.670  28.765  28.987  1.00  0.00     0.049 A 
ATOM     36  N   UNL A   1      42.459  28.822  30.127  1.00  0.00    -0.248 NA
ATOM     37  C   UNL A   1      42.750  26.630  29.375  1.00  0.00     0.031 C 
ATOM     38  C   UNL A   1      38.321  28.806  28.424  1.00  0.00     0.029 A 
ATOM     39  N   UNL A   1      39.835  30.000  29.561  1.00  0.00    -0.354 N 
ATOM     40  C   UNL A   1      43.735  28.386  30.463  1.00  0.00     0.074 A 
ATOM     41  C   UNL A   1      43.846  27.016  30.010  1.00  0.00     0.031 C 
ATOM     42  C   UNL A   1      37.778  30.007  28.687  1.00  0.00     0.029 A 
ATOM     43  C   UNL A   1      38.734  30.810  29.449  1.00  0.00     0.049 A 
ATOM     44  H   UNL A   1      40.666  30.278  30.011  1.00  0.00     0.167 HD
ATOM     45  C   UNL A   1      44.733  29.063  31.080  1.00  0.00     0.031 A 
ATOM     46  C   UNL A   1      38.515  32.057  29.912  1.00  0.00     0.031 A 
ATOM     47  C   UNL A   1      44.617  30.416  31.552  1.00  0.00     0.049 A 
ATOM     48  C   UNL A   1      39.619  32.781  30.635  1.00  0.00     0.074 A 
ATOM     49  C   UNL A   1      45.566  31.192  32.195  1.00  0.00     0.029 A 
ATOM     50  N   UNL A   1      43.474  31.195  31.438  1.00  0.00    -0.354 N 
ATOM     51  N   UNL A   1      40.829  32.363  30.924  1.00  0.00    -0.248 NA
ATOM     52  C   UNL A   1      39.335  34.154  31.076  1.00  0.00     0.031 C 
ATOM     53  C   UNL A   1      44.982  32.424  32.509  1.00  0.00     0.029 A 
ATOM     54  C   UNL A   1      43.688  32.437  32.012  1.00  0.00     0.049 A 
ATOM     55  H   UNL A   1      42.635  30.907  31.012  1.00  0.00     0.167 HD
ATOM     56  C   UNL A   1      41.459  33.430  31.558  1.00  0.00     0.074 A 
ATOM     57  C   UNL A   1      40.499  34.515  31.600  1.00  0.00     0.031 C 
ATOM     58  C   UNL A   1      42.721  33.505  32.054  1.00  0.00     0.031 A 
BRANCH  45  59
ATOM     59  C   UNL A   1      46.021  28.317  31.310  1.00  0.00    -0.014 A 
ATOM     60  C   UNL A   1      46.245  27.598  32.500  1.00  0.00     0.010 A 
ATOM     61  C   UNL A   1      47.033  28.356  30.335  1.00  0.00     0.010 A 
ATOM     62  C   UNL A   1      47.479  26.987  32.736  1.00  0.00     0.020 A 
ATOM     63  C   UNL A   1      48.259  27.722  30.556  1.00  0.00     0.020 A 
ATOM     64  C   UNL A   1      48.484  27.065  31.767  1.00  0.00     0.054 A 
BRANCH  64  65
ATOM     65  S   UNL A   1      50.087  26.289  32.107  1.00  0.00     0.124 S 
ATOM     66  O   UNL A   1      49.915  24.968  31.505  1.00  0.00    -0.237 OA
ATOM     67  O   UNL A   1      51.027  27.172  31.420  1.00  0.00    -0.237 OA
ATOM     68  O   UNL A   1      50.177  26.301  33.565  1.00  0.00    -0.744 OA
ENDBRANCH  64  65
ENDBRANCH  45  59
BRANCH  46  69
ATOM     69  C   UNL A   1      37.188  32.692  29.696  1.00  0.00    -0.014 A 
ATOM     70  C   UNL A   1      36.243  32.763  30.734  1.00  0.00     0.010 A 
ATOM     71  C   UNL A   1      36.885  33.276  28.452  1.00  0.00     0.010 A 
ATOM     72  C   UNL A   1      35.020  33.411  30.532  1.00  0.00     0.020 A 
ATOM     73  C   UNL A   1      35.674  33.945  28.254  1.00  0.00     0.020 A 
ATOM     74  C   UNL A   1      34.747  34.005  29.296  1.00  0.00     0.054 A 
BRANCH  74  75
ATOM     75  S   UNL A   1      33.196  34.923  29.088  1.00  0.00     0.124 S 
ATOM     76  O   UNL A   1      33.675  36.255  28.733  1.00  0.00    -0.237 OA
ATOM     77  O   UNL A   1      32.532  34.183  28.018  1.00  0.00    -0.237 OA
ATOM     78  O   UNL A   1      32.556  34.814  30.397  1.00  0.00    -0.744 OA
ENDBRANCH  74  75
ENDBRANCH  46  69
BRANCH  58  79
ATOM     79  C   UNL A   1      43.150  34.817  32.656  1.00  0.00    -0.014 A 
ATOM     80  C   UNL A   1      43.716  35.835  31.868  1.00  0.00     0.010 A 
ATOM     81  C   UNL A   1      42.939  35.049  34.029  1.00  0.00     0.010 A 
ATOM     82  C   UNL A   1      44.099  37.047  32.450  1.00  0.00     0.020 A 
ATOM     83  C   UNL A   1      43.297  36.269  34.608  1.00  0.00     0.020 A 
ATOM     84  C   UNL A   1      43.892  37.254  33.818  1.00  0.00     0.054 A 
BRANCH  84  85
ATOM     85  S   UNL A   1      44.372  38.846  34.546  1.00  0.00     0.124 S 
ATOM     86  O   UNL A   1      43.467  39.773  33.873  1.00  0.00    -0.237 OA
ATOM     87  O   UNL A   1      44.116  38.639  35.970  1.00  0.00    -0.237 OA
ATOM     88  O   UNL A   1      45.782  38.979  34.186  1.00  0.00    -0.744 OA
ENDBRANCH  84  85
ENDBRANCH  58  79
ENDBRANCH  32  33
ENDBRANCH  25  27
ENDBRANCH  24  25
ENDBRANCH  23  24
ENDBRANCH   1  23
TORSDOF 19
ENDMDL
