MODEL 1
REMARK VINA RESULT:     -10.4      0.000      0.000
REMARK SMILES O=C(CCc1nc(-c2ccccc2)c(-c2ccccc2)o1)OCCOCCOC(=O)c1ccc(-c2c3nc(c(-c4ccc(S(=O)(=O)[O-])cc4)c4ccc([nH]4)c(-c4ccc(S(=O)(=O)[O-])cc4)c4nc(c(-c5ccc(S(=O)(=O)[O-])cc5)c5ccc2[nH]5)C=C4)C=C3)cc1
REMARK SMILES IDX 25 1 24 2 23 3 22 4 2 5 1 6 3 7 4 8 5 9 6 10 21 11 7 12
REMARK SMILES IDX 14 13 8 14 9 15 13 16 10 17 12 18 11 19 15 20 16 21 20 22
REMARK SMILES IDX 17 23 19 24 18 25 26 26 27 27 28 28 29 29 30 30 31 31 32 32
REMARK SMILES IDX 90 33 33 34 89 35 34 36 35 37 36 38 83 39 37 40 88 41 82 42
REMARK SMILES IDX 84 43 38 44 87 45 81 46 80 47 39 49 69 50 50 51 68 52 51 53
REMARK SMILES IDX 54 54 67 55 85 56 52 57 53 58 66 60 86 61 55 62 40 63 41 64
REMARK SMILES IDX 49 65 42 66 48 67 43 68 44 69 45 70 46 71 47 72 70 73 71 74
REMARK SMILES IDX 79 75 72 76 78 77 73 78 74 79 75 80 76 81 77 82 56 83 57 84
REMARK SMILES IDX 65 85 58 86 64 87 59 88 60 89 61 90 62 91 63 92
REMARK H PARENT 84 48 54 59
REMARK Flexibility Score: inf
ROOT
ATOM      1  O   UNL A   1      33.389  30.110  27.419  1.00  0.00    -0.374 OA
ENDROOT
BRANCH   1   2
ATOM      2  C   UNL A   1      33.956  29.006  26.720  1.00  0.00     0.202 C 
BRANCH   2   3
ATOM      3  C   UNL A   1      33.296  28.567  25.410  1.00  0.00     0.261 C 
BRANCH   3   4
ATOM      4  O   UNL A   1      32.245  29.404  24.900  1.00  0.00    -0.463 OA
BRANCH   4   5
ATOM      5  C   UNL A   1      31.455  29.020  23.875  1.00  0.00     0.306 C 
ATOM      6  O   UNL A   1      30.233  28.980  23.998  1.00  0.00    -0.252 OA
BRANCH   5   7
ATOM      7  C   UNL A   1      32.144  28.396  22.692  1.00  0.00     0.132 C 
BRANCH   7   8
ATOM      8  C   UNL A   1      31.543  27.060  22.288  1.00  0.00     0.109 C 
BRANCH   8   9
ATOM      9  C   UNL A   1      32.379  25.900  22.689  1.00  0.00     0.196 A 
ATOM     10  N   UNL A   1      33.677  25.874  22.929  1.00  0.00    -0.213 NA
ATOM     11  O   UNL A   1      31.730  24.705  22.890  1.00  0.00    -0.440 OA
ATOM     12  C   UNL A   1      33.905  24.582  23.320  1.00  0.00     0.117 A 
ATOM     13  C   UNL A   1      32.726  23.868  23.304  1.00  0.00     0.162 A 
BRANCH  12  14
ATOM     14  C   UNL A   1      35.094  24.047  23.945  1.00  0.00     0.004 A 
ATOM     15  C   UNL A   1      35.843  23.044  23.313  1.00  0.00     0.010 A 
ATOM     16  C   UNL A   1      35.256  24.268  25.310  1.00  0.00     0.010 A 
ATOM     17  C   UNL A   1      36.644  22.187  24.067  1.00  0.00     0.001 A 
ATOM     18  C   UNL A   1      36.028  23.392  26.051  1.00  0.00     0.001 A 
ATOM     19  C   UNL A   1      36.687  22.330  25.446  1.00  0.00     0.000 A 
ENDBRANCH  12  14
BRANCH  13  20
ATOM     20  C   UNL A   1      32.415  22.498  23.664  1.00  0.00     0.020 A 
ATOM     21  C   UNL A   1      32.209  21.564  22.643  1.00  0.00     0.012 A 
ATOM     22  C   UNL A   1      32.607  22.047  24.979  1.00  0.00     0.012 A 
ATOM     23  C   UNL A   1      32.236  20.197  22.926  1.00  0.00     0.001 A 
ATOM     24  C   UNL A   1      32.629  20.679  25.260  1.00  0.00     0.001 A 
ATOM     25  C   UNL A   1      32.455  19.756  24.231  1.00  0.00     0.000 A 
ENDBRANCH  13  20
ENDBRANCH   8   9
ENDBRANCH   7   8
ENDBRANCH   5   7
ENDBRANCH   4   5
ENDBRANCH   3   4
ENDBRANCH   2   3
ENDBRANCH   1   2
BRANCH   1  26
ATOM     26  C   UNL A   1      34.197  31.259  27.638  1.00  0.00     0.202 C 
BRANCH  26  27
ATOM     27  C   UNL A   1      34.843  31.431  29.015  1.00  0.00     0.261 C 
BRANCH  27  28
ATOM     28  O   UNL A   1      35.547  30.283  29.512  1.00  0.00    -0.460 OA
BRANCH  28  29
ATOM     29  C   UNL A   1      36.413  30.543  30.528  1.00  0.00     0.338 C 
ATOM     30  O   UNL A   1      36.119  30.867  31.662  1.00  0.00    -0.246 OA
BRANCH  29  31
ATOM     31  C   UNL A   1      37.813  30.296  30.097  1.00  0.00     0.060 A 
ATOM     32  C   UNL A   1      38.089  30.320  28.726  1.00  0.00     0.016 A 
ATOM     33  C   UNL A   1      38.828  29.968  31.004  1.00  0.00     0.016 A 
ATOM     34  C   UNL A   1      39.372  30.005  28.267  1.00  0.00     0.010 A 
ATOM     35  C   UNL A   1      40.116  29.653  30.540  1.00  0.00     0.010 A 
ATOM     36  C   UNL A   1      40.400  29.668  29.170  1.00  0.00    -0.014 A 
BRANCH  36  37
ATOM     37  C   UNL A   1      41.713  29.217  28.624  1.00  0.00     0.031 A 
ATOM     38  C   UNL A   1      42.891  30.129  28.796  1.00  0.00     0.074 A 
ATOM     39  C   UNL A   1      41.886  28.017  28.031  1.00  0.00     0.049 A 
ATOM     40  N   UNL A   1      44.153  29.902  28.549  1.00  0.00    -0.248 NA
ATOM     41  C   UNL A   1      42.594  31.494  29.261  1.00  0.00     0.031 C 
ATOM     42  C   UNL A   1      40.820  27.092  27.674  1.00  0.00     0.029 A 
ATOM     43  N   UNL A   1      43.033  27.336  27.686  1.00  0.00    -0.354 N 
ATOM     44  C   UNL A   1      44.798  31.109  28.783  1.00  0.00     0.074 A 
ATOM     45  C   UNL A   1      43.793  32.055  29.218  1.00  0.00     0.031 C 
ATOM     46  C   UNL A   1      41.356  25.910  27.324  1.00  0.00     0.029 A 
ATOM     47  C   UNL A   1      42.811  26.013  27.351  1.00  0.00     0.049 A 
ATOM     48  H   UNL A   1      43.925  27.751  27.679  1.00  0.00     0.167 HD
ATOM     49  C   UNL A   1      46.104  31.413  28.608  1.00  0.00     0.031 A 
ATOM     50  C   UNL A   1      43.680  25.005  27.115  1.00  0.00     0.031 A 
ATOM     51  C   UNL A   1      47.087  30.491  28.109  1.00  0.00     0.049 A 
ATOM     52  C   UNL A   1      45.152  25.342  27.036  1.00  0.00     0.074 A 
ATOM     53  C   UNL A   1      48.425  30.721  27.841  1.00  0.00     0.029 A 
ATOM     54  N   UNL A   1      46.838  29.163  27.797  1.00  0.00    -0.354 N 
ATOM     55  N   UNL A   1      45.751  26.483  27.287  1.00  0.00    -0.248 NA
ATOM     56  C   UNL A   1      46.058  24.276  26.584  1.00  0.00     0.031 C 
ATOM     57  C   UNL A   1      48.974  29.543  27.324  1.00  0.00     0.029 A 
ATOM     58  C   UNL A   1      47.995  28.562  27.334  1.00  0.00     0.049 A 
ATOM     59  H   UNL A   1      45.966  28.714  27.890  1.00  0.00     0.167 HD
ATOM     60  C   UNL A   1      47.092  26.280  26.981  1.00  0.00     0.074 A 
ATOM     61  C   UNL A   1      47.233  24.887  26.612  1.00  0.00     0.031 C 
ATOM     62  C   UNL A   1      48.112  27.176  26.959  1.00  0.00     0.031 A 
BRANCH  49  63
ATOM     63  C   UNL A   1      46.515  32.830  28.888  1.00  0.00    -0.014 A 
ATOM     64  C   UNL A   1      46.467  33.811  27.882  1.00  0.00     0.010 A 
ATOM     65  C   UNL A   1      46.952  33.185  30.177  1.00  0.00     0.010 A 
ATOM     66  C   UNL A   1      46.873  35.118  28.155  1.00  0.00     0.020 A 
ATOM     67  C   UNL A   1      47.331  34.499  30.461  1.00  0.00     0.020 A 
ATOM     68  C   UNL A   1      47.300  35.455  29.444  1.00  0.00     0.054 A 
BRANCH  68  69
ATOM     69  S   UNL A   1      47.779  37.170  29.777  1.00  0.00     0.124 S 
ATOM     70  O   UNL A   1      47.356  37.845  28.552  1.00  0.00    -0.237 OA
ATOM     71  O   UNL A   1      47.002  37.490  30.971  1.00  0.00    -0.237 OA
ATOM     72  O   UNL A   1      49.224  37.094  29.977  1.00  0.00    -0.744 OA
ENDBRANCH  68  69
ENDBRANCH  49  63
BRANCH  50  73
ATOM     73  C   UNL A   1      43.226  23.594  26.886  1.00  0.00    -0.014 A 
ATOM     74  C   UNL A   1      42.943  22.744  27.977  1.00  0.00     0.010 A 
ATOM     75  C   UNL A   1      43.135  23.058  25.590  1.00  0.00     0.010 A 
ATOM     76  C   UNL A   1      42.623  21.393  27.778  1.00  0.00     0.020 A 
ATOM     77  C   UNL A   1      42.769  21.722  25.382  1.00  0.00     0.020 A 
ATOM     78  C   UNL A   1      42.540  20.891  26.478  1.00  0.00     0.054 A 
BRANCH  78  79
ATOM     79  S   UNL A   1      42.109  19.144  26.228  1.00  0.00     0.124 S 
ATOM     80  O   UNL A   1      40.711  19.232  25.820  1.00  0.00    -0.237 OA
ATOM     81  O   UNL A   1      43.047  18.731  25.186  1.00  0.00    -0.237 OA
ATOM     82  O   UNL A   1      42.345  18.545  27.539  1.00  0.00    -0.744 OA
ENDBRANCH  78  79
ENDBRANCH  50  73
BRANCH  62  83
ATOM     83  C   UNL A   1      49.460  26.676  26.512  1.00  0.00    -0.014 A 
ATOM     84  C   UNL A   1      49.894  26.844  25.185  1.00  0.00     0.010 A 
ATOM     85  C   UNL A   1      50.320  26.064  27.442  1.00  0.00     0.010 A 
ATOM     86  C   UNL A   1      51.145  26.366  24.784  1.00  0.00     0.020 A 
ATOM     87  C   UNL A   1      51.583  25.614  27.052  1.00  0.00     0.020 A 
ATOM     88  C   UNL A   1      51.979  25.749  25.720  1.00  0.00     0.054 A 
BRANCH  88  89
ATOM     89  S   UNL A   1      53.603  25.151  25.179  1.00  0.00     0.124 S 
ATOM     90  O   UNL A   1      54.504  25.864  26.080  1.00  0.00    -0.237 OA
ATOM     91  O   UNL A   1      53.505  23.710  25.399  1.00  0.00    -0.237 OA
ATOM     92  O   UNL A   1      53.673  25.558  23.778  1.00  0.00    -0.744 OA
ENDBRANCH  88  89
ENDBRANCH  62  83
ENDBRANCH  36  37
ENDBRANCH  29  31
ENDBRANCH  28  29
ENDBRANCH  27  28
ENDBRANCH  26  27
ENDBRANCH   1  26
TORSDOF 21
ENDMDL
MODEL 2
REMARK VINA RESULT:     -10.4      2.073      9.055
REMARK SMILES O=C(CCc1nc(-c2ccccc2)c(-c2ccccc2)o1)OCCOCCOC(=O)c1ccc(-c2c3nc(c(-c4ccc(S(=O)(=O)[O-])cc4)c4ccc([nH]4)c(-c4ccc(S(=O)(=O)[O-])cc4)c4nc(c(-c5ccc(S(=O)(=O)[O-])cc5)c5ccc2[nH]5)C=C4)C=C3)cc1
REMARK SMILES IDX 25 1 24 2 23 3 22 4 2 5 1 6 3 7 4 8 5 9 6 10 21 11 7 12
REMARK SMILES IDX 14 13 8 14 9 15 13 16 10 17 12 18 11 19 15 20 16 21 20 22
REMARK SMILES IDX 17 23 19 24 18 25 26 26 27 27 28 28 29 29 30 30 31 31 32 32
REMARK SMILES IDX 90 33 33 34 89 35 34 36 35 37 36 38 83 39 37 40 88 41 82 42
REMARK SMILES IDX 84 43 38 44 87 45 81 46 80 47 39 49 69 50 50 51 68 52 51 53
REMARK SMILES IDX 54 54 67 55 85 56 52 57 53 58 66 60 86 61 55 62 40 63 41 64
REMARK SMILES IDX 49 65 42 66 48 67 43 68 44 69 45 70 46 71 47 72 70 73 71 74
REMARK SMILES IDX 79 75 72 76 78 77 73 78 74 79 75 80 76 81 77 82 56 83 57 84
REMARK SMILES IDX 65 85 58 86 64 87 59 88 60 89 61 90 62 91 63 92
REMARK H PARENT 84 48 54 59
REMARK Flexibility Score: inf
ROOT
ATOM      1  O   UNL A   1      38.141  22.614  25.878  1.00  0.00    -0.374 OA
ENDROOT
BRANCH   1   2
ATOM      2  C   UNL A   1      37.284  21.913  24.981  1.00  0.00     0.202 C 
BRANCH   2   3
ATOM      3  C   UNL A   1      36.012  21.277  25.549  1.00  0.00     0.261 C 
BRANCH   3   4
ATOM      4  O   UNL A   1      35.166  20.576  24.622  1.00  0.00    -0.463 OA
BRANCH   4   5
ATOM      5  C   UNL A   1      33.923  20.168  24.953  1.00  0.00     0.306 C 
ATOM      6  O   UNL A   1      33.369  19.262  24.335  1.00  0.00    -0.252 OA
BRANCH   5   7
ATOM      7  C   UNL A   1      33.163  21.039  25.916  1.00  0.00     0.132 C 
BRANCH   7   8
ATOM      8  C   UNL A   1      31.811  21.481  25.380  1.00  0.00     0.109 C 
BRANCH   8   9
ATOM      9  C   UNL A   1      31.764  22.926  25.040  1.00  0.00     0.196 A 
ATOM     10  N   UNL A   1      31.253  23.494  23.963  1.00  0.00    -0.213 NA
ATOM     11  O   UNL A   1      32.262  23.803  25.974  1.00  0.00    -0.440 OA
ATOM     12  C   UNL A   1      31.417  24.832  24.196  1.00  0.00     0.117 A 
ATOM     13  C   UNL A   1      32.025  25.027  25.419  1.00  0.00     0.162 A 
BRANCH  12  14
ATOM     14  C   UNL A   1      30.820  25.933  23.475  1.00  0.00     0.004 A 
ATOM     15  C   UNL A   1      31.624  26.888  22.835  1.00  0.00     0.010 A 
ATOM     16  C   UNL A   1      29.486  26.229  23.744  1.00  0.00     0.010 A 
ATOM     17  C   UNL A   1      31.131  28.170  22.591  1.00  0.00     0.001 A 
ATOM     18  C   UNL A   1      29.018  27.511  23.526  1.00  0.00     0.001 A 
ATOM     19  C   UNL A   1      29.843  28.493  22.992  1.00  0.00     0.000 A 
ENDBRANCH  12  14
BRANCH  13  20
ATOM     20  C   UNL A   1      32.380  26.231  26.146  1.00  0.00     0.020 A 
ATOM     21  C   UNL A   1      33.639  26.800  25.931  1.00  0.00     0.012 A 
ATOM     22  C   UNL A   1      31.395  26.974  26.815  1.00  0.00     0.012 A 
ATOM     23  C   UNL A   1      33.898  28.109  26.343  1.00  0.00     0.001 A 
ATOM     24  C   UNL A   1      31.658  28.282  27.230  1.00  0.00     0.001 A 
ATOM     25  C   UNL A   1      32.905  28.851  26.982  1.00  0.00     0.000 A 
ENDBRANCH  13  20
ENDBRANCH   8   9
ENDBRANCH   7   8
ENDBRANCH   5   7
ENDBRANCH   4   5
ENDBRANCH   3   4
ENDBRANCH   2   3
ENDBRANCH   1   2
BRANCH   1  26
ATOM     26  C   UNL A   1      39.269  21.931  26.407  1.00  0.00     0.202 C 
BRANCH  26  27
ATOM     27  C   UNL A   1      39.653  20.586  25.785  1.00  0.00     0.261 C 
BRANCH  27  28
ATOM     28  O   UNL A   1      40.562  19.787  26.558  1.00  0.00    -0.460 OA
BRANCH  28  29
ATOM     29  C   UNL A   1      41.842  19.777  26.098  1.00  0.00     0.338 C 
ATOM     30  O   UNL A   1      42.379  18.881  25.478  1.00  0.00    -0.246 OA
BRANCH  29  31
ATOM     31  C   UNL A   1      42.509  21.073  26.383  1.00  0.00     0.060 A 
ATOM     32  C   UNL A   1      42.718  21.422  27.721  1.00  0.00     0.016 A 
ATOM     33  C   UNL A   1      42.856  21.975  25.369  1.00  0.00     0.016 A 
ATOM     34  C   UNL A   1      43.260  22.671  28.040  1.00  0.00     0.010 A 
ATOM     35  C   UNL A   1      43.401  23.228  25.692  1.00  0.00     0.010 A 
ATOM     36  C   UNL A   1      43.607  23.588  27.029  1.00  0.00    -0.014 A 
BRANCH  36  37
ATOM     37  C   UNL A   1      44.061  24.953  27.425  1.00  0.00     0.031 A 
ATOM     38  C   UNL A   1      45.463  25.351  27.072  1.00  0.00     0.074 A 
ATOM     39  C   UNL A   1      43.254  25.844  28.038  1.00  0.00     0.049 A 
ATOM     40  N   UNL A   1      46.038  26.520  27.169  1.00  0.00    -0.248 NA
ATOM     41  C   UNL A   1      46.346  24.274  26.595  1.00  0.00     0.031 C 
ATOM     42  C   UNL A   1      41.925  25.557  28.560  1.00  0.00     0.029 A 
ATOM     43  N   UNL A   1      43.405  27.195  28.264  1.00  0.00    -0.354 N 
ATOM     44  C   UNL A   1      47.363  26.312  26.810  1.00  0.00     0.074 A 
ATOM     45  C   UNL A   1      47.498  24.913  26.467  1.00  0.00     0.031 C 
ATOM     46  C   UNL A   1      41.318  26.711  28.886  1.00  0.00     0.029 A 
ATOM     47  C   UNL A   1      42.243  27.820  28.675  1.00  0.00     0.049 A 
ATOM     48  H   UNL A   1      44.259  27.669  28.144  1.00  0.00     0.167 HD
ATOM     49  C   UNL A   1      48.384  27.198  26.810  1.00  0.00     0.031 A 
ATOM     50  C   UNL A   1      41.956  29.131  28.841  1.00  0.00     0.031 A 
ATOM     51  C   UNL A   1      48.261  28.571  27.218  1.00  0.00     0.049 A 
ATOM     52  C   UNL A   1      43.091  30.124  28.723  1.00  0.00     0.074 A 
ATOM     53  C   UNL A   1      49.250  29.534  27.309  1.00  0.00     0.029 A 
ATOM     54  N   UNL A   1      47.076  29.175  27.610  1.00  0.00    -0.354 N 
ATOM     55  N   UNL A   1      44.334  29.915  28.356  1.00  0.00    -0.248 NA
ATOM     56  C   UNL A   1      42.802  31.515  29.100  1.00  0.00     0.031 C 
ATOM     57  C   UNL A   1      48.671  30.708  27.799  1.00  0.00     0.029 A 
ATOM     58  C   UNL A   1      47.310  30.496  27.949  1.00  0.00     0.049 A 
ATOM     59  H   UNL A   1      46.198  28.730  27.644  1.00  0.00     0.167 HD
ATOM     60  C   UNL A   1      44.980  31.139  28.500  1.00  0.00     0.074 A 
ATOM     61  C   UNL A   1      43.974  32.099  28.902  1.00  0.00     0.031 C 
ATOM     62  C   UNL A   1      46.297  31.434  28.361  1.00  0.00     0.031 A 
BRANCH  49  63
ATOM     63  C   UNL A   1      49.738  26.674  26.425  1.00  0.00    -0.014 A 
ATOM     64  C   UNL A   1      50.569  26.051  27.373  1.00  0.00     0.010 A 
ATOM     65  C   UNL A   1      50.182  26.804  25.098  1.00  0.00     0.010 A 
ATOM     66  C   UNL A   1      51.833  25.589  27.003  1.00  0.00     0.020 A 
ATOM     67  C   UNL A   1      51.434  26.317  24.718  1.00  0.00     0.020 A 
ATOM     68  C   UNL A   1      52.257  25.722  25.677  1.00  0.00     0.054 A 
BRANCH  68  69
ATOM     69  S   UNL A   1      53.886  25.074  25.219  1.00  0.00     0.124 S 
ATOM     70  O   UNL A   1      54.633  25.228  26.465  1.00  0.00    -0.237 OA
ATOM     71  O   UNL A   1      53.582  23.698  24.834  1.00  0.00    -0.237 OA
ATOM     72  O   UNL A   1      54.312  25.944  24.126  1.00  0.00    -0.744 OA
ENDBRANCH  68  69
ENDBRANCH  49  63
BRANCH  50  73
ATOM     73  C   UNL A   1      40.576  29.612  29.179  1.00  0.00    -0.014 A 
ATOM     74  C   UNL A   1      39.595  29.746  28.173  1.00  0.00     0.010 A 
ATOM     75  C   UNL A   1      40.243  30.008  30.485  1.00  0.00     0.010 A 
ATOM     76  C   UNL A   1      38.338  30.297  28.457  1.00  0.00     0.020 A 
ATOM     77  C   UNL A   1      38.972  30.514  30.786  1.00  0.00     0.020 A 
ATOM     78  C   UNL A   1      38.035  30.680  29.765  1.00  0.00     0.054 A 
BRANCH  78  79
ATOM     79  S   UNL A   1      36.399  31.378  30.130  1.00  0.00     0.124 S 
ATOM     80  O   UNL A   1      36.631  32.807  29.951  1.00  0.00    -0.237 OA
ATOM     81  O   UNL A   1      35.550  30.743  29.123  1.00  0.00    -0.237 OA
ATOM     82  O   UNL A   1      36.146  30.950  31.504  1.00  0.00    -0.744 OA
ENDBRANCH  78  79
ENDBRANCH  50  73
BRANCH  62  83
ATOM     83  C   UNL A   1      46.722  32.849  28.655  1.00  0.00    -0.014 A 
ATOM     84  C   UNL A   1      47.129  33.231  29.946  1.00  0.00     0.010 A 
ATOM     85  C   UNL A   1      46.751  33.798  27.619  1.00  0.00     0.010 A 
ATOM     86  C   UNL A   1      47.511  34.550  30.206  1.00  0.00     0.020 A 
ATOM     87  C   UNL A   1      47.162  35.109  27.867  1.00  0.00     0.020 A 
ATOM     88  C   UNL A   1      47.521  35.482  29.165  1.00  0.00     0.054 A 
BRANCH  88  89
ATOM     89  S   UNL A   1      48.035  37.184  29.523  1.00  0.00     0.124 S 
ATOM     90  O   UNL A   1      46.889  37.695  30.272  1.00  0.00    -0.237 OA
ATOM     91  O   UNL A   1      49.259  36.994  30.297  1.00  0.00    -0.237 OA
ATOM     92  O   UNL A   1      48.226  37.773  28.199  1.00  0.00    -0.744 OA
ENDBRANCH  88  89
ENDBRANCH  62  83
ENDBRANCH  36  37
ENDBRANCH  29  31
ENDBRANCH  28  29
ENDBRANCH  27  28
ENDBRANCH  26  27
ENDBRANCH   1  26
TORSDOF 21
ENDMDL
MODEL 3
REMARK VINA RESULT:     -10.4      2.666      8.704
REMARK SMILES O=C(CCc1nc(-c2ccccc2)c(-c2ccccc2)o1)OCCOCCOC(=O)c1ccc(-c2c3nc(c(-c4ccc(S(=O)(=O)[O-])cc4)c4ccc([nH]4)c(-c4ccc(S(=O)(=O)[O-])cc4)c4nc(c(-c5ccc(S(=O)(=O)[O-])cc5)c5ccc2[nH]5)C=C4)C=C3)cc1
REMARK SMILES IDX 25 1 24 2 23 3 22 4 2 5 1 6 3 7 4 8 5 9 6 10 21 11 7 12
REMARK SMILES IDX 14 13 8 14 9 15 13 16 10 17 12 18 11 19 15 20 16 21 20 22
REMARK SMILES IDX 17 23 19 24 18 25 26 26 27 27 28 28 29 29 30 30 31 31 32 32
REMARK SMILES IDX 90 33 33 34 89 35 34 36 35 37 36 38 83 39 37 40 88 41 82 42
REMARK SMILES IDX 84 43 38 44 87 45 81 46 80 47 39 49 69 50 50 51 68 52 51 53
REMARK SMILES IDX 54 54 67 55 85 56 52 57 53 58 66 60 86 61 55 62 40 63 41 64
REMARK SMILES IDX 49 65 42 66 48 67 43 68 44 69 45 70 46 71 47 72 70 73 71 74
REMARK SMILES IDX 79 75 72 76 78 77 73 78 74 79 75 80 76 81 77 82 56 83 57 84
REMARK SMILES IDX 65 85 58 86 64 87 59 88 60 89 61 90 62 91 63 92
REMARK H PARENT 84 48 54 59
REMARK Flexibility Score: inf
ROOT
ATOM      1  O   UNL A   1      36.610  23.464  24.021  1.00  0.00    -0.374 OA
ENDROOT
BRANCH   1   2
ATOM      2  C   UNL A   1      35.225  23.728  24.225  1.00  0.00     0.202 C 
BRANCH   2   3
ATOM      3  C   UNL A   1      34.716  23.833  25.665  1.00  0.00     0.261 C 
BRANCH   3   4
ATOM      4  O   UNL A   1      34.509  22.599  26.372  1.00  0.00    -0.463 OA
BRANCH   4   5
ATOM      5  C   UNL A   1      33.299  22.243  26.854  1.00  0.00     0.306 C 
ATOM      6  O   UNL A   1      33.148  21.964  28.041  1.00  0.00    -0.252 OA
BRANCH   5   7
ATOM      7  C   UNL A   1      32.230  21.948  25.837  1.00  0.00     0.132 C 
BRANCH   7   8
ATOM      8  C   UNL A   1      30.937  22.703  26.095  1.00  0.00     0.109 C 
BRANCH   8   9
ATOM      9  C   UNL A   1      31.096  24.177  26.007  1.00  0.00     0.196 A 
ATOM     10  N   UNL A   1      31.596  24.999  26.911  1.00  0.00    -0.213 NA
ATOM     11  O   UNL A   1      30.730  24.773  24.823  1.00  0.00    -0.440 OA
ATOM     12  C   UNL A   1      31.567  26.218  26.289  1.00  0.00     0.117 A 
ATOM     13  C   UNL A   1      31.046  26.087  25.019  1.00  0.00     0.162 A 
BRANCH  12  14
ATOM     14  C   UNL A   1      32.221  27.437  26.707  1.00  0.00     0.004 A 
ATOM     15  C   UNL A   1      31.469  28.581  27.016  1.00  0.00     0.010 A 
ATOM     16  C   UNL A   1      33.580  27.562  26.434  1.00  0.00     0.010 A 
ATOM     17  C   UNL A   1      32.047  29.846  26.920  1.00  0.00     0.001 A 
ATOM     18  C   UNL A   1      34.134  28.823  26.312  1.00  0.00     0.001 A 
ATOM     19  C   UNL A   1      33.367  29.964  26.511  1.00  0.00     0.000 A 
ENDBRANCH  12  14
BRANCH  13  20
ATOM     20  C   UNL A   1      30.841  27.046  23.950  1.00  0.00     0.020 A 
ATOM     21  C   UNL A   1      29.543  27.499  23.692  1.00  0.00     0.012 A 
ATOM     22  C   UNL A   1      31.931  27.728  23.387  1.00  0.00     0.012 A 
ATOM     23  C   UNL A   1      29.339  28.641  22.917  1.00  0.00     0.001 A 
ATOM     24  C   UNL A   1      31.724  28.868  22.607  1.00  0.00     0.001 A 
ATOM     25  C   UNL A   1      30.429  29.330  22.384  1.00  0.00     0.000 A 
ENDBRANCH  13  20
ENDBRANCH   8   9
ENDBRANCH   7   8
ENDBRANCH   5   7
ENDBRANCH   4   5
ENDBRANCH   3   4
ENDBRANCH   2   3
ENDBRANCH   1   2
BRANCH   1  26
ATOM     26  C   UNL A   1      37.031  22.112  23.907  1.00  0.00     0.202 C 
BRANCH  26  27
ATOM     27  C   UNL A   1      37.684  21.457  25.127  1.00  0.00     0.261 C 
BRANCH  27  28
ATOM     28  O   UNL A   1      38.123  22.363  26.151  1.00  0.00    -0.460 OA
BRANCH  28  29
ATOM     29  C   UNL A   1      39.411  22.185  26.553  1.00  0.00     0.338 C 
ATOM     30  O   UNL A   1      40.052  21.155  26.485  1.00  0.00    -0.246 OA
BRANCH  29  31
ATOM     31  C   UNL A   1      39.991  23.467  27.028  1.00  0.00     0.060 A 
ATOM     32  C   UNL A   1      39.707  24.625  26.297  1.00  0.00     0.016 A 
ATOM     33  C   UNL A   1      40.863  23.534  28.122  1.00  0.00     0.016 A 
ATOM     34  C   UNL A   1      40.303  25.839  26.653  1.00  0.00     0.010 A 
ATOM     35  C   UNL A   1      41.459  24.755  28.479  1.00  0.00     0.010 A 
ATOM     36  C   UNL A   1      41.185  25.917  27.748  1.00  0.00    -0.014 A 
BRANCH  36  37
ATOM     37  C   UNL A   1      41.891  27.205  28.008  1.00  0.00     0.031 A 
ATOM     38  C   UNL A   1      41.116  28.306  28.668  1.00  0.00     0.074 A 
ATOM     39  C   UNL A   1      43.195  27.397  27.717  1.00  0.00     0.049 A 
ATOM     40  N   UNL A   1      41.540  29.450  29.134  1.00  0.00    -0.248 NA
ATOM     41  C   UNL A   1      39.661  28.106  28.770  1.00  0.00     0.031 C 
ATOM     42  C   UNL A   1      44.033  26.479  26.959  1.00  0.00     0.029 A 
ATOM     43  N   UNL A   1      44.067  28.399  28.086  1.00  0.00    -0.354 N 
ATOM     44  C   UNL A   1      40.399  30.129  29.541  1.00  0.00     0.074 A 
ATOM     45  C   UNL A   1      39.271  29.257  29.294  1.00  0.00     0.031 C 
ATOM     46  C   UNL A   1      45.318  26.863  27.061  1.00  0.00     0.029 A 
ATOM     47  C   UNL A   1      45.391  28.104  27.824  1.00  0.00     0.049 A 
ATOM     48  H   UNL A   1      43.774  29.243  28.498  1.00  0.00     0.167 HD
ATOM     49  C   UNL A   1      40.298  31.384  30.034  1.00  0.00     0.031 A 
ATOM     50  C   UNL A   1      46.526  28.750  28.175  1.00  0.00     0.031 A 
ATOM     51  C   UNL A   1      41.414  32.273  30.213  1.00  0.00     0.049 A 
ATOM     52  C   UNL A   1      46.394  30.105  28.833  1.00  0.00     0.074 A 
ATOM     53  C   UNL A   1      41.407  33.585  30.652  1.00  0.00     0.029 A 
ATOM     54  N   UNL A   1      42.736  31.943  29.956  1.00  0.00    -0.354 N 
ATOM     55  N   UNL A   1      45.309  30.723  29.238  1.00  0.00    -0.248 NA
ATOM     56  C   UNL A   1      47.631  30.876  29.026  1.00  0.00     0.031 C 
ATOM     57  C   UNL A   1      42.721  34.062  30.617  1.00  0.00     0.029 A 
ATOM     58  C   UNL A   1      43.553  33.027  30.222  1.00  0.00     0.049 A 
ATOM     59  H   UNL A   1      43.047  31.067  29.632  1.00  0.00     0.167 HD
ATOM     60  C   UNL A   1      45.731  31.969  29.691  1.00  0.00     0.074 A 
ATOM     61  C   UNL A   1      47.175  31.983  29.594  1.00  0.00     0.031 C 
ATOM     62  C   UNL A   1      44.989  33.026  30.106  1.00  0.00     0.031 A 
BRANCH  49  63
ATOM     63  C   UNL A   1      38.916  31.885  30.339  1.00  0.00    -0.014 A 
ATOM     64  C   UNL A   1      38.367  31.757  31.627  1.00  0.00     0.010 A 
ATOM     65  C   UNL A   1      38.158  32.495  29.324  1.00  0.00     0.010 A 
ATOM     66  C   UNL A   1      37.072  32.210  31.887  1.00  0.00     0.020 A 
ATOM     67  C   UNL A   1      36.873  32.974  29.588  1.00  0.00     0.020 A 
ATOM     68  C   UNL A   1      36.335  32.818  30.867  1.00  0.00     0.054 A 
BRANCH  68  69
ATOM     69  S   UNL A   1      34.673  33.433  31.248  1.00  0.00     0.124 S 
ATOM     70  O   UNL A   1      34.035  33.411  29.934  1.00  0.00    -0.237 OA
ATOM     71  O   UNL A   1      34.180  32.444  32.202  1.00  0.00    -0.237 OA
ATOM     72  O   UNL A   1      34.914  34.764  31.800  1.00  0.00    -0.744 OA
ENDBRANCH  68  69
ENDBRANCH  49  63
BRANCH  50  73
ATOM     73  C   UNL A   1      47.888  28.188  27.892  1.00  0.00    -0.014 A 
ATOM     74  C   UNL A   1      48.499  28.385  26.635  1.00  0.00     0.010 A 
ATOM     75  C   UNL A   1      48.561  27.397  28.839  1.00  0.00     0.010 A 
ATOM     76  C   UNL A   1      49.721  27.773  26.321  1.00  0.00     0.020 A 
ATOM     77  C   UNL A   1      49.805  26.823  28.549  1.00  0.00     0.020 A 
ATOM     78  C   UNL A   1      50.366  26.993  27.283  1.00  0.00     0.054 A 
BRANCH  78  79
ATOM     79  S   UNL A   1      51.957  26.218  26.876  1.00  0.00     0.124 S 
ATOM     80  O   UNL A   1      51.567  24.834  26.629  1.00  0.00    -0.237 OA
ATOM     81  O   UNL A   1      52.388  26.973  25.701  1.00  0.00    -0.237 OA
ATOM     82  O   UNL A   1      52.760  26.440  28.077  1.00  0.00    -0.744 OA
ENDBRANCH  78  79
ENDBRANCH  50  73
BRANCH  62  83
ATOM     83  C   UNL A   1      45.728  34.286  30.474  1.00  0.00    -0.014 A 
ATOM     84  C   UNL A   1      46.018  35.267  29.509  1.00  0.00     0.010 A 
ATOM     85  C   UNL A   1      46.104  34.508  31.811  1.00  0.00     0.010 A 
ATOM     86  C   UNL A   1      46.713  36.426  29.864  1.00  0.00     0.020 A 
ATOM     87  C   UNL A   1      46.771  35.680  32.176  1.00  0.00     0.020 A 
ATOM     88  C   UNL A   1      47.089  36.622  31.196  1.00  0.00     0.054 A 
BRANCH  88  89
ATOM     89  S   UNL A   1      47.977  38.141  31.636  1.00  0.00     0.124 S 
ATOM     90  O   UNL A   1      48.988  37.642  32.565  1.00  0.00    -0.237 OA
ATOM     91  O   UNL A   1      48.483  38.604  30.346  1.00  0.00    -0.237 OA
ATOM     92  O   UNL A   1      46.945  38.985  32.234  1.00  0.00    -0.744 OA
ENDBRANCH  88  89
ENDBRANCH  62  83
ENDBRANCH  36  37
ENDBRANCH  29  31
ENDBRANCH  28  29
ENDBRANCH  27  28
ENDBRANCH  26  27
ENDBRANCH   1  26
TORSDOF 21
ENDMDL
