MODEL 1
REMARK VINA RESULT:     -11.5      0.000      0.000
REMARK SMILES Cc1nc2cc(C(=O)OCCOCCOC(=O)c3ccc(-c4c5nc(c(-c6ccc(S(=O)(=O)[O-])cc6)c6ccc([nH]6)c(-c6ccc(S(=O)(=O)[O-])cc6)c6nc(c(-c7ccc(S(=O)(=O)[O-])cc7)c7ccc4[nH]7)C=C6)C=C5)cc3)ccc2n1CCC[NH+]1CCOCC1
REMARK SMILES IDX 11 1 10 2 9 3 7 4 8 5 6 6 1 7 2 8 3 9 81 10 4 11 80 12 5 13
REMARK SMILES IDX 79 14 78 15 82 16 83 17 84 18 85 19 86 20 90 21 87 23 89 24
REMARK SMILES IDX 88 25 12 26 13 27 14 28 15 29 16 30 17 31 18 32 19 33 77 34
REMARK SMILES IDX 20 35 76 36 21 37 22 38 23 39 70 40 24 41 75 42 69 43 71 44
REMARK SMILES IDX 25 45 74 46 68 47 67 48 26 50 56 51 37 52 55 53 38 54 41 55
REMARK SMILES IDX 54 56 72 57 39 58 40 59 53 61 73 62 42 63 27 64 28 65 36 66
REMARK SMILES IDX 29 67 35 68 30 69 31 70 32 71 33 72 34 73 57 74 58 75 66 76
REMARK SMILES IDX 59 77 65 78 60 79 61 80 62 81 63 82 64 83 43 84 44 85 52 86
REMARK SMILES IDX 45 87 51 88 46 89 47 90 48 91 49 92 50 93
REMARK H PARENT 85 22 71 49 41 60
REMARK Flexibility Score: inf
ROOT
ATOM      1  C   UNL A   1      42.319  20.047  26.746  1.00  0.00     0.202 C 
ENDROOT
BRANCH   1   2
ATOM      2  C   UNL A   1      40.845  20.201  27.130  1.00  0.00     0.261 C 
BRANCH   2   3
ATOM      3  O   UNL A   1      40.028  20.608  26.035  1.00  0.00    -0.460 OA
BRANCH   3   4
ATOM      4  C   UNL A   1      39.540  21.853  26.208  1.00  0.00     0.338 C 
ATOM      5  O   UNL A   1      40.156  22.868  26.495  1.00  0.00    -0.246 OA
BRANCH   4   6
ATOM      6  C   UNL A   1      38.203  21.915  25.626  1.00  0.00     0.062 A 
ATOM      7  C   UNL A   1      33.149  24.687  26.044  1.00  0.00     0.088 C 
ATOM      8  C   UNL A   1      34.265  23.889  25.553  1.00  0.00     0.106 A 
ATOM      9  N   UNL A   1      35.482  24.329  25.707  1.00  0.00    -0.233 NA
ATOM     10  N   UNL A   1      34.226  22.609  25.028  1.00  0.00    -0.328 N 
ATOM     11  C   UNL A   1      36.253  23.247  25.510  1.00  0.00     0.090 A 
ATOM     12  C   UNL A   1      35.541  22.165  24.997  1.00  0.00     0.068 A 
ATOM     13  C   UNL A   1      37.588  23.143  25.832  1.00  0.00     0.046 A 
ATOM     14  C   UNL A   1      36.190  20.967  24.645  1.00  0.00     0.029 A 
ATOM     15  C   UNL A   1      37.555  20.860  24.981  1.00  0.00     0.018 A 
BRANCH  10  16
ATOM     16  C   UNL A   1      33.057  21.870  24.568  1.00  0.00     0.130 C 
BRANCH  16  17
ATOM     17  C   UNL A   1      33.234  20.386  24.214  1.00  0.00     0.083 C 
BRANCH  17  18
ATOM     18  C   UNL A   1      32.912  19.274  25.245  1.00  0.00     0.264 C 
BRANCH  18  19
ATOM     19  N   UNL A   1      32.270  18.037  24.744  1.00  0.00    -0.331 N 
ATOM     20  C   UNL A   1      32.476  16.806  25.552  1.00  0.00     0.291 C 
ATOM     21  C   UNL A   1      32.765  17.704  23.378  1.00  0.00     0.291 C 
ATOM     22  H   UNL A   1      31.278  18.273  24.782  1.00  0.00     0.348 HD
ATOM     23  C   UNL A   1      33.887  16.165  25.454  1.00  0.00     0.221 C 
ATOM     24  C   UNL A   1      34.197  17.136  23.354  1.00  0.00     0.221 C 
ATOM     25  O   UNL A   1      34.255  15.912  24.096  1.00  0.00    -0.370 OA
ENDBRANCH  18  19
ENDBRANCH  17  18
ENDBRANCH  16  17
ENDBRANCH  10  16
ENDBRANCH   4   6
ENDBRANCH   3   4
ENDBRANCH   2   3
ENDBRANCH   1   2
BRANCH   1  26
ATOM     26  O   UNL A   1      42.640  19.571  25.443  1.00  0.00    -0.374 OA
BRANCH  26  27
ATOM     27  C   UNL A   1      43.921  18.959  25.259  1.00  0.00     0.202 C 
BRANCH  27  28
ATOM     28  C   UNL A   1      45.059  19.778  24.618  1.00  0.00     0.261 C 
BRANCH  28  29
ATOM     29  O   UNL A   1      45.172  21.080  25.218  1.00  0.00    -0.460 OA
BRANCH  29  30
ATOM     30  C   UNL A   1      44.713  22.126  24.480  1.00  0.00     0.338 C 
ATOM     31  O   UNL A   1      44.626  22.188  23.261  1.00  0.00    -0.246 OA
BRANCH  30  32
ATOM     32  C   UNL A   1      43.966  22.985  25.425  1.00  0.00     0.060 A 
ATOM     33  C   UNL A   1      42.931  23.807  24.974  1.00  0.00     0.016 A 
ATOM     34  C   UNL A   1      44.584  23.222  26.666  1.00  0.00     0.016 A 
ATOM     35  C   UNL A   1      42.600  24.937  25.715  1.00  0.00     0.010 A 
ATOM     36  C   UNL A   1      44.294  24.389  27.370  1.00  0.00     0.010 A 
ATOM     37  C   UNL A   1      43.334  25.273  26.872  1.00  0.00    -0.014 A 
BRANCH  37  38
ATOM     38  C   UNL A   1      42.882  26.418  27.674  1.00  0.00     0.031 A 
ATOM     39  C   UNL A   1      43.842  27.540  27.528  1.00  0.00     0.074 A 
ATOM     40  C   UNL A   1      41.734  26.576  28.377  1.00  0.00     0.049 A 
ATOM     41  N   UNL A   1      44.665  27.986  28.417  1.00  0.00    -0.248 NA
ATOM     42  C   UNL A   1      44.069  28.066  26.169  1.00  0.00     0.031 C 
ATOM     43  C   UNL A   1      40.564  25.698  28.439  1.00  0.00     0.029 A 
ATOM     44  N   UNL A   1      41.337  27.639  29.148  1.00  0.00    -0.354 N 
ATOM     45  C   UNL A   1      45.366  29.004  27.784  1.00  0.00     0.074 A 
ATOM     46  C   UNL A   1      45.123  28.851  26.373  1.00  0.00     0.031 C 
ATOM     47  C   UNL A   1      39.525  26.356  29.008  1.00  0.00     0.029 A 
ATOM     48  C   UNL A   1      39.976  27.659  29.463  1.00  0.00     0.049 A 
ATOM     49  H   UNL A   1      41.962  28.334  29.456  1.00  0.00     0.167 HD
ATOM     50  C   UNL A   1      45.869  30.058  28.479  1.00  0.00     0.031 A 
ATOM     51  C   UNL A   1      39.259  28.678  30.017  1.00  0.00     0.031 A 
ATOM     52  C   UNL A   1      45.957  29.774  29.887  1.00  0.00     0.049 A 
ATOM     53  C   UNL A   1      40.219  29.574  30.695  1.00  0.00     0.074 A 
ATOM     54  C   UNL A   1      46.623  28.836  30.650  1.00  0.00     0.029 A 
ATOM     55  N   UNL A   1      44.965  30.285  30.688  1.00  0.00    -0.354 N 
ATOM     56  N   UNL A   1      40.881  29.242  31.765  1.00  0.00    -0.248 NA
ATOM     57  C   UNL A   1      40.764  30.683  29.932  1.00  0.00     0.031 C 
ATOM     58  C   UNL A   1      45.722  28.505  31.701  1.00  0.00     0.029 A 
ATOM     59  C   UNL A   1      44.588  29.310  31.575  1.00  0.00     0.049 A 
ATOM     60  H   UNL A   1      44.589  31.193  30.635  1.00  0.00     0.167 HD
ATOM     61  C   UNL A   1      42.147  29.766  31.559  1.00  0.00     0.074 A 
ATOM     62  C   UNL A   1      41.989  30.719  30.460  1.00  0.00     0.031 C 
ATOM     63  C   UNL A   1      43.247  29.173  32.109  1.00  0.00     0.031 A 
BRANCH  50  64
ATOM     64  C   UNL A   1      45.895  31.458  27.918  1.00  0.00    -0.014 A 
ATOM     65  C   UNL A   1      44.751  32.281  27.828  1.00  0.00     0.010 A 
ATOM     66  C   UNL A   1      47.139  32.076  27.684  1.00  0.00     0.010 A 
ATOM     67  C   UNL A   1      44.827  33.630  27.485  1.00  0.00     0.020 A 
ATOM     68  C   UNL A   1      47.232  33.443  27.387  1.00  0.00     0.020 A 
ATOM     69  C   UNL A   1      46.070  34.205  27.272  1.00  0.00     0.054 A 
BRANCH  69  70
ATOM     70  S   UNL A   1      46.130  35.968  26.883  1.00  0.00     0.124 S 
ATOM     71  O   UNL A   1      46.747  36.516  28.089  1.00  0.00    -0.237 OA
ATOM     72  O   UNL A   1      46.961  35.995  25.684  1.00  0.00    -0.237 OA
ATOM     73  O   UNL A   1      44.728  36.321  26.682  1.00  0.00    -0.744 OA
ENDBRANCH  69  70
ENDBRANCH  50  64
BRANCH  51  74
ATOM     74  C   UNL A   1      37.896  29.175  29.661  1.00  0.00    -0.014 A 
ATOM     75  C   UNL A   1      37.565  29.396  28.312  1.00  0.00     0.010 A 
ATOM     76  C   UNL A   1      37.070  29.774  30.641  1.00  0.00     0.010 A 
ATOM     77  C   UNL A   1      36.531  30.270  27.949  1.00  0.00     0.020 A 
ATOM     78  C   UNL A   1      36.031  30.654  30.283  1.00  0.00     0.020 A 
ATOM     79  C   UNL A   1      35.802  30.932  28.936  1.00  0.00     0.054 A 
BRANCH  79  80
ATOM     80  S   UNL A   1      34.644  32.236  28.419  1.00  0.00     0.124 S 
ATOM     81  O   UNL A   1      34.191  32.766  29.703  1.00  0.00    -0.237 OA
ATOM     82  O   UNL A   1      35.499  33.131  27.642  1.00  0.00    -0.237 OA
ATOM     83  O   UNL A   1      33.632  31.520  27.646  1.00  0.00    -0.744 OA
ENDBRANCH  79  80
ENDBRANCH  51  74
BRANCH  63  84
ATOM     84  C   UNL A   1      43.054  28.137  33.201  1.00  0.00    -0.014 A 
ATOM     85  C   UNL A   1      42.462  28.577  34.398  1.00  0.00     0.010 A 
ATOM     86  C   UNL A   1      43.551  26.817  33.151  1.00  0.00     0.010 A 
ATOM     87  C   UNL A   1      42.387  27.748  35.518  1.00  0.00     0.020 A 
ATOM     88  C   UNL A   1      43.451  25.964  34.266  1.00  0.00     0.020 A 
ATOM     89  C   UNL A   1      42.884  26.446  35.449  1.00  0.00     0.054 A 
BRANCH  89  90
ATOM     90  S   UNL A   1      42.773  25.418  36.939  1.00  0.00     0.124 S 
ATOM     91  O   UNL A   1      43.194  26.345  37.988  1.00  0.00    -0.237 OA
ATOM     92  O   UNL A   1      41.359  25.048  36.969  1.00  0.00    -0.237 OA
ATOM     93  O   UNL A   1      43.694  24.313  36.682  1.00  0.00    -0.744 OA
ENDBRANCH  89  90
ENDBRANCH  63  84
ENDBRANCH  37  38
ENDBRANCH  30  32
ENDBRANCH  29  30
ENDBRANCH  28  29
ENDBRANCH  27  28
ENDBRANCH  26  27
ENDBRANCH   1  26
TORSDOF 21
ENDMDL
MODEL 2
REMARK VINA RESULT:     -11.5      2.004      3.408
REMARK SMILES Cc1nc2cc(C(=O)OCCOCCOC(=O)c3ccc(-c4c5nc(c(-c6ccc(S(=O)(=O)[O-])cc6)c6ccc([nH]6)c(-c6ccc(S(=O)(=O)[O-])cc6)c6nc(c(-c7ccc(S(=O)(=O)[O-])cc7)c7ccc4[nH]7)C=C6)C=C5)cc3)ccc2n1CCC[NH+]1CCOCC1
REMARK SMILES IDX 11 1 10 2 9 3 7 4 8 5 6 6 1 7 2 8 3 9 81 10 4 11 80 12 5 13
REMARK SMILES IDX 79 14 78 15 82 16 83 17 84 18 85 19 86 20 90 21 87 23 89 24
REMARK SMILES IDX 88 25 12 26 13 27 14 28 15 29 16 30 17 31 18 32 19 33 77 34
REMARK SMILES IDX 20 35 76 36 21 37 22 38 23 39 70 40 24 41 75 42 69 43 71 44
REMARK SMILES IDX 25 45 74 46 68 47 67 48 26 50 56 51 37 52 55 53 38 54 41 55
REMARK SMILES IDX 54 56 72 57 39 58 40 59 53 61 73 62 42 63 27 64 28 65 36 66
REMARK SMILES IDX 29 67 35 68 30 69 31 70 32 71 33 72 34 73 57 74 58 75 66 76
REMARK SMILES IDX 59 77 65 78 60 79 61 80 62 81 63 82 64 83 43 84 44 85 52 86
REMARK SMILES IDX 45 87 51 88 46 89 47 90 48 91 49 92 50 93
REMARK H PARENT 85 22 71 49 41 60
REMARK Flexibility Score: inf
ROOT
ATOM      1  C   UNL A   1      40.363  21.254  26.800  1.00  0.00     0.202 C 
ENDROOT
BRANCH   1   2
ATOM      2  C   UNL A   1      39.403  21.593  25.657  1.00  0.00     0.261 C 
BRANCH   2   3
ATOM      3  O   UNL A   1      38.095  21.928  26.114  1.00  0.00    -0.460 OA
BRANCH   3   4
ATOM      4  C   UNL A   1      37.826  23.240  25.951  1.00  0.00     0.338 C 
ATOM      5  O   UNL A   1      38.613  24.173  25.956  1.00  0.00    -0.246 OA
BRANCH   4   6
ATOM      6  C   UNL A   1      36.492  23.374  25.377  1.00  0.00     0.062 A 
ATOM      7  C   UNL A   1      30.878  23.010  26.701  1.00  0.00     0.088 C 
ATOM      8  C   UNL A   1      32.135  23.323  26.036  1.00  0.00     0.106 A 
ATOM      9  N   UNL A   1      33.141  23.758  26.742  1.00  0.00    -0.233 NA
ATOM     10  N   UNL A   1      32.474  23.099  24.713  1.00  0.00    -0.328 N 
ATOM     11  C   UNL A   1      34.205  23.592  25.940  1.00  0.00     0.090 A 
ATOM     12  C   UNL A   1      33.849  23.270  24.633  1.00  0.00     0.068 A 
ATOM     13  C   UNL A   1      35.524  23.649  26.334  1.00  0.00     0.046 A 
ATOM     14  C   UNL A   1      34.821  23.138  23.624  1.00  0.00     0.029 A 
ATOM     15  C   UNL A   1      36.171  23.191  24.030  1.00  0.00     0.018 A 
BRANCH  10  16
ATOM     16  C   UNL A   1      31.581  22.778  23.607  1.00  0.00     0.130 C 
BRANCH  16  17
ATOM     17  C   UNL A   1      30.603  23.862  23.129  1.00  0.00     0.083 C 
BRANCH  17  18
ATOM     18  C   UNL A   1      30.939  25.367  23.286  1.00  0.00     0.264 C 
BRANCH  18  19
ATOM     19  N   UNL A   1      30.068  26.176  24.170  1.00  0.00    -0.331 N 
ATOM     20  C   UNL A   1      29.351  27.315  23.536  1.00  0.00     0.291 C 
ATOM     21  C   UNL A   1      30.858  26.774  25.283  1.00  0.00     0.291 C 
ATOM     22  H   UNL A   1      29.369  25.497  24.472  1.00  0.00     0.348 HD
ATOM     23  C   UNL A   1      30.224  28.551  23.191  1.00  0.00     0.221 C 
ATOM     24  C   UNL A   1      31.752  27.952  24.852  1.00  0.00     0.221 C 
ATOM     25  O   UNL A   1      30.946  29.018  24.333  1.00  0.00    -0.370 OA
ENDBRANCH  18  19
ENDBRANCH  17  18
ENDBRANCH  16  17
ENDBRANCH  10  16
ENDBRANCH   4   6
ENDBRANCH   3   4
ENDBRANCH   2   3
ENDBRANCH   1   2
BRANCH   1  26
ATOM     26  O   UNL A   1      40.709  19.890  27.020  1.00  0.00    -0.374 OA
BRANCH  26  27
ATOM     27  C   UNL A   1      42.097  19.576  27.178  1.00  0.00     0.202 C 
BRANCH  27  28
ATOM     28  C   UNL A   1      42.913  19.142  25.944  1.00  0.00     0.261 C 
BRANCH  28  29
ATOM     29  O   UNL A   1      43.185  20.255  25.075  1.00  0.00    -0.460 OA
BRANCH  29  30
ATOM     30  C   UNL A   1      44.463  20.721  25.075  1.00  0.00     0.338 C 
ATOM     31  O   UNL A   1      45.434  20.214  24.531  1.00  0.00    -0.246 OA
BRANCH  30  32
ATOM     32  C   UNL A   1      44.370  22.138  25.490  1.00  0.00     0.060 A 
ATOM     33  C   UNL A   1      45.106  22.609  26.581  1.00  0.00     0.016 A 
ATOM     34  C   UNL A   1      43.258  22.852  25.011  1.00  0.00     0.016 A 
ATOM     35  C   UNL A   1      44.650  23.734  27.261  1.00  0.00     0.010 A 
ATOM     36  C   UNL A   1      42.770  23.938  25.734  1.00  0.00     0.010 A 
ATOM     37  C   UNL A   1      43.438  24.353  26.889  1.00  0.00    -0.014 A 
BRANCH  37  38
ATOM     38  C   UNL A   1      43.054  25.595  27.572  1.00  0.00     0.031 A 
ATOM     39  C   UNL A   1      44.067  26.646  27.302  1.00  0.00     0.074 A 
ATOM     40  C   UNL A   1      41.925  25.882  28.263  1.00  0.00     0.049 A 
ATOM     41  N   UNL A   1      44.922  27.140  28.134  1.00  0.00    -0.248 NA
ATOM     42  C   UNL A   1      44.301  27.018  25.895  1.00  0.00     0.031 C 
ATOM     43  C   UNL A   1      40.713  25.076  28.425  1.00  0.00     0.029 A 
ATOM     44  N   UNL A   1      41.591  27.038  28.924  1.00  0.00    -0.354 N 
ATOM     45  C   UNL A   1      45.664  28.050  27.394  1.00  0.00     0.074 A 
ATOM     46  C   UNL A   1      45.395  27.766  26.008  1.00  0.00     0.031 C 
ATOM     47  C   UNL A   1      39.716  25.841  28.932  1.00  0.00     0.029 A 
ATOM     48  C   UNL A   1      40.236  27.159  29.246  1.00  0.00     0.049 A 
ATOM     49  H   UNL A   1      42.254  27.729  29.154  1.00  0.00     0.167 HD
ATOM     50  C   UNL A   1      46.228  29.144  27.972  1.00  0.00     0.031 A 
ATOM     51  C   UNL A   1      39.579  28.265  29.698  1.00  0.00     0.031 A 
ATOM     52  C   UNL A   1      46.320  29.002  29.401  1.00  0.00     0.049 A 
ATOM     53  C   UNL A   1      40.591  29.176  30.272  1.00  0.00     0.074 A 
ATOM     54  C   UNL A   1      46.949  28.115  30.251  1.00  0.00     0.029 A 
ATOM     55  N   UNL A   1      45.365  29.641  30.153  1.00  0.00    -0.354 N 
ATOM     56  N   UNL A   1      41.250  28.923  31.365  1.00  0.00    -0.248 NA
ATOM     57  C   UNL A   1      41.179  30.171  29.394  1.00  0.00     0.031 C 
ATOM     58  C   UNL A   1      46.047  27.940  31.338  1.00  0.00     0.029 A 
ATOM     59  C   UNL A   1      44.953  28.783  31.139  1.00  0.00     0.049 A 
ATOM     60  H   UNL A   1      45.034  30.557  30.009  1.00  0.00     0.167 HD
ATOM     61  C   UNL A   1      42.537  29.358  31.095  1.00  0.00     0.074 A 
ATOM     62  C   UNL A   1      42.411  30.200  29.906  1.00  0.00     0.031 C 
ATOM     63  C   UNL A   1      43.613  28.770  31.695  1.00  0.00     0.031 A 
BRANCH  50  64
ATOM     64  C   UNL A   1      46.316  30.476  27.269  1.00  0.00    -0.014 A 
ATOM     65  C   UNL A   1      45.184  31.237  26.902  1.00  0.00     0.010 A 
ATOM     66  C   UNL A   1      47.567  31.114  27.172  1.00  0.00     0.010 A 
ATOM     67  C   UNL A   1      45.286  32.543  26.427  1.00  0.00     0.020 A 
ATOM     68  C   UNL A   1      47.677  32.444  26.742  1.00  0.00     0.020 A 
ATOM     69  C   UNL A   1      46.534  33.142  26.355  1.00  0.00     0.054 A 
BRANCH  69  70
ATOM     70  S   UNL A   1      46.618  34.854  25.786  1.00  0.00     0.124 S 
ATOM     71  O   UNL A   1      46.640  35.585  27.051  1.00  0.00    -0.237 OA
ATOM     72  O   UNL A   1      47.866  34.871  25.029  1.00  0.00    -0.237 OA
ATOM     73  O   UNL A   1      45.402  35.011  24.994  1.00  0.00    -0.744 OA
ENDBRANCH  69  70
ENDBRANCH  50  64
BRANCH  51  74
ATOM     74  C   UNL A   1      38.237  28.790  29.304  1.00  0.00    -0.014 A 
ATOM     75  C   UNL A   1      38.046  29.314  28.012  1.00  0.00     0.010 A 
ATOM     76  C   UNL A   1      37.275  29.117  30.288  1.00  0.00     0.010 A 
ATOM     77  C   UNL A   1      37.010  30.217  27.738  1.00  0.00     0.020 A 
ATOM     78  C   UNL A   1      36.233  30.025  30.020  1.00  0.00     0.020 A 
ATOM     79  C   UNL A   1      36.139  30.606  28.756  1.00  0.00     0.054 A 
BRANCH  79  80
ATOM     80  S   UNL A   1      34.972  31.960  28.418  1.00  0.00     0.124 S 
ATOM     81  O   UNL A   1      33.890  31.262  27.729  1.00  0.00    -0.237 OA
ATOM     82  O   UNL A   1      34.649  32.444  29.759  1.00  0.00    -0.237 OA
ATOM     83  O   UNL A   1      35.742  32.889  27.594  1.00  0.00    -0.744 OA
ENDBRANCH  79  80
ENDBRANCH  51  74
BRANCH  63  84
ATOM     84  C   UNL A   1      43.384  27.863  32.889  1.00  0.00    -0.014 A 
ATOM     85  C   UNL A   1      43.125  28.487  34.122  1.00  0.00     0.010 A 
ATOM     86  C   UNL A   1      43.554  26.462  32.878  1.00  0.00     0.010 A 
ATOM     87  C   UNL A   1      43.060  27.754  35.308  1.00  0.00     0.020 A 
ATOM     88  C   UNL A   1      43.459  25.712  34.064  1.00  0.00     0.020 A 
ATOM     89  C   UNL A   1      43.230  26.370  35.275  1.00  0.00     0.054 A 
BRANCH  89  90
ATOM     90  S   UNL A   1      43.150  25.470  36.847  1.00  0.00     0.124 S 
ATOM     91  O   UNL A   1      44.030  26.263  37.705  1.00  0.00    -0.237 OA
ATOM     92  O   UNL A   1      41.729  25.539  37.185  1.00  0.00    -0.237 OA
ATOM     93  O   UNL A   1      43.641  24.134  36.521  1.00  0.00    -0.744 OA
ENDBRANCH  89  90
ENDBRANCH  63  84
ENDBRANCH  37  38
ENDBRANCH  30  32
ENDBRANCH  29  30
ENDBRANCH  28  29
ENDBRANCH  27  28
ENDBRANCH  26  27
ENDBRANCH   1  26
TORSDOF 21
ENDMDL
MODEL 3
REMARK VINA RESULT:     -11.3      1.973      4.087
REMARK SMILES Cc1nc2cc(C(=O)OCCOCCOC(=O)c3ccc(-c4c5nc(c(-c6ccc(S(=O)(=O)[O-])cc6)c6ccc([nH]6)c(-c6ccc(S(=O)(=O)[O-])cc6)c6nc(c(-c7ccc(S(=O)(=O)[O-])cc7)c7ccc4[nH]7)C=C6)C=C5)cc3)ccc2n1CCC[NH+]1CCOCC1
REMARK SMILES IDX 11 1 10 2 9 3 7 4 8 5 6 6 1 7 2 8 3 9 81 10 4 11 80 12 5 13
REMARK SMILES IDX 79 14 78 15 82 16 83 17 84 18 85 19 86 20 90 21 87 23 89 24
REMARK SMILES IDX 88 25 12 26 13 27 14 28 15 29 16 30 17 31 18 32 19 33 77 34
REMARK SMILES IDX 20 35 76 36 21 37 22 38 23 39 70 40 24 41 75 42 69 43 71 44
REMARK SMILES IDX 25 45 74 46 68 47 67 48 26 50 56 51 37 52 55 53 38 54 41 55
REMARK SMILES IDX 54 56 72 57 39 58 40 59 53 61 73 62 42 63 27 64 28 65 36 66
REMARK SMILES IDX 29 67 35 68 30 69 31 70 32 71 33 72 34 73 57 74 58 75 66 76
REMARK SMILES IDX 59 77 65 78 60 79 61 80 62 81 63 82 64 83 43 84 44 85 52 86
REMARK SMILES IDX 45 87 51 88 46 89 47 90 48 91 49 92 50 93
REMARK H PARENT 85 22 71 49 41 60
REMARK Flexibility Score: inf
ROOT
ATOM      1  C   UNL A   1      38.853  21.757  25.985  1.00  0.00     0.202 C 
ENDROOT
BRANCH   1   2
ATOM      2  C   UNL A   1      37.606  22.547  25.577  1.00  0.00     0.261 C 
BRANCH   2   3
ATOM      3  O   UNL A   1      36.402  21.982  26.090  1.00  0.00    -0.460 OA
BRANCH   3   4
ATOM      4  C   UNL A   1      35.786  21.200  25.179  1.00  0.00     0.338 C 
ATOM      5  O   UNL A   1      35.992  20.021  24.941  1.00  0.00    -0.246 OA
BRANCH   4   6
ATOM      6  C   UNL A   1      34.551  21.855  24.762  1.00  0.00     0.062 A 
ATOM      7  C   UNL A   1      32.491  25.885  21.168  1.00  0.00     0.088 C 
ATOM      8  C   UNL A   1      32.599  24.751  22.075  1.00  0.00     0.106 A 
ATOM      9  N   UNL A   1      33.566  23.892  21.912  1.00  0.00    -0.233 NA
ATOM     10  N   UNL A   1      31.857  24.504  23.217  1.00  0.00    -0.328 N 
ATOM     11  C   UNL A   1      33.613  23.222  23.076  1.00  0.00     0.090 A 
ATOM     12  C   UNL A   1      32.521  23.492  23.897  1.00  0.00     0.068 A 
ATOM     13  C   UNL A   1      34.641  22.404  23.490  1.00  0.00     0.046 A 
ATOM     14  C   UNL A   1      32.349  22.824  25.123  1.00  0.00     0.029 A 
ATOM     15  C   UNL A   1      33.405  21.991  25.548  1.00  0.00     0.018 A 
BRANCH  10  16
ATOM     16  C   UNL A   1      30.614  25.144  23.628  1.00  0.00     0.130 C 
BRANCH  16  17
ATOM     17  C   UNL A   1      30.695  26.308  24.626  1.00  0.00     0.083 C 
BRANCH  17  18
ATOM     18  C   UNL A   1      31.452  27.614  24.273  1.00  0.00     0.264 C 
BRANCH  18  19
ATOM     19  N   UNL A   1      32.657  27.946  25.068  1.00  0.00    -0.331 N 
ATOM     20  C   UNL A   1      32.641  27.545  26.499  1.00  0.00     0.291 C 
ATOM     21  C   UNL A   1      32.898  29.416  25.068  1.00  0.00     0.291 C 
ATOM     22  H   UNL A   1      33.385  27.404  24.601  1.00  0.00     0.348 HD
ATOM     23  C   UNL A   1      31.739  28.403  27.428  1.00  0.00     0.221 C 
ATOM     24  C   UNL A   1      31.922  30.209  25.959  1.00  0.00     0.221 C 
ATOM     25  O   UNL A   1      32.053  29.794  27.324  1.00  0.00    -0.370 OA
ENDBRANCH  18  19
ENDBRANCH  17  18
ENDBRANCH  16  17
ENDBRANCH  10  16
ENDBRANCH   4   6
ENDBRANCH   3   4
ENDBRANCH   2   3
ENDBRANCH   1   2
BRANCH   1  26
ATOM     26  O   UNL A   1      39.854  22.413  26.757  1.00  0.00    -0.374 OA
BRANCH  26  27
ATOM     27  C   UNL A   1      40.927  21.613  27.265  1.00  0.00     0.202 C 
BRANCH  27  28
ATOM     28  C   UNL A   1      42.065  21.192  26.315  1.00  0.00     0.261 C 
BRANCH  28  29
ATOM     29  O   UNL A   1      42.341  22.213  25.340  1.00  0.00    -0.460 OA
BRANCH  29  30
ATOM     30  C   UNL A   1      43.607  22.710  25.331  1.00  0.00     0.338 C 
ATOM     31  O   UNL A   1      44.567  22.275  24.710  1.00  0.00    -0.246 OA
BRANCH  30  32
ATOM     32  C   UNL A   1      43.500  24.086  25.866  1.00  0.00     0.060 A 
ATOM     33  C   UNL A   1      44.183  24.452  27.028  1.00  0.00     0.016 A 
ATOM     34  C   UNL A   1      42.416  24.849  25.398  1.00  0.00     0.016 A 
ATOM     35  C   UNL A   1      43.699  25.516  27.783  1.00  0.00     0.010 A 
ATOM     36  C   UNL A   1      41.897  25.870  26.191  1.00  0.00     0.010 A 
ATOM     37  C   UNL A   1      42.509  26.176  27.409  1.00  0.00    -0.014 A 
BRANCH  37  38
ATOM     38  C   UNL A   1      42.097  27.355  28.180  1.00  0.00     0.031 A 
ATOM     39  C   UNL A   1      43.121  28.421  28.046  1.00  0.00     0.074 A 
ATOM     40  C   UNL A   1      40.939  27.586  28.845  1.00  0.00     0.049 A 
ATOM     41  N   UNL A   1      43.940  28.837  28.953  1.00  0.00    -0.248 NA
ATOM     42  C   UNL A   1      43.415  28.913  26.688  1.00  0.00     0.031 C 
ATOM     43  C   UNL A   1      39.722  26.774  28.885  1.00  0.00     0.029 A 
ATOM     44  N   UNL A   1      40.578  28.681  29.589  1.00  0.00    -0.354 N 
ATOM     45  C   UNL A   1      44.713  29.805  28.327  1.00  0.00     0.074 A 
ATOM     46  C   UNL A   1      44.504  29.643  26.912  1.00  0.00     0.031 C 
ATOM     47  C   UNL A   1      38.704  27.496  29.414  1.00  0.00     0.029 A 
ATOM     48  C   UNL A   1      39.211  28.780  29.863  1.00  0.00     0.049 A 
ATOM     49  H   UNL A   1      41.231  29.347  29.906  1.00  0.00     0.167 HD
ATOM     50  C   UNL A   1      45.253  30.842  29.022  1.00  0.00     0.031 A 
ATOM     51  C   UNL A   1      38.536  29.845  30.381  1.00  0.00     0.031 A 
ATOM     52  C   UNL A   1      45.283  30.576  30.436  1.00  0.00     0.049 A 
ATOM     53  C   UNL A   1      39.523  30.699  31.074  1.00  0.00     0.074 A 
ATOM     54  C   UNL A   1      45.875  29.616  31.231  1.00  0.00     0.029 A 
ATOM     55  N   UNL A   1      44.298  31.152  31.199  1.00  0.00    -0.354 N 
ATOM     56  N   UNL A   1      40.134  30.349  32.168  1.00  0.00    -0.248 NA
ATOM     57  C   UNL A   1      40.148  31.764  30.312  1.00  0.00     0.031 C 
ATOM     58  C   UNL A   1      44.928  29.351  32.260  1.00  0.00     0.029 A 
ATOM     59  C   UNL A   1      43.843  30.213  32.088  1.00  0.00     0.049 A 
ATOM     60  H   UNL A   1      43.974  32.078  31.121  1.00  0.00     0.167 HD
ATOM     61  C   UNL A   1      41.432  30.800  31.992  1.00  0.00     0.074 A 
ATOM     62  C   UNL A   1      41.358  31.742  30.876  1.00  0.00     0.031 C 
ATOM     63  C   UNL A   1      42.481  30.157  32.583  1.00  0.00     0.031 A 
BRANCH  50  64
ATOM     64  C   UNL A   1      45.371  32.230  28.441  1.00  0.00    -0.014 A 
ATOM     65  C   UNL A   1      44.258  33.049  28.153  1.00  0.00     0.010 A 
ATOM     66  C   UNL A   1      46.638  32.843  28.394  1.00  0.00     0.010 A 
ATOM     67  C   UNL A   1      44.390  34.390  27.797  1.00  0.00     0.020 A 
ATOM     68  C   UNL A   1      46.780  34.203  28.085  1.00  0.00     0.020 A 
ATOM     69  C   UNL A   1      45.653  34.962  27.771  1.00  0.00     0.054 A 
BRANCH  69  70
ATOM     70  S   UNL A   1      45.778  36.716  27.359  1.00  0.00     0.124 S 
ATOM     71  O   UNL A   1      44.385  37.053  27.078  1.00  0.00    -0.237 OA
ATOM     72  O   UNL A   1      46.328  37.286  28.585  1.00  0.00    -0.237 OA
ATOM     73  O   UNL A   1      46.671  36.733  26.205  1.00  0.00    -0.744 OA
ENDBRANCH  69  70
ENDBRANCH  50  64
BRANCH  51  74
ATOM     74  C   UNL A   1      37.212  30.408  29.977  1.00  0.00    -0.014 A 
ATOM     75  C   UNL A   1      36.975  30.733  28.629  1.00  0.00     0.010 A 
ATOM     76  C   UNL A   1      36.342  30.965  30.944  1.00  0.00     0.010 A 
ATOM     77  C   UNL A   1      35.991  31.662  28.265  1.00  0.00     0.020 A 
ATOM     78  C   UNL A   1      35.353  31.901  30.586  1.00  0.00     0.020 A 
ATOM     79  C   UNL A   1      35.218  32.278  29.251  1.00  0.00     0.054 A 
BRANCH  79  80
ATOM     80  S   UNL A   1      34.132  33.651  28.756  1.00  0.00     0.124 S 
ATOM     81  O   UNL A   1      33.602  34.096  30.042  1.00  0.00    -0.237 OA
ATOM     82  O   UNL A   1      35.063  34.576  28.112  1.00  0.00    -0.237 OA
ATOM     83  O   UNL A   1      33.162  33.026  27.861  1.00  0.00    -0.744 OA
ENDBRANCH  79  80
ENDBRANCH  51  74
BRANCH  63  84
ATOM     84  C   UNL A   1      42.201  29.151  33.684  1.00  0.00    -0.014 A 
ATOM     85  C   UNL A   1      42.657  29.475  34.974  1.00  0.00     0.010 A 
ATOM     86  C   UNL A   1      41.651  27.868  33.477  1.00  0.00     0.010 A 
ATOM     87  C   UNL A   1      42.594  28.553  36.020  1.00  0.00     0.020 A 
ATOM     88  C   UNL A   1      41.555  26.943  34.533  1.00  0.00     0.020 A 
ATOM     89  C   UNL A   1      42.046  27.290  35.794  1.00  0.00     0.054 A 
BRANCH  89  90
ATOM     90  S   UNL A   1      42.003  26.127  37.185  1.00  0.00     0.124 S 
ATOM     91  O   UNL A   1      42.962  26.720  38.116  1.00  0.00    -0.237 OA
ATOM     92  O   UNL A   1      40.606  26.187  37.612  1.00  0.00    -0.237 OA
ATOM     93  O   UNL A   1      42.413  24.852  36.600  1.00  0.00    -0.744 OA
ENDBRANCH  89  90
ENDBRANCH  63  84
ENDBRANCH  37  38
ENDBRANCH  30  32
ENDBRANCH  29  30
ENDBRANCH  28  29
ENDBRANCH  27  28
ENDBRANCH  26  27
ENDBRANCH   1  26
TORSDOF 21
ENDMDL
