MODEL 1
REMARK VINA RESULT:     -10.0      0.000      0.000
REMARK SMILES O=C(OCCOCCOC(=O)[C@H](Cc1ccc(O)cc1)NC(=O)c1ccc(Cl)s1)c1ccc(-c2c3nc(c(-c4ccc(S(=O)(=O)[O-])cc4)c4ccc([nH]4)c(-c4ccc(S(=O)(=O)[O-])cc4)c4nc(c(-c5ccc(S(=O)(=O)[O-])cc5)c5ccc2[nH]5)C=C4)C=C3)cc1
REMARK SMILES IDX 6 1 5 2 4 3 3 4 2 5 1 6 30 7 31 8 89 9 32 10 88 11 33 12
REMARK SMILES IDX 34 13 35 14 82 15 36 16 87 17 81 18 83 19 37 20 86 21 80 22
REMARK SMILES IDX 79 23 38 25 68 26 49 27 67 28 50 29 53 30 66 31 84 32 51 33
REMARK SMILES IDX 52 34 65 36 85 37 54 38 39 39 40 40 48 41 41 42 47 43 42 44
REMARK SMILES IDX 43 45 44 46 45 47 46 48 69 49 70 50 78 51 71 52 77 53 72 54
REMARK SMILES IDX 73 55 74 56 75 57 76 58 55 59 56 60 64 61 57 62 63 63 58 64
REMARK SMILES IDX 59 65 60 66 61 67 62 68 7 69 8 70 9 71 10 72 11 73 12 74
REMARK SMILES IDX 21 75 22 76 23 78 24 79 25 80 29 81 26 82 27 83 28 84 13 85
REMARK SMILES IDX 14 86 15 87 20 88 16 89 19 90 17 91 18 92
REMARK H PARENT 83 24 53 35 21 77 18 93
REMARK Flexibility Score: inf
ROOT
ATOM      1  O   UNL A   1      38.195  22.235  25.471  1.00  0.00    -0.374 OA
ENDROOT
BRANCH   1   2
ATOM      2  C   UNL A   1      39.382  21.602  25.940  1.00  0.00     0.202 C 
BRANCH   2   3
ATOM      3  C   UNL A   1      40.288  22.484  26.794  1.00  0.00     0.261 C 
BRANCH   3   4
ATOM      4  O   UNL A   1      39.771  23.824  26.834  1.00  0.00    -0.460 OA
BRANCH   4   5
ATOM      5  C   UNL A   1      40.498  24.966  26.863  1.00  0.00     0.338 C 
ATOM      6  O   UNL A   1      41.371  25.141  26.016  1.00  0.00    -0.246 OA
BRANCH   5   7
ATOM      7  C   UNL A   1      40.297  26.012  27.905  1.00  0.00     0.060 A 
ATOM      8  C   UNL A   1      39.299  25.948  28.881  1.00  0.00     0.016 A 
ATOM      9  C   UNL A   1      41.246  27.040  27.986  1.00  0.00     0.016 A 
ATOM     10  C   UNL A   1      39.211  26.895  29.891  1.00  0.00     0.010 A 
ATOM     11  C   UNL A   1      41.200  27.964  29.034  1.00  0.00     0.010 A 
ATOM     12  C   UNL A   1      40.186  27.881  29.996  1.00  0.00    -0.014 A 
BRANCH  12  13
ATOM     13  C   UNL A   1      40.142  28.788  31.156  1.00  0.00     0.031 A 
ATOM     14  C   UNL A   1      39.150  29.904  31.171  1.00  0.00     0.074 A 
ATOM     15  C   UNL A   1      40.959  28.544  32.198  1.00  0.00     0.049 A 
ATOM     16  N   UNL A   1      39.025  30.875  32.031  1.00  0.00    -0.248 NA
ATOM     17  C   UNL A   1      38.162  29.928  30.079  1.00  0.00     0.031 C 
ATOM     18  C   UNL A   1      41.884  27.407  32.300  1.00  0.00     0.029 A 
ATOM     19  N   UNL A   1      41.141  29.219  33.374  1.00  0.00    -0.354 N 
ATOM     20  C   UNL A   1      37.975  31.653  31.565  1.00  0.00     0.074 A 
ATOM     21  C   UNL A   1      37.478  31.030  30.359  1.00  0.00     0.031 C 
ATOM     22  C   UNL A   1      42.523  27.461  33.479  1.00  0.00     0.029 A 
ATOM     23  C   UNL A   1      42.118  28.675  34.175  1.00  0.00     0.049 A 
ATOM     24  H   UNL A   1      40.622  30.019  33.624  1.00  0.00     0.167 HD
ATOM     25  C   UNL A   1      37.496  32.801  32.095  1.00  0.00     0.031 A 
ATOM     26  C   UNL A   1      42.665  29.143  35.313  1.00  0.00     0.031 A 
ATOM     27  C   UNL A   1      38.023  33.392  33.294  1.00  0.00     0.049 A 
ATOM     28  C   UNL A   1      42.173  30.467  35.829  1.00  0.00     0.074 A 
ATOM     29  C   UNL A   1      37.650  34.569  33.912  1.00  0.00     0.029 A 
ATOM     30  N   UNL A   1      39.051  32.844  34.051  1.00  0.00    -0.354 N 
ATOM     31  N   UNL A   1      41.200  31.218  35.363  1.00  0.00    -0.248 NA
ATOM     32  C   UNL A   1      42.864  31.026  36.996  1.00  0.00     0.031 C 
ATOM     33  C   UNL A   1      38.488  34.759  35.016  1.00  0.00     0.029 A 
ATOM     34  C   UNL A   1      39.351  33.677  35.112  1.00  0.00     0.049 A 
ATOM     35  H   UNL A   1      39.500  31.989  33.860  1.00  0.00     0.167 HD
ATOM     36  C   UNL A   1      41.169  32.343  36.175  1.00  0.00     0.074 A 
ATOM     37  C   UNL A   1      42.195  32.156  37.184  1.00  0.00     0.031 C 
ATOM     38  C   UNL A   1      40.382  33.443  36.091  1.00  0.00     0.031 A 
BRANCH  25  39
ATOM     39  C   UNL A   1      36.422  33.524  31.335  1.00  0.00    -0.014 A 
ATOM     40  C   UNL A   1      36.560  33.828  29.970  1.00  0.00     0.010 A 
ATOM     41  C   UNL A   1      35.240  33.889  32.005  1.00  0.00     0.010 A 
ATOM     42  C   UNL A   1      35.539  34.506  29.294  1.00  0.00     0.020 A 
ATOM     43  C   UNL A   1      34.212  34.551  31.329  1.00  0.00     0.020 A 
ATOM     44  C   UNL A   1      34.374  34.865  29.978  1.00  0.00     0.054 A 
BRANCH  44  45
ATOM     45  S   UNL A   1      33.054  35.719  29.072  1.00  0.00     0.124 S 
ATOM     46  O   UNL A   1      33.797  36.768  28.378  1.00  0.00    -0.237 OA
ATOM     47  O   UNL A   1      32.517  34.662  28.218  1.00  0.00    -0.237 OA
ATOM     48  O   UNL A   1      32.155  36.185  30.123  1.00  0.00    -0.744 OA
ENDBRANCH  44  45
ENDBRANCH  25  39
BRANCH  26  49
ATOM     49  C   UNL A   1      43.803  28.431  35.962  1.00  0.00    -0.014 A 
ATOM     50  C   UNL A   1      43.585  27.458  36.954  1.00  0.00     0.010 A 
ATOM     51  C   UNL A   1      45.127  28.749  35.604  1.00  0.00     0.010 A 
ATOM     52  C   UNL A   1      44.668  26.845  37.596  1.00  0.00     0.020 A 
ATOM     53  C   UNL A   1      46.211  28.115  36.219  1.00  0.00     0.020 A 
ATOM     54  C   UNL A   1      45.974  27.181  37.228  1.00  0.00     0.054 A 
BRANCH  54  55
ATOM     55  S   UNL A   1      47.367  26.372  38.064  1.00  0.00     0.124 S 
ATOM     56  O   UNL A   1      46.990  26.498  39.468  1.00  0.00    -0.237 OA
ATOM     57  O   UNL A   1      47.327  25.020  37.516  1.00  0.00    -0.237 OA
ATOM     58  O   UNL A   1      48.520  27.169  37.651  1.00  0.00    -0.744 OA
ENDBRANCH  54  55
ENDBRANCH  26  49
BRANCH  38  59
ATOM     59  C   UNL A   1      40.604  34.515  37.115  1.00  0.00    -0.014 A 
ATOM     60  C   UNL A   1      39.894  34.503  38.328  1.00  0.00     0.010 A 
ATOM     61  C   UNL A   1      41.590  35.493  36.896  1.00  0.00     0.010 A 
ATOM     62  C   UNL A   1      40.160  35.461  39.305  1.00  0.00     0.020 A 
ATOM     63  C   UNL A   1      41.875  36.438  37.881  1.00  0.00     0.020 A 
ATOM     64  C   UNL A   1      41.152  36.421  39.077  1.00  0.00     0.054 A 
BRANCH  64  65
ATOM     65  S   UNL A   1      41.536  37.607  40.392  1.00  0.00     0.124 S 
ATOM     66  O   UNL A   1      41.353  36.798  41.593  1.00  0.00    -0.237 OA
ATOM     67  O   UNL A   1      42.915  37.985  40.091  1.00  0.00    -0.237 OA
ATOM     68  O   UNL A   1      40.550  38.669  40.198  1.00  0.00    -0.744 OA
ENDBRANCH  64  65
ENDBRANCH  38  59
ENDBRANCH  12  13
ENDBRANCH   5   7
ENDBRANCH   4   5
ENDBRANCH   3   4
ENDBRANCH   2   3
ENDBRANCH   1   2
BRANCH   1  69
ATOM     69  C   UNL A   1      36.961  21.762  26.031  1.00  0.00     0.202 C 
BRANCH  69  70
ATOM     70  C   UNL A   1      36.249  20.932  24.960  1.00  0.00     0.261 C 
BRANCH  70  71
ATOM     71  O   UNL A   1      35.122  21.706  24.520  1.00  0.00    -0.462 OA
BRANCH  71  72
ATOM     72  C   UNL A   1      34.017  21.647  25.325  1.00  0.00     0.329 C 
ATOM     73  O   UNL A   1      33.600  20.657  25.908  1.00  0.00    -0.250 OA
BRANCH  72  74
ATOM     74  C   UNL A   1      33.343  23.017  25.333  1.00  0.00     0.197 C 
BRANCH  74  75
ATOM     75  N   UNL A   1      32.326  22.985  26.381  1.00  0.00    -0.338 N 
ATOM     76  C   UNL A   1      31.069  23.542  26.393  1.00  0.00     0.262 C 
ATOM     77  H   UNL A   1      32.577  22.495  27.196  1.00  0.00     0.164 HD
ATOM     78  O   UNL A   1      30.368  23.350  27.377  1.00  0.00    -0.268 OA
BRANCH  76  79
ATOM     79  C   UNL A   1      30.665  24.366  25.267  1.00  0.00     0.093 A 
ATOM     80  C   UNL A   1      30.654  24.093  23.909  1.00  0.00     0.027 A 
ATOM     81  S   UNL A   1      30.084  25.950  25.587  1.00  0.00    -0.118 S 
ATOM     82  C   UNL A   1      30.304  25.236  23.131  1.00  0.00     0.033 A 
ATOM     83  C   UNL A   1      29.988  26.299  23.936  1.00  0.00     0.094 A 
ATOM     84  Cl  UNL A   1      29.527  27.871  23.422  1.00  0.00    -0.072 Cl
ENDBRANCH  76  79
ENDBRANCH  74  75
BRANCH  74  85
ATOM     85  C   UNL A   1      34.378  24.138  25.549  1.00  0.00     0.072 C 
BRANCH  85  86
ATOM     86  C   UNL A   1      33.995  25.529  25.067  1.00  0.00    -0.045 A 
ATOM     87  C   UNL A   1      33.716  26.521  26.024  1.00  0.00     0.007 A 
ATOM     88  C   UNL A   1      33.954  25.898  23.715  1.00  0.00     0.007 A 
ATOM     89  C   UNL A   1      33.338  27.813  25.637  1.00  0.00     0.046 A 
ATOM     90  C   UNL A   1      33.559  27.180  23.324  1.00  0.00     0.046 A 
ATOM     91  C   UNL A   1      33.241  28.123  24.286  1.00  0.00     0.115 A 
BRANCH  91  92
ATOM     92  O   UNL A   1      32.838  29.353  23.860  1.00  0.00    -0.508 OA
ATOM     93  H   UNL A   1      33.475  29.990  23.599  1.00  0.00     0.293 HD
ENDBRANCH  91  92
ENDBRANCH  85  86
ENDBRANCH  74  85
ENDBRANCH  72  74
ENDBRANCH  71  72
ENDBRANCH  70  71
ENDBRANCH  69  70
ENDBRANCH   1  69
TORSDOF 22
ENDMDL
MODEL 2
REMARK VINA RESULT:     -10.0      2.588      8.695
REMARK SMILES O=C(OCCOCCOC(=O)[C@H](Cc1ccc(O)cc1)NC(=O)c1ccc(Cl)s1)c1ccc(-c2c3nc(c(-c4ccc(S(=O)(=O)[O-])cc4)c4ccc([nH]4)c(-c4ccc(S(=O)(=O)[O-])cc4)c4nc(c(-c5ccc(S(=O)(=O)[O-])cc5)c5ccc2[nH]5)C=C4)C=C3)cc1
REMARK SMILES IDX 6 1 5 2 4 3 3 4 2 5 1 6 30 7 31 8 89 9 32 10 88 11 33 12
REMARK SMILES IDX 34 13 35 14 82 15 36 16 87 17 81 18 83 19 37 20 86 21 80 22
REMARK SMILES IDX 79 23 38 25 68 26 49 27 67 28 50 29 53 30 66 31 84 32 51 33
REMARK SMILES IDX 52 34 65 36 85 37 54 38 39 39 40 40 48 41 41 42 47 43 42 44
REMARK SMILES IDX 43 45 44 46 45 47 46 48 69 49 70 50 78 51 71 52 77 53 72 54
REMARK SMILES IDX 73 55 74 56 75 57 76 58 55 59 56 60 64 61 57 62 63 63 58 64
REMARK SMILES IDX 59 65 60 66 61 67 62 68 7 69 8 70 9 71 10 72 11 73 12 74
REMARK SMILES IDX 21 75 22 76 23 78 24 79 25 80 29 81 26 82 27 83 28 84 13 85
REMARK SMILES IDX 14 86 15 87 20 88 16 89 19 90 17 91 18 92
REMARK H PARENT 83 24 53 35 21 77 18 93
REMARK Flexibility Score: inf
ROOT
ATOM      1  O   UNL A   1      34.096  21.947  24.376  1.00  0.00    -0.374 OA
ENDROOT
BRANCH   1   2
ATOM      2  C   UNL A   1      35.409  22.478  24.223  1.00  0.00     0.202 C 
BRANCH   2   3
ATOM      3  C   UNL A   1      36.080  22.920  25.520  1.00  0.00     0.261 C 
BRANCH   3   4
ATOM      4  O   UNL A   1      37.335  23.555  25.231  1.00  0.00    -0.460 OA
BRANCH   4   5
ATOM      5  C   UNL A   1      38.513  23.333  25.862  1.00  0.00     0.338 C 
ATOM      6  O   UNL A   1      39.053  22.235  25.751  1.00  0.00    -0.246 OA
BRANCH   5   7
ATOM      7  C   UNL A   1      39.169  24.367  26.711  1.00  0.00     0.060 A 
ATOM      8  C   UNL A   1      40.022  25.354  26.206  1.00  0.00     0.016 A 
ATOM      9  C   UNL A   1      38.800  24.431  28.060  1.00  0.00     0.016 A 
ATOM     10  C   UNL A   1      40.532  26.355  27.018  1.00  0.00     0.010 A 
ATOM     11  C   UNL A   1      39.262  25.471  28.872  1.00  0.00     0.010 A 
ATOM     12  C   UNL A   1      40.120  26.443  28.344  1.00  0.00    -0.014 A 
BRANCH  12  13
ATOM     13  C   UNL A   1      40.572  27.595  29.142  1.00  0.00     0.031 A 
ATOM     14  C   UNL A   1      41.906  27.540  29.810  1.00  0.00     0.074 A 
ATOM     15  C   UNL A   1      39.791  28.691  29.195  1.00  0.00     0.049 A 
ATOM     16  N   UNL A   1      42.438  28.388  30.645  1.00  0.00    -0.248 NA
ATOM     17  C   UNL A   1      42.761  26.384  29.491  1.00  0.00     0.031 C 
ATOM     18  C   UNL A   1      38.519  28.858  28.480  1.00  0.00     0.029 A 
ATOM     19  N   UNL A   1      39.949  29.875  29.862  1.00  0.00    -0.354 N 
ATOM     20  C   UNL A   1      43.670  27.850  30.988  1.00  0.00     0.074 A 
ATOM     21  C   UNL A   1      43.822  26.614  30.254  1.00  0.00     0.031 C 
ATOM     22  C   UNL A   1      38.022  30.078  28.740  1.00  0.00     0.029 A 
ATOM     23  C   UNL A   1      38.892  30.742  29.701  1.00  0.00     0.049 A 
ATOM     24  H   UNL A   1      40.742  30.087  30.406  1.00  0.00     0.167 HD
ATOM     25  C   UNL A   1      44.574  28.344  31.864  1.00  0.00     0.031 A 
ATOM     26  C   UNL A   1      38.633  31.913  30.311  1.00  0.00     0.031 A 
ATOM     27  C   UNL A   1      44.382  29.575  32.581  1.00  0.00     0.049 A 
ATOM     28  C   UNL A   1      39.614  32.391  31.346  1.00  0.00     0.074 A 
ATOM     29  C   UNL A   1      45.206  30.163  33.521  1.00  0.00     0.029 A 
ATOM     30  N   UNL A   1      43.275  30.401  32.436  1.00  0.00    -0.354 N 
ATOM     31  N   UNL A   1      40.764  31.858  31.694  1.00  0.00    -0.248 NA
ATOM     32  C   UNL A   1      39.255  33.601  32.095  1.00  0.00     0.031 C 
ATOM     33  C   UNL A   1      44.570  31.321  33.982  1.00  0.00     0.029 A 
ATOM     34  C   UNL A   1      43.374  31.477  33.296  1.00  0.00     0.049 A 
ATOM     35  H   UNL A   1      42.529  30.242  31.813  1.00  0.00     0.167 HD
ATOM     36  C   UNL A   1      41.263  32.664  32.707  1.00  0.00     0.074 A 
ATOM     37  C   UNL A   1      40.307  33.741  32.891  1.00  0.00     0.031 C 
ATOM     38  C   UNL A   1      42.395  32.525  33.439  1.00  0.00     0.031 A 
BRANCH  25  39
ATOM     39  C   UNL A   1      45.790  27.511  32.154  1.00  0.00    -0.014 A 
ATOM     40  C   UNL A   1      45.900  26.750  33.330  1.00  0.00     0.010 A 
ATOM     41  C   UNL A   1      46.835  27.479  31.214  1.00  0.00     0.010 A 
ATOM     42  C   UNL A   1      47.048  25.987  33.569  1.00  0.00     0.020 A 
ATOM     43  C   UNL A   1      47.976  26.706  31.442  1.00  0.00     0.020 A 
ATOM     44  C   UNL A   1      48.079  25.972  32.625  1.00  0.00     0.054 A 
BRANCH  44  45
ATOM     45  S   UNL A   1      49.546  24.954  32.946  1.00  0.00     0.124 S 
ATOM     46  O   UNL A   1      50.117  24.818  31.608  1.00  0.00    -0.237 OA
ATOM     47  O   UNL A   1      50.314  25.782  33.874  1.00  0.00    -0.237 OA
ATOM     48  O   UNL A   1      49.000  23.726  33.517  1.00  0.00    -0.744 OA
ENDBRANCH  44  45
ENDBRANCH  25  39
BRANCH  26  49
ATOM     49  C   UNL A   1      37.355  32.639  30.058  1.00  0.00    -0.014 A 
ATOM     50  C   UNL A   1      36.180  32.313  30.757  1.00  0.00     0.010 A 
ATOM     51  C   UNL A   1      37.304  33.653  29.081  1.00  0.00     0.010 A 
ATOM     52  C   UNL A   1      34.975  32.963  30.462  1.00  0.00     0.020 A 
ATOM     53  C   UNL A   1      36.111  34.327  28.806  1.00  0.00     0.020 A 
ATOM     54  C   UNL A   1      34.947  33.962  29.484  1.00  0.00     0.054 A 
BRANCH  54  55
ATOM     55  S   UNL A   1      33.380  34.800  29.117  1.00  0.00     0.124 S 
ATOM     56  O   UNL A   1      32.771  33.891  28.153  1.00  0.00    -0.237 OA
ATOM     57  O   UNL A   1      32.736  34.861  30.426  1.00  0.00    -0.237 OA
ATOM     58  O   UNL A   1      33.804  36.092  28.580  1.00  0.00    -0.744 OA
ENDBRANCH  54  55
ENDBRANCH  26  49
BRANCH  38  59
ATOM     59  C   UNL A   1      42.653  33.559  34.493  1.00  0.00    -0.014 A 
ATOM     60  C   UNL A   1      42.903  34.896  34.135  1.00  0.00     0.010 A 
ATOM     61  C   UNL A   1      42.563  33.207  35.851  1.00  0.00     0.010 A 
ATOM     62  C   UNL A   1      43.069  35.865  35.124  1.00  0.00     0.020 A 
ATOM     63  C   UNL A   1      42.704  34.179  36.840  1.00  0.00     0.020 A 
ATOM     64  C   UNL A   1      42.964  35.501  36.471  1.00  0.00     0.054 A 
BRANCH  64  65
ATOM     65  S   UNL A   1      43.104  36.791  37.736  1.00  0.00     0.124 S 
ATOM     66  O   UNL A   1      41.717  37.223  37.883  1.00  0.00    -0.237 OA
ATOM     67  O   UNL A   1      43.662  36.065  38.874  1.00  0.00    -0.237 OA
ATOM     68  O   UNL A   1      44.004  37.772  37.131  1.00  0.00    -0.744 OA
ENDBRANCH  64  65
ENDBRANCH  38  59
ENDBRANCH  12  13
ENDBRANCH   5   7
ENDBRANCH   4   5
ENDBRANCH   3   4
ENDBRANCH   2   3
ENDBRANCH   1   2
BRANCH   1  69
ATOM     69  C   UNL A   1      33.583  21.905  25.716  1.00  0.00     0.202 C 
BRANCH  69  70
ATOM     70  C   UNL A   1      32.066  21.718  25.631  1.00  0.00     0.261 C 
BRANCH  70  71
ATOM     71  O   UNL A   1      31.517  22.977  25.214  1.00  0.00    -0.462 OA
BRANCH  71  72
ATOM     72  C   UNL A   1      30.877  23.693  26.189  1.00  0.00     0.329 C 
ATOM     73  O   UNL A   1      30.318  23.231  27.173  1.00  0.00    -0.250 OA
BRANCH  72  74
ATOM     74  C   UNL A   1      30.919  25.173  25.820  1.00  0.00     0.197 C 
BRANCH  74  75
ATOM     75  N   UNL A   1      29.694  25.464  25.081  1.00  0.00    -0.338 N 
ATOM     76  C   UNL A   1      29.478  26.375  24.074  1.00  0.00     0.262 C 
ATOM     77  H   UNL A   1      28.909  24.931  25.341  1.00  0.00     0.164 HD
ATOM     78  O   UNL A   1      28.365  26.417  23.569  1.00  0.00    -0.268 OA
BRANCH  76  79
ATOM     79  C   UNL A   1      30.562  27.269  23.703  1.00  0.00     0.093 A 
ATOM     80  C   UNL A   1      30.687  28.641  23.846  1.00  0.00     0.027 A 
ATOM     81  S   UNL A   1      31.959  26.592  22.968  1.00  0.00    -0.118 S 
ATOM     82  C   UNL A   1      31.867  29.144  23.222  1.00  0.00     0.033 A 
ATOM     83  C   UNL A   1      32.622  28.124  22.706  1.00  0.00     0.094 A 
ATOM     84  Cl  UNL A   1      34.107  28.276  21.860  1.00  0.00    -0.072 Cl
ENDBRANCH  76  79
ENDBRANCH  74  75
BRANCH  74  85
ATOM     85  C   UNL A   1      31.073  26.049  27.078  1.00  0.00     0.072 C 
BRANCH  85  86
ATOM     86  C   UNL A   1      31.985  27.261  26.964  1.00  0.00    -0.045 A 
ATOM     87  C   UNL A   1      31.532  28.496  27.460  1.00  0.00     0.007 A 
ATOM     88  C   UNL A   1      33.283  27.208  26.436  1.00  0.00     0.007 A 
ATOM     89  C   UNL A   1      32.322  29.649  27.362  1.00  0.00     0.046 A 
ATOM     90  C   UNL A   1      34.068  28.358  26.321  1.00  0.00     0.046 A 
ATOM     91  C   UNL A   1      33.577  29.572  26.771  1.00  0.00     0.115 A 
BRANCH  91  92
ATOM     92  O   UNL A   1      34.365  30.672  26.617  1.00  0.00    -0.508 OA
ATOM     93  H   UNL A   1      35.280  30.624  26.813  1.00  0.00     0.293 HD
ENDBRANCH  91  92
ENDBRANCH  85  86
ENDBRANCH  74  85
ENDBRANCH  72  74
ENDBRANCH  71  72
ENDBRANCH  70  71
ENDBRANCH  69  70
ENDBRANCH   1  69
TORSDOF 22
ENDMDL
MODEL 3
REMARK VINA RESULT:      -9.9      5.996      7.496
REMARK SMILES O=C(OCCOCCOC(=O)[C@H](Cc1ccc(O)cc1)NC(=O)c1ccc(Cl)s1)c1ccc(-c2c3nc(c(-c4ccc(S(=O)(=O)[O-])cc4)c4ccc([nH]4)c(-c4ccc(S(=O)(=O)[O-])cc4)c4nc(c(-c5ccc(S(=O)(=O)[O-])cc5)c5ccc2[nH]5)C=C4)C=C3)cc1
REMARK SMILES IDX 6 1 5 2 4 3 3 4 2 5 1 6 30 7 31 8 89 9 32 10 88 11 33 12
REMARK SMILES IDX 34 13 35 14 82 15 36 16 87 17 81 18 83 19 37 20 86 21 80 22
REMARK SMILES IDX 79 23 38 25 68 26 49 27 67 28 50 29 53 30 66 31 84 32 51 33
REMARK SMILES IDX 52 34 65 36 85 37 54 38 39 39 40 40 48 41 41 42 47 43 42 44
REMARK SMILES IDX 43 45 44 46 45 47 46 48 69 49 70 50 78 51 71 52 77 53 72 54
REMARK SMILES IDX 73 55 74 56 75 57 76 58 55 59 56 60 64 61 57 62 63 63 58 64
REMARK SMILES IDX 59 65 60 66 61 67 62 68 7 69 8 70 9 71 10 72 11 73 12 74
REMARK SMILES IDX 21 75 22 76 23 78 24 79 25 80 29 81 26 82 27 83 28 84 13 85
REMARK SMILES IDX 14 86 15 87 20 88 16 89 19 90 17 91 18 92
REMARK H PARENT 83 24 53 35 21 77 18 93
REMARK Flexibility Score: inf
ROOT
ATOM      1  O   UNL A   1      36.965  21.238  24.594  1.00  0.00    -0.374 OA
ENDROOT
BRANCH   1   2
ATOM      2  C   UNL A   1      38.138  21.584  25.326  1.00  0.00     0.202 C 
BRANCH   2   3
ATOM      3  C   UNL A   1      39.050  20.410  25.670  1.00  0.00     0.261 C 
BRANCH   3   4
ATOM      4  O   UNL A   1      40.370  20.888  25.974  1.00  0.00    -0.460 OA
BRANCH   4   5
ATOM      5  C   UNL A   1      40.860  21.167  27.206  1.00  0.00     0.338 C 
ATOM      6  O   UNL A   1      40.880  20.281  28.057  1.00  0.00    -0.246 OA
BRANCH   5   7
ATOM      7  C   UNL A   1      41.356  22.522  27.578  1.00  0.00     0.060 A 
ATOM      8  C   UNL A   1      42.197  22.765  28.667  1.00  0.00     0.016 A 
ATOM      9  C   UNL A   1      41.070  23.581  26.706  1.00  0.00     0.016 A 
ATOM     10  C   UNL A   1      42.713  24.027  28.918  1.00  0.00     0.010 A 
ATOM     11  C   UNL A   1      41.632  24.843  26.917  1.00  0.00     0.010 A 
ATOM     12  C   UNL A   1      42.467  25.062  28.020  1.00  0.00    -0.014 A 
BRANCH  12  13
ATOM     13  C   UNL A   1      43.139  26.354  28.240  1.00  0.00     0.031 A 
ATOM     14  C   UNL A   1      42.359  27.493  28.807  1.00  0.00     0.074 A 
ATOM     15  C   UNL A   1      44.457  26.450  27.980  1.00  0.00     0.049 A 
ATOM     16  N   UNL A   1      42.724  28.734  28.969  1.00  0.00    -0.248 NA
ATOM     17  C   UNL A   1      40.989  27.199  29.262  1.00  0.00     0.031 C 
ATOM     18  C   UNL A   1      45.311  25.345  27.522  1.00  0.00     0.029 A 
ATOM     19  N   UNL A   1      45.316  27.511  28.072  1.00  0.00    -0.354 N 
ATOM     20  C   UNL A   1      41.618  29.381  29.501  1.00  0.00     0.074 A 
ATOM     21  C   UNL A   1      40.575  28.394  29.661  1.00  0.00     0.031 C 
ATOM     22  C   UNL A   1      46.571  25.788  27.386  1.00  0.00     0.029 A 
ATOM     23  C   UNL A   1      46.597  27.218  27.663  1.00  0.00     0.049 A 
ATOM     24  H   UNL A   1      45.044  28.399  28.398  1.00  0.00     0.167 HD
ATOM     25  C   UNL A   1      41.491  30.694  29.800  1.00  0.00     0.031 A 
ATOM     26  C   UNL A   1      47.654  28.031  27.478  1.00  0.00     0.031 A 
ATOM     27  C   UNL A   1      42.553  31.647  29.620  1.00  0.00     0.049 A 
ATOM     28  C   UNL A   1      47.455  29.500  27.733  1.00  0.00     0.074 A 
ATOM     29  C   UNL A   1      42.539  33.008  29.851  1.00  0.00     0.029 A 
ATOM     30  N   UNL A   1      43.820  31.327  29.152  1.00  0.00    -0.354 N 
ATOM     31  N   UNL A   1      46.392  30.114  28.205  1.00  0.00    -0.248 NA
ATOM     32  C   UNL A   1      48.573  30.390  27.405  1.00  0.00     0.031 C 
ATOM     33  C   UNL A   1      43.784  33.520  29.473  1.00  0.00     0.029 A 
ATOM     34  C   UNL A   1      44.588  32.471  29.051  1.00  0.00     0.049 A 
ATOM     35  H   UNL A   1      44.127  30.419  28.924  1.00  0.00     0.167 HD
ATOM     36  C   UNL A   1      46.713  31.464  28.222  1.00  0.00     0.074 A 
ATOM     37  C   UNL A   1      48.080  31.573  27.748  1.00  0.00     0.031 C 
ATOM     38  C   UNL A   1      45.947  32.525  28.575  1.00  0.00     0.031 A 
BRANCH  25  39
ATOM     39  C   UNL A   1      40.146  31.178  30.259  1.00  0.00    -0.014 A 
ATOM     40  C   UNL A   1      39.069  31.321  29.368  1.00  0.00     0.010 A 
ATOM     41  C   UNL A   1      39.956  31.477  31.620  1.00  0.00     0.010 A 
ATOM     42  C   UNL A   1      37.829  31.776  29.830  1.00  0.00     0.020 A 
ATOM     43  C   UNL A   1      38.715  31.915  32.088  1.00  0.00     0.020 A 
ATOM     44  C   UNL A   1      37.662  32.073  31.186  1.00  0.00     0.054 A 
BRANCH  44  45
ATOM     45  S   UNL A   1      36.037  32.636  31.764  1.00  0.00     0.124 S 
ATOM     46  O   UNL A   1      35.175  32.270  30.643  1.00  0.00    -0.237 OA
ATOM     47  O   UNL A   1      35.843  31.857  32.985  1.00  0.00    -0.237 OA
ATOM     48  O   UNL A   1      36.218  34.071  31.967  1.00  0.00    -0.744 OA
ENDBRANCH  44  45
ENDBRANCH  25  39
BRANCH  26  49
ATOM     49  C   UNL A   1      48.931  27.506  26.917  1.00  0.00    -0.014 A 
ATOM     50  C   UNL A   1      49.151  27.452  25.530  1.00  0.00     0.010 A 
ATOM     51  C   UNL A   1      49.934  27.025  27.782  1.00  0.00     0.010 A 
ATOM     52  C   UNL A   1      50.332  26.898  25.020  1.00  0.00     0.020 A 
ATOM     53  C   UNL A   1      51.128  26.502  27.279  1.00  0.00     0.020 A 
ATOM     54  C   UNL A   1      51.311  26.421  25.898  1.00  0.00     0.054 A 
BRANCH  54  55
ATOM     55  S   UNL A   1      52.839  25.712  25.222  1.00  0.00     0.124 S 
ATOM     56  O   UNL A   1      52.720  24.312  25.613  1.00  0.00    -0.237 OA
ATOM     57  O   UNL A   1      52.713  25.985  23.793  1.00  0.00    -0.237 OA
ATOM     58  O   UNL A   1      53.892  26.466  25.901  1.00  0.00    -0.744 OA
ENDBRANCH  54  55
ENDBRANCH  26  49
BRANCH  38  59
ATOM     59  C   UNL A   1      46.576  33.881  28.462  1.00  0.00    -0.014 A 
ATOM     60  C   UNL A   1      46.399  34.656  27.303  1.00  0.00     0.010 A 
ATOM     61  C   UNL A   1      47.280  34.415  29.556  1.00  0.00     0.010 A 
ATOM     62  C   UNL A   1      46.926  35.945  27.236  1.00  0.00     0.020 A 
ATOM     63  C   UNL A   1      47.787  35.713  29.500  1.00  0.00     0.020 A 
ATOM     64  C   UNL A   1      47.613  36.468  28.337  1.00  0.00     0.054 A 
BRANCH  64  65
ATOM     65  S   UNL A   1      48.221  38.173  28.256  1.00  0.00     0.124 S 
ATOM     66  O   UNL A   1      47.244  38.882  29.079  1.00  0.00    -0.237 OA
ATOM     67  O   UNL A   1      49.562  38.064  28.826  1.00  0.00    -0.237 OA
ATOM     68  O   UNL A   1      48.182  38.487  26.830  1.00  0.00    -0.744 OA
ENDBRANCH  64  65
ENDBRANCH  38  59
ENDBRANCH  12  13
ENDBRANCH   5   7
ENDBRANCH   4   5
ENDBRANCH   3   4
ENDBRANCH   2   3
ENDBRANCH   1   2
BRANCH   1  69
ATOM     69  C   UNL A   1      36.309  20.024  24.987  1.00  0.00     0.202 C 
BRANCH  69  70
ATOM     70  C   UNL A   1      34.802  20.231  24.823  1.00  0.00     0.261 C 
BRANCH  70  71
ATOM     71  O   UNL A   1      34.563  21.641  24.952  1.00  0.00    -0.462 OA
BRANCH  71  72
ATOM     72  C   UNL A   1      33.939  22.030  26.107  1.00  0.00     0.329 C 
ATOM     73  O   UNL A   1      33.880  21.390  27.146  1.00  0.00    -0.250 OA
BRANCH  72  74
ATOM     74  C   UNL A   1      33.269  23.382  25.872  1.00  0.00     0.197 C 
BRANCH  74  75
ATOM     75  N   UNL A   1      32.069  23.413  26.703  1.00  0.00    -0.338 N 
ATOM     76  C   UNL A   1      30.824  23.920  26.418  1.00  0.00     0.262 C 
ATOM     77  H   UNL A   1      32.166  23.014  27.597  1.00  0.00     0.164 HD
ATOM     78  O   UNL A   1      29.948  23.798  27.263  1.00  0.00    -0.268 OA
BRANCH  76  79
ATOM     79  C   UNL A   1      30.630  24.614  25.157  1.00  0.00     0.093 A 
ATOM     80  C   UNL A   1      30.731  24.158  23.852  1.00  0.00     0.027 A 
ATOM     81  S   UNL A   1      30.195  26.275  25.202  1.00  0.00    -0.118 S 
ATOM     82  C   UNL A   1      30.590  25.211  22.899  1.00  0.00     0.033 A 
ATOM     83  C   UNL A   1      30.309  26.399  23.520  1.00  0.00     0.094 A 
ATOM     84  Cl  UNL A   1      30.078  27.921  22.761  1.00  0.00    -0.072 Cl
ENDBRANCH  76  79
ENDBRANCH  74  75
BRANCH  74  85
ATOM     85  C   UNL A   1      34.238  24.537  26.189  1.00  0.00     0.072 C 
BRANCH  85  86
ATOM     86  C   UNL A   1      34.010  25.847  25.448  1.00  0.00    -0.045 A 
ATOM     87  C   UNL A   1      33.790  27.016  26.197  1.00  0.00     0.007 A 
ATOM     88  C   UNL A   1      34.059  25.967  24.052  1.00  0.00     0.007 A 
ATOM     89  C   UNL A   1      33.553  28.245  25.567  1.00  0.00     0.046 A 
ATOM     90  C   UNL A   1      33.806  27.187  23.419  1.00  0.00     0.046 A 
ATOM     91  C   UNL A   1      33.542  28.313  24.180  1.00  0.00     0.115 A 
BRANCH  91  92
ATOM     92  O   UNL A   1      33.277  29.476  23.521  1.00  0.00    -0.508 OA
ATOM     93  H   UNL A   1      33.899  29.820  22.910  1.00  0.00     0.293 HD
ENDBRANCH  91  92
ENDBRANCH  85  86
ENDBRANCH  74  85
ENDBRANCH  72  74
ENDBRANCH  71  72
ENDBRANCH  70  71
ENDBRANCH  69  70
ENDBRANCH   1  69
TORSDOF 22
ENDMDL
