MODEL 1
REMARK VINA RESULT:     -10.6      0.000      0.000
REMARK SMILES O=C(OCCOCCOC(=O)c1ccccc1/N=C/c1coc2ccccc2c1=O)c1ccc(-c2c3nc(c(-c4ccc(S(=O)(=O)[O-])cc4)c4ccc([nH]4)c(-c4ccc(S(=O)(=O)[O-])cc4)c4nc(c(-c5ccc(S(=O)(=O)[O-])cc5)c5ccc2[nH]5)C=C4)C=C3)cc1
REMARK SMILES IDX 5 1 4 2 3 3 2 4 1 5 31 6 32 7 90 8 33 9 89 10 34 11 35 12
REMARK SMILES IDX 36 13 83 14 37 15 88 16 82 17 84 18 38 19 87 20 81 21 80 22
REMARK SMILES IDX 39 24 69 25 50 26 68 27 51 28 54 29 67 30 85 31 52 32 53 33
REMARK SMILES IDX 66 35 86 36 55 37 40 38 41 39 49 40 42 41 48 42 43 43 44 44
REMARK SMILES IDX 45 45 46 46 47 47 70 48 71 49 79 50 72 51 78 52 73 53 74 54
REMARK SMILES IDX 75 55 76 56 77 57 56 58 57 59 65 60 58 61 64 62 59 63 60 64
REMARK SMILES IDX 61 65 62 66 63 67 6 68 7 69 8 70 9 71 10 72 11 73 12 74
REMARK SMILES IDX 13 75 17 76 14 77 16 78 15 79 18 80 19 81 20 82 21 83 29 84
REMARK SMILES IDX 22 85 28 86 30 87 23 88 27 89 24 90 26 91 25 92
REMARK H PARENT 84 23 54 34
REMARK Flexibility Score: inf
ROOT
ATOM      1  C   UNL A   1      39.803  21.605  26.440  1.00  0.00     0.202 C 
ENDROOT
BRANCH   1   2
ATOM      2  C   UNL A   1      39.975  20.117  26.130  1.00  0.00     0.261 C 
BRANCH   2   3
ATOM      3  O   UNL A   1      41.320  19.692  26.407  1.00  0.00    -0.460 OA
BRANCH   3   4
ATOM      4  C   UNL A   1      42.458  20.050  25.761  1.00  0.00     0.338 C 
ATOM      5  O   UNL A   1      42.979  19.241  24.996  1.00  0.00    -0.246 OA
BRANCH   4   6
ATOM      6  C   UNL A   1      43.120  21.379  25.928  1.00  0.00     0.060 A 
ATOM      7  C   UNL A   1      43.578  21.883  27.144  1.00  0.00     0.016 A 
ATOM      8  C   UNL A   1      43.371  22.138  24.775  1.00  0.00     0.016 A 
ATOM      9  C   UNL A   1      44.224  23.091  27.249  1.00  0.00     0.010 A 
ATOM     10  C   UNL A   1      44.025  23.373  24.862  1.00  0.00     0.010 A 
ATOM     11  C   UNL A   1      44.432  23.851  26.112  1.00  0.00    -0.014 A 
BRANCH  11  12
ATOM     12  C   UNL A   1      44.857  25.231  26.364  1.00  0.00     0.031 A 
ATOM     13  C   UNL A   1      43.844  26.149  26.972  1.00  0.00     0.074 A 
ATOM     14  C   UNL A   1      46.166  25.536  26.298  1.00  0.00     0.049 A 
ATOM     15  N   UNL A   1      43.962  27.399  27.313  1.00  0.00    -0.248 NA
ATOM     16  C   UNL A   1      42.517  25.567  27.263  1.00  0.00     0.031 C 
ATOM     17  C   UNL A   1      47.236  24.598  25.931  1.00  0.00     0.029 A 
ATOM     18  N   UNL A   1      46.828  26.691  26.599  1.00  0.00    -0.354 N 
ATOM     19  C   UNL A   1      42.715  27.769  27.801  1.00  0.00     0.074 A 
ATOM     20  C   UNL A   1      41.856  26.612  27.731  1.00  0.00     0.031 C 
ATOM     21  C   UNL A   1      48.421  25.215  26.056  1.00  0.00     0.029 A 
ATOM     22  C   UNL A   1      48.189  26.604  26.427  1.00  0.00     0.049 A 
ATOM     23  H   UNL A   1      46.375  27.508  26.910  1.00  0.00     0.167 HD
ATOM     24  C   UNL A   1      42.330  28.985  28.244  1.00  0.00     0.031 A 
ATOM     25  C   UNL A   1      49.124  27.565  26.523  1.00  0.00     0.031 A 
ATOM     26  C   UNL A   1      43.230  30.103  28.288  1.00  0.00     0.049 A 
ATOM     27  C   UNL A   1      48.646  28.943  26.894  1.00  0.00     0.074 A 
ATOM     28  C   UNL A   1      42.968  31.415  28.624  1.00  0.00     0.029 A 
ATOM     29  N   UNL A   1      44.585  30.023  27.982  1.00  0.00    -0.354 N 
ATOM     30  N   UNL A   1      47.436  29.328  27.234  1.00  0.00    -0.248 NA
ATOM     31  C   UNL A   1      49.645  30.014  26.883  1.00  0.00     0.031 C 
ATOM     32  C   UNL A   1      44.153  32.141  28.459  1.00  0.00     0.029 A 
ATOM     33  C   UNL A   1      45.170  31.266  28.098  1.00  0.00     0.049 A 
ATOM     34  H   UNL A   1      45.055  29.199  27.720  1.00  0.00     0.167 HD
ATOM     35  C   UNL A   1      47.532  30.686  27.507  1.00  0.00     0.074 A 
ATOM     36  C   UNL A   1      48.925  31.045  27.306  1.00  0.00     0.031 C 
ATOM     37  C   UNL A   1      46.568  31.561  27.889  1.00  0.00     0.031 A 
BRANCH  24  38
ATOM     38  C   UNL A   1      40.874  29.165  28.573  1.00  0.00    -0.014 A 
ATOM     39  C   UNL A   1      39.898  29.359  27.579  1.00  0.00     0.010 A 
ATOM     40  C   UNL A   1      40.487  29.199  29.925  1.00  0.00     0.010 A 
ATOM     41  C   UNL A   1      38.571  29.628  27.934  1.00  0.00     0.020 A 
ATOM     42  C   UNL A   1      39.159  29.438  30.284  1.00  0.00     0.020 A 
ATOM     43  C   UNL A   1      38.213  29.669  29.286  1.00  0.00     0.054 A 
BRANCH  43  44
ATOM     44  S   UNL A   1      36.486  30.015  29.722  1.00  0.00     0.124 S 
ATOM     45  O   UNL A   1      36.476  31.474  29.787  1.00  0.00    -0.237 OA
ATOM     46  O   UNL A   1      35.751  29.432  28.601  1.00  0.00    -0.237 OA
ATOM     47  O   UNL A   1      36.307  29.333  31.002  1.00  0.00    -0.744 OA
ENDBRANCH  43  44
ENDBRANCH  24  38
BRANCH  25  48
ATOM     48  C   UNL A   1      50.551  27.279  26.196  1.00  0.00    -0.014 A 
ATOM     49  C   UNL A   1      50.992  27.196  24.864  1.00  0.00     0.010 A 
ATOM     50  C   UNL A   1      51.485  27.074  27.231  1.00  0.00     0.010 A 
ATOM     51  C   UNL A   1      52.328  26.889  24.575  1.00  0.00     0.020 A 
ATOM     52  C   UNL A   1      52.827  26.800  26.948  1.00  0.00     0.020 A 
ATOM     53  C   UNL A   1      53.237  26.693  25.619  1.00  0.00     0.054 A 
BRANCH  53  54
ATOM     54  S   UNL A   1      54.966  26.314  25.220  1.00  0.00     0.124 S 
ATOM     55  O   UNL A   1      54.857  24.987  24.622  1.00  0.00    -0.237 OA
ATOM     56  O   UNL A   1      55.323  27.394  24.304  1.00  0.00    -0.237 OA
ATOM     57  O   UNL A   1      55.636  26.361  26.518  1.00  0.00    -0.744 OA
ENDBRANCH  53  54
ENDBRANCH  25  48
BRANCH  37  58
ATOM     58  C   UNL A   1      47.010  32.967  28.173  1.00  0.00    -0.014 A 
ATOM     59  C   UNL A   1      47.471  33.349  29.443  1.00  0.00     0.010 A 
ATOM     60  C   UNL A   1      47.012  33.901  27.122  1.00  0.00     0.010 A 
ATOM     61  C   UNL A   1      47.890  34.661  29.667  1.00  0.00     0.020 A 
ATOM     62  C   UNL A   1      47.465  35.202  27.333  1.00  0.00     0.020 A 
ATOM     63  C   UNL A   1      47.883  35.578  28.610  1.00  0.00     0.054 A 
BRANCH  63  64
ATOM     64  S   UNL A   1      48.467  37.265  28.917  1.00  0.00     0.124 S 
ATOM     65  O   UNL A   1      47.235  37.943  29.310  1.00  0.00    -0.237 OA
ATOM     66  O   UNL A   1      49.448  37.074  29.983  1.00  0.00    -0.237 OA
ATOM     67  O   UNL A   1      49.025  37.677  27.631  1.00  0.00    -0.744 OA
ENDBRANCH  63  64
ENDBRANCH  37  58
ENDBRANCH  11  12
ENDBRANCH   4   6
ENDBRANCH   3   4
ENDBRANCH   2   3
ENDBRANCH   1   2
BRANCH   1  68
ATOM     68  O   UNL A   1      38.497  22.095  26.169  1.00  0.00    -0.374 OA
BRANCH  68  69
ATOM     69  C   UNL A   1      38.339  23.514  26.101  1.00  0.00     0.202 C 
BRANCH  69  70
ATOM     70  C   UNL A   1      36.970  23.767  25.507  1.00  0.00     0.261 C 
BRANCH  70  71
ATOM     71  O   UNL A   1      36.581  22.541  24.875  1.00  0.00    -0.460 OA
BRANCH  71  72
ATOM     72  C   UNL A   1      36.075  22.654  23.618  1.00  0.00     0.340 C 
ATOM     73  O   UNL A   1      36.651  22.951  22.598  1.00  0.00    -0.246 OA
BRANCH  72  74
ATOM     74  C   UNL A   1      34.657  22.277  23.680  1.00  0.00     0.085 A 
ATOM     75  C   UNL A   1      34.332  21.254  24.590  1.00  0.00     0.018 A 
ATOM     76  C   UNL A   1      33.666  22.965  22.965  1.00  0.00     0.077 A 
ATOM     77  C   UNL A   1      33.001  20.938  24.843  1.00  0.00     0.001 A 
ATOM     78  C   UNL A   1      32.336  22.567  23.186  1.00  0.00     0.029 A 
ATOM     79  C   UNL A   1      32.001  21.585  24.127  1.00  0.00     0.002 A 
BRANCH  76  80
ATOM     80  N   UNL A   1      33.813  24.215  22.339  1.00  0.00    -0.255 NA
ATOM     81  C   UNL A   1      33.783  25.369  22.922  1.00  0.00     0.127 C 
BRANCH  81  82
ATOM     82  C   UNL A   1      33.181  26.572  22.210  1.00  0.00     0.076 A 
ATOM     83  C   UNL A   1      31.964  26.352  21.677  1.00  0.00     0.209 A 
ATOM     84  C   UNL A   1      32.968  27.759  23.133  1.00  0.00     0.201 A 
ATOM     85  O   UNL A   1      30.812  26.204  22.486  1.00  0.00    -0.463 OA
ATOM     86  C   UNL A   1      31.983  27.467  24.191  1.00  0.00     0.065 A 
ATOM     87  O   UNL A   1      33.540  28.832  23.023  1.00  0.00    -0.288 OA
ATOM     88  C   UNL A   1      30.957  26.592  23.808  1.00  0.00     0.137 A 
ATOM     89  C   UNL A   1      32.251  27.739  25.534  1.00  0.00     0.016 A 
ATOM     90  C   UNL A   1      30.181  25.969  24.774  1.00  0.00     0.048 A 
ATOM     91  C   UNL A   1      31.497  27.074  26.502  1.00  0.00     0.001 A 
ATOM     92  C   UNL A   1      30.472  26.192  26.124  1.00  0.00     0.004 A 
ENDBRANCH  81  82
ENDBRANCH  76  80
ENDBRANCH  72  74
ENDBRANCH  71  72
ENDBRANCH  70  71
ENDBRANCH  69  70
ENDBRANCH  68  69
ENDBRANCH   1  68
TORSDOF 19
ENDMDL
MODEL 2
REMARK VINA RESULT:     -10.4      2.012      8.966
REMARK SMILES O=C(OCCOCCOC(=O)c1ccccc1/N=C/c1coc2ccccc2c1=O)c1ccc(-c2c3nc(c(-c4ccc(S(=O)(=O)[O-])cc4)c4ccc([nH]4)c(-c4ccc(S(=O)(=O)[O-])cc4)c4nc(c(-c5ccc(S(=O)(=O)[O-])cc5)c5ccc2[nH]5)C=C4)C=C3)cc1
REMARK SMILES IDX 5 1 4 2 3 3 2 4 1 5 31 6 32 7 90 8 33 9 89 10 34 11 35 12
REMARK SMILES IDX 36 13 83 14 37 15 88 16 82 17 84 18 38 19 87 20 81 21 80 22
REMARK SMILES IDX 39 24 69 25 50 26 68 27 51 28 54 29 67 30 85 31 52 32 53 33
REMARK SMILES IDX 66 35 86 36 55 37 40 38 41 39 49 40 42 41 48 42 43 43 44 44
REMARK SMILES IDX 45 45 46 46 47 47 70 48 71 49 79 50 72 51 78 52 73 53 74 54
REMARK SMILES IDX 75 55 76 56 77 57 56 58 57 59 65 60 58 61 64 62 59 63 60 64
REMARK SMILES IDX 61 65 62 66 63 67 6 68 7 69 8 70 9 71 10 72 11 73 12 74
REMARK SMILES IDX 13 75 17 76 14 77 16 78 15 79 18 80 19 81 20 82 21 83 29 84
REMARK SMILES IDX 22 85 28 86 30 87 23 88 27 89 24 90 26 91 25 92
REMARK H PARENT 84 23 54 34
REMARK Flexibility Score: inf
ROOT
ATOM      1  C   UNL A   1      35.135  30.750  27.940  1.00  0.00     0.202 C 
ENDROOT
BRANCH   1   2
ATOM      2  C   UNL A   1      35.561  31.930  28.816  1.00  0.00     0.261 C 
BRANCH   2   3
ATOM      3  O   UNL A   1      35.979  31.475  30.113  1.00  0.00    -0.460 OA
BRANCH   3   4
ATOM      4  C   UNL A   1      36.696  30.364  30.416  1.00  0.00     0.338 C 
ATOM      5  O   UNL A   1      36.176  29.501  31.120  1.00  0.00    -0.246 OA
BRANCH   4   6
ATOM      6  C   UNL A   1      38.094  30.128  29.942  1.00  0.00     0.060 A 
ATOM      7  C   UNL A   1      38.473  30.080  28.602  1.00  0.00     0.016 A 
ATOM      8  C   UNL A   1      39.107  30.026  30.907  1.00  0.00     0.016 A 
ATOM      9  C   UNL A   1      39.778  29.907  28.207  1.00  0.00     0.010 A 
ATOM     10  C   UNL A   1      40.441  29.846  30.525  1.00  0.00     0.010 A 
ATOM     11  C   UNL A   1      40.765  29.768  29.166  1.00  0.00    -0.014 A 
BRANCH  11  12
ATOM     12  C   UNL A   1      42.057  29.301  28.655  1.00  0.00     0.031 A 
ATOM     13  C   UNL A   1      43.215  30.238  28.793  1.00  0.00     0.074 A 
ATOM     14  C   UNL A   1      42.208  28.001  28.345  1.00  0.00     0.049 A 
ATOM     15  N   UNL A   1      44.458  30.070  28.448  1.00  0.00    -0.248 NA
ATOM     16  C   UNL A   1      42.938  31.539  29.437  1.00  0.00     0.031 C 
ATOM     17  C   UNL A   1      41.150  26.984  28.420  1.00  0.00     0.029 A 
ATOM     18  N   UNL A   1      43.316  27.296  27.972  1.00  0.00    -0.354 N 
ATOM     19  C   UNL A   1      45.098  31.259  28.776  1.00  0.00     0.074 A 
ATOM     20  C   UNL A   1      44.115  32.137  29.364  1.00  0.00     0.031 C 
ATOM     21  C   UNL A   1      41.673  25.784  28.126  1.00  0.00     0.029 A 
ATOM     22  C   UNL A   1      43.072  25.960  27.764  1.00  0.00     0.049 A 
ATOM     23  H   UNL A   1      44.205  27.706  27.862  1.00  0.00     0.167 HD
ATOM     24  C   UNL A   1      46.393  31.582  28.574  1.00  0.00     0.031 A 
ATOM     25  C   UNL A   1      43.894  25.006  27.291  1.00  0.00     0.031 A 
ATOM     26  C   UNL A   1      47.326  30.667  27.980  1.00  0.00     0.049 A 
ATOM     27  C   UNL A   1      45.299  25.427  26.953  1.00  0.00     0.074 A 
ATOM     28  C   UNL A   1      48.643  30.877  27.628  1.00  0.00     0.029 A 
ATOM     29  N   UNL A   1      47.022  29.349  27.654  1.00  0.00    -0.354 N 
ATOM     30  N   UNL A   1      45.875  26.593  27.143  1.00  0.00    -0.248 NA
ATOM     31  C   UNL A   1      46.159  24.419  26.328  1.00  0.00     0.031 C 
ATOM     32  C   UNL A   1      49.116  29.704  27.030  1.00  0.00     0.029 A 
ATOM     33  C   UNL A   1      48.118  28.738  27.083  1.00  0.00     0.049 A 
ATOM     34  H   UNL A   1      46.151  28.918  27.808  1.00  0.00     0.167 HD
ATOM     35  C   UNL A   1      47.178  26.453  26.687  1.00  0.00     0.074 A 
ATOM     36  C   UNL A   1      47.304  25.081  26.227  1.00  0.00     0.031 C 
ATOM     37  C   UNL A   1      48.184  27.363  26.648  1.00  0.00     0.031 A 
BRANCH  24  38
ATOM     38  C   UNL A   1      46.801  32.998  28.877  1.00  0.00    -0.014 A 
ATOM     39  C   UNL A   1      47.305  33.382  30.133  1.00  0.00     0.010 A 
ATOM     40  C   UNL A   1      46.616  33.979  27.887  1.00  0.00     0.010 A 
ATOM     41  C   UNL A   1      47.572  34.728  30.405  1.00  0.00     0.020 A 
ATOM     42  C   UNL A   1      46.909  35.320  28.144  1.00  0.00     0.020 A 
ATOM     43  C   UNL A   1      47.368  35.689  29.408  1.00  0.00     0.054 A 
BRANCH  43  44
ATOM     44  S   UNL A   1      47.727  37.427  29.784  1.00  0.00     0.124 S 
ATOM     45  O   UNL A   1      48.970  37.645  29.048  1.00  0.00    -0.237 OA
ATOM     46  O   UNL A   1      46.554  38.117  29.251  1.00  0.00    -0.237 OA
ATOM     47  O   UNL A   1      47.852  37.451  31.239  1.00  0.00    -0.744 OA
ENDBRANCH  43  44
ENDBRANCH  24  38
BRANCH  25  48
ATOM     48  C   UNL A   1      43.397  23.622  27.044  1.00  0.00    -0.014 A 
ATOM     49  C   UNL A   1      43.239  22.705  28.097  1.00  0.00     0.010 A 
ATOM     50  C   UNL A   1      43.089  23.205  25.734  1.00  0.00     0.010 A 
ATOM     51  C   UNL A   1      42.808  21.396  27.843  1.00  0.00     0.020 A 
ATOM     52  C   UNL A   1      42.627  21.910  25.478  1.00  0.00     0.020 A 
ATOM     53  C   UNL A   1      42.505  21.007  26.535  1.00  0.00     0.054 A 
BRANCH  53  54
ATOM     54  S   UNL A   1      41.932  19.312  26.231  1.00  0.00     0.124 S 
ATOM     55  O   UNL A   1      40.490  19.497  26.099  1.00  0.00    -0.237 OA
ATOM     56  O   UNL A   1      42.640  18.956  25.003  1.00  0.00    -0.237 OA
ATOM     57  O   UNL A   1      42.363  18.585  27.423  1.00  0.00    -0.744 OA
ENDBRANCH  53  54
ENDBRANCH  25  48
BRANCH  37  58
ATOM     58  C   UNL A   1      49.514  26.876  26.150  1.00  0.00    -0.014 A 
ATOM     59  C   UNL A   1      49.889  27.017  24.805  1.00  0.00     0.010 A 
ATOM     60  C   UNL A   1      50.419  26.320  27.071  1.00  0.00     0.010 A 
ATOM     61  C   UNL A   1      51.139  26.567  24.379  1.00  0.00     0.020 A 
ATOM     62  C   UNL A   1      51.683  25.905  26.656  1.00  0.00     0.020 A 
ATOM     63  C   UNL A   1      52.027  26.015  25.308  1.00  0.00     0.054 A 
BRANCH  63  64
ATOM     64  S   UNL A   1      53.659  25.473  24.738  1.00  0.00     0.124 S 
ATOM     65  O   UNL A   1      53.737  26.092  23.418  1.00  0.00    -0.237 OA
ATOM     66  O   UNL A   1      54.552  26.033  25.750  1.00  0.00    -0.237 OA
ATOM     67  O   UNL A   1      53.560  24.015  24.741  1.00  0.00    -0.744 OA
ENDBRANCH  63  64
ENDBRANCH  37  58
ENDBRANCH  11  12
ENDBRANCH   4   6
ENDBRANCH   3   4
ENDBRANCH   2   3
ENDBRANCH   1   2
BRANCH   1  68
ATOM     68  O   UNL A   1      33.749  30.748  27.623  1.00  0.00    -0.374 OA
BRANCH  68  69
ATOM     69  C   UNL A   1      33.333  29.901  26.549  1.00  0.00     0.202 C 
BRANCH  69  70
ATOM     70  C   UNL A   1      32.022  29.278  26.977  1.00  0.00     0.261 C 
BRANCH  70  71
ATOM     71  O   UNL A   1      31.427  28.751  25.786  1.00  0.00    -0.460 OA
BRANCH  71  72
ATOM     72  C   UNL A   1      31.283  27.399  25.741  1.00  0.00     0.340 C 
ATOM     73  O   UNL A   1      30.709  26.676  26.522  1.00  0.00    -0.246 OA
BRANCH  72  74
ATOM     74  C   UNL A   1      31.910  26.931  24.499  1.00  0.00     0.085 A 
ATOM     75  C   UNL A   1      32.505  27.925  23.698  1.00  0.00     0.018 A 
ATOM     76  C   UNL A   1      32.015  25.570  24.177  1.00  0.00     0.077 A 
ATOM     77  C   UNL A   1      33.264  27.569  22.589  1.00  0.00     0.001 A 
ATOM     78  C   UNL A   1      32.724  25.250  23.007  1.00  0.00     0.029 A 
ATOM     79  C   UNL A   1      33.361  26.229  22.233  1.00  0.00     0.002 A 
BRANCH  76  80
ATOM     80  N   UNL A   1      31.810  24.493  25.057  1.00  0.00    -0.255 NA
ATOM     81  C   UNL A   1      32.660  24.037  25.918  1.00  0.00     0.127 C 
BRANCH  81  82
ATOM     82  C   UNL A   1      32.717  22.547  26.223  1.00  0.00     0.076 A 
ATOM     83  C   UNL A   1      32.462  21.752  25.166  1.00  0.00     0.209 A 
ATOM     84  C   UNL A   1      34.085  22.094  26.701  1.00  0.00     0.201 A 
ATOM     85  O   UNL A   1      33.384  21.610  24.102  1.00  0.00    -0.463 OA
ATOM     86  C   UNL A   1      35.119  22.265  25.662  1.00  0.00     0.065 A 
ATOM     87  O   UNL A   1      34.316  21.642  27.812  1.00  0.00    -0.288 OA
ATOM     88  C   UNL A   1      34.661  22.087  24.349  1.00  0.00     0.137 A 
ATOM     89  C   UNL A   1      36.332  22.897  25.936  1.00  0.00     0.016 A 
ATOM     90  C   UNL A   1      35.418  22.550  23.283  1.00  0.00     0.048 A 
ATOM     91  C   UNL A   1      37.068  23.401  24.861  1.00  0.00     0.001 A 
ATOM     92  C   UNL A   1      36.611  23.231  23.545  1.00  0.00     0.004 A 
ENDBRANCH  81  82
ENDBRANCH  76  80
ENDBRANCH  72  74
ENDBRANCH  71  72
ENDBRANCH  70  71
ENDBRANCH  69  70
ENDBRANCH  68  69
ENDBRANCH   1  68
TORSDOF 19
ENDMDL
MODEL 3
REMARK VINA RESULT:     -10.4      6.177      8.372
REMARK SMILES O=C(OCCOCCOC(=O)c1ccccc1/N=C/c1coc2ccccc2c1=O)c1ccc(-c2c3nc(c(-c4ccc(S(=O)(=O)[O-])cc4)c4ccc([nH]4)c(-c4ccc(S(=O)(=O)[O-])cc4)c4nc(c(-c5ccc(S(=O)(=O)[O-])cc5)c5ccc2[nH]5)C=C4)C=C3)cc1
REMARK SMILES IDX 5 1 4 2 3 3 2 4 1 5 31 6 32 7 90 8 33 9 89 10 34 11 35 12
REMARK SMILES IDX 36 13 83 14 37 15 88 16 82 17 84 18 38 19 87 20 81 21 80 22
REMARK SMILES IDX 39 24 69 25 50 26 68 27 51 28 54 29 67 30 85 31 52 32 53 33
REMARK SMILES IDX 66 35 86 36 55 37 40 38 41 39 49 40 42 41 48 42 43 43 44 44
REMARK SMILES IDX 45 45 46 46 47 47 70 48 71 49 79 50 72 51 78 52 73 53 74 54
REMARK SMILES IDX 75 55 76 56 77 57 56 58 57 59 65 60 58 61 64 62 59 63 60 64
REMARK SMILES IDX 61 65 62 66 63 67 6 68 7 69 8 70 9 71 10 72 11 73 12 74
REMARK SMILES IDX 13 75 17 76 14 77 16 78 15 79 18 80 19 81 20 82 21 83 29 84
REMARK SMILES IDX 22 85 28 86 30 87 23 88 27 89 24 90 26 91 25 92
REMARK H PARENT 84 23 54 34
REMARK Flexibility Score: inf
ROOT
ATOM      1  C   UNL A   1      40.290  21.870  26.856  1.00  0.00     0.202 C 
ENDROOT
BRANCH   1   2
ATOM      2  C   UNL A   1      41.622  22.412  26.337  1.00  0.00     0.261 C 
BRANCH   2   3
ATOM      3  O   UNL A   1      41.563  23.840  26.180  1.00  0.00    -0.460 OA
BRANCH   3   4
ATOM      4  C   UNL A   1      42.451  24.765  26.622  1.00  0.00     0.338 C 
ATOM      5  O   UNL A   1      43.588  24.760  26.156  1.00  0.00    -0.246 OA
BRANCH   4   6
ATOM      6  C   UNL A   1      42.125  25.796  27.654  1.00  0.00     0.060 A 
ATOM      7  C   UNL A   1      42.879  26.945  27.885  1.00  0.00     0.016 A 
ATOM      8  C   UNL A   1      40.938  25.640  28.386  1.00  0.00     0.016 A 
ATOM      9  C   UNL A   1      42.519  27.893  28.812  1.00  0.00     0.010 A 
ATOM     10  C   UNL A   1      40.556  26.593  29.337  1.00  0.00     0.010 A 
ATOM     11  C   UNL A   1      41.368  27.711  29.557  1.00  0.00    -0.014 A 
BRANCH  11  12
ATOM     12  C   UNL A   1      41.230  28.613  30.705  1.00  0.00     0.031 A 
ATOM     13  C   UNL A   1      40.071  29.558  30.684  1.00  0.00     0.074 A 
ATOM     14  C   UNL A   1      41.957  28.380  31.813  1.00  0.00     0.049 A 
ATOM     15  N   UNL A   1      39.707  30.438  31.571  1.00  0.00    -0.248 NA
ATOM     16  C   UNL A   1      39.178  29.482  29.510  1.00  0.00     0.031 C 
ATOM     17  C   UNL A   1      42.948  27.306  31.964  1.00  0.00     0.029 A 
ATOM     18  N   UNL A   1      41.932  28.981  33.038  1.00  0.00    -0.354 N 
ATOM     19  C   UNL A   1      38.585  31.059  31.039  1.00  0.00     0.074 A 
ATOM     20  C   UNL A   1      38.312  30.449  29.761  1.00  0.00     0.031 C 
ATOM     21  C   UNL A   1      43.415  27.313  33.223  1.00  0.00     0.029 A 
ATOM     22  C   UNL A   1      42.821  28.436  33.934  1.00  0.00     0.049 A 
ATOM     23  H   UNL A   1      41.335  29.732  33.259  1.00  0.00     0.167 HD
ATOM     24  C   UNL A   1      37.869  32.070  31.576  1.00  0.00     0.031 A 
ATOM     25  C   UNL A   1      43.137  28.843  35.177  1.00  0.00     0.031 A 
ATOM     26  C   UNL A   1      38.190  32.642  32.853  1.00  0.00     0.049 A 
ATOM     27  C   UNL A   1      42.411  30.053  35.700  1.00  0.00     0.074 A 
ATOM     28  C   UNL A   1      37.619  33.725  33.488  1.00  0.00     0.029 A 
ATOM     29  N   UNL A   1      39.187  32.155  33.693  1.00  0.00    -0.354 N 
ATOM     30  N   UNL A   1      41.430  30.727  35.142  1.00  0.00    -0.248 NA
ATOM     31  C   UNL A   1      42.837  30.567  37.004  1.00  0.00     0.031 C 
ATOM     32  C   UNL A   1      38.313  33.932  34.685  1.00  0.00     0.029 A 
ATOM     33  C   UNL A   1      39.264  32.929  34.832  1.00  0.00     0.049 A 
ATOM     34  H   UNL A   1      39.753  31.374  33.502  1.00  0.00     0.167 HD
ATOM     35  C   UNL A   1      41.099  31.731  36.041  1.00  0.00     0.074 A 
ATOM     36  C   UNL A   1      41.978  31.561  37.185  1.00  0.00     0.031 C 
ATOM     37  C   UNL A   1      40.159  32.705  35.942  1.00  0.00     0.031 A 
BRANCH  24  38
ATOM     38  C   UNL A   1      36.787  32.673  30.721  1.00  0.00    -0.014 A 
ATOM     39  C   UNL A   1      37.066  33.587  29.690  1.00  0.00     0.010 A 
ATOM     40  C   UNL A   1      35.447  32.352  31.006  1.00  0.00     0.010 A 
ATOM     41  C   UNL A   1      36.022  34.203  28.991  1.00  0.00     0.020 A 
ATOM     42  C   UNL A   1      34.403  32.942  30.291  1.00  0.00     0.020 A 
ATOM     43  C   UNL A   1      34.697  33.878  29.299  1.00  0.00     0.054 A 
BRANCH  43  44
ATOM     44  S   UNL A   1      33.361  34.686  28.375  1.00  0.00     0.124 S 
ATOM     45  O   UNL A   1      32.790  33.568  27.628  1.00  0.00    -0.237 OA
ATOM     46  O   UNL A   1      32.517  35.225  29.439  1.00  0.00    -0.237 OA
ATOM     47  O   UNL A   1      34.053  35.687  27.566  1.00  0.00    -0.744 OA
ENDBRANCH  43  44
ENDBRANCH  24  38
BRANCH  25  48
ATOM     48  C   UNL A   1      44.213  28.163  35.954  1.00  0.00    -0.014 A 
ATOM     49  C   UNL A   1      43.921  27.114  36.842  1.00  0.00     0.010 A 
ATOM     50  C   UNL A   1      45.553  28.577  35.815  1.00  0.00     0.010 A 
ATOM     51  C   UNL A   1      44.939  26.513  37.593  1.00  0.00     0.020 A 
ATOM     52  C   UNL A   1      46.578  27.958  36.538  1.00  0.00     0.020 A 
ATOM     53  C   UNL A   1      46.261  26.939  37.436  1.00  0.00     0.054 A 
BRANCH  53  54
ATOM     54  S   UNL A   1      47.566  26.134  38.406  1.00  0.00     0.124 S 
ATOM     55  O   UNL A   1      47.635  24.814  37.788  1.00  0.00    -0.237 OA
ATOM     56  O   UNL A   1      48.716  27.004  38.171  1.00  0.00    -0.237 OA
ATOM     57  O   UNL A   1      47.045  26.158  39.771  1.00  0.00    -0.744 OA
ENDBRANCH  53  54
ENDBRANCH  25  48
BRANCH  37  58
ATOM     58  C   UNL A   1      40.001  33.611  37.129  1.00  0.00    -0.014 A 
ATOM     59  C   UNL A   1      40.735  34.802  37.246  1.00  0.00     0.010 A 
ATOM     60  C   UNL A   1      39.052  33.279  38.112  1.00  0.00     0.010 A 
ATOM     61  C   UNL A   1      40.552  35.628  38.355  1.00  0.00     0.020 A 
ATOM     62  C   UNL A   1      38.840  34.121  39.201  1.00  0.00     0.020 A 
ATOM     63  C   UNL A   1      39.605  35.281  39.325  1.00  0.00     0.054 A 
BRANCH  63  64
ATOM     64  S   UNL A   1      39.358  36.389  40.736  1.00  0.00     0.124 S 
ATOM     65  O   UNL A   1      38.364  35.662  41.520  1.00  0.00    -0.237 OA
ATOM     66  O   UNL A   1      40.694  36.461  41.323  1.00  0.00    -0.237 OA
ATOM     67  O   UNL A   1      38.886  37.629  40.123  1.00  0.00    -0.744 OA
ENDBRANCH  63  64
ENDBRANCH  37  58
ENDBRANCH  11  12
ENDBRANCH   4   6
ENDBRANCH   3   4
ENDBRANCH   2   3
ENDBRANCH   1   2
BRANCH   1  68
ATOM     68  O   UNL A   1      39.318  21.679  25.837  1.00  0.00    -0.374 OA
BRANCH  68  69
ATOM     69  C   UNL A   1      38.221  22.596  25.809  1.00  0.00     0.202 C 
BRANCH  69  70
ATOM     70  C   UNL A   1      37.010  21.803  25.369  1.00  0.00     0.261 C 
BRANCH  70  71
ATOM     71  O   UNL A   1      36.151  22.733  24.698  1.00  0.00    -0.460 OA
BRANCH  71  72
ATOM     72  C   UNL A   1      34.891  22.845  25.197  1.00  0.00     0.340 C 
ATOM     73  O   UNL A   1      34.522  23.437  26.184  1.00  0.00    -0.246 OA
BRANCH  72  74
ATOM     74  C   UNL A   1      33.987  22.156  24.268  1.00  0.00     0.085 A 
ATOM     75  C   UNL A   1      33.588  20.860  24.646  1.00  0.00     0.018 A 
ATOM     76  C   UNL A   1      33.459  22.782  23.130  1.00  0.00     0.077 A 
ATOM     77  C   UNL A   1      32.608  20.188  23.921  1.00  0.00     0.001 A 
ATOM     78  C   UNL A   1      32.529  22.046  22.376  1.00  0.00     0.029 A 
ATOM     79  C   UNL A   1      32.090  20.777  22.774  1.00  0.00     0.002 A 
BRANCH  76  80
ATOM     80  N   UNL A   1      33.477  24.162  22.862  1.00  0.00    -0.255 NA
ATOM     81  C   UNL A   1      32.520  24.999  23.099  1.00  0.00     0.127 C 
BRANCH  81  82
ATOM     82  C   UNL A   1      32.273  26.168  22.156  1.00  0.00     0.076 A 
ATOM     83  C   UNL A   1      31.037  26.699  22.239  1.00  0.00     0.209 A 
ATOM     84  C   UNL A   1      33.195  27.346  22.419  1.00  0.00     0.201 A 
ATOM     85  O   UNL A   1      30.628  27.462  23.358  1.00  0.00    -0.463 OA
ATOM     86  C   UNL A   1      32.972  27.935  23.753  1.00  0.00     0.065 A 
ATOM     87  O   UNL A   1      34.028  27.762  21.629  1.00  0.00    -0.288 OA
ATOM     88  C   UNL A   1      31.645  27.877  24.203  1.00  0.00     0.137 A 
ATOM     89  C   UNL A   1      34.031  28.189  24.626  1.00  0.00     0.016 A 
ATOM     90  C   UNL A   1      31.360  28.070  25.546  1.00  0.00     0.048 A 
ATOM     91  C   UNL A   1      33.742  28.337  25.984  1.00  0.00     0.001 A 
ATOM     92  C   UNL A   1      32.416  28.273  26.440  1.00  0.00     0.004 A 
ENDBRANCH  81  82
ENDBRANCH  76  80
ENDBRANCH  72  74
ENDBRANCH  71  72
ENDBRANCH  70  71
ENDBRANCH  69  70
ENDBRANCH  68  69
ENDBRANCH   1  68
TORSDOF 19
ENDMDL
