MODEL 1
REMARK VINA RESULT:     -11.6      0.000      0.000
REMARK SMILES O=C(OCCOCCOC(=O)[C@H]1CC=CC[C@@H]1c1nc2cc(Cl)ccc2o1)c1ccc(-c2c3nc(c(-c4ccc(S(=O)(=O)[O-])cc4)c4ccc([nH]4)c(-c4ccc(S(=O)(=O)[O-])cc4)c4nc(c(-c5ccc(S(=O)(=O)[O-])cc5)c5ccc2[nH]5)C=C4)C=C3)cc1
REMARK SMILES IDX 5 1 4 2 3 3 2 4 1 5 28 6 29 7 87 8 30 9 86 10 31 11 32 12
REMARK SMILES IDX 33 13 80 14 34 15 85 16 79 17 81 18 35 19 84 20 78 21 77 22
REMARK SMILES IDX 36 24 66 25 47 26 65 27 48 28 51 29 64 30 82 31 49 32 50 33
REMARK SMILES IDX 63 35 83 36 52 37 37 38 38 39 46 40 39 41 45 42 40 43 41 44
REMARK SMILES IDX 42 45 43 46 44 47 67 48 68 49 76 50 69 51 75 52 70 53 71 54
REMARK SMILES IDX 72 55 73 56 74 57 53 58 54 59 62 60 55 61 61 62 56 63 57 64
REMARK SMILES IDX 58 65 59 66 60 67 6 68 7 69 8 70 9 71 10 72 11 73 12 74
REMARK SMILES IDX 13 75 17 76 14 77 16 78 15 79 18 80 19 81 27 82 20 83 26 84
REMARK SMILES IDX 21 85 25 86 22 87 24 88 23 89
REMARK H PARENT 81 23 51 34
REMARK Flexibility Score: inf
ROOT
ATOM      1  C   UNL A   1      35.802  21.521  25.114  1.00  0.00     0.202 C 
ENDROOT
BRANCH   1   2
ATOM      2  C   UNL A   1      37.297  21.740  24.889  1.00  0.00     0.261 C 
BRANCH   2   3
ATOM      3  O   UNL A   1      38.140  21.787  26.073  1.00  0.00    -0.460 OA
BRANCH   3   4
ATOM      4  C   UNL A   1      39.432  22.207  26.222  1.00  0.00     0.338 C 
ATOM      5  O   UNL A   1      40.347  21.395  26.110  1.00  0.00    -0.246 OA
BRANCH   4   6
ATOM      6  C   UNL A   1      39.750  23.596  26.662  1.00  0.00     0.060 A 
ATOM      7  C   UNL A   1      40.984  23.838  27.302  1.00  0.00     0.016 A 
ATOM      8  C   UNL A   1      38.787  24.594  26.652  1.00  0.00     0.016 A 
ATOM      9  C   UNL A   1      41.162  24.982  28.102  1.00  0.00     0.010 A 
ATOM     10  C   UNL A   1      38.919  25.654  27.544  1.00  0.00     0.010 A 
ATOM     11  C   UNL A   1      40.085  25.847  28.318  1.00  0.00    -0.014 A 
BRANCH  11  12
ATOM     12  C   UNL A   1      40.198  27.184  28.953  1.00  0.00     0.031 A 
ATOM     13  C   UNL A   1      41.305  27.876  28.282  1.00  0.00     0.074 A 
ATOM     14  C   UNL A   1      39.581  27.829  29.979  1.00  0.00     0.049 A 
ATOM     15  N   UNL A   1      42.503  27.828  28.767  1.00  0.00    -0.248 NA
ATOM     16  C   UNL A   1      41.224  28.318  26.886  1.00  0.00     0.031 C 
ATOM     17  C   UNL A   1      38.750  27.282  31.045  1.00  0.00     0.029 A 
ATOM     18  N   UNL A   1      39.560  29.190  30.271  1.00  0.00    -0.354 N 
ATOM     19  C   UNL A   1      43.272  28.493  27.846  1.00  0.00     0.074 A 
ATOM     20  C   UNL A   1      42.522  28.476  26.616  1.00  0.00     0.031 C 
ATOM     21  C   UNL A   1      38.217  28.290  31.775  1.00  0.00     0.029 A 
ATOM     22  C   UNL A   1      38.565  29.581  31.182  1.00  0.00     0.049 A 
ATOM     23  H   UNL A   1      40.194  29.828  29.871  1.00  0.00     0.167 HD
ATOM     24  C   UNL A   1      44.244  29.331  28.280  1.00  0.00     0.031 A 
ATOM     25  C   UNL A   1      38.374  30.739  31.883  1.00  0.00     0.031 A 
ATOM     26  C   UNL A   1      44.536  29.125  29.679  1.00  0.00     0.049 A 
ATOM     27  C   UNL A   1      39.733  31.228  32.175  1.00  0.00     0.074 A 
ATOM     28  C   UNL A   1      45.066  28.092  30.425  1.00  0.00     0.029 A 
ATOM     29  N   UNL A   1      43.818  29.923  30.538  1.00  0.00    -0.354 N 
ATOM     30  N   UNL A   1      40.492  30.683  33.078  1.00  0.00    -0.248 NA
ATOM     31  C   UNL A   1      40.408  32.105  31.224  1.00  0.00     0.031 C 
ATOM     32  C   UNL A   1      44.468  28.186  31.712  1.00  0.00     0.029 A 
ATOM     33  C   UNL A   1      43.645  29.310  31.752  1.00  0.00     0.049 A 
ATOM     34  H   UNL A   1      43.474  30.817  30.311  1.00  0.00     0.167 HD
ATOM     35  C   UNL A   1      41.746  30.726  32.504  1.00  0.00     0.074 A 
ATOM     36  C   UNL A   1      41.671  31.758  31.477  1.00  0.00     0.031 C 
ATOM     37  C   UNL A   1      42.622  29.706  32.702  1.00  0.00     0.031 A 
BRANCH  24  38
ATOM     38  C   UNL A   1      44.555  30.612  27.564  1.00  0.00    -0.014 A 
ATOM     39  C   UNL A   1      43.913  31.835  27.856  1.00  0.00     0.010 A 
ATOM     40  C   UNL A   1      45.666  30.660  26.709  1.00  0.00     0.010 A 
ATOM     41  C   UNL A   1      44.283  33.030  27.255  1.00  0.00     0.020 A 
ATOM     42  C   UNL A   1      46.081  31.868  26.134  1.00  0.00     0.020 A 
ATOM     43  C   UNL A   1      45.364  33.037  26.387  1.00  0.00     0.054 A 
BRANCH  43  44
ATOM     44  S   UNL A   1      45.806  34.608  25.623  1.00  0.00     0.124 S 
ATOM     45  O   UNL A   1      45.475  34.359  24.221  1.00  0.00    -0.237 OA
ATOM     46  O   UNL A   1      44.934  35.550  26.318  1.00  0.00    -0.237 OA
ATOM     47  O   UNL A   1      47.231  34.740  25.914  1.00  0.00    -0.744 OA
ENDBRANCH  43  44
ENDBRANCH  24  38
BRANCH  25  48
ATOM     48  C   UNL A   1      37.295  31.765  31.657  1.00  0.00    -0.014 A 
ATOM     49  C   UNL A   1      37.561  33.123  31.416  1.00  0.00     0.010 A 
ATOM     50  C   UNL A   1      35.936  31.396  31.827  1.00  0.00     0.010 A 
ATOM     51  C   UNL A   1      36.534  34.087  31.470  1.00  0.00     0.020 A 
ATOM     52  C   UNL A   1      34.906  32.352  31.889  1.00  0.00     0.020 A 
ATOM     53  C   UNL A   1      35.221  33.701  31.755  1.00  0.00     0.054 A 
BRANCH  53  54
ATOM     54  S   UNL A   1      33.962  34.988  32.029  1.00  0.00     0.124 S 
ATOM     55  O   UNL A   1      32.958  34.272  32.811  1.00  0.00    -0.237 OA
ATOM     56  O   UNL A   1      34.706  36.016  32.753  1.00  0.00    -0.237 OA
ATOM     57  O   UNL A   1      33.546  35.364  30.680  1.00  0.00    -0.744 OA
ENDBRANCH  53  54
ENDBRANCH  25  48
BRANCH  37  58
ATOM     58  C   UNL A   1      42.425  28.826  33.915  1.00  0.00    -0.014 A 
ATOM     59  C   UNL A   1      43.262  29.077  35.016  1.00  0.00     0.010 A 
ATOM     60  C   UNL A   1      41.570  27.708  33.967  1.00  0.00     0.010 A 
ATOM     61  C   UNL A   1      43.299  28.210  36.104  1.00  0.00     0.020 A 
ATOM     62  C   UNL A   1      41.577  26.846  35.076  1.00  0.00     0.020 A 
ATOM     63  C   UNL A   1      42.469  27.089  36.121  1.00  0.00     0.054 A 
BRANCH  63  64
ATOM     64  S   UNL A   1      42.611  25.949  37.524  1.00  0.00     0.124 S 
ATOM     65  O   UNL A   1      43.245  24.784  36.910  1.00  0.00    -0.237 OA
ATOM     66  O   UNL A   1      43.450  26.694  38.461  1.00  0.00    -0.237 OA
ATOM     67  O   UNL A   1      41.231  25.746  37.958  1.00  0.00    -0.744 OA
ENDBRANCH  63  64
ENDBRANCH  37  58
ENDBRANCH  11  12
ENDBRANCH   4   6
ENDBRANCH   3   4
ENDBRANCH   2   3
ENDBRANCH   1   2
BRANCH   1  68
ATOM     68  O   UNL A   1      35.044  22.125  24.101  1.00  0.00    -0.374 OA
BRANCH  68  69
ATOM     69  C   UNL A   1      34.065  23.089  24.421  1.00  0.00     0.202 C 
BRANCH  69  70
ATOM     70  C   UNL A   1      34.658  24.448  24.061  1.00  0.00     0.261 C 
BRANCH  70  71
ATOM     71  O   UNL A   1      33.586  25.262  23.557  1.00  0.00    -0.463 OA
BRANCH  71  72
ATOM     72  C   UNL A   1      32.837  25.947  24.468  1.00  0.00     0.310 C 
ATOM     73  O   UNL A   1      31.764  25.605  24.918  1.00  0.00    -0.252 OA
BRANCH  72  74
ATOM     74  C   UNL A   1      33.559  27.157  25.018  1.00  0.00     0.115 C 
ATOM     75  C   UNL A   1      33.987  28.103  23.892  1.00  0.00     0.043 C 
ATOM     76  C   UNL A   1      32.622  27.808  26.052  1.00  0.00     0.094 C 
ATOM     77  C   UNL A   1      32.813  28.805  23.288  1.00  0.00    -0.030 C 
ATOM     78  C   UNL A   1      31.438  28.513  25.367  1.00  0.00     0.041 C 
ATOM     79  C   UNL A   1      31.658  28.960  23.948  1.00  0.00    -0.030 C 
BRANCH  76  80
ATOM     80  C   UNL A   1      33.268  28.800  26.945  1.00  0.00     0.199 A 
ATOM     81  N   UNL A   1      32.795  29.996  27.233  1.00  0.00    -0.213 NA
ATOM     82  O   UNL A   1      34.569  28.591  27.300  1.00  0.00    -0.440 OA
ATOM     83  C   UNL A   1      33.909  30.694  27.586  1.00  0.00     0.111 A 
ATOM     84  C   UNL A   1      34.991  29.832  27.655  1.00  0.00     0.154 A 
ATOM     85  C   UNL A   1      34.096  32.059  27.805  1.00  0.00     0.053 A 
ATOM     86  C   UNL A   1      36.288  30.205  27.955  1.00  0.00     0.051 A 
ATOM     87  C   UNL A   1      35.401  32.481  28.075  1.00  0.00     0.043 A 
ATOM     88  C   UNL A   1      36.473  31.576  28.156  1.00  0.00     0.024 A 
ATOM     89  Cl  UNL A   1      35.714  34.160  28.290  1.00  0.00    -0.084 Cl
ENDBRANCH  76  80
ENDBRANCH  72  74
ENDBRANCH  71  72
ENDBRANCH  70  71
ENDBRANCH  69  70
ENDBRANCH  68  69
ENDBRANCH   1  68
TORSDOF 18
ENDMDL
MODEL 2
REMARK VINA RESULT:     -11.4      1.822      3.151
REMARK SMILES O=C(OCCOCCOC(=O)[C@H]1CC=CC[C@@H]1c1nc2cc(Cl)ccc2o1)c1ccc(-c2c3nc(c(-c4ccc(S(=O)(=O)[O-])cc4)c4ccc([nH]4)c(-c4ccc(S(=O)(=O)[O-])cc4)c4nc(c(-c5ccc(S(=O)(=O)[O-])cc5)c5ccc2[nH]5)C=C4)C=C3)cc1
REMARK SMILES IDX 5 1 4 2 3 3 2 4 1 5 28 6 29 7 87 8 30 9 86 10 31 11 32 12
REMARK SMILES IDX 33 13 80 14 34 15 85 16 79 17 81 18 35 19 84 20 78 21 77 22
REMARK SMILES IDX 36 24 66 25 47 26 65 27 48 28 51 29 64 30 82 31 49 32 50 33
REMARK SMILES IDX 63 35 83 36 52 37 37 38 38 39 46 40 39 41 45 42 40 43 41 44
REMARK SMILES IDX 42 45 43 46 44 47 67 48 68 49 76 50 69 51 75 52 70 53 71 54
REMARK SMILES IDX 72 55 73 56 74 57 53 58 54 59 62 60 55 61 61 62 56 63 57 64
REMARK SMILES IDX 58 65 59 66 60 67 6 68 7 69 8 70 9 71 10 72 11 73 12 74
REMARK SMILES IDX 13 75 17 76 14 77 16 78 15 79 18 80 19 81 27 82 20 83 26 84
REMARK SMILES IDX 21 85 25 86 22 87 24 88 23 89
REMARK H PARENT 81 23 51 34
REMARK Flexibility Score: inf
ROOT
ATOM      1  C   UNL A   1      36.602  21.769  25.427  1.00  0.00     0.202 C 
ENDROOT
BRANCH   1   2
ATOM      2  C   UNL A   1      37.967  21.237  24.996  1.00  0.00     0.261 C 
BRANCH   2   3
ATOM      3  O   UNL A   1      39.018  21.234  26.001  1.00  0.00    -0.460 OA
BRANCH   3   4
ATOM      4  C   UNL A   1      40.061  22.097  26.193  1.00  0.00     0.338 C 
ATOM      5  O   UNL A   1      41.183  21.785  25.801  1.00  0.00    -0.246 OA
BRANCH   4   6
ATOM      6  C   UNL A   1      39.898  23.344  26.996  1.00  0.00     0.060 A 
ATOM      7  C   UNL A   1      38.926  24.284  26.597  1.00  0.00     0.016 A 
ATOM      8  C   UNL A   1      40.813  23.692  27.979  1.00  0.00     0.016 A 
ATOM      9  C   UNL A   1      39.008  25.623  27.025  1.00  0.00     0.010 A 
ATOM     10  C   UNL A   1      40.967  25.039  28.295  1.00  0.00     0.010 A 
ATOM     11  C   UNL A   1      40.100  26.035  27.792  1.00  0.00    -0.014 A 
BRANCH  11  12
ATOM     12  C   UNL A   1      40.193  27.347  28.481  1.00  0.00     0.031 A 
ATOM     13  C   UNL A   1      41.378  28.024  27.940  1.00  0.00     0.074 A 
ATOM     14  C   UNL A   1      39.503  27.978  29.468  1.00  0.00     0.049 A 
ATOM     15  N   UNL A   1      42.523  27.921  28.531  1.00  0.00    -0.248 NA
ATOM     16  C   UNL A   1      41.440  28.513  26.558  1.00  0.00     0.031 C 
ATOM     17  C   UNL A   1      38.561  27.425  30.433  1.00  0.00     0.029 A 
ATOM     18  N   UNL A   1      39.495  29.329  29.805  1.00  0.00    -0.354 N 
ATOM     19  C   UNL A   1      43.394  28.590  27.709  1.00  0.00     0.074 A 
ATOM     20  C   UNL A   1      42.761  28.637  26.415  1.00  0.00     0.031 C 
ATOM     21  C   UNL A   1      37.991  28.425  31.146  1.00  0.00     0.029 A 
ATOM     22  C   UNL A   1      38.432  29.722  30.634  1.00  0.00     0.049 A 
ATOM     23  H   UNL A   1      40.182  29.959  29.488  1.00  0.00     0.167 HD
ATOM     24  C   UNL A   1      44.346  29.382  28.259  1.00  0.00     0.031 A 
ATOM     25  C   UNL A   1      38.210  30.863  31.355  1.00  0.00     0.031 A 
ATOM     26  C   UNL A   1      44.500  29.121  29.671  1.00  0.00     0.049 A 
ATOM     27  C   UNL A   1      39.550  31.298  31.788  1.00  0.00     0.074 A 
ATOM     28  C   UNL A   1      44.928  28.048  30.426  1.00  0.00     0.029 A 
ATOM     29  N   UNL A   1      43.730  29.914  30.488  1.00  0.00    -0.354 N 
ATOM     30  N   UNL A   1      40.205  30.699  32.736  1.00  0.00    -0.248 NA
ATOM     31  C   UNL A   1      40.335  32.183  30.934  1.00  0.00     0.031 C 
ATOM     32  C   UNL A   1      44.215  28.120  31.655  1.00  0.00     0.029 A 
ATOM     33  C   UNL A   1      43.426  29.268  31.659  1.00  0.00     0.049 A 
ATOM     34  H   UNL A   1      43.434  30.826  30.262  1.00  0.00     0.167 HD
ATOM     35  C   UNL A   1      41.507  30.720  32.282  1.00  0.00     0.074 A 
ATOM     36  C   UNL A   1      41.559  31.786  31.289  1.00  0.00     0.031 C 
ATOM     37  C   UNL A   1      42.331  29.667  32.524  1.00  0.00     0.031 A 
BRANCH  24  38
ATOM     38  C   UNL A   1      44.759  30.674  27.621  1.00  0.00    -0.014 A 
ATOM     39  C   UNL A   1      45.906  30.803  26.807  1.00  0.00     0.010 A 
ATOM     40  C   UNL A   1      43.874  31.763  27.656  1.00  0.00     0.010 A 
ATOM     41  C   UNL A   1      46.217  31.981  26.144  1.00  0.00     0.020 A 
ATOM     42  C   UNL A   1      44.152  32.940  26.951  1.00  0.00     0.020 A 
ATOM     43  C   UNL A   1      45.339  33.050  26.228  1.00  0.00     0.054 A 
BRANCH  43  44
ATOM     44  S   UNL A   1      45.785  34.564  25.357  1.00  0.00     0.124 S 
ATOM     45  O   UNL A   1      45.146  34.359  24.059  1.00  0.00    -0.237 OA
ATOM     46  O   UNL A   1      45.186  35.596  26.198  1.00  0.00    -0.237 OA
ATOM     47  O   UNL A   1      47.245  34.533  25.347  1.00  0.00    -0.744 OA
ENDBRANCH  43  44
ENDBRANCH  24  38
BRANCH  25  48
ATOM     48  C   UNL A   1      37.188  31.930  31.066  1.00  0.00    -0.014 A 
ATOM     49  C   UNL A   1      35.949  32.010  31.725  1.00  0.00     0.010 A 
ATOM     50  C   UNL A   1      37.400  32.826  29.987  1.00  0.00     0.010 A 
ATOM     51  C   UNL A   1      34.924  32.852  31.249  1.00  0.00     0.020 A 
ATOM     52  C   UNL A   1      36.381  33.664  29.501  1.00  0.00     0.020 A 
ATOM     53  C   UNL A   1      35.130  33.638  30.112  1.00  0.00     0.054 A 
BRANCH  53  54
ATOM     54  S   UNL A   1      33.722  34.549  29.400  1.00  0.00     0.124 S 
ATOM     55  O   UNL A   1      33.113  33.541  28.536  1.00  0.00    -0.237 OA
ATOM     56  O   UNL A   1      32.946  34.914  30.582  1.00  0.00    -0.237 OA
ATOM     57  O   UNL A   1      34.348  35.670  28.702  1.00  0.00    -0.744 OA
ENDBRANCH  53  54
ENDBRANCH  25  48
BRANCH  37  58
ATOM     58  C   UNL A   1      41.997  28.754  33.682  1.00  0.00    -0.014 A 
ATOM     59  C   UNL A   1      42.593  29.062  34.916  1.00  0.00     0.010 A 
ATOM     60  C   UNL A   1      41.250  27.565  33.579  1.00  0.00     0.010 A 
ATOM     61  C   UNL A   1      42.509  28.186  35.995  1.00  0.00     0.020 A 
ATOM     62  C   UNL A   1      41.132  26.691  34.671  1.00  0.00     0.020 A 
ATOM     63  C   UNL A   1      41.793  26.995  35.862  1.00  0.00     0.054 A 
BRANCH  63  64
ATOM     64  S   UNL A   1      41.779  25.852  37.269  1.00  0.00     0.124 S 
ATOM     65  O   UNL A   1      42.799  26.429  38.142  1.00  0.00    -0.237 OA
ATOM     66  O   UNL A   1      40.406  25.960  37.758  1.00  0.00    -0.237 OA
ATOM     67  O   UNL A   1      42.125  24.560  36.680  1.00  0.00    -0.744 OA
ENDBRANCH  63  64
ENDBRANCH  37  58
ENDBRANCH  11  12
ENDBRANCH   4   6
ENDBRANCH   3   4
ENDBRANCH   2   3
ENDBRANCH   1   2
BRANCH   1  68
ATOM     68  O   UNL A   1      35.568  21.147  24.713  1.00  0.00    -0.374 OA
BRANCH  68  69
ATOM     69  C   UNL A   1      34.255  21.660  24.766  1.00  0.00     0.202 C 
BRANCH  69  70
ATOM     70  C   UNL A   1      34.366  23.165  24.540  1.00  0.00     0.261 C 
BRANCH  70  71
ATOM     71  O   UNL A   1      33.029  23.683  24.439  1.00  0.00    -0.463 OA
BRANCH  71  72
ATOM     72  C   UNL A   1      32.487  24.241  25.559  1.00  0.00     0.310 C 
ATOM     73  O   UNL A   1      32.787  23.985  26.706  1.00  0.00    -0.252 OA
BRANCH  72  74
ATOM     74  C   UNL A   1      31.541  25.376  25.240  1.00  0.00     0.115 C 
ATOM     75  C   UNL A   1      31.488  26.389  26.388  1.00  0.00     0.043 C 
ATOM     76  C   UNL A   1      32.000  25.983  23.901  1.00  0.00     0.094 C 
ATOM     77  C   UNL A   1      32.754  27.179  26.484  1.00  0.00    -0.030 C 
ATOM     78  C   UNL A   1      33.304  26.782  24.067  1.00  0.00     0.041 C 
ATOM     79  C   UNL A   1      33.581  27.328  25.441  1.00  0.00    -0.030 C 
BRANCH  76  80
ATOM     80  C   UNL A   1      31.015  26.877  23.248  1.00  0.00     0.199 A 
ATOM     81  N   UNL A   1      31.267  28.083  22.778  1.00  0.00    -0.213 NA
ATOM     82  O   UNL A   1      29.692  26.565  23.362  1.00  0.00    -0.440 OA
ATOM     83  C   UNL A   1      30.047  28.687  22.801  1.00  0.00     0.111 A 
ATOM     84  C   UNL A   1      29.077  27.755  23.131  1.00  0.00     0.154 A 
ATOM     85  C   UNL A   1      29.689  30.022  22.614  1.00  0.00     0.053 A 
ATOM     86  C   UNL A   1      27.729  28.026  23.277  1.00  0.00     0.051 A 
ATOM     87  C   UNL A   1      28.340  30.343  22.790  1.00  0.00     0.043 A 
ATOM     88  C   UNL A   1      27.379  29.369  23.107  1.00  0.00     0.024 A 
ATOM     89  Cl  UNL A   1      27.841  31.984  22.639  1.00  0.00    -0.084 Cl
ENDBRANCH  76  80
ENDBRANCH  72  74
ENDBRANCH  71  72
ENDBRANCH  70  71
ENDBRANCH  69  70
ENDBRANCH  68  69
ENDBRANCH   1  68
TORSDOF 18
ENDMDL
MODEL 3
REMARK VINA RESULT:     -11.3      1.938      2.987
REMARK SMILES O=C(OCCOCCOC(=O)[C@H]1CC=CC[C@@H]1c1nc2cc(Cl)ccc2o1)c1ccc(-c2c3nc(c(-c4ccc(S(=O)(=O)[O-])cc4)c4ccc([nH]4)c(-c4ccc(S(=O)(=O)[O-])cc4)c4nc(c(-c5ccc(S(=O)(=O)[O-])cc5)c5ccc2[nH]5)C=C4)C=C3)cc1
REMARK SMILES IDX 5 1 4 2 3 3 2 4 1 5 28 6 29 7 87 8 30 9 86 10 31 11 32 12
REMARK SMILES IDX 33 13 80 14 34 15 85 16 79 17 81 18 35 19 84 20 78 21 77 22
REMARK SMILES IDX 36 24 66 25 47 26 65 27 48 28 51 29 64 30 82 31 49 32 50 33
REMARK SMILES IDX 63 35 83 36 52 37 37 38 38 39 46 40 39 41 45 42 40 43 41 44
REMARK SMILES IDX 42 45 43 46 44 47 67 48 68 49 76 50 69 51 75 52 70 53 71 54
REMARK SMILES IDX 72 55 73 56 74 57 53 58 54 59 62 60 55 61 61 62 56 63 57 64
REMARK SMILES IDX 58 65 59 66 60 67 6 68 7 69 8 70 9 71 10 72 11 73 12 74
REMARK SMILES IDX 13 75 17 76 14 77 16 78 15 79 18 80 19 81 27 82 20 83 26 84
REMARK SMILES IDX 21 85 25 86 22 87 24 88 23 89
REMARK H PARENT 81 23 51 34
REMARK Flexibility Score: inf
ROOT
ATOM      1  C   UNL A   1      35.995  21.886  25.662  1.00  0.00     0.202 C 
ENDROOT
BRANCH   1   2
ATOM      2  C   UNL A   1      37.438  21.863  25.163  1.00  0.00     0.261 C 
BRANCH   2   3
ATOM      3  O   UNL A   1      38.468  21.556  26.142  1.00  0.00    -0.460 OA
BRANCH   3   4
ATOM      4  C   UNL A   1      39.753  22.013  26.247  1.00  0.00     0.338 C 
ATOM      5  O   UNL A   1      40.686  21.225  26.118  1.00  0.00    -0.246 OA
BRANCH   4   6
ATOM      6  C   UNL A   1      40.046  23.416  26.661  1.00  0.00     0.060 A 
ATOM      7  C   UNL A   1      41.313  23.711  27.205  1.00  0.00     0.016 A 
ATOM      8  C   UNL A   1      39.044  24.374  26.722  1.00  0.00     0.016 A 
ATOM      9  C   UNL A   1      41.504  24.865  27.988  1.00  0.00     0.010 A 
ATOM     10  C   UNL A   1      39.200  25.442  27.600  1.00  0.00     0.010 A 
ATOM     11  C   UNL A   1      40.412  25.685  28.284  1.00  0.00    -0.014 A 
BRANCH  11  12
ATOM     12  C   UNL A   1      40.517  27.029  28.907  1.00  0.00     0.031 A 
ATOM     13  C   UNL A   1      41.593  27.736  28.203  1.00  0.00     0.074 A 
ATOM     14  C   UNL A   1      39.917  27.669  29.945  1.00  0.00     0.049 A 
ATOM     15  N   UNL A   1      42.804  27.713  28.655  1.00  0.00    -0.248 NA
ATOM     16  C   UNL A   1      41.466  28.167  26.806  1.00  0.00     0.031 C 
ATOM     17  C   UNL A   1      39.125  27.115  31.037  1.00  0.00     0.029 A 
ATOM     18  N   UNL A   1      39.879  29.031  30.230  1.00  0.00    -0.354 N 
ATOM     19  C   UNL A   1      43.536  28.385  27.709  1.00  0.00     0.074 A 
ATOM     20  C   UNL A   1      42.753  28.347  26.500  1.00  0.00     0.031 C 
ATOM     21  C   UNL A   1      38.593  28.117  31.775  1.00  0.00     0.029 A 
ATOM     22  C   UNL A   1      38.902  29.410  31.165  1.00  0.00     0.049 A 
ATOM     23  H   UNL A   1      40.490  29.678  29.809  1.00  0.00     0.167 HD
ATOM     24  C   UNL A   1      44.504  29.244  28.111  1.00  0.00     0.031 A 
ATOM     25  C   UNL A   1      38.709  30.570  31.864  1.00  0.00     0.031 A 
ATOM     26  C   UNL A   1      44.838  29.053  29.503  1.00  0.00     0.049 A 
ATOM     27  C   UNL A   1      40.066  31.085  32.116  1.00  0.00     0.074 A 
ATOM     28  C   UNL A   1      45.406  28.035  30.241  1.00  0.00     0.029 A 
ATOM     29  N   UNL A   1      44.129  29.844  30.376  1.00  0.00    -0.354 N 
ATOM     30  N   UNL A   1      40.859  30.560  33.001  1.00  0.00    -0.248 NA
ATOM     31  C   UNL A   1      40.698  31.968  31.141  1.00  0.00     0.031 C 
ATOM     32  C   UNL A   1      44.841  28.126  31.543  1.00  0.00     0.029 A 
ATOM     33  C   UNL A   1      44.000  29.236  31.598  1.00  0.00     0.049 A 
ATOM     34  H   UNL A   1      43.762  30.730  30.153  1.00  0.00     0.167 HD
ATOM     35  C   UNL A   1      42.096  30.622  32.393  1.00  0.00     0.074 A 
ATOM     36  C   UNL A   1      41.974  31.645  31.362  1.00  0.00     0.031 C 
ATOM     37  C   UNL A   1      42.996  29.620  32.574  1.00  0.00     0.031 A 
BRANCH  24  38
ATOM     38  C   UNL A   1      44.771  30.526  27.379  1.00  0.00    -0.014 A 
ATOM     39  C   UNL A   1      43.947  31.666  27.491  1.00  0.00     0.010 A 
ATOM     40  C   UNL A   1      45.995  30.684  26.712  1.00  0.00     0.010 A 
ATOM     41  C   UNL A   1      44.264  32.875  26.887  1.00  0.00     0.020 A 
ATOM     42  C   UNL A   1      46.351  31.912  26.140  1.00  0.00     0.020 A 
ATOM     43  C   UNL A   1      45.465  32.987  26.205  1.00  0.00     0.054 A 
BRANCH  43  44
ATOM     44  S   UNL A   1      45.835  34.571  25.428  1.00  0.00     0.124 S 
ATOM     45  O   UNL A   1      45.166  34.431  24.137  1.00  0.00    -0.237 OA
ATOM     46  O   UNL A   1      45.225  35.522  26.353  1.00  0.00    -0.237 OA
ATOM     47  O   UNL A   1      47.294  34.594  25.378  1.00  0.00    -0.744 OA
ENDBRANCH  43  44
ENDBRANCH  24  38
BRANCH  25  48
ATOM     48  C   UNL A   1      37.606  31.574  31.660  1.00  0.00    -0.014 A 
ATOM     49  C   UNL A   1      37.825  32.961  31.614  1.00  0.00     0.010 A 
ATOM     50  C   UNL A   1      36.257  31.136  31.651  1.00  0.00     0.010 A 
ATOM     51  C   UNL A   1      36.750  33.871  31.686  1.00  0.00     0.020 A 
ATOM     52  C   UNL A   1      35.179  32.036  31.729  1.00  0.00     0.020 A 
ATOM     53  C   UNL A   1      35.437  33.403  31.791  1.00  0.00     0.054 A 
BRANCH  53  54
ATOM     54  S   UNL A   1      34.095  34.596  32.097  1.00  0.00     0.124 S 
ATOM     55  O   UNL A   1      33.250  33.869  33.040  1.00  0.00    -0.237 OA
ATOM     56  O   UNL A   1      34.808  35.745  32.650  1.00  0.00    -0.237 OA
ATOM     57  O   UNL A   1      33.511  34.811  30.775  1.00  0.00    -0.744 OA
ENDBRANCH  53  54
ENDBRANCH  25  48
BRANCH  37  58
ATOM     58  C   UNL A   1      42.848  28.744  33.796  1.00  0.00    -0.014 A 
ATOM     59  C   UNL A   1      42.271  27.479  33.596  1.00  0.00     0.010 A 
ATOM     60  C   UNL A   1      43.122  29.152  35.116  1.00  0.00     0.010 A 
ATOM     61  C   UNL A   1      41.912  26.672  34.673  1.00  0.00     0.020 A 
ATOM     62  C   UNL A   1      42.794  28.331  36.207  1.00  0.00     0.020 A 
ATOM     63  C   UNL A   1      42.160  27.110  35.975  1.00  0.00     0.054 A 
BRANCH  63  64
ATOM     64  S   UNL A   1      41.605  26.059  37.343  1.00  0.00     0.124 S 
ATOM     65  O   UNL A   1      42.684  26.225  38.315  1.00  0.00    -0.237 OA
ATOM     66  O   UNL A   1      40.329  26.666  37.719  1.00  0.00    -0.237 OA
ATOM     67  O   UNL A   1      41.505  24.727  36.750  1.00  0.00    -0.744 OA
ENDBRANCH  63  64
ENDBRANCH  37  58
ENDBRANCH  11  12
ENDBRANCH   4   6
ENDBRANCH   3   4
ENDBRANCH   2   3
ENDBRANCH   1   2
BRANCH   1  68
ATOM     68  O   UNL A   1      35.104  22.176  24.620  1.00  0.00    -0.374 OA
BRANCH  68  69
ATOM     69  C   UNL A   1      33.728  22.347  24.885  1.00  0.00     0.202 C 
BRANCH  69  70
ATOM     70  C   UNL A   1      33.547  23.793  25.334  1.00  0.00     0.261 C 
BRANCH  70  71
ATOM     71  O   UNL A   1      32.304  24.260  24.783  1.00  0.00    -0.463 OA
BRANCH  71  72
ATOM     72  C   UNL A   1      32.355  25.339  23.950  1.00  0.00     0.310 C 
ATOM     73  O   UNL A   1      33.203  25.559  23.111  1.00  0.00    -0.252 OA
BRANCH  72  74
ATOM     74  C   UNL A   1      31.122  26.208  24.053  1.00  0.00     0.115 C 
ATOM     75  C   UNL A   1      30.550  26.187  25.475  1.00  0.00     0.043 C 
ATOM     76  C   UNL A   1      31.519  27.614  23.567  1.00  0.00     0.094 C 
ATOM     77  C   UNL A   1      31.425  26.934  26.430  1.00  0.00    -0.030 C 
ATOM     78  C   UNL A   1      32.416  28.328  24.593  1.00  0.00     0.041 C 
ATOM     79  C   UNL A   1      32.284  27.876  26.022  1.00  0.00    -0.030 C 
BRANCH  76  80
ATOM     80  C   UNL A   1      30.383  28.518  23.270  1.00  0.00     0.199 A 
ATOM     81  N   UNL A   1      29.790  28.647  22.099  1.00  0.00    -0.213 NA
ATOM     82  O   UNL A   1      30.079  29.485  24.183  1.00  0.00    -0.440 OA
ATOM     83  C   UNL A   1      29.246  29.894  22.163  1.00  0.00     0.111 A 
ATOM     84  C   UNL A   1      29.396  30.398  23.443  1.00  0.00     0.154 A 
ATOM     85  C   UNL A   1      28.665  30.684  21.171  1.00  0.00     0.053 A 
ATOM     86  C   UNL A   1      28.988  31.652  23.858  1.00  0.00     0.051 A 
ATOM     87  C   UNL A   1      28.273  31.973  21.542  1.00  0.00     0.043 A 
ATOM     88  C   UNL A   1      28.423  32.447  22.856  1.00  0.00     0.024 A 
ATOM     89  Cl  UNL A   1      27.609  33.024  20.351  1.00  0.00    -0.084 Cl
ENDBRANCH  76  80
ENDBRANCH  72  74
ENDBRANCH  71  72
ENDBRANCH  70  71
ENDBRANCH  69  70
ENDBRANCH  68  69
ENDBRANCH   1  68
TORSDOF 18
ENDMDL
