MODEL 1
REMARK VINA RESULT:     -10.6      0.000      0.000
REMARK SMILES CC(C)(CC(=O)OCCOCCOC(=O)c1ccc(-c2c3nc(c(-c4ccc(S(=O)(=O)[O-])cc4)c4ccc([nH]4)c(-c4ccc(S(=O)(=O)[O-])cc4)c4nc(c(-c5ccc(S(=O)(=O)[O-])cc5)c5ccc2[nH]5)C=C4)C=C3)cc1)Cc1nc([C@@]2(C)CCCO2)no1
REMARK SMILES IDX 9 1 8 2 7 3 5 4 6 5 4 6 2 7 1 8 3 9 76 10 77 11 78 12 87 13
REMARK SMILES IDX 79 14 86 15 80 16 81 17 82 18 85 19 83 20 84 21 10 22 11 23
REMARK SMILES IDX 12 24 13 25 14 26 15 27 16 28 17 29 75 30 18 31 74 32 19 33
REMARK SMILES IDX 20 34 21 35 68 36 22 37 73 38 67 39 69 40 23 41 72 42 66 43
REMARK SMILES IDX 65 44 24 46 54 47 35 48 53 49 36 50 39 51 52 52 70 53 37 54
REMARK SMILES IDX 38 55 51 57 71 58 40 59 25 60 26 61 34 62 27 63 33 64 28 65
REMARK SMILES IDX 29 66 30 67 31 68 32 69 55 70 56 71 64 72 57 73 63 74 58 75
REMARK SMILES IDX 59 76 60 77 61 78 62 79 41 80 42 81 50 82 43 83 49 84 44 85
REMARK SMILES IDX 45 86 46 87 47 88 48 89
REMARK H PARENT 69 45 39 56
REMARK Flexibility Score: inf
ROOT
ATOM      1  C   UNL A   1      38.677  23.149  26.359  1.00  0.00     0.202 C 
ENDROOT
BRANCH   1   2
ATOM      2  C   UNL A   1      37.207  23.470  26.030  1.00  0.00     0.261 C 
BRANCH   2   3
ATOM      3  O   UNL A   1      36.306  22.363  26.102  1.00  0.00    -0.463 OA
BRANCH   3   4
ATOM      4  C   UNL A   1      35.966  21.842  24.911  1.00  0.00     0.306 C 
ATOM      5  O   UNL A   1      36.428  22.189  23.829  1.00  0.00    -0.252 OA
BRANCH   4   6
ATOM      6  C   UNL A   1      34.957  20.726  25.004  1.00  0.00     0.129 C 
BRANCH   6   7
ATOM      7  C   UNL A   1      33.414  20.925  25.021  1.00  0.00    -0.016 C 
ATOM      8  C   UNL A   1      32.835  21.365  23.671  1.00  0.00     0.012 C 
ATOM      9  C   UNL A   1      32.883  19.473  25.284  1.00  0.00     0.012 C 
BRANCH   7  10
ATOM     10  C   UNL A   1      32.859  21.784  26.184  1.00  0.00     0.107 C 
BRANCH  10  11
ATOM     11  C   UNL A   1      32.597  23.249  26.049  1.00  0.00     0.227 A 
ATOM     12  N   UNL A   1      33.412  24.669  25.888  1.00  0.00    -0.193 NA
ATOM     13  O   UNL A   1      30.844  23.699  26.510  1.00  0.00    -0.339 OA
ATOM     14  C   UNL A   1      32.318  26.162  26.193  1.00  0.00     0.203 A 
ATOM     15  N   UNL A   1      30.729  25.651  26.581  1.00  0.00    -0.059 NA
BRANCH  14  16
ATOM     16  C   UNL A   1      32.654  27.639  26.023  1.00  0.00     0.128 C 
ATOM     17  C   UNL A   1      33.447  28.307  27.178  1.00  0.00     0.051 C 
ATOM     18  C   UNL A   1      33.375  27.864  24.682  1.00  0.00     0.046 C 
ATOM     19  O   UNL A   1      31.453  28.441  25.851  1.00  0.00    -0.367 OA
ATOM     20  C   UNL A   1      33.144  29.329  24.410  1.00  0.00     0.032 C 
ATOM     21  C   UNL A   1      31.796  29.592  25.056  1.00  0.00     0.161 C 
ENDBRANCH  14  16
ENDBRANCH  10  11
ENDBRANCH   7  10
ENDBRANCH   6   7
ENDBRANCH   4   6
ENDBRANCH   3   4
ENDBRANCH   2   3
ENDBRANCH   1   2
BRANCH   1  22
ATOM     22  O   UNL A   1      39.270  21.883  26.112  1.00  0.00    -0.374 OA
BRANCH  22  23
ATOM     23  C   UNL A   1      40.602  21.603  26.529  1.00  0.00     0.202 C 
BRANCH  23  24
ATOM     24  C   UNL A   1      41.963  22.621  26.263  1.00  0.00     0.261 C 
BRANCH  24  25
ATOM     25  O   UNL A   1      41.955  24.635  25.666  1.00  0.00    -0.460 OA
BRANCH  25  26
ATOM     26  C   UNL A   1      42.047  26.029  25.832  1.00  0.00     0.338 C 
ATOM     27  O   UNL A   1      42.030  26.860  24.933  1.00  0.00    -0.246 OA
BRANCH  26  28
ATOM     28  C   UNL A   1      42.186  26.467  27.261  1.00  0.00     0.060 A 
ATOM     29  C   UNL A   1      41.348  25.980  28.249  1.00  0.00     0.016 A 
ATOM     30  C   UNL A   1      43.053  27.502  27.612  1.00  0.00     0.016 A 
ATOM     31  C   UNL A   1      41.148  26.651  29.448  1.00  0.00     0.010 A 
ATOM     32  C   UNL A   1      42.969  28.099  28.883  1.00  0.00     0.010 A 
ATOM     33  C   UNL A   1      41.939  27.749  29.773  1.00  0.00    -0.014 A 
BRANCH  33  34
ATOM     34  C   UNL A   1      41.601  28.579  30.963  1.00  0.00     0.031 A 
ATOM     35  C   UNL A   1      40.387  29.479  30.917  1.00  0.00     0.074 A 
ATOM     36  C   UNL A   1      42.315  28.478  32.104  1.00  0.00     0.049 A 
ATOM     37  N   UNL A   1      39.976  30.364  31.789  1.00  0.00    -0.248 NA
ATOM     38  C   UNL A   1      39.523  29.374  29.728  1.00  0.00     0.031 C 
ATOM     39  C   UNL A   1      43.451  27.577  32.321  1.00  0.00     0.029 A 
ATOM     40  N   UNL A   1      42.183  29.132  33.305  1.00  0.00    -0.354 N 
ATOM     41  C   UNL A   1      38.847  30.957  31.230  1.00  0.00     0.074 A 
ATOM     42  C   UNL A   1      38.643  30.340  29.939  1.00  0.00     0.031 C 
ATOM     43  C   UNL A   1      43.892  27.715  33.581  1.00  0.00     0.029 A 
ATOM     44  C   UNL A   1      43.139  28.780  34.230  1.00  0.00     0.049 A 
ATOM     45  H   UNL A   1      41.473  29.789  33.486  1.00  0.00     0.167 HD
ATOM     46  C   UNL A   1      38.058  31.934  31.741  1.00  0.00     0.031 A 
ATOM     47  C   UNL A   1      43.416  29.289  35.448  1.00  0.00     0.031 A 
ATOM     48  C   UNL A   1      38.268  32.534  33.034  1.00  0.00     0.049 A 
ATOM     49  C   UNL A   1      42.574  30.421  35.964  1.00  0.00     0.074 A 
ATOM     50  C   UNL A   1      37.539  33.538  33.647  1.00  0.00     0.029 A 
ATOM     51  N   UNL A   1      39.279  32.180  33.916  1.00  0.00    -0.354 N 
ATOM     52  N   UNL A   1      41.544  31.007  35.399  1.00  0.00    -0.248 NA
ATOM     53  C   UNL A   1      42.929  30.959  37.282  1.00  0.00     0.031 C 
ATOM     54  C   UNL A   1      38.151  33.839  34.869  1.00  0.00     0.029 A 
ATOM     55  C   UNL A   1      39.211  32.966  35.055  1.00  0.00     0.049 A 
ATOM     56  H   UNL A   1      39.947  31.475  33.755  1.00  0.00     0.167 HD
ATOM     57  C   UNL A   1      41.112  31.968  36.305  1.00  0.00     0.074 A 
ATOM     58  C   UNL A   1      41.977  31.863  37.464  1.00  0.00     0.031 C 
ATOM     59  C   UNL A   1      40.091  32.854  36.194  1.00  0.00     0.031 A 
BRANCH  46  60
ATOM     60  C   UNL A   1      36.945  32.465  30.870  1.00  0.00    -0.014 A 
ATOM     61  C   UNL A   1      35.657  31.898  30.876  1.00  0.00     0.010 A 
ATOM     62  C   UNL A   1      37.194  33.571  30.035  1.00  0.00     0.010 A 
ATOM     63  C   UNL A   1      34.657  32.398  30.033  1.00  0.00     0.020 A 
ATOM     64  C   UNL A   1      36.190  34.093  29.215  1.00  0.00     0.020 A 
ATOM     65  C   UNL A   1      34.932  33.491  29.205  1.00  0.00     0.054 A 
BRANCH  65  66
ATOM     66  S   UNL A   1      33.614  34.126  28.131  1.00  0.00     0.124 S 
ATOM     67  O   UNL A   1      33.018  32.894  27.622  1.00  0.00    -0.237 OA
ATOM     68  O   UNL A   1      32.785  34.889  29.059  1.00  0.00    -0.237 OA
ATOM     69  O   UNL A   1      34.330  34.925  27.138  1.00  0.00    -0.744 OA
ENDBRANCH  65  66
ENDBRANCH  46  60
BRANCH  47  70
ATOM     70  C   UNL A   1      44.572  28.764  36.228  1.00  0.00    -0.014 A 
ATOM     71  C   UNL A   1      45.842  29.359  36.131  1.00  0.00     0.010 A 
ATOM     72  C   UNL A   1      44.403  27.662  37.089  1.00  0.00     0.010 A 
ATOM     73  C   UNL A   1      46.920  28.857  36.868  1.00  0.00     0.020 A 
ATOM     74  C   UNL A   1      45.468  27.181  37.856  1.00  0.00     0.020 A 
ATOM     75  C   UNL A   1      46.724  27.775  37.731  1.00  0.00     0.054 A 
BRANCH  75  76
ATOM     76  S   UNL A   1      48.123  27.178  38.719  1.00  0.00     0.124 S 
ATOM     77  O   UNL A   1      48.960  26.541  37.707  1.00  0.00    -0.237 OA
ATOM     78  O   UNL A   1      48.650  28.412  39.294  1.00  0.00    -0.237 OA
ATOM     79  O   UNL A   1      47.501  26.269  39.680  1.00  0.00    -0.744 OA
ENDBRANCH  75  76
ENDBRANCH  47  70
BRANCH  59  80
ATOM     80  C   UNL A   1      39.827  33.744  37.381  1.00  0.00    -0.014 A 
ATOM     81  C   UNL A   1      38.940  33.365  38.405  1.00  0.00     0.010 A 
ATOM     82  C   UNL A   1      40.485  34.984  37.470  1.00  0.00     0.010 A 
ATOM     83  C   UNL A   1      38.668  34.239  39.460  1.00  0.00     0.020 A 
ATOM     84  C   UNL A   1      40.245  35.843  38.542  1.00  0.00     0.020 A 
ATOM     85  C   UNL A   1      39.317  35.476  39.518  1.00  0.00     0.054 A 
BRANCH  85  86
ATOM     86  S   UNL A   1      38.942  36.597  40.893  1.00  0.00     0.124 S 
ATOM     87  O   UNL A   1      38.030  35.792  41.699  1.00  0.00    -0.237 OA
ATOM     88  O   UNL A   1      40.259  36.835  41.481  1.00  0.00    -0.237 OA
ATOM     89  O   UNL A   1      38.339  37.757  40.240  1.00  0.00    -0.744 OA
ENDBRANCH  85  86
ENDBRANCH  59  80
ENDBRANCH  33  34
ENDBRANCH  26  28
ENDBRANCH  25  26
ENDBRANCH  24  25
ENDBRANCH  23  24
ENDBRANCH  22  23
ENDBRANCH   1  22
TORSDOF 21
ENDMDL
MODEL 2
REMARK VINA RESULT:     -10.1      4.260     10.792
REMARK SMILES CC(C)(CC(=O)OCCOCCOC(=O)c1ccc(-c2c3nc(c(-c4ccc(S(=O)(=O)[O-])cc4)c4ccc([nH]4)c(-c4ccc(S(=O)(=O)[O-])cc4)c4nc(c(-c5ccc(S(=O)(=O)[O-])cc5)c5ccc2[nH]5)C=C4)C=C3)cc1)Cc1nc([C@@]2(C)CCCO2)no1
REMARK SMILES IDX 9 1 8 2 7 3 5 4 6 5 4 6 2 7 1 8 3 9 76 10 77 11 78 12 87 13
REMARK SMILES IDX 79 14 86 15 80 16 81 17 82 18 85 19 83 20 84 21 10 22 11 23
REMARK SMILES IDX 12 24 13 25 14 26 15 27 16 28 17 29 75 30 18 31 74 32 19 33
REMARK SMILES IDX 20 34 21 35 68 36 22 37 73 38 67 39 69 40 23 41 72 42 66 43
REMARK SMILES IDX 65 44 24 46 54 47 35 48 53 49 36 50 39 51 52 52 70 53 37 54
REMARK SMILES IDX 38 55 51 57 71 58 40 59 25 60 26 61 34 62 27 63 33 64 28 65
REMARK SMILES IDX 29 66 30 67 31 68 32 69 55 70 56 71 64 72 57 73 63 74 58 75
REMARK SMILES IDX 59 76 60 77 61 78 62 79 41 80 42 81 50 82 43 83 49 84 44 85
REMARK SMILES IDX 45 86 46 87 47 88 48 89
REMARK H PARENT 69 45 39 56
REMARK Flexibility Score: inf
ROOT
ATOM      1  C   UNL A   1      43.194  22.052  26.650  1.00  0.00     0.202 C 
ENDROOT
BRANCH   1   2
ATOM      2  C   UNL A   1      43.427  23.533  26.296  1.00  0.00     0.261 C 
BRANCH   2   3
ATOM      3  O   UNL A   1      43.880  23.782  24.964  1.00  0.00    -0.463 OA
BRANCH   3   4
ATOM      4  C   UNL A   1      45.212  23.911  24.843  1.00  0.00     0.306 C 
ATOM      5  O   UNL A   1      45.873  23.556  23.872  1.00  0.00    -0.252 OA
BRANCH   4   6
ATOM      6  C   UNL A   1      45.864  24.589  26.021  1.00  0.00     0.129 C 
BRANCH   6   7
ATOM      7  C   UNL A   1      46.639  25.936  25.951  1.00  0.00    -0.016 C 
ATOM      8  C   UNL A   1      48.077  25.793  25.438  1.00  0.00     0.012 C 
ATOM      9  C   UNL A   1      45.850  26.732  24.855  1.00  0.00     0.012 C 
BRANCH   7  10
ATOM     10  C   UNL A   1      46.576  26.815  27.225  1.00  0.00     0.107 C 
BRANCH  10  11
ATOM     11  C   UNL A   1      46.351  28.292  27.174  1.00  0.00     0.227 A 
ATOM     12  N   UNL A   1      45.119  29.382  27.146  1.00  0.00    -0.193 NA
ATOM     13  O   UNL A   1      47.889  29.225  26.675  1.00  0.00    -0.339 OA
ATOM     14  C   UNL A   1      45.695  31.101  26.663  1.00  0.00     0.203 A 
ATOM     15  N   UNL A   1      47.380  31.087  26.357  1.00  0.00    -0.059 NA
BRANCH  14  16
ATOM     16  C   UNL A   1      44.898  32.400  26.641  1.00  0.00     0.128 C 
ATOM     17  C   UNL A   1      44.114  32.755  27.934  1.00  0.00     0.051 C 
ATOM     18  C   UNL A   1      45.809  33.571  26.233  1.00  0.00     0.046 C 
ATOM     19  O   UNL A   1      43.914  32.403  25.570  1.00  0.00    -0.367 OA
ATOM     20  C   UNL A   1      44.834  34.606  25.731  1.00  0.00     0.032 C 
ATOM     21  C   UNL A   1      43.704  33.769  25.163  1.00  0.00     0.161 C 
ENDBRANCH  14  16
ENDBRANCH  10  11
ENDBRANCH   7  10
ENDBRANCH   6   7
ENDBRANCH   4   6
ENDBRANCH   3   4
ENDBRANCH   2   3
ENDBRANCH   1   2
BRANCH   1  22
ATOM     22  O   UNL A   1      41.938  21.544  27.077  1.00  0.00    -0.374 OA
BRANCH  22  23
ATOM     23  C   UNL A   1      41.282  20.507  26.357  1.00  0.00     0.202 C 
BRANCH  23  24
ATOM     24  C   UNL A   1      39.637  20.530  25.856  1.00  0.00     0.261 C 
BRANCH  24  25
ATOM     25  O   UNL A   1      38.370  22.199  25.707  1.00  0.00    -0.460 OA
BRANCH  25  26
ATOM     26  C   UNL A   1      37.988  23.545  25.857  1.00  0.00     0.338 C 
ATOM     27  O   UNL A   1      36.974  24.057  25.400  1.00  0.00    -0.246 OA
BRANCH  26  28
ATOM     28  C   UNL A   1      38.960  24.372  26.648  1.00  0.00     0.060 A 
ATOM     29  C   UNL A   1      38.909  24.418  28.030  1.00  0.00     0.016 A 
ATOM     30  C   UNL A   1      39.837  25.251  26.012  1.00  0.00     0.016 A 
ATOM     31  C   UNL A   1      39.466  25.462  28.758  1.00  0.00     0.010 A 
ATOM     32  C   UNL A   1      40.531  26.223  26.754  1.00  0.00     0.010 A 
ATOM     33  C   UNL A   1      40.265  26.406  28.122  1.00  0.00    -0.014 A 
BRANCH  33  34
ATOM     34  C   UNL A   1      40.704  27.623  28.861  1.00  0.00     0.031 A 
ATOM     35  C   UNL A   1      42.098  27.673  29.444  1.00  0.00     0.074 A 
ATOM     36  C   UNL A   1      39.905  28.707  28.947  1.00  0.00     0.049 A 
ATOM     37  N   UNL A   1      42.644  28.579  30.215  1.00  0.00    -0.248 NA
ATOM     38  C   UNL A   1      42.997  26.550  29.121  1.00  0.00     0.031 C 
ATOM     39  C   UNL A   1      38.573  28.834  28.346  1.00  0.00     0.029 A 
ATOM     40  N   UNL A   1      40.101  29.918  29.564  1.00  0.00    -0.354 N 
ATOM     41  C   UNL A   1      43.919  28.108  30.515  1.00  0.00     0.074 A 
ATOM     42  C   UNL A   1      44.065  26.832  29.852  1.00  0.00     0.031 C 
ATOM     43  C   UNL A   1      38.087  30.058  28.601  1.00  0.00     0.029 A 
ATOM     44  C   UNL A   1      39.023  30.768  29.462  1.00  0.00     0.049 A 
ATOM     45  H   UNL A   1      40.932  30.156  30.035  1.00  0.00     0.167 HD
ATOM     46  C   UNL A   1      44.879  28.683  31.281  1.00  0.00     0.031 A 
ATOM     47  C   UNL A   1      38.787  31.965  30.036  1.00  0.00     0.031 A 
ATOM     48  C   UNL A   1      44.725  29.960  31.928  1.00  0.00     0.049 A 
ATOM     49  C   UNL A   1      39.835  32.549  30.940  1.00  0.00     0.074 A 
ATOM     50  C   UNL A   1      45.626  30.632  32.736  1.00  0.00     0.029 A 
ATOM     51  N   UNL A   1      43.596  30.763  31.837  1.00  0.00    -0.354 N 
ATOM     52  N   UNL A   1      41.014  32.066  31.257  1.00  0.00    -0.248 NA
ATOM     53  C   UNL A   1      39.523  33.840  31.563  1.00  0.00     0.031 C 
ATOM     54  C   UNL A   1      45.015  31.807  33.189  1.00  0.00     0.029 A 
ATOM     55  C   UNL A   1      43.767  31.908  32.596  1.00  0.00     0.049 A 
ATOM     56  H   UNL A   1      42.793  30.548  31.310  1.00  0.00     0.167 HD
ATOM     57  C   UNL A   1      41.596  33.008  32.096  1.00  0.00     0.074 A 
ATOM     58  C   UNL A   1      40.648  34.099  32.215  1.00  0.00     0.031 C 
ATOM     59  C   UNL A   1      42.805  32.978  32.711  1.00  0.00     0.031 A 
BRANCH  46  60
ATOM     60  C   UNL A   1      46.149  27.900  31.520  1.00  0.00    -0.014 A 
ATOM     61  C   UNL A   1      46.261  26.958  32.559  1.00  0.00     0.010 A 
ATOM     62  C   UNL A   1      47.252  28.104  30.669  1.00  0.00     0.010 A 
ATOM     63  C   UNL A   1      47.462  26.271  32.769  1.00  0.00     0.020 A 
ATOM     64  C   UNL A   1      48.443  27.398  30.855  1.00  0.00     0.020 A 
ATOM     65  C   UNL A   1      48.548  26.499  31.916  1.00  0.00     0.054 A 
BRANCH  65  66
ATOM     66  S   UNL A   1      50.090  25.587  32.204  1.00  0.00     0.124 S 
ATOM     67  O   UNL A   1      51.020  26.663  32.536  1.00  0.00    -0.237 OA
ATOM     68  O   UNL A   1      49.736  24.700  33.308  1.00  0.00    -0.237 OA
ATOM     69  O   UNL A   1      50.343  24.920  30.928  1.00  0.00    -0.744 OA
ENDBRANCH  65  66
ENDBRANCH  46  60
BRANCH  47  70
ATOM     70  C   UNL A   1      37.485  32.655  29.812  1.00  0.00    -0.014 A 
ATOM     71  C   UNL A   1      37.324  33.575  28.762  1.00  0.00     0.010 A 
ATOM     72  C   UNL A   1      36.386  32.382  30.650  1.00  0.00     0.010 A 
ATOM     73  C   UNL A   1      36.097  34.217  28.563  1.00  0.00     0.020 A 
ATOM     74  C   UNL A   1      35.148  32.992  30.432  1.00  0.00     0.020 A 
ATOM     75  C   UNL A   1      35.015  33.916  29.395  1.00  0.00     0.054 A 
BRANCH  75  76
ATOM     76  S   UNL A   1      33.418  34.718  29.081  1.00  0.00     0.124 S 
ATOM     77  O   UNL A   1      33.827  35.988  28.490  1.00  0.00    -0.237 OA
ATOM     78  O   UNL A   1      32.767  33.776  28.175  1.00  0.00    -0.237 OA
ATOM     79  O   UNL A   1      32.815  34.810  30.409  1.00  0.00    -0.744 OA
ENDBRANCH  75  76
ENDBRANCH  47  70
BRANCH  59  80
ATOM     80  C   UNL A   1      43.186  34.187  33.526  1.00  0.00    -0.014 A 
ATOM     81  C   UNL A   1      43.865  35.279  32.955  1.00  0.00     0.010 A 
ATOM     82  C   UNL A   1      42.853  34.227  34.892  1.00  0.00     0.010 A 
ATOM     83  C   UNL A   1      44.261  36.357  33.750  1.00  0.00     0.020 A 
ATOM     84  C   UNL A   1      43.213  35.321  35.682  1.00  0.00     0.020 A 
ATOM     85  C   UNL A   1      43.938  36.367  35.111  1.00  0.00     0.054 A 
BRANCH  85  86
ATOM     86  S   UNL A   1      44.469  37.773  36.125  1.00  0.00     0.124 S 
ATOM     87  O   UNL A   1      44.176  38.904  35.249  1.00  0.00    -0.237 OA
ATOM     88  O   UNL A   1      43.618  37.656  37.306  1.00  0.00    -0.237 OA
ATOM     89  O   UNL A   1      45.888  37.517  36.357  1.00  0.00    -0.744 OA
ENDBRANCH  85  86
ENDBRANCH  59  80
ENDBRANCH  33  34
ENDBRANCH  26  28
ENDBRANCH  25  26
ENDBRANCH  24  25
ENDBRANCH  23  24
ENDBRANCH  22  23
ENDBRANCH   1  22
TORSDOF 21
ENDMDL
MODEL 3
REMARK VINA RESULT:      -9.6      4.709      9.366
REMARK SMILES CC(C)(CC(=O)OCCOCCOC(=O)c1ccc(-c2c3nc(c(-c4ccc(S(=O)(=O)[O-])cc4)c4ccc([nH]4)c(-c4ccc(S(=O)(=O)[O-])cc4)c4nc(c(-c5ccc(S(=O)(=O)[O-])cc5)c5ccc2[nH]5)C=C4)C=C3)cc1)Cc1nc([C@@]2(C)CCCO2)no1
REMARK SMILES IDX 9 1 8 2 7 3 5 4 6 5 4 6 2 7 1 8 3 9 76 10 77 11 78 12 87 13
REMARK SMILES IDX 79 14 86 15 80 16 81 17 82 18 85 19 83 20 84 21 10 22 11 23
REMARK SMILES IDX 12 24 13 25 14 26 15 27 16 28 17 29 75 30 18 31 74 32 19 33
REMARK SMILES IDX 20 34 21 35 68 36 22 37 73 38 67 39 69 40 23 41 72 42 66 43
REMARK SMILES IDX 65 44 24 46 54 47 35 48 53 49 36 50 39 51 52 52 70 53 37 54
REMARK SMILES IDX 38 55 51 57 71 58 40 59 25 60 26 61 34 62 27 63 33 64 28 65
REMARK SMILES IDX 29 66 30 67 31 68 32 69 55 70 56 71 64 72 57 73 63 74 58 75
REMARK SMILES IDX 59 76 60 77 61 78 62 79 41 80 42 81 50 82 43 83 49 84 44 85
REMARK SMILES IDX 45 86 46 87 47 88 48 89
REMARK H PARENT 69 45 39 56
REMARK Flexibility Score: inf
ROOT
ATOM      1  C   UNL A   1      43.038  20.595  25.750  1.00  0.00     0.202 C 
ENDROOT
BRANCH   1   2
ATOM      2  C   UNL A   1      42.924  21.893  26.572  1.00  0.00     0.261 C 
BRANCH   2   3
ATOM      3  O   UNL A   1      41.855  22.765  26.198  1.00  0.00    -0.463 OA
BRANCH   3   4
ATOM      4  C   UNL A   1      40.869  22.860  27.107  1.00  0.00     0.306 C 
ATOM      5  O   UNL A   1      40.662  22.058  28.012  1.00  0.00    -0.252 OA
BRANCH   4   6
ATOM      6  C   UNL A   1      40.021  24.096  26.952  1.00  0.00     0.129 C 
BRANCH   6   7
ATOM      7  C   UNL A   1      40.455  25.528  27.378  1.00  0.00    -0.016 C 
ATOM      8  C   UNL A   1      41.619  25.547  28.375  1.00  0.00     0.012 C 
ATOM      9  C   UNL A   1      41.002  26.134  26.039  1.00  0.00     0.012 C 
BRANCH   7  10
ATOM     10  C   UNL A   1      39.312  26.474  27.822  1.00  0.00     0.107 C 
BRANCH  10  11
ATOM     11  C   UNL A   1      39.471  27.466  28.929  1.00  0.00     0.227 A 
ATOM     12  N   UNL A   1      38.733  27.936  30.321  1.00  0.00    -0.193 NA
ATOM     13  O   UNL A   1      40.682  28.820  28.494  1.00  0.00    -0.339 OA
ATOM     14  C   UNL A   1      39.370  29.584  30.950  1.00  0.00     0.203 A 
ATOM     15  N   UNL A   1      40.566  30.192  29.885  1.00  0.00    -0.059 NA
BRANCH  14  16
ATOM     16  C   UNL A   1      39.038  30.297  32.256  1.00  0.00     0.128 C 
ATOM     17  C   UNL A   1      39.611  29.668  33.554  1.00  0.00     0.051 C 
ATOM     18  C   UNL A   1      39.436  31.781  32.162  1.00  0.00     0.046 C 
ATOM     19  O   UNL A   1      37.601  30.388  32.462  1.00  0.00    -0.367 OA
ATOM     20  C   UNL A   1      38.586  32.432  33.224  1.00  0.00     0.032 C 
ATOM     21  C   UNL A   1      37.338  31.569  33.244  1.00  0.00     0.161 C 
ENDBRANCH  14  16
ENDBRANCH  10  11
ENDBRANCH   7  10
ENDBRANCH   6   7
ENDBRANCH   4   6
ENDBRANCH   3   4
ENDBRANCH   2   3
ENDBRANCH   1   2
BRANCH   1  22
ATOM     22  O   UNL A   1      44.007  20.405  24.729  1.00  0.00    -0.374 OA
BRANCH  22  23
ATOM     23  C   UNL A   1      45.202  21.177  24.700  1.00  0.00     0.202 C 
BRANCH  23  24
ATOM     24  C   UNL A   1      45.415  22.649  23.836  1.00  0.00     0.261 C 
BRANCH  24  25
ATOM     25  O   UNL A   1      46.569  24.310  24.407  1.00  0.00    -0.460 OA
BRANCH  25  26
ATOM     26  C   UNL A   1      47.218  25.547  24.240  1.00  0.00     0.338 C 
ATOM     27  O   UNL A   1      48.152  25.769  23.481  1.00  0.00    -0.246 OA
BRANCH  26  28
ATOM     28  C   UNL A   1      46.673  26.645  25.107  1.00  0.00     0.060 A 
ATOM     29  C   UNL A   1      47.511  27.478  25.826  1.00  0.00     0.016 A 
ATOM     30  C   UNL A   1      45.303  26.755  25.346  1.00  0.00     0.016 A 
ATOM     31  C   UNL A   1      47.075  28.188  26.937  1.00  0.00     0.010 A 
ATOM     32  C   UNL A   1      44.827  27.590  26.374  1.00  0.00     0.010 A 
ATOM     33  C   UNL A   1      45.720  28.230  27.250  1.00  0.00    -0.014 A 
BRANCH  33  34
ATOM     34  C   UNL A   1      45.276  28.829  28.540  1.00  0.00     0.031 A 
ATOM     35  C   UNL A   1      45.282  27.979  29.791  1.00  0.00     0.074 A 
ATOM     36  C   UNL A   1      44.947  30.135  28.621  1.00  0.00     0.049 A 
ATOM     37  N   UNL A   1      44.833  28.261  30.988  1.00  0.00    -0.248 NA
ATOM     38  C   UNL A   1      45.865  26.631  29.679  1.00  0.00     0.031 C 
ATOM     39  C   UNL A   1      44.992  31.095  27.513  1.00  0.00     0.029 A 
ATOM     40  N   UNL A   1      44.521  30.888  29.688  1.00  0.00    -0.354 N 
ATOM     41  C   UNL A   1      45.025  27.111  31.749  1.00  0.00     0.074 A 
ATOM     42  C   UNL A   1      45.622  26.124  30.878  1.00  0.00     0.031 C 
ATOM     43  C   UNL A   1      44.637  32.307  27.964  1.00  0.00     0.029 A 
ATOM     44  C   UNL A   1      44.245  32.196  29.362  1.00  0.00     0.049 A 
ATOM     45  H   UNL A   1      44.423  30.526  30.598  1.00  0.00     0.167 HD
ATOM     46  C   UNL A   1      44.723  26.895  33.053  1.00  0.00     0.031 A 
ATOM     47  C   UNL A   1      43.691  33.186  30.090  1.00  0.00     0.031 A 
ATOM     48  C   UNL A   1      44.137  27.891  33.913  1.00  0.00     0.049 A 
ATOM     49  C   UNL A   1      43.296  32.902  31.511  1.00  0.00     0.074 A 
ATOM     50  C   UNL A   1      43.779  27.777  35.245  1.00  0.00     0.029 A 
ATOM     51  N   UNL A   1      43.829  29.188  33.525  1.00  0.00    -0.354 N 
ATOM     52  N   UNL A   1      43.435  31.793  32.200  1.00  0.00    -0.248 NA
ATOM     53  C   UNL A   1      42.673  34.003  32.255  1.00  0.00     0.031 C 
ATOM     54  C   UNL A   1      43.191  28.983  35.643  1.00  0.00     0.029 A 
ATOM     55  C   UNL A   1      43.258  29.875  34.584  1.00  0.00     0.049 A 
ATOM     56  H   UNL A   1      43.991  29.563  32.630  1.00  0.00     0.167 HD
ATOM     57  C   UNL A   1      42.939  32.071  33.468  1.00  0.00     0.074 A 
ATOM     58  C   UNL A   1      42.522  33.460  33.454  1.00  0.00     0.031 C 
ATOM     59  C   UNL A   1      42.839  31.255  34.547  1.00  0.00     0.031 A 
BRANCH  46  60
ATOM     60  C   UNL A   1      44.952  25.507  33.605  1.00  0.00    -0.014 A 
ATOM     61  C   UNL A   1      44.027  24.464  33.409  1.00  0.00     0.010 A 
ATOM     62  C   UNL A   1      46.131  25.240  34.325  1.00  0.00     0.010 A 
ATOM     63  C   UNL A   1      44.259  23.198  33.960  1.00  0.00     0.020 A 
ATOM     64  C   UNL A   1      46.382  23.970  34.850  1.00  0.00     0.020 A 
ATOM     65  C   UNL A   1      45.434  22.960  34.681  1.00  0.00     0.054 A 
BRANCH  65  66
ATOM     66  S   UNL A   1      45.714  21.307  35.375  1.00  0.00     0.124 S 
ATOM     67  O   UNL A   1      47.073  21.017  34.927  1.00  0.00    -0.237 OA
ATOM     68  O   UNL A   1      45.560  21.533  36.809  1.00  0.00    -0.237 OA
ATOM     69  O   UNL A   1      44.670  20.490  34.760  1.00  0.00    -0.744 OA
ENDBRANCH  65  66
ENDBRANCH  46  60
BRANCH  47  70
ATOM     70  C   UNL A   1      43.431  34.514  29.464  1.00  0.00    -0.014 A 
ATOM     71  C   UNL A   1      44.365  35.559  29.566  1.00  0.00     0.010 A 
ATOM     72  C   UNL A   1      42.240  34.737  28.745  1.00  0.00     0.010 A 
ATOM     73  C   UNL A   1      44.109  36.801  28.976  1.00  0.00     0.020 A 
ATOM     74  C   UNL A   1      41.997  35.963  28.122  1.00  0.00     0.020 A 
ATOM     75  C   UNL A   1      42.930  36.993  28.251  1.00  0.00     0.054 A 
BRANCH  75  76
ATOM     76  S   UNL A   1      42.646  38.593  27.445  1.00  0.00     0.124 S 
ATOM     77  O   UNL A   1      41.460  38.322  26.641  1.00  0.00    -0.237 OA
ATOM     78  O   UNL A   1      42.452  39.488  28.583  1.00  0.00    -0.237 OA
ATOM     79  O   UNL A   1      43.877  38.819  26.690  1.00  0.00    -0.744 OA
ENDBRANCH  75  76
ENDBRANCH  47  70
BRANCH  59  80
ATOM     80  C   UNL A   1      42.302  31.865  35.816  1.00  0.00    -0.014 A 
ATOM     81  C   UNL A   1      43.152  32.465  36.764  1.00  0.00     0.010 A 
ATOM     82  C   UNL A   1      40.917  31.837  36.060  1.00  0.00     0.010 A 
ATOM     83  C   UNL A   1      42.632  32.965  37.960  1.00  0.00     0.020 A 
ATOM     84  C   UNL A   1      40.389  32.371  37.237  1.00  0.00     0.020 A 
ATOM     85  C   UNL A   1      41.254  32.908  38.191  1.00  0.00     0.054 A 
BRANCH  85  86
ATOM     86  S   UNL A   1      40.602  33.556  39.754  1.00  0.00     0.124 S 
ATOM     87  O   UNL A   1      41.815  33.686  40.556  1.00  0.00    -0.237 OA
ATOM     88  O   UNL A   1      39.981  34.814  39.345  1.00  0.00    -0.237 OA
ATOM     89  O   UNL A   1      39.670  32.522  40.197  1.00  0.00    -0.744 OA
ENDBRANCH  85  86
ENDBRANCH  59  80
ENDBRANCH  33  34
ENDBRANCH  26  28
ENDBRANCH  25  26
ENDBRANCH  24  25
ENDBRANCH  23  24
ENDBRANCH  22  23
ENDBRANCH   1  22
TORSDOF 21
ENDMDL
