MODEL 1
REMARK VINA RESULT:     -10.5      0.000      0.000
REMARK SMILES Cc1ccsc1CNC(=O)N1CCOC[C@H]1C(=O)OCCOCCOC(=O)c1ccc(-c2c3nc(c(-c4ccc(S(=O)(=O)[O-])cc4)c4ccc([nH]4)c(-c4ccc(S(=O)(=O)[O-])cc4)c4nc(c(-c5ccc(S(=O)(=O)[O-])cc5)c5ccc2[nH]5)C=C4)C=C3)cc1
REMARK SMILES IDX 22 1 21 2 20 3 19 4 17 5 18 6 16 7 11 8 12 9 13 10 15 11
REMARK SMILES IDX 14 12 9 13 8 14 10 16 7 17 6 18 1 19 2 20 3 21 4 22 5 23
REMARK SMILES IDX 23 24 24 25 25 26 26 27 27 28 28 29 29 30 87 31 30 32 86 33
REMARK SMILES IDX 31 34 32 35 33 36 80 37 34 38 85 39 79 40 81 41 35 42 84 43
REMARK SMILES IDX 78 44 77 45 36 47 66 48 47 49 65 50 48 51 51 52 64 53 82 54
REMARK SMILES IDX 49 55 50 56 63 58 83 59 52 60 37 61 38 62 46 63 39 64 45 65
REMARK SMILES IDX 40 66 41 67 42 68 43 69 44 70 67 71 68 72 76 73 69 74 75 75
REMARK SMILES IDX 70 76 71 77 72 78 73 79 74 80 53 81 54 82 62 83 55 84 61 85
REMARK SMILES IDX 56 86 57 87 58 88 59 89 60 90
REMARK H PARENT 8 15 81 46 51 57
REMARK Flexibility Score: inf
ROOT
ATOM      1  O   UNL A   1      37.911  22.142  25.860  1.00  0.00    -0.374 OA
ENDROOT
BRANCH   1   2
ATOM      2  C   UNL A   1      37.386  21.620  24.638  1.00  0.00     0.202 C 
BRANCH   2   3
ATOM      3  C   UNL A   1      36.513  22.577  23.829  1.00  0.00     0.261 C 
BRANCH   3   4
ATOM      4  O   UNL A   1      35.146  22.483  24.260  1.00  0.00    -0.462 OA
BRANCH   4   5
ATOM      5  C   UNL A   1      34.701  23.454  25.099  1.00  0.00     0.331 C 
ATOM      6  O   UNL A   1      35.111  24.612  25.095  1.00  0.00    -0.250 OA
BRANCH   5   7
ATOM      7  C   UNL A   1      33.706  22.938  26.149  1.00  0.00     0.222 C 
ATOM      8  N   UNL A   1      32.260  22.824  25.849  1.00  0.00    -0.306 N 
ATOM      9  C   UNL A   1      31.906  21.766  24.903  1.00  0.00     0.151 C 
ATOM     10  C   UNL A   1      32.507  20.433  25.357  1.00  0.00     0.182 C 
ATOM     11  C   UNL A   1      34.212  21.554  26.586  1.00  0.00     0.197 C 
ATOM     12  O   UNL A   1      33.920  20.549  25.596  1.00  0.00    -0.377 OA
BRANCH   8  13
ATOM     13  C   UNL A   1      31.408  23.694  26.457  1.00  0.00     0.318 C 
ATOM     14  N   UNL A   1      31.216  24.940  25.967  1.00  0.00    -0.333 N 
ATOM     15  H   UNL A   1      30.777  25.551  26.602  1.00  0.00     0.165 HD
ATOM     16  O   UNL A   1      30.717  23.354  27.420  1.00  0.00    -0.249 OA
BRANCH  14  17
ATOM     17  C   UNL A   1      31.531  25.551  24.690  1.00  0.00     0.165 C 
BRANCH  17  18
ATOM     18  C   UNL A   1      31.342  27.051  24.682  1.00  0.00     0.027 A 
ATOM     19  C   UNL A   1      33.206  27.745  26.327  1.00  0.00     0.045 C 
ATOM     20  C   UNL A   1      32.085  28.007  25.371  1.00  0.00    -0.035 A 
ATOM     21  C   UNL A   1      31.671  29.338  25.027  1.00  0.00     0.015 A 
ATOM     22  C   UNL A   1      30.659  29.359  24.099  1.00  0.00     0.065 A 
ATOM     23  S   UNL A   1      30.194  27.788  23.634  1.00  0.00    -0.147 S 
ENDBRANCH  17  18
ENDBRANCH  14  17
ENDBRANCH   8  13
ENDBRANCH   5   7
ENDBRANCH   4   5
ENDBRANCH   3   4
ENDBRANCH   2   3
ENDBRANCH   1   2
BRANCH   1  24
ATOM     24  C   UNL A   1      39.283  21.871  26.157  1.00  0.00     0.202 C 
BRANCH  24  25
ATOM     25  C   UNL A   1      40.076  23.006  26.816  1.00  0.00     0.261 C 
BRANCH  25  26
ATOM     26  O   UNL A   1      39.454  24.296  26.664  1.00  0.00    -0.460 OA
BRANCH  26  27
ATOM     27  C   UNL A   1      40.315  25.318  26.434  1.00  0.00     0.338 C 
ATOM     28  O   UNL A   1      40.819  25.633  25.364  1.00  0.00    -0.246 OA
BRANCH  27  29
ATOM     29  C   UNL A   1      40.463  26.144  27.646  1.00  0.00     0.060 A 
ATOM     30  C   UNL A   1      39.536  25.958  28.680  1.00  0.00     0.016 A 
ATOM     31  C   UNL A   1      41.437  27.140  27.739  1.00  0.00     0.016 A 
ATOM     32  C   UNL A   1      39.552  26.797  29.792  1.00  0.00     0.010 A 
ATOM     33  C   UNL A   1      41.447  27.987  28.853  1.00  0.00     0.010 A 
ATOM     34  C   UNL A   1      40.485  27.840  29.870  1.00  0.00    -0.014 A 
BRANCH  34  35
ATOM     35  C   UNL A   1      40.372  28.854  30.947  1.00  0.00     0.031 A 
ATOM     36  C   UNL A   1      41.286  28.764  32.139  1.00  0.00     0.074 A 
ATOM     37  C   UNL A   1      39.485  29.861  30.854  1.00  0.00     0.049 A 
ATOM     38  N   UNL A   1      41.340  29.527  33.200  1.00  0.00    -0.248 NA
ATOM     39  C   UNL A   1      42.269  27.668  32.131  1.00  0.00     0.031 C 
ATOM     40  C   UNL A   1      38.584  30.093  29.726  1.00  0.00     0.029 A 
ATOM     41  N   UNL A   1      39.199  30.880  31.727  1.00  0.00    -0.354 N 
ATOM     42  C   UNL A   1      42.360  29.003  33.988  1.00  0.00     0.074 A 
ATOM     43  C   UNL A   1      42.872  27.839  33.298  1.00  0.00     0.031 C 
ATOM     44  C   UNL A   1      37.847  31.188  29.975  1.00  0.00     0.029 A 
ATOM     45  C   UNL A   1      38.198  31.714  31.294  1.00  0.00     0.049 A 
ATOM     46  H   UNL A   1      39.669  31.002  32.584  1.00  0.00     0.167 HD
ATOM     47  C   UNL A   1      42.833  29.454  35.176  1.00  0.00     0.031 A 
ATOM     48  C   UNL A   1      37.618  32.770  31.896  1.00  0.00     0.031 A 
ATOM     49  C   UNL A   1      42.307  30.598  35.874  1.00  0.00     0.049 A 
ATOM     50  C   UNL A   1      38.089  33.193  33.263  1.00  0.00     0.074 A 
ATOM     51  C   UNL A   1      42.717  31.134  37.081  1.00  0.00     0.029 A 
ATOM     52  N   UNL A   1      41.248  31.376  35.430  1.00  0.00    -0.354 N 
ATOM     53  N   UNL A   1      39.059  32.694  33.992  1.00  0.00    -0.248 NA
ATOM     54  C   UNL A   1      37.388  34.326  33.886  1.00  0.00     0.031 C 
ATOM     55  C   UNL A   1      41.869  32.202  37.396  1.00  0.00     0.029 A 
ATOM     56  C   UNL A   1      40.970  32.370  36.355  1.00  0.00     0.049 A 
ATOM     57  H   UNL A   1      40.764  31.242  34.583  1.00  0.00     0.167 HD
ATOM     58  C   UNL A   1      39.103  33.468  35.147  1.00  0.00     0.074 A 
ATOM     59  C   UNL A   1      38.067  34.472  35.016  1.00  0.00     0.031 C 
ATOM     60  C   UNL A   1      39.930  33.360  36.216  1.00  0.00     0.031 A 
BRANCH  47  61
ATOM     61  C   UNL A   1      43.954  28.673  35.810  1.00  0.00    -0.014 A 
ATOM     62  C   UNL A   1      43.694  27.604  36.687  1.00  0.00     0.010 A 
ATOM     63  C   UNL A   1      45.288  29.013  35.525  1.00  0.00     0.010 A 
ATOM     64  C   UNL A   1      44.746  26.928  37.311  1.00  0.00     0.020 A 
ATOM     65  C   UNL A   1      46.344  28.321  36.125  1.00  0.00     0.020 A 
ATOM     66  C   UNL A   1      46.065  27.300  37.033  1.00  0.00     0.054 A 
BRANCH  66  67
ATOM     67  S   UNL A   1      47.414  26.421  37.870  1.00  0.00     0.124 S 
ATOM     68  O   UNL A   1      47.291  25.078  37.306  1.00  0.00    -0.237 OA
ATOM     69  O   UNL A   1      48.596  27.171  37.452  1.00  0.00    -0.237 OA
ATOM     70  O   UNL A   1      47.075  26.534  39.286  1.00  0.00    -0.744 OA
ENDBRANCH  66  67
ENDBRANCH  47  61
BRANCH  48  71
ATOM     71  C   UNL A   1      36.519  33.501  31.209  1.00  0.00    -0.014 A 
ATOM     72  C   UNL A   1      36.663  33.914  29.873  1.00  0.00     0.010 A 
ATOM     73  C   UNL A   1      35.312  33.768  31.882  1.00  0.00     0.010 A 
ATOM     74  C   UNL A   1      35.622  34.585  29.224  1.00  0.00     0.020 A 
ATOM     75  C   UNL A   1      34.261  34.415  31.229  1.00  0.00     0.020 A 
ATOM     76  C   UNL A   1      34.425  34.826  29.904  1.00  0.00     0.054 A 
BRANCH  76  77
ATOM     77  S   UNL A   1      33.063  35.634  29.018  1.00  0.00     0.124 S 
ATOM     78  O   UNL A   1      32.552  34.547  28.191  1.00  0.00    -0.237 OA
ATOM     79  O   UNL A   1      32.191  36.066  30.108  1.00  0.00    -0.237 OA
ATOM     80  O   UNL A   1      33.724  36.718  28.293  1.00  0.00    -0.744 OA
ENDBRANCH  76  77
ENDBRANCH  48  71
BRANCH  60  81
ATOM     81  C   UNL A   1      39.773  34.369  37.324  1.00  0.00    -0.014 A 
ATOM     82  C   UNL A   1      38.935  34.118  38.425  1.00  0.00     0.010 A 
ATOM     83  C   UNL A   1      40.522  35.559  37.290  1.00  0.00     0.010 A 
ATOM     84  C   UNL A   1      38.831  35.052  39.460  1.00  0.00     0.020 A 
ATOM     85  C   UNL A   1      40.442  36.483  38.335  1.00  0.00     0.020 A 
ATOM     86  C   UNL A   1      39.587  36.228  39.410  1.00  0.00     0.054 A 
BRANCH  86  87
ATOM     87  S   UNL A   1      39.474  37.400  40.790  1.00  0.00     0.124 S 
ATOM     88  O   UNL A   1      38.463  38.338  40.312  1.00  0.00    -0.237 OA
ATOM     89  O   UNL A   1      39.065  36.546  41.903  1.00  0.00    -0.237 OA
ATOM     90  O   UNL A   1      40.828  37.942  40.895  1.00  0.00    -0.744 OA
ENDBRANCH  86  87
ENDBRANCH  60  81
ENDBRANCH  34  35
ENDBRANCH  27  29
ENDBRANCH  26  27
ENDBRANCH  25  26
ENDBRANCH  24  25
ENDBRANCH   1  24
TORSDOF 20
ENDMDL
MODEL 2
REMARK VINA RESULT:     -10.5      1.605      2.296
REMARK SMILES Cc1ccsc1CNC(=O)N1CCOC[C@H]1C(=O)OCCOCCOC(=O)c1ccc(-c2c3nc(c(-c4ccc(S(=O)(=O)[O-])cc4)c4ccc([nH]4)c(-c4ccc(S(=O)(=O)[O-])cc4)c4nc(c(-c5ccc(S(=O)(=O)[O-])cc5)c5ccc2[nH]5)C=C4)C=C3)cc1
REMARK SMILES IDX 22 1 21 2 20 3 19 4 17 5 18 6 16 7 11 8 12 9 13 10 15 11
REMARK SMILES IDX 14 12 9 13 8 14 10 16 7 17 6 18 1 19 2 20 3 21 4 22 5 23
REMARK SMILES IDX 23 24 24 25 25 26 26 27 27 28 28 29 29 30 87 31 30 32 86 33
REMARK SMILES IDX 31 34 32 35 33 36 80 37 34 38 85 39 79 40 81 41 35 42 84 43
REMARK SMILES IDX 78 44 77 45 36 47 66 48 47 49 65 50 48 51 51 52 64 53 82 54
REMARK SMILES IDX 49 55 50 56 63 58 83 59 52 60 37 61 38 62 46 63 39 64 45 65
REMARK SMILES IDX 40 66 41 67 42 68 43 69 44 70 67 71 68 72 76 73 69 74 75 75
REMARK SMILES IDX 70 76 71 77 72 78 73 79 74 80 53 81 54 82 62 83 55 84 61 85
REMARK SMILES IDX 56 86 57 87 58 88 59 89 60 90
REMARK H PARENT 8 15 81 46 51 57
REMARK Flexibility Score: inf
ROOT
ATOM      1  O   UNL A   1      39.303  21.680  26.450  1.00  0.00    -0.374 OA
ENDROOT
BRANCH   1   2
ATOM      2  C   UNL A   1      38.372  22.081  25.442  1.00  0.00     0.202 C 
BRANCH   2   3
ATOM      3  C   UNL A   1      37.120  21.216  25.316  1.00  0.00     0.261 C 
BRANCH   3   4
ATOM      4  O   UNL A   1      36.080  21.947  24.646  1.00  0.00    -0.462 OA
BRANCH   4   5
ATOM      5  C   UNL A   1      34.805  21.539  24.869  1.00  0.00     0.331 C 
ATOM      6  O   UNL A   1      34.484  20.383  25.133  1.00  0.00    -0.250 OA
BRANCH   5   7
ATOM      7  C   UNL A   1      33.765  22.648  24.644  1.00  0.00     0.222 C 
ATOM      8  N   UNL A   1      32.334  22.329  24.432  1.00  0.00    -0.306 N 
ATOM      9  C   UNL A   1      31.631  21.824  25.611  1.00  0.00     0.151 C 
ATOM     10  C   UNL A   1      31.842  22.772  26.794  1.00  0.00     0.182 C 
ATOM     11  C   UNL A   1      33.869  23.593  25.850  1.00  0.00     0.197 C 
ATOM     12  O   UNL A   1      33.238  23.031  27.017  1.00  0.00    -0.377 OA
BRANCH   8  13
ATOM     13  C   UNL A   1      31.811  22.522  23.191  1.00  0.00     0.318 C 
ATOM     14  N   UNL A   1      31.036  23.595  22.919  1.00  0.00    -0.333 N 
ATOM     15  H   UNL A   1      30.527  23.514  22.080  1.00  0.00     0.165 HD
ATOM     16  O   UNL A   1      32.094  21.777  22.249  1.00  0.00    -0.249 OA
BRANCH  14  17
ATOM     17  C   UNL A   1      30.808  24.844  23.622  1.00  0.00     0.165 C 
BRANCH  17  18
ATOM     18  C   UNL A   1      31.815  25.916  23.278  1.00  0.00     0.027 A 
ATOM     19  C   UNL A   1      32.073  27.044  25.585  1.00  0.00     0.045 C 
ATOM     20  C   UNL A   1      32.387  26.855  24.135  1.00  0.00    -0.035 A 
ATOM     21  C   UNL A   1      33.383  27.639  23.461  1.00  0.00     0.015 A 
ATOM     22  C   UNL A   1      33.550  27.275  22.147  1.00  0.00     0.065 A 
ATOM     23  S   UNL A   1      32.514  25.997  21.708  1.00  0.00    -0.147 S 
ENDBRANCH  17  18
ENDBRANCH  14  17
ENDBRANCH   8  13
ENDBRANCH   5   7
ENDBRANCH   4   5
ENDBRANCH   3   4
ENDBRANCH   2   3
ENDBRANCH   1   2
BRANCH   1  24
ATOM     24  C   UNL A   1      40.521  22.420  26.552  1.00  0.00     0.202 C 
BRANCH  24  25
ATOM     25  C   UNL A   1      40.506  23.636  27.487  1.00  0.00     0.261 C 
BRANCH  25  26
ATOM     26  O   UNL A   1      39.650  24.697  27.023  1.00  0.00    -0.460 OA
BRANCH  26  27
ATOM     27  C   UNL A   1      40.277  25.879  26.806  1.00  0.00     0.338 C 
ATOM     28  O   UNL A   1      40.862  26.230  25.790  1.00  0.00    -0.246 OA
BRANCH  27  29
ATOM     29  C   UNL A   1      40.032  26.801  27.930  1.00  0.00     0.060 A 
ATOM     30  C   UNL A   1      40.662  28.052  27.898  1.00  0.00     0.016 A 
ATOM     31  C   UNL A   1      39.270  26.421  29.037  1.00  0.00     0.016 A 
ATOM     32  C   UNL A   1      40.568  28.911  28.991  1.00  0.00     0.010 A 
ATOM     33  C   UNL A   1      39.184  27.281  30.137  1.00  0.00     0.010 A 
ATOM     34  C   UNL A   1      39.858  28.516  30.133  1.00  0.00    -0.014 A 
BRANCH  34  35
ATOM     35  C   UNL A   1      39.929  29.337  31.366  1.00  0.00     0.031 A 
ATOM     36  C   UNL A   1      41.068  29.121  32.327  1.00  0.00     0.074 A 
ATOM     37  C   UNL A   1      39.008  30.284  31.617  1.00  0.00     0.049 A 
ATOM     38  N   UNL A   1      41.309  29.709  33.470  1.00  0.00    -0.248 NA
ATOM     39  C   UNL A   1      42.065  28.109  31.945  1.00  0.00     0.031 C 
ATOM     40  C   UNL A   1      37.891  30.631  30.740  1.00  0.00     0.029 A 
ATOM     41  N   UNL A   1      38.869  31.132  32.688  1.00  0.00    -0.354 N 
ATOM     42  C   UNL A   1      42.483  29.137  33.947  1.00  0.00     0.074 A 
ATOM     43  C   UNL A   1      42.886  28.133  32.985  1.00  0.00     0.031 C 
ATOM     44  C   UNL A   1      37.182  31.621  31.307  1.00  0.00     0.029 A 
ATOM     45  C   UNL A   1      37.774  31.954  32.602  1.00  0.00     0.049 A 
ATOM     46  H   UNL A   1      39.498  31.148  33.446  1.00  0.00     0.167 HD
ATOM     47  C   UNL A   1      43.171  29.425  35.080  1.00  0.00     0.031 A 
ATOM     48  C   UNL A   1      37.291  32.861  33.474  1.00  0.00     0.031 A 
ATOM     49  C   UNL A   1      42.757  30.407  36.048  1.00  0.00     0.049 A 
ATOM     50  C   UNL A   1      38.014  33.094  34.775  1.00  0.00     0.074 A 
ATOM     51  C   UNL A   1      43.383  30.772  37.226  1.00  0.00     0.029 A 
ATOM     52  N   UNL A   1      41.604  31.172  35.955  1.00  0.00    -0.354 N 
ATOM     53  N   UNL A   1      39.127  32.552  35.209  1.00  0.00    -0.248 NA
ATOM     54  C   UNL A   1      37.414  34.064  35.703  1.00  0.00     0.031 C 
ATOM     55  C   UNL A   1      42.581  31.718  37.874  1.00  0.00     0.029 A 
ATOM     56  C   UNL A   1      41.485  31.987  37.069  1.00  0.00     0.049 A 
ATOM     57  H   UNL A   1      40.965  31.142  35.206  1.00  0.00     0.167 HD
ATOM     58  C   UNL A   1      39.376  33.134  36.448  1.00  0.00     0.074 A 
ATOM     59  C   UNL A   1      38.301  34.075  36.689  1.00  0.00     0.031 C 
ATOM     60  C   UNL A   1      40.405  32.914  37.303  1.00  0.00     0.031 A 
BRANCH  47  61
ATOM     61  C   UNL A   1      44.422  28.630  35.345  1.00  0.00    -0.014 A 
ATOM     62  C   UNL A   1      45.677  29.068  34.884  1.00  0.00     0.010 A 
ATOM     63  C   UNL A   1      44.342  27.426  36.066  1.00  0.00     0.010 A 
ATOM     64  C   UNL A   1      46.818  28.289  35.090  1.00  0.00     0.020 A 
ATOM     65  C   UNL A   1      45.486  26.657  36.298  1.00  0.00     0.020 A 
ATOM     66  C   UNL A   1      46.713  27.081  35.786  1.00  0.00     0.054 A 
BRANCH  66  67
ATOM     67  S   UNL A   1      48.204  26.077  36.024  1.00  0.00     0.124 S 
ATOM     68  O   UNL A   1      47.638  24.785  36.403  1.00  0.00    -0.237 OA
ATOM     69  O   UNL A   1      48.836  26.122  34.706  1.00  0.00    -0.237 OA
ATOM     70  O   UNL A   1      48.928  26.775  37.083  1.00  0.00    -0.744 OA
ENDBRANCH  66  67
ENDBRANCH  47  61
BRANCH  48  71
ATOM     71  C   UNL A   1      36.052  33.615  33.146  1.00  0.00    -0.014 A 
ATOM     72  C   UNL A   1      34.788  33.069  33.431  1.00  0.00     0.010 A 
ATOM     73  C   UNL A   1      36.129  34.894  32.564  1.00  0.00     0.010 A 
ATOM     74  C   UNL A   1      33.625  33.788  33.137  1.00  0.00     0.020 A 
ATOM     75  C   UNL A   1      34.970  35.625  32.293  1.00  0.00     0.020 A 
ATOM     76  C   UNL A   1      33.723  35.064  32.575  1.00  0.00     0.054 A 
BRANCH  76  77
ATOM     77  S   UNL A   1      32.202  36.005  32.270  1.00  0.00     0.124 S 
ATOM     78  O   UNL A   1      31.170  35.014  32.555  1.00  0.00    -0.237 OA
ATOM     79  O   UNL A   1      32.312  37.101  33.229  1.00  0.00    -0.237 OA
ATOM     80  O   UNL A   1      32.322  36.400  30.867  1.00  0.00    -0.744 OA
ENDBRANCH  76  77
ENDBRANCH  48  71
BRANCH  60  81
ATOM     81  C   UNL A   1      40.439  33.723  38.573  1.00  0.00    -0.014 A 
ATOM     82  C   UNL A   1      41.180  34.915  38.659  1.00  0.00     0.010 A 
ATOM     83  C   UNL A   1      39.669  33.314  39.677  1.00  0.00     0.010 A 
ATOM     84  C   UNL A   1      41.169  35.670  39.836  1.00  0.00     0.020 A 
ATOM     85  C   UNL A   1      39.634  34.079  40.846  1.00  0.00     0.020 A 
ATOM     86  C   UNL A   1      40.395  35.248  40.921  1.00  0.00     0.054 A 
BRANCH  86  87
ATOM     87  S   UNL A   1      40.356  36.272  42.418  1.00  0.00     0.124 S 
ATOM     88  O   UNL A   1      39.650  35.409  43.360  1.00  0.00    -0.237 OA
ATOM     89  O   UNL A   1      41.774  36.483  42.699  1.00  0.00    -0.237 OA
ATOM     90  O   UNL A   1      39.626  37.468  42.001  1.00  0.00    -0.744 OA
ENDBRANCH  86  87
ENDBRANCH  60  81
ENDBRANCH  34  35
ENDBRANCH  27  29
ENDBRANCH  26  27
ENDBRANCH  25  26
ENDBRANCH  24  25
ENDBRANCH   1  24
TORSDOF 20
ENDMDL
MODEL 3
REMARK VINA RESULT:     -10.4      6.319     10.927
REMARK SMILES Cc1ccsc1CNC(=O)N1CCOC[C@H]1C(=O)OCCOCCOC(=O)c1ccc(-c2c3nc(c(-c4ccc(S(=O)(=O)[O-])cc4)c4ccc([nH]4)c(-c4ccc(S(=O)(=O)[O-])cc4)c4nc(c(-c5ccc(S(=O)(=O)[O-])cc5)c5ccc2[nH]5)C=C4)C=C3)cc1
REMARK SMILES IDX 22 1 21 2 20 3 19 4 17 5 18 6 16 7 11 8 12 9 13 10 15 11
REMARK SMILES IDX 14 12 9 13 8 14 10 16 7 17 6 18 1 19 2 20 3 21 4 22 5 23
REMARK SMILES IDX 23 24 24 25 25 26 26 27 27 28 28 29 29 30 87 31 30 32 86 33
REMARK SMILES IDX 31 34 32 35 33 36 80 37 34 38 85 39 79 40 81 41 35 42 84 43
REMARK SMILES IDX 78 44 77 45 36 47 66 48 47 49 65 50 48 51 51 52 64 53 82 54
REMARK SMILES IDX 49 55 50 56 63 58 83 59 52 60 37 61 38 62 46 63 39 64 45 65
REMARK SMILES IDX 40 66 41 67 42 68 43 69 44 70 67 71 68 72 76 73 69 74 75 75
REMARK SMILES IDX 70 76 71 77 72 78 73 79 74 80 53 81 54 82 62 83 55 84 61 85
REMARK SMILES IDX 56 86 57 87 58 88 59 89 60 90
REMARK H PARENT 8 15 81 46 51 57
REMARK Flexibility Score: inf
ROOT
ATOM      1  O   UNL A   1      36.890  22.016  25.126  1.00  0.00    -0.374 OA
ENDROOT
BRANCH   1   2
ATOM      2  C   UNL A   1      35.795  21.444  25.844  1.00  0.00     0.202 C 
BRANCH   2   3
ATOM      3  C   UNL A   1      34.874  20.534  25.032  1.00  0.00     0.261 C 
BRANCH   3   4
ATOM      4  O   UNL A   1      33.939  21.324  24.279  1.00  0.00    -0.462 OA
BRANCH   4   5
ATOM      5  C   UNL A   1      32.682  21.428  24.783  1.00  0.00     0.331 C 
ATOM      6  O   UNL A   1      32.003  20.473  25.148  1.00  0.00    -0.250 OA
BRANCH   5   7
ATOM      7  C   UNL A   1      32.131  22.861  24.746  1.00  0.00     0.222 C 
ATOM      8  N   UNL A   1      32.425  23.827  25.831  1.00  0.00    -0.306 N 
ATOM      9  C   UNL A   1      33.811  24.294  25.885  1.00  0.00     0.151 C 
ATOM     10  C   UNL A   1      34.241  24.820  24.513  1.00  0.00     0.182 C 
ATOM     11  C   UNL A   1      32.605  23.476  23.420  1.00  0.00     0.197 C 
ATOM     12  O   UNL A   1      33.995  23.851  23.479  1.00  0.00    -0.377 OA
BRANCH   8  13
ATOM     13  C   UNL A   1      31.411  24.182  26.666  1.00  0.00     0.318 C 
ATOM     14  N   UNL A   1      30.658  25.277  26.422  1.00  0.00    -0.333 N 
ATOM     15  H   UNL A   1      30.123  25.569  27.195  1.00  0.00     0.165 HD
ATOM     16  O   UNL A   1      31.086  23.475  27.622  1.00  0.00    -0.249 OA
BRANCH  14  17
ATOM     17  C   UNL A   1      30.483  26.105  25.243  1.00  0.00     0.165 C 
BRANCH  17  18
ATOM     18  C   UNL A   1      31.466  27.251  25.167  1.00  0.00     0.027 A 
ATOM     19  C   UNL A   1      31.401  28.060  27.617  1.00  0.00     0.045 C 
ATOM     20  C   UNL A   1      31.887  28.083  26.202  1.00  0.00    -0.035 A 
ATOM     21  C   UNL A   1      32.910  28.988  25.762  1.00  0.00     0.015 A 
ATOM     22  C   UNL A   1      33.243  28.815  24.441  1.00  0.00     0.065 A 
ATOM     23  S   UNL A   1      32.332  27.572  23.716  1.00  0.00    -0.147 S 
ENDBRANCH  17  18
ENDBRANCH  14  17
ENDBRANCH   8  13
ENDBRANCH   5   7
ENDBRANCH   4   5
ENDBRANCH   3   4
ENDBRANCH   2   3
ENDBRANCH   1   2
BRANCH   1  24
ATOM     24  C   UNL A   1      38.190  21.907  25.711  1.00  0.00     0.202 C 
BRANCH  24  25
ATOM     25  C   UNL A   1      38.856  20.528  25.644  1.00  0.00     0.261 C 
BRANCH  25  26
ATOM     26  O   UNL A   1      39.788  20.295  26.717  1.00  0.00    -0.460 OA
BRANCH  26  27
ATOM     27  C   UNL A   1      41.045  19.982  26.320  1.00  0.00     0.338 C 
ATOM     28  O   UNL A   1      41.415  18.945  25.784  1.00  0.00    -0.246 OA
BRANCH  27  29
ATOM     29  C   UNL A   1      41.935  21.148  26.473  1.00  0.00     0.060 A 
ATOM     30  C   UNL A   1      42.273  21.545  27.773  1.00  0.00     0.016 A 
ATOM     31  C   UNL A   1      42.362  21.892  25.371  1.00  0.00     0.016 A 
ATOM     32  C   UNL A   1      43.005  22.712  27.979  1.00  0.00     0.010 A 
ATOM     33  C   UNL A   1      43.090  23.069  25.581  1.00  0.00     0.010 A 
ATOM     34  C   UNL A   1      43.387  23.502  26.886  1.00  0.00    -0.014 A 
BRANCH  34  35
ATOM     35  C   UNL A   1      43.983  24.841  27.116  1.00  0.00     0.031 A 
ATOM     36  C   UNL A   1      43.100  25.966  27.585  1.00  0.00     0.074 A 
ATOM     37  C   UNL A   1      45.300  25.049  26.937  1.00  0.00     0.049 A 
ATOM     38  N   UNL A   1      43.407  27.215  27.823  1.00  0.00    -0.248 NA
ATOM     39  C   UNL A   1      41.685  25.637  27.816  1.00  0.00     0.031 C 
ATOM     40  C   UNL A   1      46.270  24.029  26.542  1.00  0.00     0.029 A 
ATOM     41  N   UNL A   1      46.047  26.192  27.068  1.00  0.00    -0.354 N 
ATOM     42  C   UNL A   1      42.224  27.823  28.229  1.00  0.00     0.074 A 
ATOM     43  C   UNL A   1      41.189  26.813  28.171  1.00  0.00     0.031 C 
ATOM     44  C   UNL A   1      47.487  24.593  26.466  1.00  0.00     0.029 A 
ATOM     45  C   UNL A   1      47.376  26.019  26.771  1.00  0.00     0.049 A 
ATOM     46  H   UNL A   1      45.666  27.055  27.350  1.00  0.00     0.167 HD
ATOM     47  C   UNL A   1      42.018  29.104  28.622  1.00  0.00     0.031 A 
ATOM     48  C   UNL A   1      48.387  26.910  26.734  1.00  0.00     0.031 A 
ATOM     49  C   UNL A   1      43.042  30.114  28.656  1.00  0.00     0.049 A 
ATOM     50  C   UNL A   1      48.115  28.351  27.075  1.00  0.00     0.074 A 
ATOM     51  C   UNL A   1      42.934  31.439  29.038  1.00  0.00     0.029 A 
ATOM     52  N   UNL A   1      44.363  29.913  28.283  1.00  0.00    -0.354 N 
ATOM     53  N   UNL A   1      46.994  28.910  27.464  1.00  0.00    -0.248 NA
ATOM     54  C   UNL A   1      49.249  29.282  26.973  1.00  0.00     0.031 C 
ATOM     55  C   UNL A   1      44.176  32.054  28.843  1.00  0.00     0.029 A 
ATOM     56  C   UNL A   1      45.074  31.097  28.398  1.00  0.00     0.049 A 
ATOM     57  H   UNL A   1      44.741  29.054  27.983  1.00  0.00     0.167 HD
ATOM     58  C   UNL A   1      47.293  30.251  27.681  1.00  0.00     0.074 A 
ATOM     59  C   UNL A   1      48.701  30.418  27.385  1.00  0.00     0.031 C 
ATOM     60  C   UNL A   1      46.475  31.252  28.093  1.00  0.00     0.031 A 
BRANCH  47  61
ATOM     61  C   UNL A   1      40.612  29.487  29.005  1.00  0.00    -0.014 A 
ATOM     62  C   UNL A   1      39.611  29.657  28.033  1.00  0.00     0.010 A 
ATOM     63  C   UNL A   1      40.288  29.680  30.360  1.00  0.00     0.010 A 
ATOM     64  C   UNL A   1      38.327  30.069  28.402  1.00  0.00     0.020 A 
ATOM     65  C   UNL A   1      38.999  30.064  30.737  1.00  0.00     0.020 A 
ATOM     66  C   UNL A   1      38.033  30.281  29.753  1.00  0.00     0.054 A 
BRANCH  66  67
ATOM     67  S   UNL A   1      36.366  30.834  30.207  1.00  0.00     0.124 S 
ATOM     68  O   UNL A   1      36.636  32.141  30.801  1.00  0.00    -0.237 OA
ATOM     69  O   UNL A   1      35.674  30.860  28.920  1.00  0.00    -0.237 OA
ATOM     70  O   UNL A   1      35.903  29.810  31.139  1.00  0.00    -0.744 OA
ENDBRANCH  66  67
ENDBRANCH  47  61
BRANCH  48  71
ATOM     71  C   UNL A   1      49.753  26.461  26.351  1.00  0.00    -0.014 A 
ATOM     72  C   UNL A   1      50.191  26.566  25.019  1.00  0.00     0.010 A 
ATOM     73  C   UNL A   1      50.632  25.947  27.323  1.00  0.00     0.010 A 
ATOM     74  C   UNL A   1      51.482  26.160  24.666  1.00  0.00     0.020 A 
ATOM     75  C   UNL A   1      51.930  25.565  26.977  1.00  0.00     0.020 A 
ATOM     76  C   UNL A   1      52.346  25.667  25.648  1.00  0.00     0.054 A 
BRANCH  76  77
ATOM     77  S   UNL A   1      54.038  25.215  25.177  1.00  0.00     0.124 S 
ATOM     78  O   UNL A   1      54.233  25.994  23.959  1.00  0.00    -0.237 OA
ATOM     79  O   UNL A   1      54.814  25.646  26.338  1.00  0.00    -0.237 OA
ATOM     80  O   UNL A   1      53.965  23.767  24.991  1.00  0.00    -0.744 OA
ENDBRANCH  76  77
ENDBRANCH  48  71
BRANCH  60  81
ATOM     81  C   UNL A   1      47.084  32.617  28.278  1.00  0.00    -0.014 A 
ATOM     82  C   UNL A   1      46.954  33.613  27.294  1.00  0.00     0.010 A 
ATOM     83  C   UNL A   1      47.745  32.925  29.481  1.00  0.00     0.010 A 
ATOM     84  C   UNL A   1      47.496  34.886  27.501  1.00  0.00     0.020 A 
ATOM     85  C   UNL A   1      48.264  34.203  29.704  1.00  0.00     0.020 A 
ATOM     86  C   UNL A   1      48.146  35.173  28.706  1.00  0.00     0.054 A 
BRANCH  86  87
ATOM     87  S   UNL A   1      48.794  36.846  28.972  1.00  0.00     0.124 S 
ATOM     88  O   UNL A   1      48.410  37.106  30.356  1.00  0.00    -0.237 OA
ATOM     89  O   UNL A   1      50.226  36.676  28.738  1.00  0.00    -0.237 OA
ATOM     90  O   UNL A   1      48.097  37.651  27.970  1.00  0.00    -0.744 OA
ENDBRANCH  86  87
ENDBRANCH  60  81
ENDBRANCH  34  35
ENDBRANCH  27  29
ENDBRANCH  26  27
ENDBRANCH  25  26
ENDBRANCH  24  25
ENDBRANCH   1  24
TORSDOF 20
ENDMDL
