MODEL 1
REMARK VINA RESULT:      -9.4      0.000      0.000
REMARK SMILES COc1cc2c(cc1OC)C1=C(C#N)C[N@H+](CC(=O)OCCOCCOC(=O)c3ccc(-c4c5nc(c(-c6ccc(S(=O)(=O)[O-])cc6)c6ccc([nH]6)c(-c6ccc(S(=O)(=O)[O-])cc6)c6nc(c(-c7ccc(S(=O)(=O)[O-])cc7)c7ccc4[nH]7)C=C6)C=C5)cc3)CN1CC2
REMARK SMILES IDX 24 1 23 2 22 3 21 4 20 5 18 6 19 7 17 8 16 9 3 10 4 11 8 12
REMARK SMILES IDX 5 13 7 14 6 15 92 16 11 17 91 18 12 19 90 20 15 21 89 22
REMARK SMILES IDX 2 24 1 25 9 26 10 27 13 28 14 29 25 30 26 31 27 32 28 33
REMARK SMILES IDX 29 34 30 35 88 36 31 37 87 38 32 39 33 40 34 41 81 42 35 43
REMARK SMILES IDX 86 44 80 45 82 46 36 47 85 48 79 49 78 50 37 52 67 53 48 54
REMARK SMILES IDX 66 55 49 56 52 57 65 58 83 59 50 60 51 61 64 63 84 64 53 65
REMARK SMILES IDX 38 66 39 67 47 68 40 69 46 70 41 71 42 72 43 73 44 74 45 75
REMARK SMILES IDX 68 76 69 77 77 78 70 79 76 80 71 81 72 82 73 83 74 84 75 85
REMARK SMILES IDX 54 86 55 87 63 88 56 89 62 90 57 91 58 92 59 93 60 94 61 95
REMARK H PARENT 16 23 82 51 52 62
REMARK Flexibility Score: inf
ROOT
ATOM      1  C   UNL A   1      39.462  22.096  26.229  1.00  0.00     0.202 C 
ENDROOT
BRANCH   1   2
ATOM      2  O   UNL A   1      40.484  21.209  25.794  1.00  0.00    -0.374 OA
BRANCH   2   3
ATOM      3  C   UNL A   1      40.779  20.089  26.620  1.00  0.00     0.202 C 
BRANCH   3   4
ATOM      4  C   UNL A   1      41.909  19.144  26.184  1.00  0.00     0.261 C 
BRANCH   4   5
ATOM      5  O   UNL A   1      42.796  19.710  25.206  1.00  0.00    -0.459 OA
BRANCH   5   6
ATOM      6  C   UNL A   1      44.138  19.544  25.404  1.00  0.00     0.361 C 
ATOM      7  O   UNL A   1      44.664  18.506  25.791  1.00  0.00    -0.245 OA
BRANCH   6   8
ATOM      8  C   UNL A   1      44.968  20.781  25.002  1.00  0.00     0.388 C 
BRANCH   8   9
ATOM      9  N   UNL A   1      44.981  21.785  26.064  1.00  0.00    -0.304 N 
ATOM     10  C   UNL A   1      45.744  25.186  32.001  1.00  0.00     0.161 A 
ATOM     11  C   UNL A   1      44.696  24.317  31.688  1.00  0.00     0.055 A 
ATOM     12  C   UNL A   1      46.390  25.863  30.961  1.00  0.00     0.161 A 
ATOM     13  C   UNL A   1      44.359  24.041  30.350  1.00  0.00    -0.033 A 
ATOM     14  C   UNL A   1      46.052  25.566  29.622  1.00  0.00     0.061 A 
ATOM     15  C   UNL A   1      45.125  24.567  29.290  1.00  0.00     0.006 A 
ATOM     16  C   UNL A   1      43.206  23.115  30.079  1.00  0.00     0.058 C 
ATOM     17  C   UNL A   1      45.033  23.901  27.937  1.00  0.00     0.068 C 
ATOM     18  C   UNL A   1      42.712  23.223  28.632  1.00  0.00     0.127 C 
ATOM     19  C   UNL A   1      46.062  23.772  27.052  1.00  0.00     0.108 C 
ATOM     20  N   UNL A   1      43.832  23.195  27.691  1.00  0.00    -0.323 N 
ATOM     21  C   UNL A   1      45.927  22.872  25.839  1.00  0.00     0.314 C 
ATOM     22  C   UNL A   1      43.718  22.343  26.502  1.00  0.00     0.390 C 
ATOM     23  H   UNL A   1      45.288  21.192  26.835  1.00  0.00     0.350 HD
BRANCH  10  24
ATOM     24  O   UNL A   1      46.040  25.445  33.313  1.00  0.00    -0.493 OA
ATOM     25  C   UNL A   1      47.057  24.600  33.858  1.00  0.00     0.278 C 
ENDBRANCH  10  24
BRANCH  12  26
ATOM     26  O   UNL A   1      47.401  26.783  31.046  1.00  0.00    -0.493 OA
ATOM     27  C   UNL A   1      47.079  28.118  31.412  1.00  0.00     0.278 C 
ENDBRANCH  12  26
BRANCH  19  28
ATOM     28  C   UNL A   1      47.366  24.317  27.203  1.00  0.00     0.103 C 
ATOM     29  N   UNL A   1      48.464  24.680  27.340  1.00  0.00    -0.192 NA
ENDBRANCH  19  28
ENDBRANCH   8   9
ENDBRANCH   6   8
ENDBRANCH   5   6
ENDBRANCH   4   5
ENDBRANCH   3   4
ENDBRANCH   2   3
ENDBRANCH   1   2
BRANCH   1  30
ATOM     30  C   UNL A   1      39.850  23.289  27.105  1.00  0.00     0.261 C 
BRANCH  30  31
ATOM     31  O   UNL A   1      39.296  24.554  26.700  1.00  0.00    -0.460 OA
BRANCH  31  32
ATOM     32  C   UNL A   1      40.198  25.553  26.501  1.00  0.00     0.338 C 
ATOM     33  O   UNL A   1      40.877  25.739  25.505  1.00  0.00    -0.246 OA
BRANCH  32  34
ATOM     34  C   UNL A   1      40.194  26.489  27.645  1.00  0.00     0.060 A 
ATOM     35  C   UNL A   1      39.439  26.185  28.766  1.00  0.00     0.016 A 
ATOM     36  C   UNL A   1      41.024  27.609  27.666  1.00  0.00     0.016 A 
ATOM     37  C   UNL A   1      39.493  26.971  29.914  1.00  0.00     0.010 A 
ATOM     38  C   UNL A   1      41.095  28.402  28.823  1.00  0.00     0.010 A 
ATOM     39  C   UNL A   1      40.340  28.079  29.965  1.00  0.00    -0.014 A 
BRANCH  39  40
ATOM     40  C   UNL A   1      40.421  28.878  31.218  1.00  0.00     0.031 A 
ATOM     41  C   UNL A   1      39.353  29.879  31.541  1.00  0.00     0.074 A 
ATOM     42  C   UNL A   1      41.430  28.671  32.088  1.00  0.00     0.049 A 
ATOM     43  N   UNL A   1      39.287  30.714  32.543  1.00  0.00    -0.248 NA
ATOM     44  C   UNL A   1      38.216  29.961  30.609  1.00  0.00     0.031 C 
ATOM     45  C   UNL A   1      42.489  27.679  31.911  1.00  0.00     0.029 A 
ATOM     46  N   UNL A   1      41.721  29.248  33.303  1.00  0.00    -0.354 N 
ATOM     47  C   UNL A   1      38.123  31.446  32.348  1.00  0.00     0.074 A 
ATOM     48  C   UNL A   1      37.525  30.972  31.118  1.00  0.00     0.031 C 
ATOM     49  C   UNL A   1      43.272  27.669  33.001  1.00  0.00     0.029 A 
ATOM     50  C   UNL A   1      42.832  28.716  33.919  1.00  0.00     0.049 A 
ATOM     51  H   UNL A   1      41.185  29.974  33.695  1.00  0.00     0.167 HD
ATOM     52  C   UNL A   1      37.605  32.420  33.131  1.00  0.00     0.031 A 
ATOM     53  C   UNL A   1      43.445  29.039  35.080  1.00  0.00     0.031 A 
ATOM     54  C   UNL A   1      38.200  32.854  34.370  1.00  0.00     0.049 A 
ATOM     55  C   UNL A   1      42.880  30.167  35.904  1.00  0.00     0.074 A 
ATOM     56  C   UNL A   1      37.744  33.835  35.235  1.00  0.00     0.029 A 
ATOM     57  N   UNL A   1      39.359  32.337  34.930  1.00  0.00    -0.354 N 
ATOM     58  N   UNL A   1      41.792  30.868  35.695  1.00  0.00    -0.248 NA
ATOM     59  C   UNL A   1      43.626  30.560  37.107  1.00  0.00     0.031 C 
ATOM     60  C   UNL A   1      38.678  33.977  36.261  1.00  0.00     0.029 A 
ATOM     61  C   UNL A   1      39.659  33.010  36.104  1.00  0.00     0.049 A 
ATOM     62  H   UNL A   1      39.891  31.600  34.550  1.00  0.00     0.167 HD
ATOM     63  C   UNL A   1      41.713  31.775  36.745  1.00  0.00     0.074 A 
ATOM     64  C   UNL A   1      42.850  31.516  37.606  1.00  0.00     0.031 C 
ATOM     65  C   UNL A   1      40.788  32.741  36.965  1.00  0.00     0.031 A 
BRANCH  52  66
ATOM     66  C   UNL A   1      36.348  33.118  32.673  1.00  0.00    -0.014 A 
ATOM     67  C   UNL A   1      36.453  34.218  31.800  1.00  0.00     0.010 A 
ATOM     68  C   UNL A   1      35.086  32.776  33.189  1.00  0.00     0.010 A 
ATOM     69  C   UNL A   1      35.333  34.993  31.493  1.00  0.00     0.020 A 
ATOM     70  C   UNL A   1      33.954  33.525  32.851  1.00  0.00     0.020 A 
ATOM     71  C   UNL A   1      34.091  34.647  32.030  1.00  0.00     0.054 A 
BRANCH  71  72
ATOM     72  S   UNL A   1      32.662  35.702  31.665  1.00  0.00     0.124 S 
ATOM     73  O   UNL A   1      31.674  35.228  32.629  1.00  0.00    -0.237 OA
ATOM     74  O   UNL A   1      33.188  37.044  31.907  1.00  0.00    -0.237 OA
ATOM     75  O   UNL A   1      32.364  35.404  30.266  1.00  0.00    -0.744 OA
ENDBRANCH  71  72
ENDBRANCH  52  66
BRANCH  53  76
ATOM     76  C   UNL A   1      44.654  28.275  35.518  1.00  0.00    -0.014 A 
ATOM     77  C   UNL A   1      44.528  27.158  36.369  1.00  0.00     0.010 A 
ATOM     78  C   UNL A   1      45.946  28.705  35.162  1.00  0.00     0.010 A 
ATOM     79  C   UNL A   1      45.656  26.551  36.928  1.00  0.00     0.020 A 
ATOM     80  C   UNL A   1      47.081  28.070  35.682  1.00  0.00     0.020 A 
ATOM     81  C   UNL A   1      46.927  27.026  36.595  1.00  0.00     0.054 A 
BRANCH  81  82
ATOM     82  S   UNL A   1      48.367  26.283  37.413  1.00  0.00     0.124 S 
ATOM     83  O   UNL A   1      48.032  24.862  37.374  1.00  0.00    -0.237 OA
ATOM     84  O   UNL A   1      49.470  26.693  36.547  1.00  0.00    -0.237 OA
ATOM     85  O   UNL A   1      48.360  26.890  38.741  1.00  0.00    -0.744 OA
ENDBRANCH  81  82
ENDBRANCH  53  76
BRANCH  65  86
ATOM     86  C   UNL A   1      40.934  33.617  38.188  1.00  0.00    -0.014 A 
ATOM     87  C   UNL A   1      40.404  33.187  39.420  1.00  0.00     0.010 A 
ATOM     88  C   UNL A   1      41.434  34.928  38.084  1.00  0.00     0.010 A 
ATOM     89  C   UNL A   1      40.310  34.066  40.501  1.00  0.00     0.020 A 
ATOM     90  C   UNL A   1      41.381  35.798  39.177  1.00  0.00     0.020 A 
ATOM     91  C   UNL A   1      40.787  35.372  40.368  1.00  0.00     0.054 A 
BRANCH  91  92
ATOM     92  S   UNL A   1      40.585  36.518  41.758  1.00  0.00     0.124 S 
ATOM     93  O   UNL A   1      41.392  37.660  41.337  1.00  0.00    -0.237 OA
ATOM     94  O   UNL A   1      39.141  36.741  41.781  1.00  0.00    -0.237 OA
ATOM     95  O   UNL A   1      41.110  35.772  42.900  1.00  0.00    -0.744 OA
ENDBRANCH  91  92
ENDBRANCH  65  86
ENDBRANCH  39  40
ENDBRANCH  32  34
ENDBRANCH  31  32
ENDBRANCH  30  31
ENDBRANCH   1  30
TORSDOF 21
ENDMDL
MODEL 2
REMARK VINA RESULT:      -9.1      4.870     13.174
REMARK SMILES COc1cc2c(cc1OC)C1=C(C#N)C[N@H+](CC(=O)OCCOCCOC(=O)c3ccc(-c4c5nc(c(-c6ccc(S(=O)(=O)[O-])cc6)c6ccc([nH]6)c(-c6ccc(S(=O)(=O)[O-])cc6)c6nc(c(-c7ccc(S(=O)(=O)[O-])cc7)c7ccc4[nH]7)C=C6)C=C5)cc3)CN1CC2
REMARK SMILES IDX 24 1 23 2 22 3 21 4 20 5 18 6 19 7 17 8 16 9 3 10 4 11 8 12
REMARK SMILES IDX 5 13 7 14 6 15 92 16 11 17 91 18 12 19 90 20 15 21 89 22
REMARK SMILES IDX 2 24 1 25 9 26 10 27 13 28 14 29 25 30 26 31 27 32 28 33
REMARK SMILES IDX 29 34 30 35 88 36 31 37 87 38 32 39 33 40 34 41 81 42 35 43
REMARK SMILES IDX 86 44 80 45 82 46 36 47 85 48 79 49 78 50 37 52 67 53 48 54
REMARK SMILES IDX 66 55 49 56 52 57 65 58 83 59 50 60 51 61 64 63 84 64 53 65
REMARK SMILES IDX 38 66 39 67 47 68 40 69 46 70 41 71 42 72 43 73 44 74 45 75
REMARK SMILES IDX 68 76 69 77 77 78 70 79 76 80 71 81 72 82 73 83 74 84 75 85
REMARK SMILES IDX 54 86 55 87 63 88 56 89 62 90 57 91 58 92 59 93 60 94 61 95
REMARK H PARENT 16 23 82 51 52 62
REMARK Flexibility Score: inf
ROOT
ATOM      1  C   UNL A   1      35.025  32.984  28.093  1.00  0.00     0.202 C 
ENDROOT
BRANCH   1   2
ATOM      2  O   UNL A   1      34.692  34.305  28.498  1.00  0.00    -0.374 OA
BRANCH   2   3
ATOM      3  C   UNL A   1      33.314  34.607  28.689  1.00  0.00     0.202 C 
BRANCH   3   4
ATOM      4  C   UNL A   1      32.905  35.348  29.971  1.00  0.00     0.261 C 
BRANCH   4   5
ATOM      5  O   UNL A   1      33.238  34.647  31.179  1.00  0.00    -0.459 OA
BRANCH   5   6
ATOM      6  C   UNL A   1      33.967  35.323  32.117  1.00  0.00     0.361 C 
ATOM      7  O   UNL A   1      34.142  36.536  32.125  1.00  0.00    -0.245 OA
BRANCH   6   8
ATOM      8  C   UNL A   1      34.492  34.413  33.248  1.00  0.00     0.388 C 
BRANCH   8   9
ATOM      9  N   UNL A   1      35.815  33.880  32.935  1.00  0.00    -0.304 N 
ATOM     10  C   UNL A   1      42.587  32.877  32.202  1.00  0.00     0.161 A 
ATOM     11  C   UNL A   1      41.783  33.655  31.365  1.00  0.00     0.055 A 
ATOM     12  C   UNL A   1      42.005  31.809  32.892  1.00  0.00     0.161 A 
ATOM     13  C   UNL A   1      40.394  33.442  31.293  1.00  0.00    -0.033 A 
ATOM     14  C   UNL A   1      40.607  31.615  32.822  1.00  0.00     0.061 A 
ATOM     15  C   UNL A   1      39.765  32.495  32.128  1.00  0.00     0.006 A 
ATOM     16  C   UNL A   1      39.586  34.297  30.357  1.00  0.00     0.058 C 
ATOM     17  C   UNL A   1      38.276  32.616  32.357  1.00  0.00     0.068 C 
ATOM     18  C   UNL A   1      38.199  33.702  30.089  1.00  0.00     0.127 C 
ATOM     19  C   UNL A   1      37.634  32.317  33.522  1.00  0.00     0.108 C 
ATOM     20  N   UNL A   1      37.559  33.282  31.336  1.00  0.00    -0.323 N 
ATOM     21  C   UNL A   1      36.183  32.710  33.724  1.00  0.00     0.314 C 
ATOM     22  C   UNL A   1      36.152  33.637  31.548  1.00  0.00     0.390 C 
ATOM     23  H   UNL A   1      36.377  34.688  33.204  1.00  0.00     0.350 HD
BRANCH  10  24
ATOM     24  O   UNL A   1      43.938  33.100  32.241  1.00  0.00    -0.493 OA
ATOM     25  C   UNL A   1      44.323  34.197  33.073  1.00  0.00     0.278 C 
ENDBRANCH  10  24
BRANCH  12  26
ATOM     26  O   UNL A   1      42.611  30.902  33.720  1.00  0.00    -0.493 OA
ATOM     27  C   UNL A   1      43.157  31.360  34.949  1.00  0.00     0.278 C 
ENDBRANCH  12  26
BRANCH  19  28
ATOM     28  C   UNL A   1      38.230  31.756  34.684  1.00  0.00     0.103 C 
ATOM     29  N   UNL A   1      38.636  31.301  35.675  1.00  0.00    -0.192 NA
ENDBRANCH  19  28
ENDBRANCH   8   9
ENDBRANCH   6   8
ENDBRANCH   5   6
ENDBRANCH   4   5
ENDBRANCH   3   4
ENDBRANCH   2   3
ENDBRANCH   1   2
BRANCH   1  30
ATOM     30  C   UNL A   1      34.900  31.851  29.114  1.00  0.00     0.261 C 
BRANCH  30  31
ATOM     31  O   UNL A   1      35.634  30.655  28.796  1.00  0.00    -0.460 OA
BRANCH  31  32
ATOM     32  C   UNL A   1      36.330  30.102  29.826  1.00  0.00     0.338 C 
ATOM     33  O   UNL A   1      35.889  29.770  30.913  1.00  0.00    -0.246 OA
BRANCH  32  34
ATOM     34  C   UNL A   1      37.730  29.849  29.427  1.00  0.00     0.060 A 
ATOM     35  C   UNL A   1      38.656  29.493  30.395  1.00  0.00     0.016 A 
ATOM     36  C   UNL A   1      38.113  29.846  28.087  1.00  0.00     0.016 A 
ATOM     37  C   UNL A   1      39.957  29.129  30.059  1.00  0.00     0.010 A 
ATOM     38  C   UNL A   1      39.419  29.469  27.735  1.00  0.00     0.010 A 
ATOM     39  C   UNL A   1      40.350  29.092  28.720  1.00  0.00    -0.014 A 
BRANCH  39  40
ATOM     40  C   UNL A   1      41.730  28.653  28.377  1.00  0.00     0.031 A 
ATOM     41  C   UNL A   1      42.877  29.608  28.511  1.00  0.00     0.074 A 
ATOM     42  C   UNL A   1      41.959  27.382  27.989  1.00  0.00     0.049 A 
ATOM     43  N   UNL A   1      44.132  29.433  28.195  1.00  0.00    -0.248 NA
ATOM     44  C   UNL A   1      42.572  30.939  29.060  1.00  0.00     0.031 C 
ATOM     45  C   UNL A   1      40.931  26.347  27.885  1.00  0.00     0.029 A 
ATOM     46  N   UNL A   1      43.118  26.727  27.642  1.00  0.00    -0.354 N 
ATOM     47  C   UNL A   1      44.763  30.639  28.473  1.00  0.00     0.074 A 
ATOM     48  C   UNL A   1      43.747  31.546  28.962  1.00  0.00     0.031 C 
ATOM     49  C   UNL A   1      41.510  25.180  27.568  1.00  0.00     0.029 A 
ATOM     50  C   UNL A   1      42.938  25.393  27.352  1.00  0.00     0.049 A 
ATOM     51  H   UNL A   1      43.995  27.172  27.604  1.00  0.00     0.167 HD
ATOM     52  C   UNL A   1      46.072  30.951  28.333  1.00  0.00     0.031 A 
ATOM     53  C   UNL A   1      43.812  24.447  26.941  1.00  0.00     0.031 A 
ATOM     54  C   UNL A   1      47.074  30.021  27.875  1.00  0.00     0.049 A 
ATOM     55  C   UNL A   1      45.253  24.837  26.738  1.00  0.00     0.074 A 
ATOM     56  C   UNL A   1      48.429  30.247  27.705  1.00  0.00     0.029 A 
ATOM     57  N   UNL A   1      46.844  28.697  27.530  1.00  0.00    -0.354 N 
ATOM     58  N   UNL A   1      45.832  25.988  26.981  1.00  0.00    -0.248 NA
ATOM     59  C   UNL A   1      46.157  23.813  26.195  1.00  0.00     0.031 C 
ATOM     60  C   UNL A   1      48.997  29.093  27.164  1.00  0.00     0.029 A 
ATOM     61  C   UNL A   1      48.023  28.108  27.102  1.00  0.00     0.049 A 
ATOM     62  H   UNL A   1      45.971  28.242  27.581  1.00  0.00     0.167 HD
ATOM     63  C   UNL A   1      47.169  25.826  26.634  1.00  0.00     0.074 A 
ATOM     64  C   UNL A   1      47.320  24.454  26.191  1.00  0.00     0.031 C 
ATOM     65  C   UNL A   1      48.172  26.737  26.671  1.00  0.00     0.031 A 
BRANCH  52  66
ATOM     66  C   UNL A   1      46.512  32.360  28.645  1.00  0.00    -0.014 A 
ATOM     67  C   UNL A   1      46.794  32.712  29.978  1.00  0.00     0.010 A 
ATOM     68  C   UNL A   1      46.530  33.361  27.658  1.00  0.00     0.010 A 
ATOM     69  C   UNL A   1      47.035  34.041  30.329  1.00  0.00     0.020 A 
ATOM     70  C   UNL A   1      46.813  34.688  27.998  1.00  0.00     0.020 A 
ATOM     71  C   UNL A   1      47.031  35.024  29.337  1.00  0.00     0.054 A 
BRANCH  71  72
ATOM     72  S   UNL A   1      47.289  36.751  29.824  1.00  0.00     0.124 S 
ATOM     73  O   UNL A   1      47.071  37.462  28.568  1.00  0.00    -0.237 OA
ATOM     74  O   UNL A   1      46.263  36.949  30.846  1.00  0.00    -0.237 OA
ATOM     75  O   UNL A   1      48.662  36.767  30.321  1.00  0.00    -0.744 OA
ENDBRANCH  71  72
ENDBRANCH  52  66
BRANCH  53  76
ATOM     76  C   UNL A   1      43.335  23.050  26.704  1.00  0.00    -0.014 A 
ATOM     77  C   UNL A   1      42.651  22.344  27.714  1.00  0.00     0.010 A 
ATOM     78  C   UNL A   1      43.635  22.381  25.502  1.00  0.00     0.010 A 
ATOM     79  C   UNL A   1      42.363  20.984  27.568  1.00  0.00     0.020 A 
ATOM     80  C   UNL A   1      43.307  21.030  25.333  1.00  0.00     0.020 A 
ATOM     81  C   UNL A   1      42.712  20.331  26.385  1.00  0.00     0.054 A 
BRANCH  81  82
ATOM     82  S   UNL A   1      42.416  18.543  26.266  1.00  0.00     0.124 S 
ATOM     83  O   UNL A   1      42.630  18.113  27.645  1.00  0.00    -0.237 OA
ATOM     84  O   UNL A   1      41.035  18.481  25.795  1.00  0.00    -0.237 OA
ATOM     85  O   UNL A   1      43.421  18.091  25.308  1.00  0.00    -0.744 OA
ENDBRANCH  81  82
ENDBRANCH  53  76
BRANCH  65  86
ATOM     86  C   UNL A   1      49.552  26.311  26.223  1.00  0.00    -0.014 A 
ATOM     87  C   UNL A   1      50.455  25.778  27.163  1.00  0.00     0.010 A 
ATOM     88  C   UNL A   1      50.011  26.597  24.924  1.00  0.00     0.010 A 
ATOM     89  C   UNL A   1      51.801  25.601  26.836  1.00  0.00     0.020 A 
ATOM     90  C   UNL A   1      51.349  26.380  24.581  1.00  0.00     0.020 A 
ATOM     91  C   UNL A   1      52.243  25.918  25.550  1.00  0.00     0.054 A 
BRANCH  91  92
ATOM     92  S   UNL A   1      54.009  25.753  25.172  1.00  0.00     0.124 S 
ATOM     93  O   UNL A   1      54.597  25.609  26.501  1.00  0.00    -0.237 OA
ATOM     94  O   UNL A   1      54.046  24.558  24.333  1.00  0.00    -0.237 OA
ATOM     95  O   UNL A   1      54.331  27.001  24.481  1.00  0.00    -0.744 OA
ENDBRANCH  91  92
ENDBRANCH  65  86
ENDBRANCH  39  40
ENDBRANCH  32  34
ENDBRANCH  31  32
ENDBRANCH  30  31
ENDBRANCH   1  30
TORSDOF 21
ENDMDL
MODEL 3
REMARK VINA RESULT:      -9.0      1.418      8.114
REMARK SMILES COc1cc2c(cc1OC)C1=C(C#N)C[N@H+](CC(=O)OCCOCCOC(=O)c3ccc(-c4c5nc(c(-c6ccc(S(=O)(=O)[O-])cc6)c6ccc([nH]6)c(-c6ccc(S(=O)(=O)[O-])cc6)c6nc(c(-c7ccc(S(=O)(=O)[O-])cc7)c7ccc4[nH]7)C=C6)C=C5)cc3)CN1CC2
REMARK SMILES IDX 24 1 23 2 22 3 21 4 20 5 18 6 19 7 17 8 16 9 3 10 4 11 8 12
REMARK SMILES IDX 5 13 7 14 6 15 92 16 11 17 91 18 12 19 90 20 15 21 89 22
REMARK SMILES IDX 2 24 1 25 9 26 10 27 13 28 14 29 25 30 26 31 27 32 28 33
REMARK SMILES IDX 29 34 30 35 88 36 31 37 87 38 32 39 33 40 34 41 81 42 35 43
REMARK SMILES IDX 86 44 80 45 82 46 36 47 85 48 79 49 78 50 37 52 67 53 48 54
REMARK SMILES IDX 66 55 49 56 52 57 65 58 83 59 50 60 51 61 64 63 84 64 53 65
REMARK SMILES IDX 38 66 39 67 47 68 40 69 46 70 41 71 42 72 43 73 44 74 45 75
REMARK SMILES IDX 68 76 69 77 77 78 70 79 76 80 71 81 72 82 73 83 74 84 75 85
REMARK SMILES IDX 54 86 55 87 63 88 56 89 62 90 57 91 58 92 59 93 60 94 61 95
REMARK H PARENT 16 23 82 51 52 62
REMARK Flexibility Score: inf
ROOT
ATOM      1  C   UNL A   1      39.667  21.954  26.549  1.00  0.00     0.202 C 
ENDROOT
BRANCH   1   2
ATOM      2  O   UNL A   1      40.532  20.986  25.970  1.00  0.00    -0.374 OA
BRANCH   2   3
ATOM      3  C   UNL A   1      41.475  20.350  26.825  1.00  0.00     0.202 C 
BRANCH   3   4
ATOM      4  C   UNL A   1      42.695  19.672  26.181  1.00  0.00     0.261 C 
BRANCH   4   5
ATOM      5  O   UNL A   1      43.169  20.331  24.997  1.00  0.00    -0.459 OA
BRANCH   5   6
ATOM      6  C   UNL A   1      44.368  20.982  25.078  1.00  0.00     0.361 C 
ATOM      7  O   UNL A   1      45.404  20.488  25.510  1.00  0.00    -0.245 OA
BRANCH   6   8
ATOM      8  C   UNL A   1      44.327  22.404  24.481  1.00  0.00     0.388 C 
BRANCH   8   9
ATOM      9  N   UNL A   1      44.272  23.423  25.528  1.00  0.00    -0.304 N 
ATOM     10  C   UNL A   1      45.741  28.348  30.109  1.00  0.00     0.161 A 
ATOM     11  C   UNL A   1      45.950  26.978  30.289  1.00  0.00     0.055 A 
ATOM     12  C   UNL A   1      44.718  28.765  29.250  1.00  0.00     0.161 A 
ATOM     13  C   UNL A   1      45.222  26.030  29.546  1.00  0.00    -0.033 A 
ATOM     14  C   UNL A   1      44.004  27.804  28.500  1.00  0.00     0.061 A 
ATOM     15  C   UNL A   1      44.324  26.439  28.539  1.00  0.00     0.006 A 
ATOM     16  C   UNL A   1      45.477  24.571  29.802  1.00  0.00     0.058 C 
ATOM     17  C   UNL A   1      43.927  25.437  27.480  1.00  0.00     0.068 C 
ATOM     18  C   UNL A   1      44.362  23.686  29.233  1.00  0.00     0.127 C 
ATOM     19  C   UNL A   1      43.680  25.732  26.172  1.00  0.00     0.108 C 
ATOM     20  N   UNL A   1      44.025  24.079  27.865  1.00  0.00    -0.323 N 
ATOM     21  C   UNL A   1      43.536  24.623  25.147  1.00  0.00     0.314 C 
ATOM     22  C   UNL A   1      43.866  23.024  26.859  1.00  0.00     0.390 C 
ATOM     23  H   UNL A   1      45.269  23.620  25.605  1.00  0.00     0.350 HD
BRANCH  10  24
ATOM     24  O   UNL A   1      46.456  29.245  30.856  1.00  0.00    -0.493 OA
ATOM     25  C   UNL A   1      47.731  28.761  31.284  1.00  0.00     0.278 C 
ENDBRANCH  10  24
BRANCH  12  26
ATOM     26  O   UNL A   1      44.317  30.043  28.967  1.00  0.00    -0.493 OA
ATOM     27  C   UNL A   1      43.985  30.372  27.626  1.00  0.00     0.278 C 
ENDBRANCH  12  26
BRANCH  19  28
ATOM     28  C   UNL A   1      43.661  27.032  25.598  1.00  0.00     0.103 C 
ATOM     29  N   UNL A   1      43.589  28.120  25.193  1.00  0.00    -0.192 NA
ENDBRANCH  19  28
ENDBRANCH   8   9
ENDBRANCH   6   8
ENDBRANCH   5   6
ENDBRANCH   4   5
ENDBRANCH   3   4
ENDBRANCH   2   3
ENDBRANCH   1   2
BRANCH   1  30
ATOM     30  C   UNL A   1      40.270  23.269  27.047  1.00  0.00     0.261 C 
BRANCH  30  31
ATOM     31  O   UNL A   1      39.379  24.399  27.026  1.00  0.00    -0.460 OA
BRANCH  31  32
ATOM     32  C   UNL A   1      39.941  25.583  26.661  1.00  0.00     0.338 C 
ATOM     33  O   UNL A   1      40.362  25.885  25.557  1.00  0.00    -0.246 OA
BRANCH  32  34
ATOM     34  C   UNL A   1      39.898  26.544  27.783  1.00  0.00     0.060 A 
ATOM     35  C   UNL A   1      39.297  26.168  28.974  1.00  0.00     0.016 A 
ATOM     36  C   UNL A   1      40.549  27.775  27.709  1.00  0.00     0.016 A 
ATOM     37  C   UNL A   1      39.333  26.989  30.097  1.00  0.00     0.010 A 
ATOM     38  C   UNL A   1      40.602  28.606  28.840  1.00  0.00     0.010 A 
ATOM     39  C   UNL A   1      40.005  28.211  30.052  1.00  0.00    -0.014 A 
BRANCH  39  40
ATOM     40  C   UNL A   1      40.075  29.052  31.277  1.00  0.00     0.031 A 
ATOM     41  C   UNL A   1      41.247  28.935  32.203  1.00  0.00     0.074 A 
ATOM     42  C   UNL A   1      39.107  29.956  31.533  1.00  0.00     0.049 A 
ATOM     43  N   UNL A   1      41.451  29.528  33.349  1.00  0.00    -0.248 NA
ATOM     44  C   UNL A   1      42.326  28.021  31.796  1.00  0.00     0.031 C 
ATOM     45  C   UNL A   1      37.953  30.204  30.670  1.00  0.00     0.029 A 
ATOM     46  N   UNL A   1      38.945  30.854  32.563  1.00  0.00    -0.354 N 
ATOM     47  C   UNL A   1      42.662  29.038  33.818  1.00  0.00     0.074 A 
ATOM     48  C   UNL A   1      43.137  28.079  32.843  1.00  0.00     0.031 C 
ATOM     49  C   UNL A   1      37.242  31.227  31.167  1.00  0.00     0.029 A 
ATOM     50  C   UNL A   1      37.830  31.653  32.433  1.00  0.00     0.049 A 
ATOM     51  H   UNL A   1      39.568  30.919  33.321  1.00  0.00     0.167 HD
ATOM     52  C   UNL A   1      43.313  29.365  34.958  1.00  0.00     0.031 A 
ATOM     53  C   UNL A   1      37.323  32.608  33.245  1.00  0.00     0.031 A 
ATOM     54  C   UNL A   1      42.838  30.348  35.899  1.00  0.00     0.049 A 
ATOM     55  C   UNL A   1      38.037  32.912  34.535  1.00  0.00     0.074 A 
ATOM     56  C   UNL A   1      43.434  30.749  37.083  1.00  0.00     0.029 A 
ATOM     57  N   UNL A   1      41.674  31.091  35.767  1.00  0.00    -0.354 N 
ATOM     58  N   UNL A   1      39.170  32.421  34.980  1.00  0.00    -0.248 NA
ATOM     59  C   UNL A   1      37.407  33.881  35.442  1.00  0.00     0.031 C 
ATOM     60  C   UNL A   1      42.582  31.658  37.711  1.00  0.00     0.029 A 
ATOM     61  C   UNL A   1      41.509  31.913  36.870  1.00  0.00     0.049 A 
ATOM     62  H   UNL A   1      41.055  31.041  35.002  1.00  0.00     0.167 HD
ATOM     63  C   UNL A   1      39.396  33.031  36.208  1.00  0.00     0.074 A 
ATOM     64  C   UNL A   1      38.296  33.949  36.427  1.00  0.00     0.031 C 
ATOM     65  C   UNL A   1      40.416  32.835  37.079  1.00  0.00     0.031 A 
BRANCH  52  66
ATOM     66  C   UNL A   1      44.597  28.643  35.284  1.00  0.00    -0.014 A 
ATOM     67  C   UNL A   1      45.816  29.159  34.805  1.00  0.00     0.010 A 
ATOM     68  C   UNL A   1      44.597  27.405  35.951  1.00  0.00     0.010 A 
ATOM     69  C   UNL A   1      47.000  28.431  34.937  1.00  0.00     0.020 A 
ATOM     70  C   UNL A   1      45.788  26.692  36.123  1.00  0.00     0.020 A 
ATOM     71  C   UNL A   1      46.976  27.195  35.587  1.00  0.00     0.054 A 
BRANCH  71  72
ATOM     72  S   UNL A   1      48.514  26.241  35.696  1.00  0.00     0.124 S 
ATOM     73  O   UNL A   1      49.202  26.892  36.807  1.00  0.00    -0.237 OA
ATOM     74  O   UNL A   1      48.030  24.888  35.959  1.00  0.00    -0.237 OA
ATOM     75  O   UNL A   1      49.129  26.429  34.385  1.00  0.00    -0.744 OA
ENDBRANCH  71  72
ENDBRANCH  52  66
BRANCH  53  76
ATOM     76  C   UNL A   1      36.079  33.336  32.845  1.00  0.00    -0.014 A 
ATOM     77  C   UNL A   1      36.139  34.416  31.940  1.00  0.00     0.010 A 
ATOM     78  C   UNL A   1      34.839  33.017  33.428  1.00  0.00     0.010 A 
ATOM     79  C   UNL A   1      35.017  35.214  31.702  1.00  0.00     0.020 A 
ATOM     80  C   UNL A   1      33.700  33.785  33.156  1.00  0.00     0.020 A 
ATOM     81  C   UNL A   1      33.808  34.904  32.328  1.00  0.00     0.054 A 
BRANCH  81  82
ATOM     82  S   UNL A   1      32.396  36.017  32.077  1.00  0.00     0.124 S 
ATOM     83  O   UNL A   1      31.277  35.177  32.496  1.00  0.00    -0.237 OA
ATOM     84  O   UNL A   1      32.711  37.134  32.964  1.00  0.00    -0.237 OA
ATOM     85  O   UNL A   1      32.447  36.322  30.650  1.00  0.00    -0.744 OA
ENDBRANCH  81  82
ENDBRANCH  53  76
BRANCH  65  86
ATOM     86  C   UNL A   1      40.427  33.620  38.370  1.00  0.00    -0.014 A 
ATOM     87  C   UNL A   1      41.147  34.829  38.445  1.00  0.00     0.010 A 
ATOM     88  C   UNL A   1      39.876  33.083  39.548  1.00  0.00     0.010 A 
ATOM     89  C   UNL A   1      41.372  35.448  39.675  1.00  0.00     0.020 A 
ATOM     90  C   UNL A   1      40.064  33.724  40.776  1.00  0.00     0.020 A 
ATOM     91  C   UNL A   1      40.841  34.883  40.837  1.00  0.00     0.054 A 
BRANCH  91  92
ATOM     92  S   UNL A   1      41.212  35.662  42.432  1.00  0.00     0.124 S 
ATOM     93  O   UNL A   1      42.537  35.129  42.735  1.00  0.00    -0.237 OA
ATOM     94  O   UNL A   1      41.164  37.086  42.111  1.00  0.00    -0.237 OA
ATOM     95  O   UNL A   1      40.138  35.191  43.304  1.00  0.00    -0.744 OA
ENDBRANCH  91  92
ENDBRANCH  65  86
ENDBRANCH  39  40
ENDBRANCH  32  34
ENDBRANCH  31  32
ENDBRANCH  30  31
ENDBRANCH   1  30
TORSDOF 21
ENDMDL
