MODEL 1
REMARK VINA RESULT:      -9.4      0.000      0.000
REMARK SMILES CC(C)C[C@@H](C(=O)OCCOCCOC(=O)c1ccc(-c2c3nc(c(-c4ccc(S(=O)(=O)[O-])cc4)c4ccc([nH]4)c(-c4ccc(S(=O)(=O)[O-])cc4)c4nc(c(-c5ccc(S(=O)(=O)[O-])cc5)c5ccc2[nH]5)C=C4)C=C3)cc1)[C@@H]1CCC[C@@H](C)C1
REMARK SMILES IDX 12 1 11 2 10 3 9 4 8 5 6 6 7 7 5 8 4 9 2 10 1 11 3 12 77 13
REMARK SMILES IDX 78 14 83 15 79 16 81 17 80 18 82 19 13 20 14 21 15 22 16 23
REMARK SMILES IDX 17 24 18 25 76 26 19 27 75 28 20 29 21 30 22 31 69 32 23 33
REMARK SMILES IDX 74 34 68 35 70 36 24 37 73 38 67 39 66 40 25 42 55 43 36 44
REMARK SMILES IDX 54 45 37 46 40 47 53 48 71 49 38 50 39 51 52 53 72 54 41 55
REMARK SMILES IDX 26 56 27 57 35 58 28 59 34 60 29 61 30 62 31 63 32 64 33 65
REMARK SMILES IDX 56 66 57 67 65 68 58 69 64 70 59 71 60 72 61 73 62 74 63 75
REMARK SMILES IDX 42 76 43 77 51 78 44 79 50 80 45 81 46 82 47 83 48 84 49 85
REMARK H PARENT 70 41 40 52
REMARK Flexibility Score: inf
ROOT
ATOM      1  C   UNL A   1      35.736  21.960  24.914  1.00  0.00     0.202 C 
ENDROOT
BRANCH   1   2
ATOM      2  O   UNL A   1      34.526  21.291  25.214  1.00  0.00    -0.374 OA
BRANCH   2   3
ATOM      3  C   UNL A   1      33.412  22.072  25.642  1.00  0.00     0.202 C 
BRANCH   3   4
ATOM      4  C   UNL A   1      31.997  21.542  25.385  1.00  0.00     0.261 C 
BRANCH   4   5
ATOM      5  O   UNL A   1      30.920  22.493  25.609  1.00  0.00    -0.463 OA
BRANCH   5   6
ATOM      6  C   UNL A   1      31.265  23.618  26.281  1.00  0.00     0.309 C 
ATOM      7  O   UNL A   1      31.302  23.689  27.508  1.00  0.00    -0.252 OA
BRANCH   6   8
ATOM      8  C   UNL A   1      31.414  24.883  25.427  1.00  0.00     0.102 C 
BRANCH   8   9
ATOM      9  C   UNL A   1      30.943  26.139  26.224  1.00  0.00     0.018 C 
BRANCH   9  10
ATOM     10  C   UNL A   1      31.857  27.384  26.325  1.00  0.00    -0.017 C 
ATOM     11  C   UNL A   1      31.670  28.196  27.601  1.00  0.00     0.007 C 
ATOM     12  C   UNL A   1      33.324  26.943  26.220  1.00  0.00     0.007 C 
ENDBRANCH   9  10
ENDBRANCH   8   9
BRANCH   8  13
ATOM     13  C   UNL A   1      31.137  24.969  23.893  1.00  0.00     0.003 C 
ATOM     14  C   UNL A   1      32.258  25.424  22.945  1.00  0.00     0.004 C 
ATOM     15  C   UNL A   1      29.805  25.728  23.623  1.00  0.00     0.007 C 
ATOM     16  C   UNL A   1      32.272  26.902  22.546  1.00  0.00     0.001 C 
ATOM     17  C   UNL A   1      29.997  27.239  23.448  1.00  0.00    -0.014 C 
ATOM     18  C   UNL A   1      30.901  27.472  22.239  1.00  0.00     0.003 C 
ATOM     19  C   UNL A   1      28.671  27.972  23.280  1.00  0.00     0.007 C 
ENDBRANCH   8  13
ENDBRANCH   6   8
ENDBRANCH   5   6
ENDBRANCH   4   5
ENDBRANCH   3   4
ENDBRANCH   2   3
ENDBRANCH   1   2
BRANCH   1  20
ATOM     20  C   UNL A   1      36.154  23.130  25.806  1.00  0.00     0.261 C 
BRANCH  20  21
ATOM     21  O   UNL A   1      37.374  23.774  25.444  1.00  0.00    -0.460 OA
BRANCH  21  22
ATOM     22  C   UNL A   1      38.496  23.265  25.986  1.00  0.00     0.338 C 
ATOM     23  O   UNL A   1      38.950  22.136  25.855  1.00  0.00    -0.246 OA
BRANCH  22  24
ATOM     24  C   UNL A   1      39.161  24.340  26.732  1.00  0.00     0.060 A 
ATOM     25  C   UNL A   1      38.836  24.512  28.080  1.00  0.00     0.016 A 
ATOM     26  C   UNL A   1      40.066  25.194  26.095  1.00  0.00     0.016 A 
ATOM     27  C   UNL A   1      39.387  25.579  28.788  1.00  0.00     0.010 A 
ATOM     28  C   UNL A   1      40.620  26.261  26.811  1.00  0.00     0.010 A 
ATOM     29  C   UNL A   1      40.254  26.479  28.150  1.00  0.00    -0.014 A 
BRANCH  29  30
ATOM     30  C   UNL A   1      40.659  27.718  28.861  1.00  0.00     0.031 A 
ATOM     31  C   UNL A   1      42.070  27.841  29.372  1.00  0.00     0.074 A 
ATOM     32  C   UNL A   1      39.801  28.746  28.997  1.00  0.00     0.049 A 
ATOM     33  N   UNL A   1      42.665  28.872  29.916  1.00  0.00    -0.248 NA
ATOM     34  C   UNL A   1      42.922  26.647  29.251  1.00  0.00     0.031 C 
ATOM     35  C   UNL A   1      38.416  28.757  28.529  1.00  0.00     0.029 A 
ATOM     36  N   UNL A   1      39.979  29.988  29.551  1.00  0.00    -0.354 N 
ATOM     37  C   UNL A   1      43.960  28.454  30.197  1.00  0.00     0.074 A 
ATOM     38  C   UNL A   1      44.053  27.065  29.801  1.00  0.00     0.031 C 
ATOM     39  C   UNL A   1      37.875  29.957  28.799  1.00  0.00     0.029 A 
ATOM     40  C   UNL A   1      38.868  30.793  29.471  1.00  0.00     0.049 A 
ATOM     41  H   UNL A   1      40.824  30.276  29.968  1.00  0.00     0.167 HD
ATOM     42  C   UNL A   1      44.985  29.163  30.726  1.00  0.00     0.031 A 
ATOM     43  C   UNL A   1      38.674  32.061  29.886  1.00  0.00     0.031 A 
ATOM     44  C   UNL A   1      44.891  30.539  31.136  1.00  0.00     0.049 A 
ATOM     45  C   UNL A   1      39.813  32.812  30.525  1.00  0.00     0.074 A 
ATOM     46  C   UNL A   1      45.883  31.354  31.654  1.00  0.00     0.029 A 
ATOM     47  N   UNL A   1      43.731  31.298  31.091  1.00  0.00    -0.354 N 
ATOM     48  N   UNL A   1      41.049  32.421  30.728  1.00  0.00    -0.248 NA
ATOM     49  C   UNL A   1      39.531  34.182  30.979  1.00  0.00     0.031 C 
ATOM     50  C   UNL A   1      45.309  32.589  31.973  1.00  0.00     0.029 A 
ATOM     51  C   UNL A   1      43.974  32.562  31.603  1.00  0.00     0.049 A 
ATOM     52  H   UNL A   1      42.864  30.985  30.746  1.00  0.00     0.167 HD
ATOM     53  C   UNL A   1      41.698  33.505  31.311  1.00  0.00     0.074 A 
ATOM     54  C   UNL A   1      40.722  34.569  31.418  1.00  0.00     0.031 C 
ATOM     55  C   UNL A   1      42.989  33.608  31.715  1.00  0.00     0.031 A 
BRANCH  42  56
ATOM     56  C   UNL A   1      46.293  28.442  30.923  1.00  0.00    -0.014 A 
ATOM     57  C   UNL A   1      47.279  28.433  29.919  1.00  0.00     0.010 A 
ATOM     58  C   UNL A   1      46.542  27.773  32.134  1.00  0.00     0.010 A 
ATOM     59  C   UNL A   1      48.469  27.726  30.105  1.00  0.00     0.020 A 
ATOM     60  C   UNL A   1      47.743  27.085  32.333  1.00  0.00     0.020 A 
ATOM     61  C   UNL A   1      48.690  27.048  31.307  1.00  0.00     0.054 A 
BRANCH  61  62
ATOM     62  S   UNL A   1      50.241  26.133  31.524  1.00  0.00     0.124 S 
ATOM     63  O   UNL A   1      50.777  26.126  30.165  1.00  0.00    -0.237 OA
ATOM     64  O   UNL A   1      50.972  26.959  32.481  1.00  0.00    -0.237 OA
ATOM     65  O   UNL A   1      49.810  24.833  32.029  1.00  0.00    -0.744 OA
ENDBRANCH  61  62
ENDBRANCH  42  56
BRANCH  43  66
ATOM     66  C   UNL A   1      37.348  32.707  29.692  1.00  0.00    -0.014 A 
ATOM     67  C   UNL A   1      36.367  32.645  30.697  1.00  0.00     0.010 A 
ATOM     68  C   UNL A   1      37.068  33.406  28.503  1.00  0.00     0.010 A 
ATOM     69  C   UNL A   1      35.128  33.269  30.515  1.00  0.00     0.020 A 
ATOM     70  C   UNL A   1      35.840  34.049  28.327  1.00  0.00     0.020 A 
ATOM     71  C   UNL A   1      34.875  33.971  29.333  1.00  0.00     0.054 A 
BRANCH  71  72
ATOM     72  S   UNL A   1      33.290  34.837  29.150  1.00  0.00     0.124 S 
ATOM     73  O   UNL A   1      32.788  34.845  30.520  1.00  0.00    -0.237 OA
ATOM     74  O   UNL A   1      33.698  36.134  28.617  1.00  0.00    -0.237 OA
ATOM     75  O   UNL A   1      32.548  33.994  28.214  1.00  0.00    -0.744 OA
ENDBRANCH  71  72
ENDBRANCH  43  66
BRANCH  55  76
ATOM     76  C   UNL A   1      43.431  34.926  32.295  1.00  0.00    -0.014 A 
ATOM     77  C   UNL A   1      43.856  35.980  31.467  1.00  0.00     0.010 A 
ATOM     78  C   UNL A   1      43.362  35.132  33.686  1.00  0.00     0.010 A 
ATOM     79  C   UNL A   1      44.231  37.208  32.022  1.00  0.00     0.020 A 
ATOM     80  C   UNL A   1      43.713  36.364  34.242  1.00  0.00     0.020 A 
ATOM     81  C   UNL A   1      44.159  37.391  33.406  1.00  0.00     0.054 A 
BRANCH  81  82
ATOM     82  S   UNL A   1      44.609  39.006  34.100  1.00  0.00     0.124 S 
ATOM     83  O   UNL A   1      44.057  38.922  35.449  1.00  0.00    -0.237 OA
ATOM     84  O   UNL A   1      46.067  38.997  34.015  1.00  0.00    -0.237 OA
ATOM     85  O   UNL A   1      43.947  39.960  33.213  1.00  0.00    -0.744 OA
ENDBRANCH  81  82
ENDBRANCH  55  76
ENDBRANCH  29  30
ENDBRANCH  22  24
ENDBRANCH  21  22
ENDBRANCH  20  21
ENDBRANCH   1  20
TORSDOF 20
ENDMDL
MODEL 2
REMARK VINA RESULT:      -9.4      3.661      4.981
REMARK SMILES CC(C)C[C@@H](C(=O)OCCOCCOC(=O)c1ccc(-c2c3nc(c(-c4ccc(S(=O)(=O)[O-])cc4)c4ccc([nH]4)c(-c4ccc(S(=O)(=O)[O-])cc4)c4nc(c(-c5ccc(S(=O)(=O)[O-])cc5)c5ccc2[nH]5)C=C4)C=C3)cc1)[C@@H]1CCC[C@@H](C)C1
REMARK SMILES IDX 12 1 11 2 10 3 9 4 8 5 6 6 7 7 5 8 4 9 2 10 1 11 3 12 77 13
REMARK SMILES IDX 78 14 83 15 79 16 81 17 80 18 82 19 13 20 14 21 15 22 16 23
REMARK SMILES IDX 17 24 18 25 76 26 19 27 75 28 20 29 21 30 22 31 69 32 23 33
REMARK SMILES IDX 74 34 68 35 70 36 24 37 73 38 67 39 66 40 25 42 55 43 36 44
REMARK SMILES IDX 54 45 37 46 40 47 53 48 71 49 38 50 39 51 52 53 72 54 41 55
REMARK SMILES IDX 26 56 27 57 35 58 28 59 34 60 29 61 30 62 31 63 32 64 33 65
REMARK SMILES IDX 56 66 57 67 65 68 58 69 64 70 59 71 60 72 61 73 62 74 63 75
REMARK SMILES IDX 42 76 43 77 51 78 44 79 50 80 45 81 46 82 47 83 48 84 49 85
REMARK H PARENT 70 41 40 52
REMARK Flexibility Score: inf
ROOT
ATOM      1  C   UNL A   1      38.388  21.783  25.683  1.00  0.00     0.202 C 
ENDROOT
BRANCH   1   2
ATOM      2  O   UNL A   1      37.060  21.873  25.205  1.00  0.00    -0.374 OA
BRANCH   2   3
ATOM      3  C   UNL A   1      36.733  22.938  24.315  1.00  0.00     0.202 C 
BRANCH   3   4
ATOM      4  C   UNL A   1      35.431  23.716  24.538  1.00  0.00     0.261 C 
BRANCH   4   5
ATOM      5  O   UNL A   1      34.229  23.094  24.008  1.00  0.00    -0.463 OA
BRANCH   5   6
ATOM      6  C   UNL A   1      33.690  23.697  22.921  1.00  0.00     0.309 C 
ATOM      7  O   UNL A   1      33.923  23.342  21.767  1.00  0.00    -0.252 OA
BRANCH   6   8
ATOM      8  C   UNL A   1      32.922  24.995  23.192  1.00  0.00     0.102 C 
BRANCH   8   9
ATOM      9  C   UNL A   1      31.629  24.703  24.016  1.00  0.00     0.018 C 
BRANCH   9  10
ATOM     10  C   UNL A   1      31.589  25.006  25.533  1.00  0.00    -0.017 C 
ATOM     11  C   UNL A   1      32.722  25.900  26.023  1.00  0.00     0.007 C 
ATOM     12  C   UNL A   1      30.245  25.662  25.882  1.00  0.00     0.007 C 
ENDBRANCH   9  10
ENDBRANCH   8   9
BRANCH   8  13
ATOM     13  C   UNL A   1      32.773  26.178  22.185  1.00  0.00     0.003 C 
ATOM     14  C   UNL A   1      33.750  27.362  22.258  1.00  0.00     0.004 C 
ATOM     15  C   UNL A   1      31.292  26.652  22.117  1.00  0.00     0.007 C 
ATOM     16  C   UNL A   1      33.291  28.594  23.042  1.00  0.00     0.001 C 
ATOM     17  C   UNL A   1      30.967  27.761  23.126  1.00  0.00    -0.014 C 
ATOM     18  C   UNL A   1      31.842  28.972  22.806  1.00  0.00     0.003 C 
ATOM     19  C   UNL A   1      29.491  28.141  23.107  1.00  0.00     0.007 C 
ENDBRANCH   8  13
ENDBRANCH   6   8
ENDBRANCH   5   6
ENDBRANCH   4   5
ENDBRANCH   3   4
ENDBRANCH   2   3
ENDBRANCH   1   2
BRANCH   1  20
ATOM     20  C   UNL A   1      39.056  20.408  25.704  1.00  0.00     0.261 C 
BRANCH  20  21
ATOM     21  O   UNL A   1      40.011  20.203  26.743  1.00  0.00    -0.460 OA
BRANCH  21  22
ATOM     22  C   UNL A   1      41.279  19.982  26.348  1.00  0.00     0.338 C 
ATOM     23  O   UNL A   1      41.737  18.979  25.817  1.00  0.00    -0.246 OA
BRANCH  22  24
ATOM     24  C   UNL A   1      42.045  21.208  26.595  1.00  0.00     0.060 A 
ATOM     25  C   UNL A   1      42.386  21.524  27.912  1.00  0.00     0.016 A 
ATOM     26  C   UNL A   1      42.389  22.058  25.539  1.00  0.00     0.016 A 
ATOM     27  C   UNL A   1      43.038  22.727  28.184  1.00  0.00     0.010 A 
ATOM     28  C   UNL A   1      43.047  23.261  25.816  1.00  0.00     0.010 A 
ATOM     29  C   UNL A   1      43.341  23.618  27.143  1.00  0.00    -0.014 A 
BRANCH  29  30
ATOM     30  C   UNL A   1      43.842  24.974  27.477  1.00  0.00     0.031 A 
ATOM     31  C   UNL A   1      45.288  25.305  27.220  1.00  0.00     0.074 A 
ATOM     32  C   UNL A   1      43.007  25.920  27.945  1.00  0.00     0.049 A 
ATOM     33  N   UNL A   1      45.905  26.454  27.331  1.00  0.00    -0.248 NA
ATOM     34  C   UNL A   1      46.151  24.197  26.779  1.00  0.00     0.031 C 
ATOM     35  C   UNL A   1      41.583  25.730  28.218  1.00  0.00     0.029 A 
ATOM     36  N   UNL A   1      43.236  27.237  28.255  1.00  0.00    -0.354 N 
ATOM     37  C   UNL A   1      47.224  26.209  26.968  1.00  0.00     0.074 A 
ATOM     38  C   UNL A   1      47.328  24.796  26.673  1.00  0.00     0.031 C 
ATOM     39  C   UNL A   1      41.060  26.895  28.636  1.00  0.00     0.029 A 
ATOM     40  C   UNL A   1      42.114  27.909  28.676  1.00  0.00     0.049 A 
ATOM     41  H   UNL A   1      44.122  27.661  28.183  1.00  0.00     0.167 HD
ATOM     42  C   UNL A   1      48.256  27.082  26.876  1.00  0.00     0.031 A 
ATOM     43  C   UNL A   1      41.950  29.195  29.045  1.00  0.00     0.031 A 
ATOM     44  C   UNL A   1      48.159  28.484  27.185  1.00  0.00     0.049 A 
ATOM     45  C   UNL A   1      43.125  30.135  28.990  1.00  0.00     0.074 A 
ATOM     46  C   UNL A   1      49.141  29.455  27.092  1.00  0.00     0.029 A 
ATOM     47  N   UNL A   1      47.019  29.110  27.662  1.00  0.00    -0.354 N 
ATOM     48  N   UNL A   1      44.352  29.900  28.586  1.00  0.00    -0.248 NA
ATOM     49  C   UNL A   1      42.890  31.518  29.429  1.00  0.00     0.031 C 
ATOM     50  C   UNL A   1      48.608  30.659  27.567  1.00  0.00     0.029 A 
ATOM     51  C   UNL A   1      47.280  30.448  27.903  1.00  0.00     0.049 A 
ATOM     52  H   UNL A   1      46.151  28.668  27.809  1.00  0.00     0.167 HD
ATOM     53  C   UNL A   1      45.027  31.112  28.700  1.00  0.00     0.074 A 
ATOM     54  C   UNL A   1      44.070  32.078  29.200  1.00  0.00     0.031 C 
ATOM     55  C   UNL A   1      46.321  31.397  28.411  1.00  0.00     0.031 A 
BRANCH  42  56
ATOM     56  C   UNL A   1      49.592  26.528  26.455  1.00  0.00    -0.014 A 
ATOM     57  C   UNL A   1      50.378  25.769  27.340  1.00  0.00     0.010 A 
ATOM     58  C   UNL A   1      50.060  26.762  25.150  1.00  0.00     0.010 A 
ATOM     59  C   UNL A   1      51.633  25.297  26.943  1.00  0.00     0.020 A 
ATOM     60  C   UNL A   1      51.303  26.270  24.741  1.00  0.00     0.020 A 
ATOM     61  C   UNL A   1      52.092  25.559  25.649  1.00  0.00     0.054 A 
BRANCH  61  62
ATOM     62  S   UNL A   1      53.724  24.939  25.158  1.00  0.00     0.124 S 
ATOM     63  O   UNL A   1      53.950  25.651  23.903  1.00  0.00    -0.237 OA
ATOM     64  O   UNL A   1      54.574  25.349  26.273  1.00  0.00    -0.237 OA
ATOM     65  O   UNL A   1      53.523  23.499  25.029  1.00  0.00    -0.744 OA
ENDBRANCH  61  62
ENDBRANCH  42  56
BRANCH  43  66
ATOM     66  C   UNL A   1      40.611  29.673  29.482  1.00  0.00    -0.014 A 
ATOM     67  C   UNL A   1      39.601  29.935  28.541  1.00  0.00     0.010 A 
ATOM     68  C   UNL A   1      40.335  29.851  30.850  1.00  0.00     0.010 A 
ATOM     69  C   UNL A   1      38.338  30.368  28.959  1.00  0.00     0.020 A 
ATOM     70  C   UNL A   1      39.068  30.262  31.274  1.00  0.00     0.020 A 
ATOM     71  C   UNL A   1      38.078  30.524  30.324  1.00  0.00     0.054 A 
BRANCH  71  72
ATOM     72  S   UNL A   1      36.412  31.014  30.849  1.00  0.00     0.124 S 
ATOM     73  O   UNL A   1      36.655  32.319  31.456  1.00  0.00    -0.237 OA
ATOM     74  O   UNL A   1      35.675  31.029  29.588  1.00  0.00    -0.237 OA
ATOM     75  O   UNL A   1      36.021  29.953  31.776  1.00  0.00    -0.744 OA
ENDBRANCH  71  72
ENDBRANCH  43  66
BRANCH  55  76
ATOM     76  C   UNL A   1      46.779  32.818  28.608  1.00  0.00    -0.014 A 
ATOM     77  C   UNL A   1      46.645  33.774  27.586  1.00  0.00     0.010 A 
ATOM     78  C   UNL A   1      47.296  33.215  29.856  1.00  0.00     0.010 A 
ATOM     79  C   UNL A   1      47.046  35.097  27.800  1.00  0.00     0.020 A 
ATOM     80  C   UNL A   1      47.675  34.541  30.081  1.00  0.00     0.020 A 
ATOM     81  C   UNL A   1      47.560  35.471  29.045  1.00  0.00     0.054 A 
BRANCH  81  82
ATOM     82  S   UNL A   1      48.032  37.203  29.312  1.00  0.00     0.124 S 
ATOM     83  O   UNL A   1      46.765  37.899  29.111  1.00  0.00    -0.237 OA
ATOM     84  O   UNL A   1      48.533  37.192  30.684  1.00  0.00    -0.237 OA
ATOM     85  O   UNL A   1      49.047  37.446  28.289  1.00  0.00    -0.744 OA
ENDBRANCH  81  82
ENDBRANCH  55  76
ENDBRANCH  29  30
ENDBRANCH  22  24
ENDBRANCH  21  22
ENDBRANCH  20  21
ENDBRANCH   1  20
TORSDOF 20
ENDMDL
MODEL 3
REMARK VINA RESULT:      -9.4      3.955      5.223
REMARK SMILES CC(C)C[C@@H](C(=O)OCCOCCOC(=O)c1ccc(-c2c3nc(c(-c4ccc(S(=O)(=O)[O-])cc4)c4ccc([nH]4)c(-c4ccc(S(=O)(=O)[O-])cc4)c4nc(c(-c5ccc(S(=O)(=O)[O-])cc5)c5ccc2[nH]5)C=C4)C=C3)cc1)[C@@H]1CCC[C@@H](C)C1
REMARK SMILES IDX 12 1 11 2 10 3 9 4 8 5 6 6 7 7 5 8 4 9 2 10 1 11 3 12 77 13
REMARK SMILES IDX 78 14 83 15 79 16 81 17 80 18 82 19 13 20 14 21 15 22 16 23
REMARK SMILES IDX 17 24 18 25 76 26 19 27 75 28 20 29 21 30 22 31 69 32 23 33
REMARK SMILES IDX 74 34 68 35 70 36 24 37 73 38 67 39 66 40 25 42 55 43 36 44
REMARK SMILES IDX 54 45 37 46 40 47 53 48 71 49 38 50 39 51 52 53 72 54 41 55
REMARK SMILES IDX 26 56 27 57 35 58 28 59 34 60 29 61 30 62 31 63 32 64 33 65
REMARK SMILES IDX 56 66 57 67 65 68 58 69 64 70 59 71 60 72 61 73 62 74 63 75
REMARK SMILES IDX 42 76 43 77 51 78 44 79 50 80 45 81 46 82 47 83 48 84 49 85
REMARK H PARENT 70 41 40 52
REMARK Flexibility Score: inf
ROOT
ATOM      1  C   UNL A   1      42.077  22.409  26.574  1.00  0.00     0.202 C 
ENDROOT
BRANCH   1   2
ATOM      2  O   UNL A   1      41.035  22.502  27.526  1.00  0.00    -0.374 OA
BRANCH   2   3
ATOM      3  C   UNL A   1      39.801  21.847  27.242  1.00  0.00     0.202 C 
BRANCH   3   4
ATOM      4  C   UNL A   1      39.259  21.882  25.808  1.00  0.00     0.261 C 
BRANCH   4   5
ATOM      5  O   UNL A   1      37.811  21.893  25.684  1.00  0.00    -0.463 OA
BRANCH   5   6
ATOM      6  C   UNL A   1      37.240  23.119  25.603  1.00  0.00     0.309 C 
ATOM      7  O   UNL A   1      37.758  24.137  26.058  1.00  0.00    -0.252 OA
BRANCH   6   8
ATOM      8  C   UNL A   1      35.798  23.148  25.086  1.00  0.00     0.102 C 
BRANCH   8   9
ATOM      9  C   UNL A   1      34.792  23.242  26.275  1.00  0.00     0.018 C 
BRANCH   9  10
ATOM     10  C   UNL A   1      33.889  24.488  26.433  1.00  0.00    -0.017 C 
ATOM     11  C   UNL A   1      34.092  25.549  25.358  1.00  0.00     0.007 C 
ATOM     12  C   UNL A   1      32.418  24.049  26.434  1.00  0.00     0.007 C 
ENDBRANCH   9  10
ENDBRANCH   8   9
BRANCH   8  13
ATOM     13  C   UNL A   1      35.262  22.327  23.871  1.00  0.00     0.003 C 
ATOM     14  C   UNL A   1      34.335  23.003  22.849  1.00  0.00     0.004 C 
ATOM     15  C   UNL A   1      34.697  20.956  24.348  1.00  0.00     0.007 C 
ATOM     16  C   UNL A   1      32.829  22.807  23.039  1.00  0.00     0.001 C 
ATOM     17  C   UNL A   1      33.203  21.006  24.689  1.00  0.00    -0.014 C 
ATOM     18  C   UNL A   1      32.434  21.395  23.427  1.00  0.00     0.003 C 
ATOM     19  C   UNL A   1      32.694  19.681  25.244  1.00  0.00     0.007 C 
ENDBRANCH   8  13
ENDBRANCH   6   8
ENDBRANCH   5   6
ENDBRANCH   4   5
ENDBRANCH   3   4
ENDBRANCH   2   3
ENDBRANCH   1   2
BRANCH   1  20
ATOM     20  C   UNL A   1      42.539  23.693  25.883  1.00  0.00     0.261 C 
BRANCH  20  21
ATOM     21  O   UNL A   1      41.551  24.712  25.751  1.00  0.00    -0.460 OA
BRANCH  21  22
ATOM     22  C   UNL A   1      42.009  25.972  25.638  1.00  0.00     0.338 C 
ATOM     23  O   UNL A   1      42.410  26.540  24.631  1.00  0.00    -0.246 OA
BRANCH  22  24
ATOM     24  C   UNL A   1      41.882  26.614  26.952  1.00  0.00     0.060 A 
ATOM     25  C   UNL A   1      40.873  26.173  27.811  1.00  0.00     0.016 A 
ATOM     26  C   UNL A   1      42.726  27.668  27.314  1.00  0.00     0.016 A 
ATOM     27  C   UNL A   1      40.674  26.824  29.028  1.00  0.00     0.010 A 
ATOM     28  C   UNL A   1      42.527  28.314  28.539  1.00  0.00     0.010 A 
ATOM     29  C   UNL A   1      41.476  27.919  29.384  1.00  0.00    -0.014 A 
BRANCH  29  30
ATOM     30  C   UNL A   1      41.113  28.721  30.579  1.00  0.00     0.031 A 
ATOM     31  C   UNL A   1      41.956  28.606  31.822  1.00  0.00     0.074 A 
ATOM     32  C   UNL A   1      40.084  29.588  30.540  1.00  0.00     0.049 A 
ATOM     33  N   UNL A   1      41.887  29.295  32.933  1.00  0.00    -0.248 NA
ATOM     34  C   UNL A   1      43.014  27.584  31.809  1.00  0.00     0.031 C 
ATOM     35  C   UNL A   1      39.205  29.804  29.392  1.00  0.00     0.029 A 
ATOM     36  N   UNL A   1      39.618  30.462  31.490  1.00  0.00    -0.354 N 
ATOM     37  C   UNL A   1      42.896  28.794  33.748  1.00  0.00     0.074 A 
ATOM     38  C   UNL A   1      43.534  27.718  33.021  1.00  0.00     0.031 C 
ATOM     39  C   UNL A   1      38.318  30.766  29.697  1.00  0.00     0.029 A 
ATOM     40  C   UNL A   1      38.555  31.222  31.066  1.00  0.00     0.049 A 
ATOM     41  H   UNL A   1      40.010  30.537  32.391  1.00  0.00     0.167 HD
ATOM     42  C   UNL A   1      43.266  29.199  34.986  1.00  0.00     0.031 A 
ATOM     43  C   UNL A   1      37.855  32.181  31.705  1.00  0.00     0.031 A 
ATOM     44  C   UNL A   1      42.622  30.257  35.718  1.00  0.00     0.049 A 
ATOM     45  C   UNL A   1      38.249  32.576  33.104  1.00  0.00     0.074 A 
ATOM     46  C   UNL A   1      42.945  30.762  36.966  1.00  0.00     0.029 A 
ATOM     47  N   UNL A   1      41.512  30.961  35.275  1.00  0.00    -0.354 N 
ATOM     48  N   UNL A   1      39.244  32.134  33.838  1.00  0.00    -0.248 NA
ATOM     49  C   UNL A   1      37.432  33.609  33.757  1.00  0.00     0.031 C 
ATOM     50  C   UNL A   1      41.996  31.734  37.301  1.00  0.00     0.029 A 
ATOM     51  C   UNL A   1      41.116  31.873  36.239  1.00  0.00     0.049 A 
ATOM     52  H   UNL A   1      41.072  30.832  34.405  1.00  0.00     0.167 HD
ATOM     53  C   UNL A   1      39.185  32.852  35.028  1.00  0.00     0.074 A 
ATOM     54  C   UNL A   1      38.065  33.764  34.912  1.00  0.00     0.031 C 
ATOM     55  C   UNL A   1      39.992  32.767  36.115  1.00  0.00     0.031 A 
BRANCH  42  56
ATOM     56  C   UNL A   1      44.406  28.463  35.640  1.00  0.00    -0.014 A 
ATOM     57  C   UNL A   1      45.738  28.879  35.464  1.00  0.00     0.010 A 
ATOM     58  C   UNL A   1      44.138  27.345  36.449  1.00  0.00     0.010 A 
ATOM     59  C   UNL A   1      46.785  28.160  36.047  1.00  0.00     0.020 A 
ATOM     60  C   UNL A   1      45.181  26.638  37.054  1.00  0.00     0.020 A 
ATOM     61  C   UNL A   1      46.501  27.037  36.830  1.00  0.00     0.054 A 
BRANCH  61  62
ATOM     62  S   UNL A   1      47.876  26.117  37.572  1.00  0.00     0.124 S 
ATOM     63  O   UNL A   1      49.027  26.682  36.871  1.00  0.00    -0.237 OA
ATOM     64  O   UNL A   1      47.771  26.465  38.987  1.00  0.00    -0.237 OA
ATOM     65  O   UNL A   1      47.575  24.725  37.252  1.00  0.00    -0.744 OA
ENDBRANCH  61  62
ENDBRANCH  42  56
BRANCH  43  66
ATOM     66  C   UNL A   1      36.718  32.849  31.016  1.00  0.00    -0.014 A 
ATOM     67  C   UNL A   1      35.418  32.777  31.545  1.00  0.00     0.010 A 
ATOM     68  C   UNL A   1      36.937  33.579  29.834  1.00  0.00     0.010 A 
ATOM     69  C   UNL A   1      34.356  33.420  30.902  1.00  0.00     0.020 A 
ATOM     70  C   UNL A   1      35.882  34.242  29.200  1.00  0.00     0.020 A 
ATOM     71  C   UNL A   1      34.596  34.154  29.736  1.00  0.00     0.054 A 
BRANCH  71  72
ATOM     72  S   UNL A   1      33.218  35.044  28.960  1.00  0.00     0.124 S 
ATOM     73  O   UNL A   1      32.721  34.060  28.003  1.00  0.00    -0.237 OA
ATOM     74  O   UNL A   1      32.343  35.323  30.095  1.00  0.00    -0.237 OA
ATOM     75  O   UNL A   1      33.858  36.220  28.375  1.00  0.00    -0.744 OA
ENDBRANCH  71  72
ENDBRANCH  43  66
BRANCH  55  76
ATOM     76  C   UNL A   1      39.707  33.697  37.265  1.00  0.00    -0.014 A 
ATOM     77  C   UNL A   1      38.883  33.303  38.333  1.00  0.00     0.010 A 
ATOM     78  C   UNL A   1      40.323  34.962  37.304  1.00  0.00     0.010 A 
ATOM     79  C   UNL A   1      38.657  34.169  39.408  1.00  0.00     0.020 A 
ATOM     80  C   UNL A   1      40.120  35.820  38.388  1.00  0.00     0.020 A 
ATOM     81  C   UNL A   1      39.276  35.422  39.428  1.00  0.00     0.054 A 
BRANCH  81  82
ATOM     82  S   UNL A   1      39.003  36.511  40.853  1.00  0.00     0.124 S 
ATOM     83  O   UNL A   1      38.006  35.767  41.618  1.00  0.00    -0.237 OA
ATOM     84  O   UNL A   1      40.330  36.589  41.458  1.00  0.00    -0.237 OA
ATOM     85  O   UNL A   1      38.526  37.755  40.253  1.00  0.00    -0.744 OA
ENDBRANCH  81  82
ENDBRANCH  55  76
ENDBRANCH  29  30
ENDBRANCH  22  24
ENDBRANCH  21  22
ENDBRANCH  20  21
ENDBRANCH   1  20
TORSDOF 20
ENDMDL
