MODEL 1
REMARK VINA RESULT:     -11.0      0.000      0.000
REMARK SMILES O=C(CCN1C(=O)S/C(=C\c2ccc(F)cc2)C1=O)Nc1ccc(O)cc1C(=O)OCCOCCOC(=O)c1ccc(-c2c3nc(c(-c4ccc(S(=O)(=O)[O-])cc4)c4ccc([nH]4)c(-c4ccc(S(=O)(=O)[O-])cc4)c4nc(c(-c5ccc(S(=O)(=O)[O-])cc5)c5ccc2[nH]5)C=C4)C=C3)cc1
REMARK SMILES IDX 32 1 31 2 30 3 28 4 29 5 27 6 21 7 22 8 23 9 26 10 24 11
REMARK SMILES IDX 20 12 1 13 2 14 3 16 4 17 5 18 6 19 18 20 7 21 8 22 9 23
REMARK SMILES IDX 19 24 10 25 11 26 12 27 17 28 13 29 16 30 14 31 15 32 25 33
REMARK SMILES IDX 33 35 34 36 35 37 36 38 37 39 38 40 39 41 40 42 98 43 41 44
REMARK SMILES IDX 97 45 42 46 43 47 44 48 91 49 45 50 96 51 90 52 92 53 46 54
REMARK SMILES IDX 95 55 89 56 88 57 47 59 77 60 58 61 76 62 59 63 62 64 75 65
REMARK SMILES IDX 93 66 60 67 61 68 74 70 94 71 63 72 48 73 49 74 57 75 50 76
REMARK SMILES IDX 56 77 51 78 52 79 53 80 54 81 55 82 78 83 79 84 87 85 80 86
REMARK SMILES IDX 86 87 81 88 82 89 83 90 84 91 85 92 64 93 65 94 73 95 66 96
REMARK SMILES IDX 72 97 67 98 68 99 69 100 70 101 71 102
REMARK H PARENT 20 15 25 34 92 58 62 69
REMARK Flexibility Score: inf
ROOT
ATOM      1  C   UNL A   1      35.169  23.744  26.224  1.00  0.00     0.202 C 
ENDROOT
BRANCH   1   2
ATOM      2  C   UNL A   1      34.825  24.894  25.270  1.00  0.00     0.261 C 
BRANCH   2   3
ATOM      3  O   UNL A   1      34.164  26.047  25.799  1.00  0.00    -0.460 OA
BRANCH   3   4
ATOM      4  C   UNL A   1      33.897  27.053  24.926  1.00  0.00     0.340 C 
ATOM      5  O   UNL A   1      33.937  26.964  23.712  1.00  0.00    -0.246 OA
BRANCH   4   6
ATOM      6  C   UNL A   1      33.471  28.284  25.654  1.00  0.00     0.087 A 
ATOM      7  C   UNL A   1      32.149  28.793  25.661  1.00  0.00     0.056 A 
ATOM      8  C   UNL A   1      31.877  29.935  26.425  1.00  0.00     0.031 A 
ATOM      9  C   UNL A   1      32.887  30.575  27.152  1.00  0.00     0.048 A 
ATOM     10  C   UNL A   1      34.478  28.932  26.389  1.00  0.00     0.064 A 
ATOM     11  C   UNL A   1      34.179  30.071  27.122  1.00  0.00     0.116 A 
BRANCH   7  12
ATOM     12  N   UNL A   1      31.127  28.096  24.976  1.00  0.00    -0.325 N 
ATOM     13  O   UNL A   1      31.093  29.058  22.878  1.00  0.00    -0.275 OA
ATOM     14  C   UNL A   1      30.570  28.363  23.748  1.00  0.00     0.226 C 
ATOM     15  H   UNL A   1      30.764  27.309  25.444  1.00  0.00     0.169 HD
BRANCH  14  16
ATOM     16  C   UNL A   1      29.174  27.785  23.511  1.00  0.00     0.122 C 
BRANCH  16  17
ATOM     17  C   UNL A   1      28.875  26.363  23.972  1.00  0.00     0.140 C 
BRANCH  17  18
ATOM     18  N   UNL A   1      29.966  25.460  24.359  1.00  0.00    -0.268 N 
ATOM     19  C   UNL A   1      29.994  24.972  25.648  1.00  0.00     0.293 C 
ATOM     20  C   UNL A   1      30.876  24.886  23.501  1.00  0.00     0.268 C 
ATOM     21  O   UNL A   1      29.178  25.178  26.528  1.00  0.00    -0.261 OA
ATOM     22  S   UNL A   1      31.280  23.800  25.849  1.00  0.00    -0.022 SA
ATOM     23  C   UNL A   1      31.506  23.708  24.157  1.00  0.00     0.083 C 
ATOM     24  O   UNL A   1      31.078  25.187  22.336  1.00  0.00    -0.268 OA
ATOM     25  C   UNL A   1      31.951  22.674  23.431  1.00  0.00     0.029 C 
BRANCH  25  26
ATOM     26  C   UNL A   1      32.348  21.355  23.939  1.00  0.00    -0.024 A 
ATOM     27  C   UNL A   1      32.753  21.176  25.271  1.00  0.00     0.011 A 
ATOM     28  C   UNL A   1      32.233  20.237  23.112  1.00  0.00     0.011 A 
ATOM     29  C   UNL A   1      33.031  19.907  25.776  1.00  0.00     0.040 A 
ATOM     30  C   UNL A   1      32.516  18.963  23.614  1.00  0.00     0.040 A 
ATOM     31  C   UNL A   1      32.907  18.810  24.940  1.00  0.00     0.123 A 
ATOM     32  F   UNL A   1      33.150  17.584  25.423  1.00  0.00    -0.207 F 
ENDBRANCH  25  26
ENDBRANCH  17  18
ENDBRANCH  16  17
ENDBRANCH  14  16
ENDBRANCH   7  12
BRANCH  11  33
ATOM     33  O   UNL A   1      35.190  30.669  27.813  1.00  0.00    -0.508 OA
ATOM     34  H   UNL A   1      35.684  30.178  28.440  1.00  0.00     0.293 HD
ENDBRANCH  11  33
ENDBRANCH   4   6
ENDBRANCH   3   4
ENDBRANCH   2   3
ENDBRANCH   1   2
BRANCH   1  35
ATOM     35  O   UNL A   1      35.688  22.526  25.725  1.00  0.00    -0.374 OA
BRANCH  35  36
ATOM     36  C   UNL A   1      36.812  22.528  24.860  1.00  0.00     0.202 C 
BRANCH  36  37
ATOM     37  C   UNL A   1      38.125  23.189  25.291  1.00  0.00     0.261 C 
BRANCH  37  38
ATOM     38  O   UNL A   1      38.952  22.393  26.159  1.00  0.00    -0.460 OA
BRANCH  38  39
ATOM     39  C   UNL A   1      40.218  22.857  26.316  1.00  0.00     0.338 C 
ATOM     40  O   UNL A   1      41.246  22.332  25.920  1.00  0.00    -0.246 OA
BRANCH  39  41
ATOM     41  C   UNL A   1      40.199  24.182  26.959  1.00  0.00     0.060 A 
ATOM     42  C   UNL A   1      41.148  25.134  26.569  1.00  0.00     0.016 A 
ATOM     43  C   UNL A   1      39.319  24.448  28.009  1.00  0.00     0.016 A 
ATOM     44  C   UNL A   1      41.241  26.351  27.250  1.00  0.00     0.010 A 
ATOM     45  C   UNL A   1      39.418  25.664  28.692  1.00  0.00     0.010 A 
ATOM     46  C   UNL A   1      40.395  26.613  28.334  1.00  0.00    -0.014 A 
BRANCH  46  47
ATOM     47  C   UNL A   1      40.635  27.766  29.238  1.00  0.00     0.031 A 
ATOM     48  C   UNL A   1      41.822  27.708  30.156  1.00  0.00     0.074 A 
ATOM     49  C   UNL A   1      39.801  28.820  29.292  1.00  0.00     0.049 A 
ATOM     50  N   UNL A   1      42.149  28.505  31.137  1.00  0.00    -0.248 NA
ATOM     51  C   UNL A   1      42.761  26.596  29.933  1.00  0.00     0.031 C 
ATOM     52  C   UNL A   1      38.685  29.059  28.389  1.00  0.00     0.029 A 
ATOM     53  N   UNL A   1      39.756  29.882  30.161  1.00  0.00    -0.354 N 
ATOM     54  C   UNL A   1      43.326  27.986  31.661  1.00  0.00     0.074 A 
ATOM     55  C   UNL A   1      43.638  26.791  30.906  1.00  0.00     0.031 C 
ATOM     56  C   UNL A   1      38.030  30.167  28.771  1.00  0.00     0.029 A 
ATOM     57  C   UNL A   1      38.677  30.711  29.960  1.00  0.00     0.049 A 
ATOM     58  H   UNL A   1      40.431  30.034  30.862  1.00  0.00     0.167 HD
ATOM     59  C   UNL A   1      44.081  28.461  32.680  1.00  0.00     0.031 A 
ATOM     60  C   UNL A   1      38.251  31.781  30.661  1.00  0.00     0.031 A 
ATOM     61  C   UNL A   1      43.747  29.627  33.450  1.00  0.00     0.049 A 
ATOM     62  C   UNL A   1      39.035  32.226  31.865  1.00  0.00     0.074 A 
ATOM     63  C   UNL A   1      44.435  30.183  34.513  1.00  0.00     0.029 A 
ATOM     64  N   UNL A   1      42.621  30.412  33.245  1.00  0.00    -0.354 N 
ATOM     65  N   UNL A   1      40.143  31.722  32.355  1.00  0.00    -0.248 NA
ATOM     66  C   UNL A   1      38.520  33.386  32.605  1.00  0.00     0.031 C 
ATOM     67  C   UNL A   1      43.696  31.273  34.985  1.00  0.00     0.029 A 
ATOM     68  C   UNL A   1      42.580  31.433  34.177  1.00  0.00     0.049 A 
ATOM     69  H   UNL A   1      41.950  30.263  32.540  1.00  0.00     0.167 HD
ATOM     70  C   UNL A   1      40.481  32.531  33.435  1.00  0.00     0.074 A 
ATOM     71  C   UNL A   1      39.454  33.548  33.532  1.00  0.00     0.031 C 
ATOM     72  C   UNL A   1      41.555  32.444  34.258  1.00  0.00     0.031 A 
BRANCH  59  73
ATOM     73  C   UNL A   1      45.299  27.659  33.047  1.00  0.00    -0.014 A 
ATOM     74  C   UNL A   1      46.537  27.883  32.416  1.00  0.00     0.010 A 
ATOM     75  C   UNL A   1      45.190  26.632  34.000  1.00  0.00     0.010 A 
ATOM     76  C   UNL A   1      47.623  27.043  32.677  1.00  0.00     0.020 A 
ATOM     77  C   UNL A   1      46.282  25.809  34.286  1.00  0.00     0.020 A 
ATOM     78  C   UNL A   1      47.483  26.000  33.599  1.00  0.00     0.054 A 
BRANCH  78  79
ATOM     79  S   UNL A   1      48.887  24.890  33.881  1.00  0.00     0.124 S 
ATOM     80  O   UNL A   1      49.569  25.548  34.993  1.00  0.00    -0.237 OA
ATOM     81  O   UNL A   1      48.236  23.623  34.204  1.00  0.00    -0.237 OA
ATOM     82  O   UNL A   1      49.606  24.911  32.609  1.00  0.00    -0.744 OA
ENDBRANCH  78  79
ENDBRANCH  59  73
BRANCH  60  83
ATOM     83  C   UNL A   1      37.034  32.517  30.223  1.00  0.00    -0.014 A 
ATOM     84  C   UNL A   1      35.792  32.245  30.821  1.00  0.00     0.010 A 
ATOM     85  C   UNL A   1      37.113  33.513  29.232  1.00  0.00     0.010 A 
ATOM     86  C   UNL A   1      34.650  32.954  30.437  1.00  0.00     0.020 A 
ATOM     87  C   UNL A   1      35.977  34.239  28.861  1.00  0.00     0.020 A 
ATOM     88  C   UNL A   1      34.752  33.953  29.464  1.00  0.00     0.054 A 
BRANCH  88  89
ATOM     89  S   UNL A   1      33.270  34.911  29.041  1.00  0.00     0.124 S 
ATOM     90  O   UNL A   1      32.625  34.055  28.051  1.00  0.00    -0.237 OA
ATOM     91  O   UNL A   1      32.588  35.018  30.329  1.00  0.00    -0.237 OA
ATOM     92  O   UNL A   1      33.812  36.167  28.527  1.00  0.00    -0.744 OA
ENDBRANCH  88  89
ENDBRANCH  60  83
BRANCH  72  93
ATOM     93  C   UNL A   1      41.716  33.505  35.312  1.00  0.00    -0.014 A 
ATOM     94  C   UNL A   1      41.949  34.847  34.972  1.00  0.00     0.010 A 
ATOM     95  C   UNL A   1      41.527  33.160  36.664  1.00  0.00     0.010 A 
ATOM     96  C   UNL A   1      41.994  35.829  35.967  1.00  0.00     0.020 A 
ATOM     97  C   UNL A   1      41.547  34.141  37.658  1.00  0.00     0.020 A 
ATOM     98  C   UNL A   1      41.785  35.470  37.303  1.00  0.00     0.054 A 
BRANCH  98  99
ATOM     99  S   UNL A   1      41.757  36.773  38.564  1.00  0.00     0.124 S 
ATOM    100  O   UNL A   1      42.865  37.627  38.145  1.00  0.00    -0.237 OA
ATOM    101  O   UNL A   1      40.424  37.348  38.400  1.00  0.00    -0.237 OA
ATOM    102  O   UNL A   1      41.966  36.049  39.816  1.00  0.00    -0.744 OA
ENDBRANCH  98  99
ENDBRANCH  72  93
ENDBRANCH  46  47
ENDBRANCH  39  41
ENDBRANCH  38  39
ENDBRANCH  37  38
ENDBRANCH  36  37
ENDBRANCH  35  36
ENDBRANCH   1  35
TORSDOF 23
ENDMDL
MODEL 2
REMARK VINA RESULT:     -10.3      1.413      1.901
REMARK SMILES O=C(CCN1C(=O)S/C(=C\c2ccc(F)cc2)C1=O)Nc1ccc(O)cc1C(=O)OCCOCCOC(=O)c1ccc(-c2c3nc(c(-c4ccc(S(=O)(=O)[O-])cc4)c4ccc([nH]4)c(-c4ccc(S(=O)(=O)[O-])cc4)c4nc(c(-c5ccc(S(=O)(=O)[O-])cc5)c5ccc2[nH]5)C=C4)C=C3)cc1
REMARK SMILES IDX 32 1 31 2 30 3 28 4 29 5 27 6 21 7 22 8 23 9 26 10 24 11
REMARK SMILES IDX 20 12 1 13 2 14 3 16 4 17 5 18 6 19 18 20 7 21 8 22 9 23
REMARK SMILES IDX 19 24 10 25 11 26 12 27 17 28 13 29 16 30 14 31 15 32 25 33
REMARK SMILES IDX 33 35 34 36 35 37 36 38 37 39 38 40 39 41 40 42 98 43 41 44
REMARK SMILES IDX 97 45 42 46 43 47 44 48 91 49 45 50 96 51 90 52 92 53 46 54
REMARK SMILES IDX 95 55 89 56 88 57 47 59 77 60 58 61 76 62 59 63 62 64 75 65
REMARK SMILES IDX 93 66 60 67 61 68 74 70 94 71 63 72 48 73 49 74 57 75 50 76
REMARK SMILES IDX 56 77 51 78 52 79 53 80 54 81 55 82 78 83 79 84 87 85 80 86
REMARK SMILES IDX 86 87 81 88 82 89 83 90 84 91 85 92 64 93 65 94 73 95 66 96
REMARK SMILES IDX 72 97 67 98 68 99 69 100 70 101 71 102
REMARK H PARENT 20 15 25 34 92 58 62 69
REMARK Flexibility Score: inf
ROOT
ATOM      1  C   UNL A   1      34.480  24.199  25.722  1.00  0.00     0.202 C 
ENDROOT
BRANCH   1   2
ATOM      2  C   UNL A   1      34.419  25.455  24.845  1.00  0.00     0.261 C 
BRANCH   2   3
ATOM      3  O   UNL A   1      33.586  26.541  25.263  1.00  0.00    -0.460 OA
BRANCH   3   4
ATOM      4  C   UNL A   1      33.819  27.748  24.684  1.00  0.00     0.340 C 
ATOM      5  O   UNL A   1      34.267  27.920  23.564  1.00  0.00    -0.246 OA
BRANCH   4   6
ATOM      6  C   UNL A   1      33.383  28.857  25.582  1.00  0.00     0.087 A 
ATOM      7  C   UNL A   1      32.037  29.259  25.762  1.00  0.00     0.056 A 
ATOM      8  C   UNL A   1      31.764  30.289  26.672  1.00  0.00     0.031 A 
ATOM      9  C   UNL A   1      32.793  30.922  27.377  1.00  0.00     0.048 A 
ATOM     10  C   UNL A   1      34.410  29.497  26.296  1.00  0.00     0.064 A 
ATOM     11  C   UNL A   1      34.107  30.525  27.178  1.00  0.00     0.116 A 
BRANCH   7  12
ATOM     12  N   UNL A   1      31.003  28.564  25.094  1.00  0.00    -0.325 N 
ATOM     13  O   UNL A   1      31.238  29.189  22.884  1.00  0.00    -0.275 OA
ATOM     14  C   UNL A   1      30.577  28.689  23.793  1.00  0.00     0.226 C 
ATOM     15  H   UNL A   1      30.523  27.896  25.635  1.00  0.00     0.169 HD
BRANCH  14  16
ATOM     16  C   UNL A   1      29.150  28.215  23.512  1.00  0.00     0.122 C 
BRANCH  16  17
ATOM     17  C   UNL A   1      28.841  26.723  23.578  1.00  0.00     0.140 C 
BRANCH  17  18
ATOM     18  N   UNL A   1      29.870  25.766  24.005  1.00  0.00    -0.268 N 
ATOM     19  C   UNL A   1      29.777  25.215  25.264  1.00  0.00     0.293 C 
ATOM     20  C   UNL A   1      30.831  25.207  23.195  1.00  0.00     0.268 C 
ATOM     21  O   UNL A   1      28.896  25.403  26.084  1.00  0.00    -0.261 OA
ATOM     22  S   UNL A   1      31.007  23.992  25.508  1.00  0.00    -0.022 SA
ATOM     23  C   UNL A   1      31.371  23.977  23.837  1.00  0.00     0.083 C 
ATOM     24  O   UNL A   1      31.138  25.559  22.067  1.00  0.00    -0.268 OA
ATOM     25  C   UNL A   1      31.845  22.967  23.098  1.00  0.00     0.029 C 
BRANCH  25  26
ATOM     26  C   UNL A   1      32.161  21.612  23.566  1.00  0.00    -0.024 A 
ATOM     27  C   UNL A   1      32.382  21.342  24.925  1.00  0.00     0.011 A 
ATOM     28  C   UNL A   1      32.150  20.551  22.660  1.00  0.00     0.011 A 
ATOM     29  C   UNL A   1      32.580  20.038  25.378  1.00  0.00     0.040 A 
ATOM     30  C   UNL A   1      32.354  19.244  23.110  1.00  0.00     0.040 A 
ATOM     31  C   UNL A   1      32.562  18.999  24.463  1.00  0.00     0.123 A 
ATOM     32  F   UNL A   1      32.729  17.741  24.893  1.00  0.00    -0.207 F 
ENDBRANCH  25  26
ENDBRANCH  17  18
ENDBRANCH  16  17
ENDBRANCH  14  16
ENDBRANCH   7  12
BRANCH  11  33
ATOM     33  O   UNL A   1      35.137  31.120  27.842  1.00  0.00    -0.508 OA
ATOM     34  H   UNL A   1      34.972  31.602  28.629  1.00  0.00     0.293 HD
ENDBRANCH  11  33
ENDBRANCH   4   6
ENDBRANCH   3   4
ENDBRANCH   2   3
ENDBRANCH   1   2
BRANCH   1  35
ATOM     35  O   UNL A   1      35.363  23.142  25.404  1.00  0.00    -0.374 OA
BRANCH  35  36
ATOM     36  C   UNL A   1      36.627  23.416  24.820  1.00  0.00     0.202 C 
BRANCH  36  37
ATOM     37  C   UNL A   1      37.827  23.782  25.699  1.00  0.00     0.261 C 
BRANCH  37  38
ATOM     38  O   UNL A   1      38.616  22.667  26.149  1.00  0.00    -0.460 OA
BRANCH  38  39
ATOM     39  C   UNL A   1      39.896  22.977  26.480  1.00  0.00     0.338 C 
ATOM     40  O   UNL A   1      40.887  22.288  26.301  1.00  0.00    -0.246 OA
BRANCH  39  41
ATOM     41  C   UNL A   1      39.967  24.350  27.009  1.00  0.00     0.060 A 
ATOM     42  C   UNL A   1      40.588  25.338  26.236  1.00  0.00     0.016 A 
ATOM     43  C   UNL A   1      39.518  24.636  28.300  1.00  0.00     0.016 A 
ATOM     44  C   UNL A   1      40.788  26.617  26.764  1.00  0.00     0.010 A 
ATOM     45  C   UNL A   1      39.725  25.914  28.827  1.00  0.00     0.010 A 
ATOM     46  C   UNL A   1      40.383  26.905  28.073  1.00  0.00    -0.014 A 
BRANCH  46  47
ATOM     47  C   UNL A   1      40.810  28.155  28.753  1.00  0.00     0.031 A 
ATOM     48  C   UNL A   1      42.193  28.203  29.337  1.00  0.00     0.074 A 
ATOM     49  C   UNL A   1      39.985  29.206  28.905  1.00  0.00     0.049 A 
ATOM     50  N   UNL A   1      42.734  29.107  30.109  1.00  0.00    -0.248 NA
ATOM     51  C   UNL A   1      43.078  27.075  29.003  1.00  0.00     0.031 C 
ATOM     52  C   UNL A   1      38.668  29.339  28.298  1.00  0.00     0.029 A 
ATOM     53  N   UNL A   1      40.129  30.359  29.635  1.00  0.00    -0.354 N 
ATOM     54  C   UNL A   1      44.021  28.652  30.366  1.00  0.00     0.074 A 
ATOM     55  C   UNL A   1      44.167  27.380  29.691  1.00  0.00     0.031 C 
ATOM     56  C   UNL A   1      38.098  30.482  28.712  1.00  0.00     0.029 A 
ATOM     57  C   UNL A   1      39.010  31.159  29.629  1.00  0.00     0.049 A 
ATOM     58  H   UNL A   1      40.956  30.591  30.118  1.00  0.00     0.167 HD
ATOM     59  C   UNL A   1      44.995  29.241  31.100  1.00  0.00     0.031 A 
ATOM     60  C   UNL A   1      38.744  32.300  30.295  1.00  0.00     0.031 A 
ATOM     61  C   UNL A   1      44.833  30.487  31.797  1.00  0.00     0.049 A 
ATOM     62  C   UNL A   1      39.794  32.880  31.202  1.00  0.00     0.074 A 
ATOM     63  C   UNL A   1      45.751  31.161  32.582  1.00  0.00     0.029 A 
ATOM     64  N   UNL A   1      43.668  31.241  31.804  1.00  0.00    -0.354 N 
ATOM     65  N   UNL A   1      41.006  32.436  31.443  1.00  0.00    -0.248 NA
ATOM     66  C   UNL A   1      39.448  34.115  31.918  1.00  0.00     0.031 C 
ATOM     67  C   UNL A   1      45.123  32.296  33.106  1.00  0.00     0.029 A 
ATOM     68  C   UNL A   1      43.834  32.361  32.599  1.00  0.00     0.049 A 
ATOM     69  H   UNL A   1      42.844  31.012  31.315  1.00  0.00     0.167 HD
ATOM     70  C   UNL A   1      41.582  33.363  32.305  1.00  0.00     0.074 A 
ATOM     71  C   UNL A   1      40.583  34.383  32.551  1.00  0.00     0.031 C 
ATOM     72  C   UNL A   1      42.833  33.372  32.829  1.00  0.00     0.031 A 
BRANCH  59  73
ATOM     73  C   UNL A   1      46.291  28.488  31.227  1.00  0.00    -0.014 A 
ATOM     74  C   UNL A   1      47.278  28.559  30.225  1.00  0.00     0.010 A 
ATOM     75  C   UNL A   1      46.502  27.659  32.341  1.00  0.00     0.010 A 
ATOM     76  C   UNL A   1      48.416  27.753  30.299  1.00  0.00     0.020 A 
ATOM     77  C   UNL A   1      47.654  26.874  32.434  1.00  0.00     0.020 A 
ATOM     78  C   UNL A   1      48.589  26.903  31.396  1.00  0.00     0.054 A 
BRANCH  78  79
ATOM     79  S   UNL A   1      50.046  25.826  31.445  1.00  0.00     0.124 S 
ATOM     80  O   UNL A   1      50.293  25.592  30.025  1.00  0.00    -0.237 OA
ATOM     81  O   UNL A   1      51.037  26.654  32.128  1.00  0.00    -0.237 OA
ATOM     82  O   UNL A   1      49.589  24.659  32.198  1.00  0.00    -0.744 OA
ENDBRANCH  78  79
ENDBRANCH  59  73
BRANCH  60  83
ATOM     83  C   UNL A   1      37.433  32.979  30.106  1.00  0.00    -0.014 A 
ATOM     84  C   UNL A   1      37.231  33.829  29.007  1.00  0.00     0.010 A 
ATOM     85  C   UNL A   1      36.372  32.755  31.003  1.00  0.00     0.010 A 
ATOM     86  C   UNL A   1      35.992  34.446  28.805  1.00  0.00     0.020 A 
ATOM     87  C   UNL A   1      35.125  33.353  30.793  1.00  0.00     0.020 A 
ATOM     88  C   UNL A   1      34.944  34.197  29.696  1.00  0.00     0.054 A 
BRANCH  88  89
ATOM     89  S   UNL A   1      33.325  34.948  29.368  1.00  0.00     0.124 S 
ATOM     90  O   UNL A   1      32.768  34.046  28.366  1.00  0.00    -0.237 OA
ATOM     91  O   UNL A   1      32.689  34.907  30.683  1.00  0.00    -0.237 OA
ATOM     92  O   UNL A   1      33.661  36.288  28.890  1.00  0.00    -0.744 OA
ENDBRANCH  88  89
ENDBRANCH  60  83
BRANCH  72  93
ATOM     93  C   UNL A   1      43.224  34.546  33.685  1.00  0.00    -0.014 A 
ATOM     94  C   UNL A   1      43.122  34.500  35.085  1.00  0.00     0.010 A 
ATOM     95  C   UNL A   1      43.800  35.676  33.073  1.00  0.00     0.010 A 
ATOM     96  C   UNL A   1      43.587  35.566  35.860  1.00  0.00     0.020 A 
ATOM     97  C   UNL A   1      44.287  36.732  33.846  1.00  0.00     0.020 A 
ATOM     98  C   UNL A   1      44.174  36.672  35.236  1.00  0.00     0.054 A 
BRANCH  98  99
ATOM     99  S   UNL A   1      44.852  38.001  36.268  1.00  0.00     0.124 S 
ATOM    100  O   UNL A   1      44.608  37.495  37.616  1.00  0.00    -0.237 OA
ATOM    101  O   UNL A   1      46.253  38.042  35.856  1.00  0.00    -0.237 OA
ATOM    102  O   UNL A   1      44.064  39.171  35.889  1.00  0.00    -0.744 OA
ENDBRANCH  98  99
ENDBRANCH  72  93
ENDBRANCH  46  47
ENDBRANCH  39  41
ENDBRANCH  38  39
ENDBRANCH  37  38
ENDBRANCH  36  37
ENDBRANCH  35  36
ENDBRANCH   1  35
TORSDOF 23
ENDMDL
MODEL 3
REMARK VINA RESULT:     -10.0     10.560     17.827
REMARK SMILES O=C(CCN1C(=O)S/C(=C\c2ccc(F)cc2)C1=O)Nc1ccc(O)cc1C(=O)OCCOCCOC(=O)c1ccc(-c2c3nc(c(-c4ccc(S(=O)(=O)[O-])cc4)c4ccc([nH]4)c(-c4ccc(S(=O)(=O)[O-])cc4)c4nc(c(-c5ccc(S(=O)(=O)[O-])cc5)c5ccc2[nH]5)C=C4)C=C3)cc1
REMARK SMILES IDX 32 1 31 2 30 3 28 4 29 5 27 6 21 7 22 8 23 9 26 10 24 11
REMARK SMILES IDX 20 12 1 13 2 14 3 16 4 17 5 18 6 19 18 20 7 21 8 22 9 23
REMARK SMILES IDX 19 24 10 25 11 26 12 27 17 28 13 29 16 30 14 31 15 32 25 33
REMARK SMILES IDX 33 35 34 36 35 37 36 38 37 39 38 40 39 41 40 42 98 43 41 44
REMARK SMILES IDX 97 45 42 46 43 47 44 48 91 49 45 50 96 51 90 52 92 53 46 54
REMARK SMILES IDX 95 55 89 56 88 57 47 59 77 60 58 61 76 62 59 63 62 64 75 65
REMARK SMILES IDX 93 66 60 67 61 68 74 70 94 71 63 72 48 73 49 74 57 75 50 76
REMARK SMILES IDX 56 77 51 78 52 79 53 80 54 81 55 82 78 83 79 84 87 85 80 86
REMARK SMILES IDX 86 87 81 88 82 89 83 90 84 91 85 92 64 93 65 94 73 95 66 96
REMARK SMILES IDX 72 97 67 98 68 99 69 100 70 101 71 102
REMARK H PARENT 20 15 25 34 92 58 62 69
REMARK Flexibility Score: inf
ROOT
ATOM      1  C   UNL A   1      47.665  39.625  26.862  1.00  0.00     0.202 C 
ENDROOT
BRANCH   1   2
ATOM      2  C   UNL A   1      47.168  40.397  25.635  1.00  0.00     0.261 C 
BRANCH   2   3
ATOM      3  O   UNL A   1      45.769  40.379  25.336  1.00  0.00    -0.460 OA
BRANCH   3   4
ATOM      4  C   UNL A   1      45.081  41.528  25.564  1.00  0.00     0.340 C 
ATOM      5  O   UNL A   1      45.540  42.654  25.489  1.00  0.00    -0.246 OA
BRANCH   4   6
ATOM      6  C   UNL A   1      43.646  41.236  25.853  1.00  0.00     0.087 A 
ATOM      7  C   UNL A   1      42.570  41.588  25.002  1.00  0.00     0.056 A 
ATOM      8  C   UNL A   1      41.273  41.211  25.376  1.00  0.00     0.031 A 
ATOM      9  C   UNL A   1      41.037  40.520  26.569  1.00  0.00     0.048 A 
ATOM     10  C   UNL A   1      43.400  40.540  27.049  1.00  0.00     0.064 A 
ATOM     11  C   UNL A   1      42.101  40.196  27.397  1.00  0.00     0.116 A 
BRANCH   7  12
ATOM     12  N   UNL A   1      42.833  42.225  23.768  1.00  0.00    -0.325 N 
ATOM     13  O   UNL A   1      40.739  42.635  22.887  1.00  0.00    -0.275 OA
ATOM     14  C   UNL A   1      41.959  42.544  22.756  1.00  0.00     0.226 C 
ATOM     15  H   UNL A   1      43.772  42.475  23.611  1.00  0.00     0.169 HD
BRANCH  14  16
ATOM     16  C   UNL A   1      42.583  42.734  21.373  1.00  0.00     0.122 C 
BRANCH  16  17
ATOM     17  C   UNL A   1      41.694  43.173  20.214  1.00  0.00     0.140 C 
BRANCH  17  18
ATOM     18  N   UNL A   1      42.179  44.152  19.233  1.00  0.00    -0.268 N 
ATOM     19  C   UNL A   1      41.259  44.945  18.581  1.00  0.00     0.293 C 
ATOM     20  C   UNL A   1      43.494  44.500  19.029  1.00  0.00     0.268 C 
ATOM     21  O   UNL A   1      40.052  44.959  18.749  1.00  0.00    -0.261 OA
ATOM     22  S   UNL A   1      42.056  46.139  17.578  1.00  0.00    -0.022 SA
ATOM     23  C   UNL A   1      43.559  45.809  18.322  1.00  0.00     0.083 C 
ATOM     24  O   UNL A   1      44.482  43.921  19.449  1.00  0.00    -0.268 OA
ATOM     25  C   UNL A   1      44.600  46.633  18.497  1.00  0.00     0.029 C 
BRANCH  25  26
ATOM     26  C   UNL A   1      44.682  48.039  18.085  1.00  0.00    -0.024 A 
ATOM     27  C   UNL A   1      44.124  49.063  18.865  1.00  0.00     0.011 A 
ATOM     28  C   UNL A   1      45.409  48.380  16.943  1.00  0.00     0.011 A 
ATOM     29  C   UNL A   1      44.293  50.405  18.523  1.00  0.00     0.040 A 
ATOM     30  C   UNL A   1      45.575  49.723  16.594  1.00  0.00     0.040 A 
ATOM     31  C   UNL A   1      45.021  50.721  17.388  1.00  0.00     0.123 A 
ATOM     32  F   UNL A   1      45.206  52.008  17.064  1.00  0.00    -0.207 F 
ENDBRANCH  25  26
ENDBRANCH  17  18
ENDBRANCH  16  17
ENDBRANCH  14  16
ENDBRANCH   7  12
BRANCH  11  33
ATOM     33  O   UNL A   1      41.911  39.529  28.570  1.00  0.00    -0.508 OA
ATOM     34  H   UNL A   1      42.193  38.639  28.654  1.00  0.00     0.293 HD
ENDBRANCH  11  33
ENDBRANCH   4   6
ENDBRANCH   3   4
ENDBRANCH   2   3
ENDBRANCH   1   2
BRANCH   1  35
ATOM     35  O   UNL A   1      47.168  39.927  28.151  1.00  0.00    -0.374 OA
BRANCH  35  36
ATOM     36  C   UNL A   1      47.624  39.201  29.282  1.00  0.00     0.202 C 
BRANCH  36  37
ATOM     37  C   UNL A   1      46.895  37.934  29.740  1.00  0.00     0.261 C 
BRANCH  37  38
ATOM     38  O   UNL A   1      47.720  36.963  30.407  1.00  0.00    -0.460 OA
BRANCH  38  39
ATOM     39  C   UNL A   1      48.414  36.143  29.577  1.00  0.00     0.338 C 
ATOM     40  O   UNL A   1      49.552  36.303  29.169  1.00  0.00    -0.246 OA
BRANCH  39  41
ATOM     41  C   UNL A   1      47.632  34.927  29.294  1.00  0.00     0.060 A 
ATOM     42  C   UNL A   1      47.678  33.869  30.209  1.00  0.00     0.016 A 
ATOM     43  C   UNL A   1      46.942  34.791  28.088  1.00  0.00     0.016 A 
ATOM     44  C   UNL A   1      47.055  32.654  29.908  1.00  0.00     0.010 A 
ATOM     45  C   UNL A   1      46.325  33.573  27.787  1.00  0.00     0.010 A 
ATOM     46  C   UNL A   1      46.399  32.489  28.683  1.00  0.00    -0.014 A 
BRANCH  46  47
ATOM     47  C   UNL A   1      45.958  31.148  28.220  1.00  0.00     0.031 A 
ATOM     48  C   UNL A   1      44.539  30.740  28.491  1.00  0.00     0.074 A 
ATOM     49  C   UNL A   1      46.798  30.285  27.621  1.00  0.00     0.049 A 
ATOM     50  N   UNL A   1      43.967  29.576  28.332  1.00  0.00    -0.248 NA
ATOM     51  C   UNL A   1      43.650  31.790  29.016  1.00  0.00     0.031 C 
ATOM     52  C   UNL A   1      48.158  30.587  27.198  1.00  0.00     0.029 A 
ATOM     53  N   UNL A   1      46.632  28.965  27.281  1.00  0.00    -0.354 N 
ATOM     54  C   UNL A   1      42.654  29.748  28.749  1.00  0.00     0.074 A 
ATOM     55  C   UNL A   1      42.523  31.118  29.193  1.00  0.00     0.031 C 
ATOM     56  C   UNL A   1      48.727  29.479  26.697  1.00  0.00     0.029 A 
ATOM     57  C   UNL A   1      47.770  28.380  26.776  1.00  0.00     0.049 A 
ATOM     58  H   UNL A   1      45.780  28.484  27.389  1.00  0.00     0.167 HD
ATOM     59  C   UNL A   1      41.645  28.844  28.761  1.00  0.00     0.031 A 
ATOM     60  C   UNL A   1      48.018  27.102  26.428  1.00  0.00     0.031 A 
ATOM     61  C   UNL A   1      41.790  27.474  28.352  1.00  0.00     0.049 A 
ATOM     62  C   UNL A   1      46.921  26.082  26.561  1.00  0.00     0.074 A 
ATOM     63  C   UNL A   1      40.837  26.472  28.342  1.00  0.00     0.029 A 
ATOM     64  N   UNL A   1      42.972  26.908  27.892  1.00  0.00    -0.354 N 
ATOM     65  N   UNL A   1      45.684  26.254  26.964  1.00  0.00    -0.248 NA
ATOM     66  C   UNL A   1      47.247  24.699  26.186  1.00  0.00     0.031 C 
ATOM     67  C   UNL A   1      41.456  25.289  27.926  1.00  0.00     0.029 A 
ATOM     68  C   UNL A   1      42.779  25.566  27.619  1.00  0.00     0.049 A 
ATOM     69  H   UNL A   1      43.822  27.392  27.778  1.00  0.00     0.167 HD
ATOM     70  C   UNL A   1      45.073  25.011  26.848  1.00  0.00     0.074 A 
ATOM     71  C   UNL A   1      46.078  24.094  26.349  1.00  0.00     0.031 C 
ATOM     72  C   UNL A   1      43.788  24.668  27.116  1.00  0.00     0.031 A 
BRANCH  59  73
ATOM     73  C   UNL A   1      40.324  29.315  29.303  1.00  0.00    -0.014 A 
ATOM     74  C   UNL A   1      39.316  29.799  28.448  1.00  0.00     0.010 A 
ATOM     75  C   UNL A   1      40.109  29.321  30.692  1.00  0.00     0.010 A 
ATOM     76  C   UNL A   1      38.148  30.353  28.979  1.00  0.00     0.020 A 
ATOM     77  C   UNL A   1      38.929  29.846  31.225  1.00  0.00     0.020 A 
ATOM     78  C   UNL A   1      37.970  30.388  30.366  1.00  0.00     0.054 A 
BRANCH  78  79
ATOM     79  S   UNL A   1      36.472  31.159  31.035  1.00  0.00     0.124 S 
ATOM     80  O   UNL A   1      36.051  30.178  32.031  1.00  0.00    -0.237 OA
ATOM     81  O   UNL A   1      36.972  32.423  31.570  1.00  0.00    -0.237 OA
ATOM     82  O   UNL A   1      35.597  31.281  29.871  1.00  0.00    -0.744 OA
ENDBRANCH  78  79
ENDBRANCH  59  73
BRANCH  60  83
ATOM     83  C   UNL A   1      49.357  26.725  25.899  1.00  0.00    -0.014 A 
ATOM     84  C   UNL A   1      49.803  27.247  24.673  1.00  0.00     0.010 A 
ATOM     85  C   UNL A   1      50.204  25.870  26.627  1.00  0.00     0.010 A 
ATOM     86  C   UNL A   1      51.072  26.923  24.184  1.00  0.00     0.020 A 
ATOM     87  C   UNL A   1      51.482  25.560  26.152  1.00  0.00     0.020 A 
ATOM     88  C   UNL A   1      51.907  26.087  24.931  1.00  0.00     0.054 A 
BRANCH  88  89
ATOM     89  S   UNL A   1      53.578  25.745  24.311  1.00  0.00     0.124 S 
ATOM     90  O   UNL A   1      53.857  24.436  24.892  1.00  0.00    -0.237 OA
ATOM     91  O   UNL A   1      53.386  25.769  22.863  1.00  0.00    -0.237 OA
ATOM     92  O   UNL A   1      54.372  26.851  24.844  1.00  0.00    -0.744 OA
ENDBRANCH  88  89
ENDBRANCH  60  83
BRANCH  72  93
ATOM     93  C   UNL A   1      43.368  23.252  26.829  1.00  0.00    -0.014 A 
ATOM     94  C   UNL A   1      43.577  22.665  25.571  1.00  0.00     0.010 A 
ATOM     95  C   UNL A   1      42.848  22.468  27.877  1.00  0.00     0.010 A 
ATOM     96  C   UNL A   1      43.269  21.317  25.362  1.00  0.00     0.020 A 
ATOM     97  C   UNL A   1      42.562  21.115  27.679  1.00  0.00     0.020 A 
ATOM     98  C   UNL A   1      42.771  20.549  26.420  1.00  0.00     0.054 A 
BRANCH  98  99
ATOM     99  S   UNL A   1      42.467  18.782  26.149  1.00  0.00     0.124 S 
ATOM    100  O   UNL A   1      42.791  18.213  27.455  1.00  0.00    -0.237 OA
ATOM    101  O   UNL A   1      41.052  18.753  25.785  1.00  0.00    -0.237 OA
ATOM    102  O   UNL A   1      43.388  18.432  25.071  1.00  0.00    -0.744 OA
ENDBRANCH  98  99
ENDBRANCH  72  93
ENDBRANCH  46  47
ENDBRANCH  39  41
ENDBRANCH  38  39
ENDBRANCH  37  38
ENDBRANCH  36  37
ENDBRANCH  35  36
ENDBRANCH   1  35
TORSDOF 23
ENDMDL
