MODEL 1
REMARK VINA RESULT:      -8.6      0.000      0.000
REMARK SMILES CCS(=O)(=O)N[C@H]1C=C[C@@H](C(=O)OCCOCCOC(=O)c2ccc(-c3c4nc(c(-c5ccc(S(=O)(=O)[O-])cc5)c5ccc([nH]5)c(-c5ccc(S(=O)(=O)[O-])cc5)c5nc(c(-c6ccc(S(=O)(=O)[O-])cc6)c6ccc3[nH]6)C=C5)C=C4)cc2)C1
REMARK SMILES IDX 16 1 15 2 14 3 13 4 11 5 12 6 10 7 7 8 8 9 82 10 9 11 6 12
REMARK SMILES IDX 3 14 4 15 5 16 2 17 1 18 17 19 18 20 19 21 20 22 21 23 22 24
REMARK SMILES IDX 23 25 81 26 24 27 80 28 25 29 26 30 27 31 74 32 28 33 79 34
REMARK SMILES IDX 73 35 75 36 29 37 78 38 72 39 71 40 30 42 60 43 41 44 59 45
REMARK SMILES IDX 42 46 45 47 58 48 76 49 43 50 44 51 57 53 77 54 46 55 31 56
REMARK SMILES IDX 32 57 40 58 33 59 39 60 34 61 35 62 36 63 37 64 38 65 61 66
REMARK SMILES IDX 62 67 70 68 63 69 69 70 64 71 65 72 66 73 67 74 68 75 47 76
REMARK SMILES IDX 48 77 56 78 49 79 55 80 50 81 51 82 52 83 53 84 54 85
REMARK H PARENT 6 13 75 41 45 52
REMARK Flexibility Score: inf
ROOT
ATOM      1  O   UNL A   1      33.728  35.805  28.817  1.00  0.00    -0.374 OA
ENDROOT
BRANCH   1   2
ATOM      2  C   UNL A   1      32.885  35.344  29.874  1.00  0.00     0.202 C 
BRANCH   2   3
ATOM      3  C   UNL A   1      33.271  35.773  31.291  1.00  0.00     0.261 C 
BRANCH   3   4
ATOM      4  O   UNL A   1      33.356  34.626  32.150  1.00  0.00    -0.463 OA
BRANCH   4   5
ATOM      5  C   UNL A   1      34.348  33.738  31.894  1.00  0.00     0.312 C 
ATOM      6  O   UNL A   1      34.195  32.525  31.797  1.00  0.00    -0.252 OA
BRANCH   5   7
ATOM      7  C   UNL A   1      35.706  34.410  31.699  1.00  0.00     0.123 C 
ATOM      8  C   UNL A   1      37.995  34.426  32.574  1.00  0.00     0.093 C 
ATOM      9  C   UNL A   1      37.859  33.538  31.380  1.00  0.00    -0.011 C 
ATOM     10  C   UNL A   1      36.546  34.724  32.953  1.00  0.00     0.043 C 
ATOM     11  C   UNL A   1      36.612  33.528  30.899  1.00  0.00    -0.015 C 
BRANCH   8  12
ATOM     12  N   UNL A   1      38.870  33.752  33.514  1.00  0.00    -0.208 NA
ATOM     13  H   UNL A   1      38.442  32.834  33.641  1.00  0.00     0.141 HD
BRANCH  12  14
ATOM     14  S   UNL A   1      39.323  34.208  35.041  1.00  0.00     0.211 S 
ATOM     15  O   UNL A   1      39.112  35.622  35.214  1.00  0.00    -0.212 OA
ATOM     16  O   UNL A   1      40.656  33.649  35.175  1.00  0.00    -0.212 OA
BRANCH  14  17
ATOM     17  C   UNL A   1      38.255  33.249  36.116  1.00  0.00     0.150 C 
ATOM     18  C   UNL A   1      38.144  31.786  35.762  1.00  0.00     0.022 C 
ENDBRANCH  14  17
ENDBRANCH  12  14
ENDBRANCH   8  12
ENDBRANCH   5   7
ENDBRANCH   4   5
ENDBRANCH   3   4
ENDBRANCH   2   3
ENDBRANCH   1   2
BRANCH   1  19
ATOM     19  C   UNL A   1      34.453  34.830  28.068  1.00  0.00     0.202 C 
BRANCH  19  20
ATOM     20  C   UNL A   1      34.062  33.356  28.240  1.00  0.00     0.261 C 
BRANCH  20  21
ATOM     21  O   UNL A   1      35.072  32.443  27.787  1.00  0.00    -0.460 OA
BRANCH  21  22
ATOM     22  C   UNL A   1      34.814  31.141  28.060  1.00  0.00     0.338 C 
ATOM     23  O   UNL A   1      33.733  30.579  28.005  1.00  0.00    -0.246 OA
BRANCH  22  24
ATOM     24  C   UNL A   1      36.074  30.405  28.270  1.00  0.00     0.060 A 
ATOM     25  C   UNL A   1      36.381  30.008  29.578  1.00  0.00     0.016 A 
ATOM     26  C   UNL A   1      36.982  30.195  27.231  1.00  0.00     0.016 A 
ATOM     27  C   UNL A   1      37.627  29.457  29.866  1.00  0.00     0.010 A 
ATOM     28  C   UNL A   1      38.236  29.648  27.525  1.00  0.00     0.010 A 
ATOM     29  C   UNL A   1      38.578  29.314  28.848  1.00  0.00    -0.014 A 
BRANCH  29  30
ATOM     30  C   UNL A   1      39.973  28.945  29.190  1.00  0.00     0.031 A 
ATOM     31  C   UNL A   1      40.860  29.965  29.853  1.00  0.00     0.074 A 
ATOM     32  C   UNL A   1      40.444  27.713  28.926  1.00  0.00     0.049 A 
ATOM     33  N   UNL A   1      42.121  29.874  30.187  1.00  0.00    -0.248 NA
ATOM     34  C   UNL A   1      40.241  31.260  30.179  1.00  0.00     0.031 C 
ATOM     35  C   UNL A   1      39.670  26.624  28.333  1.00  0.00     0.029 A 
ATOM     36  N   UNL A   1      41.693  27.179  29.115  1.00  0.00    -0.354 N 
ATOM     37  C   UNL A   1      42.455  31.106  30.742  1.00  0.00     0.074 A 
ATOM     38  C   UNL A   1      41.269  31.932  30.677  1.00  0.00     0.031 C 
ATOM     39  C   UNL A   1      40.468  25.551  28.194  1.00  0.00     0.029 A 
ATOM     40  C   UNL A   1      41.815  25.891  28.648  1.00  0.00     0.049 A 
ATOM     41  H   UNL A   1      42.431  27.668  29.544  1.00  0.00     0.167 HD
ATOM     42  C   UNL A   1      43.641  31.510  31.259  1.00  0.00     0.031 A 
ATOM     43  C   UNL A   1      42.895  25.089  28.568  1.00  0.00     0.031 A 
ATOM     44  C   UNL A   1      44.822  30.687  31.304  1.00  0.00     0.049 A 
ATOM     45  C   UNL A   1      44.222  25.580  29.081  1.00  0.00     0.074 A 
ATOM     46  C   UNL A   1      46.065  30.995  31.827  1.00  0.00     0.029 A 
ATOM     47  N   UNL A   1      44.912  29.400  30.791  1.00  0.00    -0.354 N 
ATOM     48  N   UNL A   1      44.517  26.737  29.627  1.00  0.00    -0.248 NA
ATOM     49  C   UNL A   1      45.360  24.657  28.974  1.00  0.00     0.031 C 
ATOM     50  C   UNL A   1      46.925  29.923  31.568  1.00  0.00     0.029 A 
ATOM     51  C   UNL A   1      46.199  28.914  30.956  1.00  0.00     0.049 A 
ATOM     52  H   UNL A   1      44.171  28.906  30.374  1.00  0.00     0.167 HD
ATOM     53  C   UNL A   1      45.867  26.668  29.957  1.00  0.00     0.074 A 
ATOM     54  C   UNL A   1      46.328  25.354  29.555  1.00  0.00     0.031 C 
ATOM     55  C   UNL A   1      46.649  27.605  30.548  1.00  0.00     0.031 A 
BRANCH  42  56
ATOM     56  C   UNL A   1      43.730  32.927  31.767  1.00  0.00    -0.014 A 
ATOM     57  C   UNL A   1      43.535  33.238  33.126  1.00  0.00     0.010 A 
ATOM     58  C   UNL A   1      44.030  33.967  30.867  1.00  0.00     0.010 A 
ATOM     59  C   UNL A   1      43.583  34.564  33.563  1.00  0.00     0.020 A 
ATOM     60  C   UNL A   1      44.111  35.292  31.306  1.00  0.00     0.020 A 
ATOM     61  C   UNL A   1      43.864  35.584  32.648  1.00  0.00     0.054 A 
BRANCH  61  62
ATOM     62  S   UNL A   1      43.915  37.297  33.242  1.00  0.00     0.124 S 
ATOM     63  O   UNL A   1      45.186  37.329  33.961  1.00  0.00    -0.237 OA
ATOM     64  O   UNL A   1      43.876  38.068  32.002  1.00  0.00    -0.237 OA
ATOM     65  O   UNL A   1      42.724  37.411  34.081  1.00  0.00    -0.744 OA
ENDBRANCH  61  62
ENDBRANCH  42  56
BRANCH  43  66
ATOM     66  C   UNL A   1      42.756  23.738  27.959  1.00  0.00    -0.014 A 
ATOM     67  C   UNL A   1      42.514  22.608  28.759  1.00  0.00     0.010 A 
ATOM     68  C   UNL A   1      42.824  23.584  26.561  1.00  0.00     0.010 A 
ATOM     69  C   UNL A   1      42.337  21.351  28.173  1.00  0.00     0.020 A 
ATOM     70  C   UNL A   1      42.619  22.334  25.971  1.00  0.00     0.020 A 
ATOM     71  C   UNL A   1      42.380  21.225  26.781  1.00  0.00     0.054 A 
BRANCH  71  72
ATOM     72  S   UNL A   1      42.055  19.601  26.040  1.00  0.00     0.124 S 
ATOM     73  O   UNL A   1      40.619  19.663  25.787  1.00  0.00    -0.237 OA
ATOM     74  O   UNL A   1      42.910  19.622  24.856  1.00  0.00    -0.237 OA
ATOM     75  O   UNL A   1      42.468  18.662  27.081  1.00  0.00    -0.744 OA
ENDBRANCH  71  72
ENDBRANCH  43  66
BRANCH  55  76
ATOM     76  C   UNL A   1      48.083  27.240  30.841  1.00  0.00    -0.014 A 
ATOM     77  C   UNL A   1      48.440  26.532  32.002  1.00  0.00     0.010 A 
ATOM     78  C   UNL A   1      49.080  27.547  29.894  1.00  0.00     0.010 A 
ATOM     79  C   UNL A   1      49.771  26.161  32.222  1.00  0.00     0.020 A 
ATOM     80  C   UNL A   1      50.405  27.151  30.096  1.00  0.00     0.020 A 
ATOM     81  C   UNL A   1      50.744  26.469  31.266  1.00  0.00     0.054 A 
BRANCH  81  82
ATOM     82  S   UNL A   1      52.451  25.926  31.549  1.00  0.00     0.124 S 
ATOM     83  O   UNL A   1      53.031  26.035  30.214  1.00  0.00    -0.237 OA
ATOM     84  O   UNL A   1      52.937  26.895  32.528  1.00  0.00    -0.237 OA
ATOM     85  O   UNL A   1      52.303  24.561  32.053  1.00  0.00    -0.744 OA
ENDBRANCH  81  82
ENDBRANCH  55  76
ENDBRANCH  29  30
ENDBRANCH  22  24
ENDBRANCH  21  22
ENDBRANCH  20  21
ENDBRANCH  19  20
ENDBRANCH   1  19
TORSDOF 20
ENDMDL
MODEL 2
REMARK VINA RESULT:      -8.2      4.464     12.017
REMARK SMILES CCS(=O)(=O)N[C@H]1C=C[C@@H](C(=O)OCCOCCOC(=O)c2ccc(-c3c4nc(c(-c5ccc(S(=O)(=O)[O-])cc5)c5ccc([nH]5)c(-c5ccc(S(=O)(=O)[O-])cc5)c5nc(c(-c6ccc(S(=O)(=O)[O-])cc6)c6ccc3[nH]6)C=C5)C=C4)cc2)C1
REMARK SMILES IDX 16 1 15 2 14 3 13 4 11 5 12 6 10 7 7 8 8 9 82 10 9 11 6 12
REMARK SMILES IDX 3 14 4 15 5 16 2 17 1 18 17 19 18 20 19 21 20 22 21 23 22 24
REMARK SMILES IDX 23 25 81 26 24 27 80 28 25 29 26 30 27 31 74 32 28 33 79 34
REMARK SMILES IDX 73 35 75 36 29 37 78 38 72 39 71 40 30 42 60 43 41 44 59 45
REMARK SMILES IDX 42 46 45 47 58 48 76 49 43 50 44 51 57 53 77 54 46 55 31 56
REMARK SMILES IDX 32 57 40 58 33 59 39 60 34 61 35 62 36 63 37 64 38 65 61 66
REMARK SMILES IDX 62 67 70 68 63 69 69 70 64 71 65 72 66 73 67 74 68 75 47 76
REMARK SMILES IDX 48 77 56 78 49 79 55 80 50 81 51 82 52 83 53 84 54 85
REMARK H PARENT 6 13 75 41 45 52
REMARK Flexibility Score: inf
ROOT
ATOM      1  O   UNL A   1      38.939  22.450  26.255  1.00  0.00    -0.374 OA
ENDROOT
BRANCH   1   2
ATOM      2  C   UNL A   1      38.430  21.312  25.558  1.00  0.00     0.202 C 
BRANCH   2   3
ATOM      3  C   UNL A   1      37.032  21.453  24.951  1.00  0.00     0.261 C 
BRANCH   3   4
ATOM      4  O   UNL A   1      37.044  22.439  23.907  1.00  0.00    -0.463 OA
BRANCH   4   5
ATOM      5  C   UNL A   1      35.930  23.196  23.763  1.00  0.00     0.312 C 
ATOM      6  O   UNL A   1      35.484  23.591  22.691  1.00  0.00    -0.252 OA
BRANCH   5   7
ATOM      7  C   UNL A   1      35.241  23.493  25.095  1.00  0.00     0.123 C 
ATOM      8  C   UNL A   1      33.448  24.839  26.083  1.00  0.00     0.093 C 
ATOM      9  C   UNL A   1      32.987  23.460  25.739  1.00  0.00    -0.011 C 
ATOM     10  C   UNL A   1      34.797  24.942  25.375  1.00  0.00     0.043 C 
ATOM     11  C   UNL A   1      33.962  22.722  25.201  1.00  0.00    -0.015 C 
BRANCH   8  12
ATOM     12  N   UNL A   1      32.373  25.751  25.739  1.00  0.00    -0.208 NA
ATOM     13  H   UNL A   1      32.426  25.829  24.722  1.00  0.00     0.141 HD
BRANCH  12  14
ATOM     14  S   UNL A   1      32.104  27.301  26.255  1.00  0.00     0.211 S 
ATOM     15  O   UNL A   1      31.485  27.285  27.556  1.00  0.00    -0.212 OA
ATOM     16  O   UNL A   1      31.420  27.914  25.132  1.00  0.00    -0.212 OA
BRANCH  14  17
ATOM     17  C   UNL A   1      33.742  28.030  26.317  1.00  0.00     0.150 C 
ATOM     18  C   UNL A   1      33.842  29.300  27.125  1.00  0.00     0.022 C 
ENDBRANCH  14  17
ENDBRANCH  12  14
ENDBRANCH   8  12
ENDBRANCH   5   7
ENDBRANCH   4   5
ENDBRANCH   3   4
ENDBRANCH   2   3
ENDBRANCH   1   2
BRANCH   1  19
ATOM     19  C   UNL A   1      40.154  22.295  26.987  1.00  0.00     0.202 C 
BRANCH  19  20
ATOM     20  C   UNL A   1      41.450  22.809  26.347  1.00  0.00     0.261 C 
BRANCH  20  21
ATOM     21  O   UNL A   1      42.012  23.940  27.029  1.00  0.00    -0.460 OA
BRANCH  21  22
ATOM     22  C   UNL A   1      41.869  25.118  26.374  1.00  0.00     0.338 C 
ATOM     23  O   UNL A   1      41.966  25.306  25.172  1.00  0.00    -0.246 OA
BRANCH  22  24
ATOM     24  C   UNL A   1      41.387  26.160  27.297  1.00  0.00     0.060 A 
ATOM     25  C   UNL A   1      42.002  27.418  27.230  1.00  0.00     0.016 A 
ATOM     26  C   UNL A   1      40.429  25.889  28.275  1.00  0.00     0.016 A 
ATOM     27  C   UNL A   1      41.707  28.391  28.182  1.00  0.00     0.010 A 
ATOM     28  C   UNL A   1      40.140  26.865  29.234  1.00  0.00     0.010 A 
ATOM     29  C   UNL A   1      40.806  28.104  29.215  1.00  0.00    -0.014 A 
BRANCH  29  30
ATOM     30  C   UNL A   1      40.665  29.048  30.352  1.00  0.00     0.031 A 
ATOM     31  C   UNL A   1      41.573  28.902  31.544  1.00  0.00     0.074 A 
ATOM     32  C   UNL A   1      39.748  30.031  30.319  1.00  0.00     0.049 A 
ATOM     33  N   UNL A   1      41.586  29.578  32.663  1.00  0.00    -0.248 NA
ATOM     34  C   UNL A   1      42.600  27.851  31.461  1.00  0.00     0.031 C 
ATOM     35  C   UNL A   1      38.845  30.306  29.204  1.00  0.00     0.029 A 
ATOM     36  N   UNL A   1      39.421  30.973  31.262  1.00  0.00    -0.354 N 
ATOM     37  C   UNL A   1      42.606  29.021  33.429  1.00  0.00     0.074 A 
ATOM     38  C   UNL A   1      43.171  27.937  32.654  1.00  0.00     0.031 C 
ATOM     39  C   UNL A   1      38.055  31.343  29.531  1.00  0.00     0.029 A 
ATOM     40  C   UNL A   1      38.367  31.775  30.892  1.00  0.00     0.049 A 
ATOM     41  H   UNL A   1      39.895  31.068  32.119  1.00  0.00     0.167 HD
ATOM     42  C   UNL A   1      43.032  29.381  34.664  1.00  0.00     0.031 A 
ATOM     43  C   UNL A   1      37.709  32.727  31.582  1.00  0.00     0.031 A 
ATOM     44  C   UNL A   1      42.452  30.450  35.436  1.00  0.00     0.049 A 
ATOM     45  C   UNL A   1      38.150  33.066  32.981  1.00  0.00     0.074 A 
ATOM     46  C   UNL A   1      42.826  30.908  36.687  1.00  0.00     0.029 A 
ATOM     47  N   UNL A   1      41.366  31.216  35.038  1.00  0.00    -0.354 N 
ATOM     48  N   UNL A   1      39.132  32.550  33.682  1.00  0.00    -0.248 NA
ATOM     49  C   UNL A   1      37.399  34.118  33.679  1.00  0.00     0.031 C 
ATOM     50  C   UNL A   1      41.923  31.902  37.075  1.00  0.00     0.029 A 
ATOM     51  C   UNL A   1      41.035  32.120  36.034  1.00  0.00     0.049 A 
ATOM     52  H   UNL A   1      40.900  31.130  34.176  1.00  0.00     0.167 HD
ATOM     53  C   UNL A   1      39.137  33.237  34.893  1.00  0.00     0.074 A 
ATOM     54  C   UNL A   1      38.064  34.209  34.824  1.00  0.00     0.031 C 
ATOM     55  C   UNL A   1      39.962  33.082  35.958  1.00  0.00     0.031 A 
BRANCH  42  56
ATOM     56  C   UNL A   1      44.148  28.572  35.276  1.00  0.00    -0.014 A 
ATOM     57  C   UNL A   1      45.499  28.925  35.101  1.00  0.00     0.010 A 
ATOM     58  C   UNL A   1      43.835  27.444  36.058  1.00  0.00     0.010 A 
ATOM     59  C   UNL A   1      46.514  28.133  35.645  1.00  0.00     0.020 A 
ATOM     60  C   UNL A   1      44.847  26.668  36.632  1.00  0.00     0.020 A 
ATOM     61  C   UNL A   1      46.181  27.006  36.403  1.00  0.00     0.054 A 
BRANCH  61  62
ATOM     62  S   UNL A   1      47.519  25.995  37.094  1.00  0.00     0.124 S 
ATOM     63  O   UNL A   1      46.780  25.044  37.922  1.00  0.00    -0.237 OA
ATOM     64  O   UNL A   1      48.146  25.432  35.900  1.00  0.00    -0.237 OA
ATOM     65  O   UNL A   1      48.337  26.955  37.830  1.00  0.00    -0.744 OA
ENDBRANCH  61  62
ENDBRANCH  42  56
BRANCH  43  66
ATOM     66  C   UNL A   1      36.550  33.416  30.951  1.00  0.00    -0.014 A 
ATOM     67  C   UNL A   1      35.308  33.481  31.605  1.00  0.00     0.010 A 
ATOM     68  C   UNL A   1      36.701  34.050  29.704  1.00  0.00     0.010 A 
ATOM     69  C   UNL A   1      34.239  34.172  31.025  1.00  0.00     0.020 A 
ATOM     70  C   UNL A   1      35.644  34.765  29.135  1.00  0.00     0.020 A 
ATOM     71  C   UNL A   1      34.418  34.819  29.799  1.00  0.00     0.054 A 
BRANCH  71  72
ATOM     72  S   UNL A   1      33.045  35.786  29.113  1.00  0.00     0.124 S 
ATOM     73  O   UNL A   1      33.746  36.855  28.409  1.00  0.00    -0.237 OA
ATOM     74  O   UNL A   1      32.366  34.808  28.266  1.00  0.00    -0.237 OA
ATOM     75  O   UNL A   1      32.294  36.201  30.296  1.00  0.00    -0.744 OA
ENDBRANCH  71  72
ENDBRANCH  43  66
BRANCH  55  76
ATOM     76  C   UNL A   1      39.773  34.010  37.133  1.00  0.00    -0.014 A 
ATOM     77  C   UNL A   1      40.453  35.238  37.217  1.00  0.00     0.010 A 
ATOM     78  C   UNL A   1      38.839  33.675  38.132  1.00  0.00     0.010 A 
ATOM     79  C   UNL A   1      40.219  36.102  38.292  1.00  0.00     0.020 A 
ATOM     80  C   UNL A   1      38.581  34.550  39.191  1.00  0.00     0.020 A 
ATOM     81  C   UNL A   1      39.281  35.754  39.270  1.00  0.00     0.054 A 
BRANCH  81  82
ATOM     82  S   UNL A   1      38.955  36.919  40.622  1.00  0.00     0.124 S 
ATOM     83  O   UNL A   1      38.120  36.123  41.515  1.00  0.00    -0.237 OA
ATOM     84  O   UNL A   1      40.297  37.219  41.116  1.00  0.00    -0.237 OA
ATOM     85  O   UNL A   1      38.276  38.035  39.964  1.00  0.00    -0.744 OA
ENDBRANCH  81  82
ENDBRANCH  55  76
ENDBRANCH  29  30
ENDBRANCH  22  24
ENDBRANCH  21  22
ENDBRANCH  20  21
ENDBRANCH  19  20
ENDBRANCH   1  19
TORSDOF 20
ENDMDL
MODEL 3
REMARK VINA RESULT:      -8.2      1.255      8.499
REMARK SMILES CCS(=O)(=O)N[C@H]1C=C[C@@H](C(=O)OCCOCCOC(=O)c2ccc(-c3c4nc(c(-c5ccc(S(=O)(=O)[O-])cc5)c5ccc([nH]5)c(-c5ccc(S(=O)(=O)[O-])cc5)c5nc(c(-c6ccc(S(=O)(=O)[O-])cc6)c6ccc3[nH]6)C=C5)C=C4)cc2)C1
REMARK SMILES IDX 16 1 15 2 14 3 13 4 11 5 12 6 10 7 7 8 8 9 82 10 9 11 6 12
REMARK SMILES IDX 3 14 4 15 5 16 2 17 1 18 17 19 18 20 19 21 20 22 21 23 22 24
REMARK SMILES IDX 23 25 81 26 24 27 80 28 25 29 26 30 27 31 74 32 28 33 79 34
REMARK SMILES IDX 73 35 75 36 29 37 78 38 72 39 71 40 30 42 60 43 41 44 59 45
REMARK SMILES IDX 42 46 45 47 58 48 76 49 43 50 44 51 57 53 77 54 46 55 31 56
REMARK SMILES IDX 32 57 40 58 33 59 39 60 34 61 35 62 36 63 37 64 38 65 61 66
REMARK SMILES IDX 62 67 70 68 63 69 69 70 64 71 65 72 66 73 67 74 68 75 47 76
REMARK SMILES IDX 48 77 56 78 49 79 55 80 50 81 51 82 52 83 53 84 54 85
REMARK H PARENT 6 13 75 41 45 52
REMARK Flexibility Score: inf
ROOT
ATOM      1  O   UNL A   1      33.750  35.652  28.977  1.00  0.00    -0.374 OA
ENDROOT
BRANCH   1   2
ATOM      2  C   UNL A   1      33.025  35.183  30.116  1.00  0.00     0.202 C 
BRANCH   2   3
ATOM      3  C   UNL A   1      33.626  35.506  31.486  1.00  0.00     0.261 C 
BRANCH   3   4
ATOM      4  O   UNL A   1      33.521  34.366  32.353  1.00  0.00    -0.463 OA
BRANCH   4   5
ATOM      5  C   UNL A   1      34.498  33.432  32.263  1.00  0.00     0.312 C 
ATOM      6  O   UNL A   1      34.424  32.401  31.603  1.00  0.00    -0.252 OA
BRANCH   5   7
ATOM      7  C   UNL A   1      35.750  33.809  33.054  1.00  0.00     0.123 C 
ATOM      8  C   UNL A   1      37.949  32.950  33.714  1.00  0.00     0.093 C 
ATOM      9  C   UNL A   1      38.026  33.805  32.490  1.00  0.00    -0.011 C 
ATOM     10  C   UNL A   1      36.450  32.707  33.873  1.00  0.00     0.043 C 
ATOM     11  C   UNL A   1      36.829  34.276  32.128  1.00  0.00    -0.015 C 
BRANCH   8  12
ATOM     12  N   UNL A   1      38.851  31.832  33.516  1.00  0.00    -0.208 NA
ATOM     13  H   UNL A   1      38.679  31.538  32.554  1.00  0.00     0.141 HD
BRANCH  12  14
ATOM     14  S   UNL A   1      38.968  30.414  34.364  1.00  0.00     0.211 S 
ATOM     15  O   UNL A   1      38.046  29.445  33.830  1.00  0.00    -0.212 OA
ATOM     16  O   UNL A   1      38.856  30.841  35.747  1.00  0.00    -0.212 OA
BRANCH  14  17
ATOM     17  C   UNL A   1      40.670  29.902  34.123  1.00  0.00     0.150 C 
ATOM     18  C   UNL A   1      40.851  28.692  33.240  1.00  0.00     0.022 C 
ENDBRANCH  14  17
ENDBRANCH  12  14
ENDBRANCH   8  12
ENDBRANCH   5   7
ENDBRANCH   4   5
ENDBRANCH   3   4
ENDBRANCH   2   3
ENDBRANCH   1   2
BRANCH   1  19
ATOM     19  C   UNL A   1      34.265  34.679  28.068  1.00  0.00     0.202 C 
BRANCH  19  20
ATOM     20  C   UNL A   1      34.027  33.198  28.390  1.00  0.00     0.261 C 
BRANCH  20  21
ATOM     21  O   UNL A   1      34.790  32.306  27.564  1.00  0.00    -0.460 OA
BRANCH  21  22
ATOM     22  C   UNL A   1      34.642  30.994  27.868  1.00  0.00     0.338 C 
ATOM     23  O   UNL A   1      33.620  30.332  27.786  1.00  0.00    -0.246 OA
BRANCH  22  24
ATOM     24  C   UNL A   1      35.953  30.385  28.153  1.00  0.00     0.060 A 
ATOM     25  C   UNL A   1      36.271  30.132  29.494  1.00  0.00     0.016 A 
ATOM     26  C   UNL A   1      36.893  30.160  27.146  1.00  0.00     0.016 A 
ATOM     27  C   UNL A   1      37.552  29.713  29.842  1.00  0.00     0.010 A 
ATOM     28  C   UNL A   1      38.181  29.746  27.498  1.00  0.00     0.010 A 
ATOM     29  C   UNL A   1      38.528  29.559  28.849  1.00  0.00    -0.014 A 
BRANCH  29  30
ATOM     30  C   UNL A   1      39.943  29.338  29.235  1.00  0.00     0.031 A 
ATOM     31  C   UNL A   1      40.594  28.019  28.914  1.00  0.00     0.074 A 
ATOM     32  C   UNL A   1      40.646  30.304  29.853  1.00  0.00     0.049 A 
ATOM     33  N   UNL A   1      41.796  27.595  29.207  1.00  0.00    -0.248 NA
ATOM     34  C   UNL A   1      39.778  27.050  28.165  1.00  0.00     0.031 C 
ATOM     35  C   UNL A   1      40.145  31.638  30.175  1.00  0.00     0.029 A 
ATOM     36  N   UNL A   1      41.933  30.300  30.331  1.00  0.00    -0.354 N 
ATOM     37  C   UNL A   1      41.875  26.302  28.699  1.00  0.00     0.074 A 
ATOM     38  C   UNL A   1      40.591  26.005  28.102  1.00  0.00     0.031 C 
ATOM     39  C   UNL A   1      41.111  32.324  30.809  1.00  0.00     0.029 A 
ATOM     40  C   UNL A   1      42.281  31.463  30.976  1.00  0.00     0.049 A 
ATOM     41  H   UNL A   1      42.548  29.540  30.221  1.00  0.00     0.167 HD
ATOM     42  C   UNL A   1      42.921  25.441  28.728  1.00  0.00     0.031 A 
ATOM     43  C   UNL A   1      43.402  31.787  31.650  1.00  0.00     0.031 A 
ATOM     44  C   UNL A   1      44.190  25.738  29.341  1.00  0.00     0.049 A 
ATOM     45  C   UNL A   1      44.529  30.792  31.735  1.00  0.00     0.074 A 
ATOM     46  C   UNL A   1      45.322  24.944  29.404  1.00  0.00     0.029 A 
ATOM     47  N   UNL A   1      44.491  26.915  30.012  1.00  0.00    -0.354 N 
ATOM     48  N   UNL A   1      44.600  29.583  31.227  1.00  0.00    -0.248 NA
ATOM     49  C   UNL A   1      45.728  31.205  32.475  1.00  0.00     0.031 C 
ATOM     50  C   UNL A   1      46.281  25.611  30.173  1.00  0.00     0.029 A 
ATOM     51  C   UNL A   1      45.779  26.854  30.521  1.00  0.00     0.049 A 
ATOM     52  H   UNL A   1      43.881  27.681  30.110  1.00  0.00     0.167 HD
ATOM     53  C   UNL A   1      45.863  29.105  31.562  1.00  0.00     0.074 A 
ATOM     54  C   UNL A   1      46.523  30.157  32.308  1.00  0.00     0.031 C 
ATOM     55  C   UNL A   1      46.426  27.906  31.267  1.00  0.00     0.031 A 
BRANCH  42  56
ATOM     56  C   UNL A   1      42.715  24.076  28.124  1.00  0.00    -0.014 A 
ATOM     57  C   UNL A   1      42.874  23.846  26.745  1.00  0.00     0.010 A 
ATOM     58  C   UNL A   1      42.369  22.996  28.959  1.00  0.00     0.010 A 
ATOM     59  C   UNL A   1      42.635  22.579  26.206  1.00  0.00     0.020 A 
ATOM     60  C   UNL A   1      42.161  21.719  28.428  1.00  0.00     0.020 A 
ATOM     61  C   UNL A   1      42.274  21.524  27.051  1.00  0.00     0.054 A 
BRANCH  61  62
ATOM     62  S   UNL A   1      41.966  19.892  26.323  1.00  0.00     0.124 S 
ATOM     63  O   UNL A   1      42.344  18.999  27.417  1.00  0.00    -0.237 OA
ATOM     64  O   UNL A   1      40.539  19.940  26.017  1.00  0.00    -0.237 OA
ATOM     65  O   UNL A   1      42.849  19.856  25.160  1.00  0.00    -0.744 OA
ENDBRANCH  61  62
ENDBRANCH  42  56
BRANCH  43  66
ATOM     66  C   UNL A   1      43.498  33.117  32.310  1.00  0.00    -0.014 A 
ATOM     67  C   UNL A   1      43.972  34.238  31.608  1.00  0.00     0.010 A 
ATOM     68  C   UNL A   1      43.070  33.275  33.642  1.00  0.00     0.010 A 
ATOM     69  C   UNL A   1      44.013  35.493  32.224  1.00  0.00     0.020 A 
ATOM     70  C   UNL A   1      43.082  34.533  34.250  1.00  0.00     0.020 A 
ATOM     71  C   UNL A   1      43.556  35.634  33.537  1.00  0.00     0.054 A 
BRANCH  71  72
ATOM     72  S   UNL A   1      43.532  37.289  34.281  1.00  0.00     0.124 S 
ATOM     73  O   UNL A   1      42.117  37.463  34.591  1.00  0.00    -0.237 OA
ATOM     74  O   UNL A   1      44.417  37.127  35.432  1.00  0.00    -0.237 OA
ATOM     75  O   UNL A   1      44.052  38.148  33.220  1.00  0.00    -0.744 OA
ENDBRANCH  71  72
ENDBRANCH  43  66
BRANCH  55  76
ATOM     76  C   UNL A   1      47.848  27.670  31.713  1.00  0.00    -0.014 A 
ATOM     77  C   UNL A   1      48.141  26.992  32.909  1.00  0.00     0.010 A 
ATOM     78  C   UNL A   1      48.907  28.069  30.876  1.00  0.00     0.010 A 
ATOM     79  C   UNL A   1      49.468  26.740  33.272  1.00  0.00     0.020 A 
ATOM     80  C   UNL A   1      50.234  27.792  31.220  1.00  0.00     0.020 A 
ATOM     81  C   UNL A   1      50.506  27.138  32.423  1.00  0.00     0.054 A 
BRANCH  81  82
ATOM     82  S   UNL A   1      52.215  26.749  32.889  1.00  0.00     0.124 S 
ATOM     83  O   UNL A   1      52.980  27.504  31.902  1.00  0.00    -0.237 OA
ATOM     84  O   UNL A   1      52.294  27.246  34.260  1.00  0.00    -0.237 OA
ATOM     85  O   UNL A   1      52.290  25.295  32.754  1.00  0.00    -0.744 OA
ENDBRANCH  81  82
ENDBRANCH  55  76
ENDBRANCH  29  30
ENDBRANCH  22  24
ENDBRANCH  21  22
ENDBRANCH  20  21
ENDBRANCH  19  20
ENDBRANCH   1  19
TORSDOF 20
ENDMDL
