MODEL 1
REMARK VINA RESULT:      -8.7      0.000      0.000
REMARK SMILES Cc1ccc(Cl)c(Nc2ccccc2C(=O)OCCOCCOC(=O)c2ccc(-c3c4nc(c(-c5ccc(S(=O)(=O)[O-])cc5)c5ccc([nH]5)c(-c5ccc(S(=O)(=O)[O-])cc5)c5nc(c(-c6ccc(S(=O)(=O)[O-])cc6)c6ccc3[nH]6)C=C5)C=C4)cc2)c1Cl
REMARK SMILES IDX 21 1 20 2 19 3 18 4 17 5 15 6 16 7 14 8 9 9 10 10 11 11
REMARK SMILES IDX 13 12 12 13 8 14 7 16 1 17 2 18 3 19 86 20 4 21 87 22 5 23
REMARK SMILES IDX 6 24 22 25 23 26 24 27 25 28 26 29 27 30 85 31 28 32 84 33
REMARK SMILES IDX 29 34 30 35 31 36 78 37 32 38 83 39 77 40 79 41 33 42 82 43
REMARK SMILES IDX 76 44 75 45 34 47 64 48 45 49 63 50 46 51 49 52 62 53 80 54
REMARK SMILES IDX 47 55 48 56 61 58 81 59 50 60 35 61 36 62 44 63 37 64 43 65
REMARK SMILES IDX 38 66 39 67 40 68 41 69 42 70 65 71 66 72 74 73 67 74 73 75
REMARK SMILES IDX 68 76 69 77 70 78 71 79 72 80 51 81 52 82 60 83 53 84 59 85
REMARK SMILES IDX 54 86 55 87 56 88 57 89 58 90
REMARK H PARENT 8 15 79 46 49 57
REMARK Flexibility Score: inf
ROOT
ATOM      1  C   UNL A   1      33.499  34.327  28.770  1.00  0.00     0.202 C 
ENDROOT
BRANCH   1   2
ATOM      2  O   UNL A   1      34.497  34.573  29.759  1.00  0.00    -0.374 OA
BRANCH   2   3
ATOM      3  C   UNL A   1      34.078  34.633  31.121  1.00  0.00     0.202 C 
BRANCH   3   4
ATOM      4  C   UNL A   1      34.210  33.349  31.944  1.00  0.00     0.261 C 
BRANCH   4   5
ATOM      5  O   UNL A   1      35.125  32.417  31.343  1.00  0.00    -0.460 OA
BRANCH   5   6
ATOM      6  C   UNL A   1      36.239  32.154  32.070  1.00  0.00     0.340 C 
ATOM      7  O   UNL A   1      36.394  31.209  32.833  1.00  0.00    -0.246 OA
BRANCH   6   8
ATOM      8  C   UNL A   1      37.359  33.051  31.694  1.00  0.00     0.083 A 
ATOM      9  C   UNL A   1      38.321  33.592  32.572  1.00  0.00     0.053 A 
ATOM     10  C   UNL A   1      39.290  34.455  32.015  1.00  0.00     0.027 A 
ATOM     11  C   UNL A   1      39.321  34.759  30.651  1.00  0.00     0.002 A 
ATOM     12  C   UNL A   1      37.403  33.359  30.317  1.00  0.00     0.018 A 
ATOM     13  C   UNL A   1      38.378  34.205  29.798  1.00  0.00     0.001 A 
BRANCH   9  14
ATOM     14  N   UNL A   1      38.491  33.287  33.938  1.00  0.00    -0.352 N 
ATOM     15  H   UNL A   1      37.660  33.361  34.460  1.00  0.00     0.167 HD
BRANCH  14  16
ATOM     16  C   UNL A   1      39.610  32.896  34.712  1.00  0.00     0.077 A 
ATOM     17  C   UNL A   1      41.426  29.759  35.972  1.00  0.00     0.046 C 
ATOM     18  C   UNL A   1      41.047  31.198  35.756  1.00  0.00    -0.030 A 
ATOM     19  C   UNL A   1      41.580  32.174  36.606  1.00  0.00     0.006 A 
ATOM     20  C   UNL A   1      40.121  31.581  34.764  1.00  0.00     0.069 A 
ATOM     21  C   UNL A   1      41.185  33.502  36.485  1.00  0.00     0.023 A 
ATOM     22  Cl  UNL A   1      39.712  30.427  33.521  1.00  0.00    -0.082 Cl
ATOM     23  C   UNL A   1      40.192  33.852  35.573  1.00  0.00     0.066 A 
ATOM     24  Cl  UNL A   1      39.674  35.506  35.537  1.00  0.00    -0.082 Cl
ENDBRANCH  14  16
ENDBRANCH   9  14
ENDBRANCH   6   8
ENDBRANCH   5   6
ENDBRANCH   4   5
ENDBRANCH   3   4
ENDBRANCH   2   3
ENDBRANCH   1   2
BRANCH   1  25
ATOM     25  C   UNL A   1      33.605  33.026  27.962  1.00  0.00     0.261 C 
BRANCH  25  26
ATOM     26  O   UNL A   1      34.761  32.232  28.284  1.00  0.00    -0.460 OA
BRANCH  26  27
ATOM     27  C   UNL A   1      34.637  30.915  27.993  1.00  0.00     0.338 C 
ATOM     28  O   UNL A   1      33.654  30.353  27.523  1.00  0.00    -0.246 OA
BRANCH  27  29
ATOM     29  C   UNL A   1      35.920  30.215  28.177  1.00  0.00     0.060 A 
ATOM     30  C   UNL A   1      36.181  29.647  29.430  1.00  0.00     0.016 A 
ATOM     31  C   UNL A   1      36.899  30.219  27.182  1.00  0.00     0.016 A 
ATOM     32  C   UNL A   1      37.441  29.121  29.709  1.00  0.00     0.010 A 
ATOM     33  C   UNL A   1      38.166  29.696  27.467  1.00  0.00     0.010 A 
ATOM     34  C   UNL A   1      38.454  29.177  28.742  1.00  0.00    -0.014 A 
BRANCH  34  35
ATOM     35  C   UNL A   1      39.841  28.793  29.104  1.00  0.00     0.031 A 
ATOM     36  C   UNL A   1      40.729  29.791  29.793  1.00  0.00     0.074 A 
ATOM     37  C   UNL A   1      40.305  27.561  28.830  1.00  0.00     0.049 A 
ATOM     38  N   UNL A   1      41.971  29.660  30.179  1.00  0.00    -0.248 NA
ATOM     39  C   UNL A   1      40.137  31.105  30.087  1.00  0.00     0.031 C 
ATOM     40  C   UNL A   1      39.528  26.498  28.201  1.00  0.00     0.029 A 
ATOM     41  N   UNL A   1      41.540  27.001  29.034  1.00  0.00    -0.354 N 
ATOM     42  C   UNL A   1      42.316  30.876  30.756  1.00  0.00     0.074 A 
ATOM     43  C   UNL A   1      41.159  31.739  30.645  1.00  0.00     0.031 C 
ATOM     44  C   UNL A   1      40.311  25.417  28.044  1.00  0.00     0.029 A 
ATOM     45  C   UNL A   1      41.649  25.721  28.546  1.00  0.00     0.049 A 
ATOM     46  H   UNL A   1      42.277  27.470  29.488  1.00  0.00     0.167 HD
ATOM     47  C   UNL A   1      43.488  31.239  31.331  1.00  0.00     0.031 A 
ATOM     48  C   UNL A   1      42.711  24.893  28.493  1.00  0.00     0.031 A 
ATOM     49  C   UNL A   1      44.643  30.385  31.423  1.00  0.00     0.049 A 
ATOM     50  C   UNL A   1      44.023  25.337  29.078  1.00  0.00     0.074 A 
ATOM     51  C   UNL A   1      45.864  30.651  32.015  1.00  0.00     0.029 A 
ATOM     52  N   UNL A   1      44.725  29.106  30.894  1.00  0.00    -0.354 N 
ATOM     53  N   UNL A   1      44.318  26.475  29.664  1.00  0.00    -0.248 NA
ATOM     54  C   UNL A   1      45.140  24.386  29.009  1.00  0.00     0.031 C 
ATOM     55  C   UNL A   1      46.705  29.554  31.795  1.00  0.00     0.029 A 
ATOM     56  C   UNL A   1      45.989  28.582  31.114  1.00  0.00     0.049 A 
ATOM     57  H   UNL A   1      43.994  28.638  30.428  1.00  0.00     0.167 HD
ATOM     58  C   UNL A   1      45.649  26.367  30.050  1.00  0.00     0.074 A 
ATOM     59  C   UNL A   1      46.097  25.050  29.643  1.00  0.00     0.031 C 
ATOM     60  C   UNL A   1      46.427  27.275  30.691  1.00  0.00     0.031 A 
BRANCH  47  61
ATOM     61  C   UNL A   1      43.585  32.643  31.865  1.00  0.00    -0.014 A 
ATOM     62  C   UNL A   1      43.217  32.947  33.188  1.00  0.00     0.010 A 
ATOM     63  C   UNL A   1      44.057  33.672  31.031  1.00  0.00     0.010 A 
ATOM     64  C   UNL A   1      43.270  34.265  33.650  1.00  0.00     0.020 A 
ATOM     65  C   UNL A   1      44.137  34.986  31.497  1.00  0.00     0.020 A 
ATOM     66  C   UNL A   1      43.722  35.278  32.798  1.00  0.00     0.054 A 
BRANCH  66  67
ATOM     67  S   UNL A   1      43.776  36.982  33.418  1.00  0.00     0.124 S 
ATOM     68  O   UNL A   1      43.813  37.752  32.177  1.00  0.00    -0.237 OA
ATOM     69  O   UNL A   1      42.536  37.085  34.184  1.00  0.00    -0.237 OA
ATOM     70  O   UNL A   1      45.001  37.023  34.212  1.00  0.00    -0.744 OA
ENDBRANCH  66  67
ENDBRANCH  47  61
BRANCH  48  71
ATOM     71  C   UNL A   1      42.567  23.561  27.848  1.00  0.00    -0.014 A 
ATOM     72  C   UNL A   1      43.001  23.351  26.528  1.00  0.00     0.010 A 
ATOM     73  C   UNL A   1      42.032  22.481  28.573  1.00  0.00     0.010 A 
ATOM     74  C   UNL A   1      42.906  22.084  25.946  1.00  0.00     0.020 A 
ATOM     75  C   UNL A   1      41.956  21.208  28.003  1.00  0.00     0.020 A 
ATOM     76  C   UNL A   1      42.391  21.019  26.690  1.00  0.00     0.054 A 
BRANCH  76  77
ATOM     77  S   UNL A   1      42.363  19.363  25.947  1.00  0.00     0.124 S 
ATOM     78  O   UNL A   1      43.241  19.532  24.795  1.00  0.00    -0.237 OA
ATOM     79  O   UNL A   1      42.886  18.526  27.025  1.00  0.00    -0.237 OA
ATOM     80  O   UNL A   1      40.951  19.153  25.636  1.00  0.00    -0.744 OA
ENDBRANCH  76  77
ENDBRANCH  48  71
BRANCH  60  81
ATOM     81  C   UNL A   1      47.843  26.874  31.006  1.00  0.00    -0.014 A 
ATOM     82  C   UNL A   1      48.151  26.156  32.176  1.00  0.00     0.010 A 
ATOM     83  C   UNL A   1      48.871  27.175  30.095  1.00  0.00     0.010 A 
ATOM     84  C   UNL A   1      49.469  25.768  32.438  1.00  0.00     0.020 A 
ATOM     85  C   UNL A   1      50.184  26.767  30.341  1.00  0.00     0.020 A 
ATOM     86  C   UNL A   1      50.477  26.078  31.520  1.00  0.00     0.054 A 
BRANCH  86  87
ATOM     87  S   UNL A   1      52.172  25.525  31.861  1.00  0.00     0.124 S 
ATOM     88  O   UNL A   1      52.553  26.389  32.976  1.00  0.00    -0.237 OA
ATOM     89  O   UNL A   1      51.991  24.114  32.194  1.00  0.00    -0.237 OA
ATOM     90  O   UNL A   1      52.877  25.778  30.607  1.00  0.00    -0.744 OA
ENDBRANCH  86  87
ENDBRANCH  60  81
ENDBRANCH  34  35
ENDBRANCH  27  29
ENDBRANCH  26  27
ENDBRANCH  25  26
ENDBRANCH   1  25
TORSDOF 19
ENDMDL
MODEL 2
REMARK VINA RESULT:      -8.5      5.005      7.937
REMARK SMILES Cc1ccc(Cl)c(Nc2ccccc2C(=O)OCCOCCOC(=O)c2ccc(-c3c4nc(c(-c5ccc(S(=O)(=O)[O-])cc5)c5ccc([nH]5)c(-c5ccc(S(=O)(=O)[O-])cc5)c5nc(c(-c6ccc(S(=O)(=O)[O-])cc6)c6ccc3[nH]6)C=C5)C=C4)cc2)c1Cl
REMARK SMILES IDX 21 1 20 2 19 3 18 4 17 5 15 6 16 7 14 8 9 9 10 10 11 11
REMARK SMILES IDX 13 12 12 13 8 14 7 16 1 17 2 18 3 19 86 20 4 21 87 22 5 23
REMARK SMILES IDX 6 24 22 25 23 26 24 27 25 28 26 29 27 30 85 31 28 32 84 33
REMARK SMILES IDX 29 34 30 35 31 36 78 37 32 38 83 39 77 40 79 41 33 42 82 43
REMARK SMILES IDX 76 44 75 45 34 47 64 48 45 49 63 50 46 51 49 52 62 53 80 54
REMARK SMILES IDX 47 55 48 56 61 58 81 59 50 60 35 61 36 62 44 63 37 64 43 65
REMARK SMILES IDX 38 66 39 67 40 68 41 69 42 70 65 71 66 72 74 73 67 74 73 75
REMARK SMILES IDX 68 76 69 77 70 78 71 79 72 80 51 81 52 82 60 83 53 84 59 85
REMARK SMILES IDX 54 86 55 87 56 88 57 89 58 90
REMARK H PARENT 8 15 79 46 49 57
REMARK Flexibility Score: inf
ROOT
ATOM      1  C   UNL A   1      33.745  31.453  27.640  1.00  0.00     0.202 C 
ENDROOT
BRANCH   1   2
ATOM      2  O   UNL A   1      33.673  30.454  26.624  1.00  0.00    -0.374 OA
BRANCH   2   3
ATOM      3  C   UNL A   1      32.719  29.407  26.792  1.00  0.00     0.202 C 
BRANCH   3   4
ATOM      4  C   UNL A   1      33.269  27.987  26.948  1.00  0.00     0.261 C 
BRANCH   4   5
ATOM      5  O   UNL A   1      32.708  27.085  25.980  1.00  0.00    -0.460 OA
BRANCH   5   6
ATOM      6  C   UNL A   1      31.603  26.414  26.391  1.00  0.00     0.340 C 
ATOM      7  O   UNL A   1      30.669  26.886  27.026  1.00  0.00    -0.246 OA
BRANCH   6   8
ATOM      8  C   UNL A   1      31.549  25.048  25.812  1.00  0.00     0.083 A 
ATOM      9  C   UNL A   1      31.318  24.729  24.459  1.00  0.00     0.053 A 
ATOM     10  C   UNL A   1      31.273  23.359  24.118  1.00  0.00     0.027 A 
ATOM     11  C   UNL A   1      31.465  22.349  25.065  1.00  0.00     0.002 A 
ATOM     12  C   UNL A   1      31.747  24.022  26.760  1.00  0.00     0.018 A 
ATOM     13  C   UNL A   1      31.708  22.681  26.389  1.00  0.00     0.001 A 
BRANCH   9  14
ATOM     14  N   UNL A   1      31.227  25.628  23.377  1.00  0.00    -0.352 N 
ATOM     15  H   UNL A   1      31.584  25.263  22.535  1.00  0.00     0.167 HD
BRANCH  14  16
ATOM     16  C   UNL A   1      30.731  26.949  23.252  1.00  0.00     0.077 A 
ATOM     17  C   UNL A   1      27.430  28.889  22.991  1.00  0.00     0.046 C 
ATOM     18  C   UNL A   1      28.900  28.571  23.022  1.00  0.00    -0.030 A 
ATOM     19  C   UNL A   1      29.811  29.533  22.572  1.00  0.00     0.006 A 
ATOM     20  C   UNL A   1      29.377  27.309  23.431  1.00  0.00     0.069 A 
ATOM     21  C   UNL A   1      31.169  29.240  22.512  1.00  0.00     0.023 A 
ATOM     22  Cl  UNL A   1      28.287  26.244  24.279  1.00  0.00    -0.082 Cl
ATOM     23  C   UNL A   1      31.618  27.957  22.817  1.00  0.00     0.066 A 
ATOM     24  Cl  UNL A   1      33.310  27.626  22.629  1.00  0.00    -0.082 Cl
ENDBRANCH  14  16
ENDBRANCH   9  14
ENDBRANCH   6   8
ENDBRANCH   5   6
ENDBRANCH   4   5
ENDBRANCH   3   4
ENDBRANCH   2   3
ENDBRANCH   1   2
BRANCH   1  25
ATOM     25  C   UNL A   1      34.947  31.410  28.594  1.00  0.00     0.261 C 
BRANCH  25  26
ATOM     26  O   UNL A   1      35.608  30.134  28.642  1.00  0.00    -0.460 OA
BRANCH  26  27
ATOM     27  C   UNL A   1      36.332  29.918  29.766  1.00  0.00     0.338 C 
ATOM     28  O   UNL A   1      35.899  29.690  30.890  1.00  0.00    -0.246 OA
BRANCH  27  29
ATOM     29  C   UNL A   1      37.770  29.840  29.456  1.00  0.00     0.060 A 
ATOM     30  C   UNL A   1      38.142  29.649  28.119  1.00  0.00     0.016 A 
ATOM     31  C   UNL A   1      38.732  29.831  30.468  1.00  0.00     0.016 A 
ATOM     32  C   UNL A   1      39.474  29.403  27.793  1.00  0.00     0.010 A 
ATOM     33  C   UNL A   1      40.069  29.577  30.138  1.00  0.00     0.010 A 
ATOM     34  C   UNL A   1      40.440  29.327  28.804  1.00  0.00    -0.014 A 
BRANCH  34  35
ATOM     35  C   UNL A   1      41.816  28.876  28.477  1.00  0.00     0.031 A 
ATOM     36  C   UNL A   1      42.936  29.878  28.451  1.00  0.00     0.074 A 
ATOM     37  C   UNL A   1      42.069  27.582  28.213  1.00  0.00     0.049 A 
ATOM     38  N   UNL A   1      44.201  29.693  28.176  1.00  0.00    -0.248 NA
ATOM     39  C   UNL A   1      42.584  31.267  28.783  1.00  0.00     0.031 C 
ATOM     40  C   UNL A   1      41.075  26.514  28.244  1.00  0.00     0.029 A 
ATOM     41  N   UNL A   1      43.233  26.949  27.858  1.00  0.00    -0.354 N 
ATOM     42  C   UNL A   1      44.798  30.942  28.292  1.00  0.00     0.074 A 
ATOM     43  C   UNL A   1      43.750  31.880  28.638  1.00  0.00     0.031 C 
ATOM     44  C   UNL A   1      41.662  25.358  27.895  1.00  0.00     0.029 A 
ATOM     45  C   UNL A   1      43.071  25.610  27.599  1.00  0.00     0.049 A 
ATOM     46  H   UNL A   1      44.100  27.410  27.795  1.00  0.00     0.167 HD
ATOM     47  C   UNL A   1      46.101  31.277  28.131  1.00  0.00     0.031 A 
ATOM     48  C   UNL A   1      43.953  24.692  27.156  1.00  0.00     0.031 A 
ATOM     49  C   UNL A   1      47.137  30.346  27.769  1.00  0.00     0.049 A 
ATOM     50  C   UNL A   1      45.382  25.096  26.920  1.00  0.00     0.074 A 
ATOM     51  C   UNL A   1      48.491  30.582  27.614  1.00  0.00     0.029 A 
ATOM     52  N   UNL A   1      46.931  29.003  27.489  1.00  0.00    -0.354 N 
ATOM     53  N   UNL A   1      45.940  26.273  27.082  1.00  0.00    -0.248 NA
ATOM     54  C   UNL A   1      46.302  24.050  26.455  1.00  0.00     0.031 C 
ATOM     55  C   UNL A   1      49.096  29.396  27.185  1.00  0.00     0.029 A 
ATOM     56  C   UNL A   1      48.127  28.406  27.127  1.00  0.00     0.049 A 
ATOM     57  H   UNL A   1      46.062  28.542  27.538  1.00  0.00     0.167 HD
ATOM     58  C   UNL A   1      47.281  26.103  26.758  1.00  0.00     0.074 A 
ATOM     59  C   UNL A   1      47.452  24.708  26.403  1.00  0.00     0.031 C 
ATOM     60  C   UNL A   1      48.282  27.019  26.761  1.00  0.00     0.031 A 
BRANCH  47  61
ATOM     61  C   UNL A   1      46.463  32.727  28.305  1.00  0.00    -0.014 A 
ATOM     62  C   UNL A   1      46.552  33.595  27.202  1.00  0.00     0.010 A 
ATOM     63  C   UNL A   1      46.713  33.230  29.595  1.00  0.00     0.010 A 
ATOM     64  C   UNL A   1      46.936  34.927  27.380  1.00  0.00     0.020 A 
ATOM     65  C   UNL A   1      47.071  34.568  29.780  1.00  0.00     0.020 A 
ATOM     66  C   UNL A   1      47.201  35.402  28.669  1.00  0.00     0.054 A 
BRANCH  66  67
ATOM     67  S   UNL A   1      47.704  37.134  28.874  1.00  0.00     0.124 S 
ATOM     68  O   UNL A   1      47.205  37.434  30.214  1.00  0.00    -0.237 OA
ATOM     69  O   UNL A   1      49.157  37.064  28.746  1.00  0.00    -0.237 OA
ATOM     70  O   UNL A   1      47.018  37.824  27.785  1.00  0.00    -0.744 OA
ENDBRANCH  66  67
ENDBRANCH  47  61
BRANCH  48  71
ATOM     71  C   UNL A   1      43.493  23.301  26.899  1.00  0.00    -0.014 A 
ATOM     72  C   UNL A   1      43.545  22.754  25.606  1.00  0.00     0.010 A 
ATOM     73  C   UNL A   1      43.040  22.501  27.964  1.00  0.00     0.010 A 
ATOM     74  C   UNL A   1      43.156  21.431  25.382  1.00  0.00     0.020 A 
ATOM     75  C   UNL A   1      42.671  21.171  27.748  1.00  0.00     0.020 A 
ATOM     76  C   UNL A   1      42.729  20.645  26.457  1.00  0.00     0.054 A 
BRANCH  76  77
ATOM     77  S   UNL A   1      42.317  18.903  26.159  1.00  0.00     0.124 S 
ATOM     78  O   UNL A   1      42.565  18.303  27.465  1.00  0.00    -0.237 OA
ATOM     79  O   UNL A   1      40.915  18.977  25.752  1.00  0.00    -0.237 OA
ATOM     80  O   UNL A   1      43.243  18.510  25.100  1.00  0.00    -0.744 OA
ENDBRANCH  76  77
ENDBRANCH  48  71
BRANCH  60  81
ATOM     81  C   UNL A   1      49.658  26.543  26.383  1.00  0.00    -0.014 A 
ATOM     82  C   UNL A   1      50.420  25.752  27.261  1.00  0.00     0.010 A 
ATOM     83  C   UNL A   1      50.175  26.848  25.111  1.00  0.00     0.010 A 
ATOM     84  C   UNL A   1      51.686  25.295  26.881  1.00  0.00     0.020 A 
ATOM     85  C   UNL A   1      51.429  26.372  24.718  1.00  0.00     0.020 A 
ATOM     86  C   UNL A   1      52.183  25.610  25.613  1.00  0.00     0.054 A 
BRANCH  86  87
ATOM     87  S   UNL A   1      53.810  24.970  25.126  1.00  0.00     0.124 S 
ATOM     88  O   UNL A   1      53.976  25.546  23.794  1.00  0.00    -0.237 OA
ATOM     89  O   UNL A   1      54.691  25.508  26.159  1.00  0.00    -0.237 OA
ATOM     90  O   UNL A   1      53.634  23.520  25.159  1.00  0.00    -0.744 OA
ENDBRANCH  86  87
ENDBRANCH  60  81
ENDBRANCH  34  35
ENDBRANCH  27  29
ENDBRANCH  26  27
ENDBRANCH  25  26
ENDBRANCH   1  25
TORSDOF 19
ENDMDL
MODEL 3
REMARK VINA RESULT:      -8.4      4.709      7.575
REMARK SMILES Cc1ccc(Cl)c(Nc2ccccc2C(=O)OCCOCCOC(=O)c2ccc(-c3c4nc(c(-c5ccc(S(=O)(=O)[O-])cc5)c5ccc([nH]5)c(-c5ccc(S(=O)(=O)[O-])cc5)c5nc(c(-c6ccc(S(=O)(=O)[O-])cc6)c6ccc3[nH]6)C=C5)C=C4)cc2)c1Cl
REMARK SMILES IDX 21 1 20 2 19 3 18 4 17 5 15 6 16 7 14 8 9 9 10 10 11 11
REMARK SMILES IDX 13 12 12 13 8 14 7 16 1 17 2 18 3 19 86 20 4 21 87 22 5 23
REMARK SMILES IDX 6 24 22 25 23 26 24 27 25 28 26 29 27 30 85 31 28 32 84 33
REMARK SMILES IDX 29 34 30 35 31 36 78 37 32 38 83 39 77 40 79 41 33 42 82 43
REMARK SMILES IDX 76 44 75 45 34 47 64 48 45 49 63 50 46 51 49 52 62 53 80 54
REMARK SMILES IDX 47 55 48 56 61 58 81 59 50 60 35 61 36 62 44 63 37 64 43 65
REMARK SMILES IDX 38 66 39 67 40 68 41 69 42 70 65 71 66 72 74 73 67 74 73 75
REMARK SMILES IDX 68 76 69 77 70 78 71 79 72 80 51 81 52 82 60 83 53 84 59 85
REMARK SMILES IDX 54 86 55 87 56 88 57 89 58 90
REMARK H PARENT 8 15 79 46 49 57
REMARK Flexibility Score: inf
ROOT
ATOM      1  C   UNL A   1      34.419  30.748  27.555  1.00  0.00     0.202 C 
ENDROOT
BRANCH   1   2
ATOM      2  O   UNL A   1      34.562  29.336  27.694  1.00  0.00    -0.374 OA
BRANCH   2   3
ATOM      3  C   UNL A   1      33.741  28.504  26.877  1.00  0.00     0.202 C 
BRANCH   3   4
ATOM      4  C   UNL A   1      32.289  28.310  27.322  1.00  0.00     0.261 C 
BRANCH   4   5
ATOM      5  O   UNL A   1      31.489  27.706  26.294  1.00  0.00    -0.460 OA
BRANCH   5   6
ATOM      6  C   UNL A   1      31.765  26.402  26.041  1.00  0.00     0.340 C 
ATOM      7  O   UNL A   1      31.519  25.457  26.779  1.00  0.00    -0.246 OA
BRANCH   6   8
ATOM      8  C   UNL A   1      32.243  26.207  24.649  1.00  0.00     0.083 A 
ATOM      9  C   UNL A   1      33.277  25.340  24.240  1.00  0.00     0.053 A 
ATOM     10  C   UNL A   1      33.603  25.327  22.866  1.00  0.00     0.027 A 
ATOM     11  C   UNL A   1      32.928  26.120  21.934  1.00  0.00     0.002 A 
ATOM     12  C   UNL A   1      31.565  26.999  23.699  1.00  0.00     0.018 A 
ATOM     13  C   UNL A   1      31.902  26.954  22.350  1.00  0.00     0.001 A 
BRANCH   9  14
ATOM     14  N   UNL A   1      33.961  24.399  25.037  1.00  0.00    -0.352 N 
ATOM     15  H   UNL A   1      34.268  24.766  25.898  1.00  0.00     0.167 HD
BRANCH  14  16
ATOM     16  C   UNL A   1      34.299  23.036  24.855  1.00  0.00     0.077 A 
ATOM     17  C   UNL A   1      32.692  19.555  24.685  1.00  0.00     0.046 C 
ATOM     18  C   UNL A   1      33.721  20.652  24.716  1.00  0.00    -0.030 A 
ATOM     19  C   UNL A   1      35.065  20.316  24.920  1.00  0.00     0.006 A 
ATOM     20  C   UNL A   1      33.360  22.011  24.608  1.00  0.00     0.069 A 
ATOM     21  C   UNL A   1      36.028  21.313  25.035  1.00  0.00     0.023 A 
ATOM     22  Cl  UNL A   1      31.757  22.401  24.042  1.00  0.00    -0.082 Cl
ATOM     23  C   UNL A   1      35.646  22.653  25.034  1.00  0.00     0.066 A 
ATOM     24  Cl  UNL A   1      36.880  23.845  25.279  1.00  0.00    -0.082 Cl
ENDBRANCH  14  16
ENDBRANCH   9  14
ENDBRANCH   6   8
ENDBRANCH   5   6
ENDBRANCH   4   5
ENDBRANCH   3   4
ENDBRANCH   2   3
ENDBRANCH   1   2
BRANCH   1  25
ATOM     25  C   UNL A   1      34.850  31.626  28.738  1.00  0.00     0.261 C 
BRANCH  25  26
ATOM     26  O   UNL A   1      36.271  31.648  28.960  1.00  0.00    -0.460 OA
BRANCH  26  27
ATOM     27  C   UNL A   1      36.695  30.854  29.972  1.00  0.00     0.338 C 
ATOM     28  O   UNL A   1      36.126  30.651  31.038  1.00  0.00    -0.246 OA
BRANCH  27  29
ATOM     29  C   UNL A   1      37.904  30.108  29.581  1.00  0.00     0.060 A 
ATOM     30  C   UNL A   1      38.787  29.718  30.596  1.00  0.00     0.016 A 
ATOM     31  C   UNL A   1      38.229  29.901  28.240  1.00  0.00     0.016 A 
ATOM     32  C   UNL A   1      40.022  29.159  30.271  1.00  0.00     0.010 A 
ATOM     33  C   UNL A   1      39.473  29.347  27.915  1.00  0.00     0.010 A 
ATOM     34  C   UNL A   1      40.389  29.005  28.927  1.00  0.00    -0.014 A 
BRANCH  34  35
ATOM     35  C   UNL A   1      41.772  28.592  28.583  1.00  0.00     0.031 A 
ATOM     36  C   UNL A   1      42.870  29.618  28.574  1.00  0.00     0.074 A 
ATOM     37  C   UNL A   1      42.051  27.309  28.290  1.00  0.00     0.049 A 
ATOM     38  N   UNL A   1      44.137  29.466  28.288  1.00  0.00    -0.248 NA
ATOM     39  C   UNL A   1      42.491  30.991  28.937  1.00  0.00     0.031 C 
ATOM     40  C   UNL A   1      41.080  26.220  28.303  1.00  0.00     0.029 A 
ATOM     41  N   UNL A   1      43.226  26.709  27.915  1.00  0.00    -0.354 N 
ATOM     42  C   UNL A   1      44.708  30.725  28.429  1.00  0.00     0.074 A 
ATOM     43  C   UNL A   1      43.643  31.632  28.800  1.00  0.00     0.031 C 
ATOM     44  C   UNL A   1      41.690  25.085  27.926  1.00  0.00     0.029 A 
ATOM     45  C   UNL A   1      43.092  25.373  27.628  1.00  0.00     0.049 A 
ATOM     46  H   UNL A   1      44.083  27.190  27.859  1.00  0.00     0.167 HD
ATOM     47  C   UNL A   1      46.003  31.091  28.268  1.00  0.00     0.031 A 
ATOM     48  C   UNL A   1      43.990  24.484  27.161  1.00  0.00     0.031 A 
ATOM     49  C   UNL A   1      47.056  30.190  27.881  1.00  0.00     0.049 A 
ATOM     50  C   UNL A   1      45.409  24.923  26.927  1.00  0.00     0.074 A 
ATOM     51  C   UNL A   1      48.404  30.459  27.724  1.00  0.00     0.029 A 
ATOM     52  N   UNL A   1      46.878  28.850  27.572  1.00  0.00    -0.354 N 
ATOM     53  N   UNL A   1      45.943  26.108  27.111  1.00  0.00    -0.248 NA
ATOM     54  C   UNL A   1      46.349  23.908  26.435  1.00  0.00     0.031 C 
ATOM     55  C   UNL A   1      49.032  29.295  27.266  1.00  0.00     0.029 A 
ATOM     56  C   UNL A   1      48.085  28.286  27.192  1.00  0.00     0.049 A 
ATOM     57  H   UNL A   1      46.019  28.369  27.616  1.00  0.00     0.167 HD
ATOM     58  C   UNL A   1      47.286  25.974  26.778  1.00  0.00     0.074 A 
ATOM     59  C   UNL A   1      47.484  24.591  26.391  1.00  0.00     0.031 C 
ATOM     60  C   UNL A   1      48.266  26.911  26.796  1.00  0.00     0.031 A 
BRANCH  47  61
ATOM     61  C   UNL A   1      46.335  32.544  28.472  1.00  0.00    -0.014 A 
ATOM     62  C   UNL A   1      46.112  33.493  27.458  1.00  0.00     0.010 A 
ATOM     63  C   UNL A   1      46.874  32.967  29.700  1.00  0.00     0.010 A 
ATOM     64  C   UNL A   1      46.471  34.830  27.651  1.00  0.00     0.020 A 
ATOM     65  C   UNL A   1      47.209  34.308  29.906  1.00  0.00     0.020 A 
ATOM     66  C   UNL A   1      47.026  35.227  28.872  1.00  0.00     0.054 A 
BRANCH  66  67
ATOM     67  S   UNL A   1      47.490  36.967  29.095  1.00  0.00     0.124 S 
ATOM     68  O   UNL A   1      46.185  37.610  29.232  1.00  0.00    -0.237 OA
ATOM     69  O   UNL A   1      48.302  36.930  30.308  1.00  0.00    -0.237 OA
ATOM     70  O   UNL A   1      48.217  37.291  27.871  1.00  0.00    -0.744 OA
ENDBRANCH  66  67
ENDBRANCH  47  61
BRANCH  48  71
ATOM     71  C   UNL A   1      43.559  23.090  26.876  1.00  0.00    -0.014 A 
ATOM     72  C   UNL A   1      43.880  22.473  25.656  1.00  0.00     0.010 A 
ATOM     73  C   UNL A   1      42.858  22.356  27.852  1.00  0.00     0.010 A 
ATOM     74  C   UNL A   1      43.512  21.146  25.416  1.00  0.00     0.020 A 
ATOM     75  C   UNL A   1      42.508  21.023  27.624  1.00  0.00     0.020 A 
ATOM     76  C   UNL A   1      42.835  20.427  26.405  1.00  0.00     0.054 A 
BRANCH  76  77
ATOM     77  S   UNL A   1      42.449  18.679  26.108  1.00  0.00     0.124 S 
ATOM     78  O   UNL A   1      41.031  18.732  25.774  1.00  0.00    -0.237 OA
ATOM     79  O   UNL A   1      43.348  18.342  25.005  1.00  0.00    -0.237 OA
ATOM     80  O   UNL A   1      42.773  18.037  27.381  1.00  0.00    -0.744 OA
ENDBRANCH  76  77
ENDBRANCH  48  71
BRANCH  60  81
ATOM     81  C   UNL A   1      49.651  26.473  26.400  1.00  0.00    -0.014 A 
ATOM     82  C   UNL A   1      50.117  26.636  25.083  1.00  0.00     0.010 A 
ATOM     83  C   UNL A   1      50.516  25.939  27.373  1.00  0.00     0.010 A 
ATOM     84  C   UNL A   1      51.416  26.248  24.741  1.00  0.00     0.020 A 
ATOM     85  C   UNL A   1      51.823  25.574  27.040  1.00  0.00     0.020 A 
ATOM     86  C   UNL A   1      52.260  25.718  25.722  1.00  0.00     0.054 A 
BRANCH  86  87
ATOM     87  S   UNL A   1      53.956  25.263  25.264  1.00  0.00     0.124 S 
ATOM     88  O   UNL A   1      53.925  23.808  25.391  1.00  0.00    -0.237 OA
ATOM     89  O   UNL A   1      54.070  25.773  23.900  1.00  0.00    -0.237 OA
ATOM     90  O   UNL A   1      54.779  25.957  26.252  1.00  0.00    -0.744 OA
ENDBRANCH  86  87
ENDBRANCH  60  81
ENDBRANCH  34  35
ENDBRANCH  27  29
ENDBRANCH  26  27
ENDBRANCH  25  26
ENDBRANCH   1  25
TORSDOF 19
ENDMDL
