MODEL 1
REMARK VINA RESULT:     -10.3      0.000      0.000
REMARK SMILES CCCCc1nc(C[N@H+]2CC[NH2+][C@H](C(=O)OCCOCCOC(=O)c3ccc(-c4c5nc(c(-c6ccc(S(=O)(=O)[O-])cc6)c6ccc([nH]6)c(-c6ccc(S(=O)(=O)[O-])cc6)c6nc(c(-c7ccc(S(=O)(=O)[O-])cc7)c7ccc4[nH]7)C=C6)C=C5)cc3)C2)c(Cl)[nH]1
REMARK SMILES IDX 18 1 17 2 16 3 14 4 15 5 13 6 9 7 10 8 85 9 11 11 12 12 8 15
REMARK SMILES IDX 7 16 5 17 6 18 88 19 86 20 87 22 4 23 3 24 2 25 1 26 19 27
REMARK SMILES IDX 20 28 21 29 22 30 23 31 24 32 25 33 26 34 84 35 27 36 83 37
REMARK SMILES IDX 28 38 29 39 30 40 77 41 31 42 82 43 76 44 78 45 32 46 81 47
REMARK SMILES IDX 75 48 74 49 33 51 63 52 44 53 62 54 45 55 48 56 61 57 79 58
REMARK SMILES IDX 46 59 47 60 60 62 80 63 49 64 34 65 35 66 43 67 36 68 42 69
REMARK SMILES IDX 37 70 38 71 39 72 40 73 41 74 64 75 65 76 73 77 66 78 72 79
REMARK SMILES IDX 67 80 68 81 69 82 70 83 71 84 50 85 51 86 59 87 52 88 58 89
REMARK SMILES IDX 53 90 54 91 55 92 56 93 57 94
REMARK H PARENT 9 10 12 13 12 14 88 21 78 50 48 61
REMARK Flexibility Score: inf
ROOT
ATOM      1  C   UNL A   1      39.440  20.773  25.845  1.00  0.00     0.202 C 
ENDROOT
BRANCH   1   2
ATOM      2  C   UNL A   1      38.702  22.116  25.992  1.00  0.00     0.261 C 
BRANCH   2   3
ATOM      3  O   UNL A   1      37.273  21.937  25.929  1.00  0.00    -0.459 OA
BRANCH   3   4
ATOM      4  C   UNL A   1      36.683  21.995  24.694  1.00  0.00     0.371 C 
ATOM      5  O   UNL A   1      37.249  22.334  23.661  1.00  0.00    -0.245 OA
BRANCH   4   6
ATOM      6  C   UNL A   1      35.263  21.414  24.769  1.00  0.00     0.348 C 
ATOM      7  N   UNL A   1      33.033  21.608  25.935  1.00  0.00    -0.320 N 
ATOM      8  C   UNL A   1      32.992  20.143  25.928  1.00  0.00     0.324 C 
ATOM      9  C   UNL A   1      34.408  22.122  25.839  1.00  0.00     0.341 C 
ATOM     10  H   UNL A   1      32.707  21.857  26.868  1.00  0.00     0.348 HD
ATOM     11  C   UNL A   1      33.870  19.475  24.843  1.00  0.00     0.323 C 
ATOM     12  N   UNL A   1      35.273  19.936  24.879  1.00  0.00    -0.325 N 
ATOM     13  H   UNL A   1      35.793  19.533  24.098  1.00  0.00     0.347 HD
ATOM     14  H   UNL A   1      35.724  19.645  25.745  1.00  0.00     0.347 HD
BRANCH   7  15
ATOM     15  C   UNL A   1      31.991  22.340  25.192  1.00  0.00     0.323 C 
BRANCH  15  16
ATOM     16  C   UNL A   1      32.318  23.673  24.565  1.00  0.00     0.132 A 
ATOM     17  C   UNL A   1      32.338  25.857  24.295  1.00  0.00     0.107 A 
ATOM     18  N   UNL A   1      32.068  24.908  25.188  1.00  0.00    -0.231 NA
ATOM     19  N   UNL A   1      32.727  25.272  23.108  1.00  0.00    -0.333 N 
ATOM     20  C   UNL A   1      32.696  23.927  23.271  1.00  0.00     0.135 A 
ATOM     21  H   UNL A   1      32.983  25.750  22.285  1.00  0.00     0.169 HD
ATOM     22  Cl  UNL A   1      33.045  22.963  21.922  1.00  0.00    -0.062 Cl
BRANCH  17  23
ATOM     23  C   UNL A   1      32.427  27.361  24.438  1.00  0.00     0.075 C 
BRANCH  23  24
ATOM     24  C   UNL A   1      31.166  28.161  24.790  1.00  0.00     0.008 C 
BRANCH  24  25
ATOM     25  C   UNL A   1      30.439  28.992  23.723  1.00  0.00    -0.003 C 
ATOM     26  C   UNL A   1      29.253  28.316  23.032  1.00  0.00     0.004 C 
ENDBRANCH  24  25
ENDBRANCH  23  24
ENDBRANCH  17  23
ENDBRANCH  15  16
ENDBRANCH   7  15
ENDBRANCH   4   6
ENDBRANCH   3   4
ENDBRANCH   2   3
ENDBRANCH   1   2
BRANCH   1  27
ATOM     27  O   UNL A   1      40.769  20.719  26.360  1.00  0.00    -0.374 OA
BRANCH  27  28
ATOM     28  C   UNL A   1      41.432  19.469  26.287  1.00  0.00     0.202 C 
BRANCH  28  29
ATOM     29  C   UNL A   1      42.917  19.445  25.920  1.00  0.00     0.261 C 
BRANCH  29  30
ATOM     30  O   UNL A   1      43.383  20.110  24.754  1.00  0.00    -0.460 OA
BRANCH  30  31
ATOM     31  C   UNL A   1      44.531  20.784  25.007  1.00  0.00     0.338 C 
ATOM     32  O   UNL A   1      45.657  20.321  24.967  1.00  0.00    -0.246 OA
BRANCH  31  33
ATOM     33  C   UNL A   1      44.252  22.129  25.537  1.00  0.00     0.060 A 
ATOM     34  C   UNL A   1      44.981  22.517  26.663  1.00  0.00     0.016 A 
ATOM     35  C   UNL A   1      43.186  22.909  25.059  1.00  0.00     0.016 A 
ATOM     36  C   UNL A   1      44.625  23.669  27.337  1.00  0.00     0.010 A 
ATOM     37  C   UNL A   1      42.822  24.061  25.745  1.00  0.00     0.010 A 
ATOM     38  C   UNL A   1      43.535  24.424  26.891  1.00  0.00    -0.014 A 
BRANCH  38  39
ATOM     39  C   UNL A   1      43.325  25.709  27.542  1.00  0.00     0.031 A 
ATOM     40  C   UNL A   1      44.405  26.691  27.266  1.00  0.00     0.074 A 
ATOM     41  C   UNL A   1      42.231  26.058  28.239  1.00  0.00     0.049 A 
ATOM     42  N   UNL A   1      45.263  27.183  28.099  1.00  0.00    -0.248 NA
ATOM     43  C   UNL A   1      44.646  27.050  25.860  1.00  0.00     0.031 C 
ATOM     44  C   UNL A   1      40.976  25.321  28.358  1.00  0.00     0.029 A 
ATOM     45  N   UNL A   1      41.976  27.227  28.895  1.00  0.00    -0.354 N 
ATOM     46  C   UNL A   1      46.027  28.076  27.356  1.00  0.00     0.074 A 
ATOM     47  C   UNL A   1      45.737  27.806  25.970  1.00  0.00     0.031 C 
ATOM     48  C   UNL A   1      40.024  26.155  28.837  1.00  0.00     0.029 A 
ATOM     49  C   UNL A   1      40.629  27.442  29.149  1.00  0.00     0.049 A 
ATOM     50  H   UNL A   1      42.682  27.859  29.164  1.00  0.00     0.167 HD
ATOM     51  C   UNL A   1      46.639  29.150  27.925  1.00  0.00     0.031 A 
ATOM     52  C   UNL A   1      40.046  28.621  29.490  1.00  0.00     0.031 A 
ATOM     53  C   UNL A   1      46.735  29.032  29.356  1.00  0.00     0.049 A 
ATOM     54  C   UNL A   1      41.104  29.520  30.018  1.00  0.00     0.074 A 
ATOM     55  C   UNL A   1      47.266  28.095  30.221  1.00  0.00     0.029 A 
ATOM     56  N   UNL A   1      45.902  29.820  30.115  1.00  0.00    -0.354 N 
ATOM     57  N   UNL A   1      41.703  29.337  31.161  1.00  0.00    -0.248 NA
ATOM     58  C   UNL A   1      41.791  30.411  29.095  1.00  0.00     0.031 C 
ATOM     59  C   UNL A   1      46.378  28.072  31.334  1.00  0.00     0.029 A 
ATOM     60  C   UNL A   1      45.388  29.030  31.109  1.00  0.00     0.049 A 
ATOM     61  H   UNL A   1      45.710  30.775  29.971  1.00  0.00     0.167 HD
ATOM     62  C   UNL A   1      43.016  29.727  30.942  1.00  0.00     0.074 A 
ATOM     63  C   UNL A   1      42.983  30.484  29.695  1.00  0.00     0.031 C 
ATOM     64  C   UNL A   1      44.048  29.164  31.639  1.00  0.00     0.031 A 
BRANCH  51  65
ATOM     65  C   UNL A   1      46.753  30.482  27.220  1.00  0.00    -0.014 A 
ATOM     66  C   UNL A   1      47.996  31.144  27.202  1.00  0.00     0.010 A 
ATOM     67  C   UNL A   1      45.620  31.235  26.841  1.00  0.00     0.010 A 
ATOM     68  C   UNL A   1      48.082  32.511  26.905  1.00  0.00     0.020 A 
ATOM     69  C   UNL A   1      45.702  32.581  26.492  1.00  0.00     0.020 A 
ATOM     70  C   UNL A   1      46.928  33.222  26.571  1.00  0.00     0.054 A 
BRANCH  70  71
ATOM     71  S   UNL A   1      47.020  35.011  26.324  1.00  0.00     0.124 S 
ATOM     72  O   UNL A   1      47.889  35.103  25.155  1.00  0.00    -0.237 OA
ATOM     73  O   UNL A   1      45.621  35.366  26.107  1.00  0.00    -0.237 OA
ATOM     74  O   UNL A   1      47.595  35.497  27.576  1.00  0.00    -0.744 OA
ENDBRANCH  70  71
ENDBRANCH  51  65
BRANCH  52  75
ATOM     75  C   UNL A   1      38.689  29.104  29.126  1.00  0.00    -0.014 A 
ATOM     76  C   UNL A   1      37.716  29.350  30.114  1.00  0.00     0.010 A 
ATOM     77  C   UNL A   1      38.426  29.575  27.824  1.00  0.00     0.010 A 
ATOM     78  C   UNL A   1      36.559  30.092  29.821  1.00  0.00     0.020 A 
ATOM     79  C   UNL A   1      37.267  30.297  27.520  1.00  0.00     0.020 A 
ATOM     80  C   UNL A   1      36.352  30.577  28.528  1.00  0.00     0.054 A 
BRANCH  80  81
ATOM     81  S   UNL A   1      34.956  31.690  28.193  1.00  0.00     0.124 S 
ATOM     82  O   UNL A   1      35.606  32.805  27.511  1.00  0.00    -0.237 OA
ATOM     83  O   UNL A   1      34.080  30.864  27.367  1.00  0.00    -0.237 OA
ATOM     84  O   UNL A   1      34.436  31.997  29.525  1.00  0.00    -0.744 OA
ENDBRANCH  80  81
ENDBRANCH  52  75
BRANCH  64  85
ATOM     85  C   UNL A   1      43.746  28.391  32.900  1.00  0.00    -0.014 A 
ATOM     86  C   UNL A   1      43.626  28.981  34.172  1.00  0.00     0.010 A 
ATOM     87  C   UNL A   1      43.431  27.025  32.764  1.00  0.00     0.010 A 
ATOM     88  C   UNL A   1      43.239  28.219  35.283  1.00  0.00     0.020 A 
ATOM     89  C   UNL A   1      43.021  26.265  33.862  1.00  0.00     0.020 A 
ATOM     90  C   UNL A   1      42.938  26.863  35.119  1.00  0.00     0.054 A 
BRANCH  90  91
ATOM     91  S   UNL A   1      42.388  25.896  36.552  1.00  0.00     0.124 S 
ATOM     92  O   UNL A   1      40.969  25.694  36.271  1.00  0.00    -0.237 OA
ATOM     93  O   UNL A   1      43.222  24.698  36.473  1.00  0.00    -0.237 OA
ATOM     94  O   UNL A   1      42.676  26.767  37.691  1.00  0.00    -0.744 OA
ENDBRANCH  90  91
ENDBRANCH  64  85
ENDBRANCH  38  39
ENDBRANCH  31  33
ENDBRANCH  30  31
ENDBRANCH  29  30
ENDBRANCH  28  29
ENDBRANCH  27  28
ENDBRANCH   1  27
TORSDOF 22
ENDMDL
MODEL 2
REMARK VINA RESULT:      -9.9      1.454      1.957
REMARK SMILES CCCCc1nc(C[N@H+]2CC[NH2+][C@H](C(=O)OCCOCCOC(=O)c3ccc(-c4c5nc(c(-c6ccc(S(=O)(=O)[O-])cc6)c6ccc([nH]6)c(-c6ccc(S(=O)(=O)[O-])cc6)c6nc(c(-c7ccc(S(=O)(=O)[O-])cc7)c7ccc4[nH]7)C=C6)C=C5)cc3)C2)c(Cl)[nH]1
REMARK SMILES IDX 18 1 17 2 16 3 14 4 15 5 13 6 9 7 10 8 85 9 11 11 12 12 8 15
REMARK SMILES IDX 7 16 5 17 6 18 88 19 86 20 87 22 4 23 3 24 2 25 1 26 19 27
REMARK SMILES IDX 20 28 21 29 22 30 23 31 24 32 25 33 26 34 84 35 27 36 83 37
REMARK SMILES IDX 28 38 29 39 30 40 77 41 31 42 82 43 76 44 78 45 32 46 81 47
REMARK SMILES IDX 75 48 74 49 33 51 63 52 44 53 62 54 45 55 48 56 61 57 79 58
REMARK SMILES IDX 46 59 47 60 60 62 80 63 49 64 34 65 35 66 43 67 36 68 42 69
REMARK SMILES IDX 37 70 38 71 39 72 40 73 41 74 64 75 65 76 73 77 66 78 72 79
REMARK SMILES IDX 67 80 68 81 69 82 70 83 71 84 50 85 51 86 59 87 52 88 58 89
REMARK SMILES IDX 53 90 54 91 55 92 56 93 57 94
REMARK H PARENT 9 10 12 13 12 14 88 21 78 50 48 61
REMARK Flexibility Score: inf
ROOT
ATOM      1  C   UNL A   1      40.096  22.048  27.202  1.00  0.00     0.202 C 
ENDROOT
BRANCH   1   2
ATOM      2  C   UNL A   1      39.491  21.850  25.801  1.00  0.00     0.261 C 
BRANCH   2   3
ATOM      3  O   UNL A   1      38.073  21.601  25.873  1.00  0.00    -0.459 OA
BRANCH   3   4
ATOM      4  C   UNL A   1      37.589  20.507  25.205  1.00  0.00     0.371 C 
ATOM      5  O   UNL A   1      38.239  19.502  24.943  1.00  0.00    -0.245 OA
BRANCH   4   6
ATOM      6  C   UNL A   1      36.077  20.660  24.985  1.00  0.00     0.348 C 
ATOM      7  N   UNL A   1      34.023  21.939  25.706  1.00  0.00    -0.320 N 
ATOM      8  C   UNL A   1      33.304  20.663  25.640  1.00  0.00     0.324 C 
ATOM      9  C   UNL A   1      35.470  21.747  25.894  1.00  0.00     0.341 C 
ATOM     10  H   UNL A   1      33.684  22.367  26.566  1.00  0.00     0.348 HD
ATOM     11  C   UNL A   1      33.953  19.599  24.723  1.00  0.00     0.323 C 
ATOM     12  N   UNL A   1      35.373  19.356  25.044  1.00  0.00    -0.325 N 
ATOM     13  H   UNL A   1      35.779  18.711  24.365  1.00  0.00     0.347 HD
ATOM     14  H   UNL A   1      35.466  18.941  25.971  1.00  0.00     0.347 HD
BRANCH   7  15
ATOM     15  C   UNL A   1      33.604  23.025  24.801  1.00  0.00     0.323 C 
BRANCH  15  16
ATOM     16  C   UNL A   1      32.801  24.182  25.345  1.00  0.00     0.132 A 
ATOM     17  C   UNL A   1      32.272  26.268  25.806  1.00  0.00     0.107 A 
ATOM     18  N   UNL A   1      33.073  25.527  25.042  1.00  0.00    -0.231 NA
ATOM     19  N   UNL A   1      31.514  25.443  26.610  1.00  0.00    -0.333 N 
ATOM     20  C   UNL A   1      31.854  24.160  26.337  1.00  0.00     0.135 A 
ATOM     21  H   UNL A   1      30.842  25.737  27.267  1.00  0.00     0.169 HD
ATOM     22  Cl  UNL A   1      31.128  22.940  27.262  1.00  0.00    -0.062 Cl
BRANCH  17  23
ATOM     23  C   UNL A   1      31.987  27.754  25.798  1.00  0.00     0.075 C 
BRANCH  23  24
ATOM     24  C   UNL A   1      32.070  28.545  27.110  1.00  0.00     0.008 C 
BRANCH  24  25
ATOM     25  C   UNL A   1      33.428  28.949  27.699  1.00  0.00    -0.003 C 
ATOM     26  C   UNL A   1      34.599  29.019  26.716  1.00  0.00     0.004 C 
ENDBRANCH  24  25
ENDBRANCH  23  24
ENDBRANCH  17  23
ENDBRANCH  15  16
ENDBRANCH   7  15
ENDBRANCH   4   6
ENDBRANCH   3   4
ENDBRANCH   2   3
ENDBRANCH   1   2
BRANCH   1  27
ATOM     27  O   UNL A   1      40.561  20.874  27.865  1.00  0.00    -0.374 OA
BRANCH  27  28
ATOM     28  C   UNL A   1      41.173  19.884  27.057  1.00  0.00     0.202 C 
BRANCH  28  29
ATOM     29  C   UNL A   1      41.953  20.326  25.817  1.00  0.00     0.261 C 
BRANCH  29  30
ATOM     30  O   UNL A   1      43.304  20.753  25.928  1.00  0.00    -0.460 OA
BRANCH  30  31
ATOM     31  C   UNL A   1      43.502  21.910  25.253  1.00  0.00     0.338 C 
ATOM     32  O   UNL A   1      43.910  22.013  24.110  1.00  0.00    -0.246 OA
BRANCH  31  33
ATOM     33  C   UNL A   1      43.349  23.075  26.141  1.00  0.00     0.060 A 
ATOM     34  C   UNL A   1      42.668  24.174  25.612  1.00  0.00     0.016 A 
ATOM     35  C   UNL A   1      44.005  23.156  27.380  1.00  0.00     0.016 A 
ATOM     36  C   UNL A   1      42.671  25.370  26.304  1.00  0.00     0.010 A 
ATOM     37  C   UNL A   1      44.017  24.363  28.069  1.00  0.00     0.010 A 
ATOM     38  C   UNL A   1      43.363  25.468  27.516  1.00  0.00    -0.014 A 
BRANCH  38  39
ATOM     39  C   UNL A   1      43.180  26.699  28.271  1.00  0.00     0.031 A 
ATOM     40  C   UNL A   1      44.301  27.660  28.110  1.00  0.00     0.074 A 
ATOM     41  C   UNL A   1      42.079  27.028  28.966  1.00  0.00     0.049 A 
ATOM     42  N   UNL A   1      45.150  28.046  29.005  1.00  0.00    -0.248 NA
ATOM     43  C   UNL A   1      44.596  28.129  26.747  1.00  0.00     0.031 C 
ATOM     44  C   UNL A   1      40.795  26.330  28.988  1.00  0.00     0.029 A 
ATOM     45  N   UNL A   1      41.845  28.145  29.715  1.00  0.00    -0.354 N 
ATOM     46  C   UNL A   1      45.968  28.970  28.362  1.00  0.00     0.074 A 
ATOM     47  C   UNL A   1      45.709  28.831  26.951  1.00  0.00     0.031 C 
ATOM     48  C   UNL A   1      39.860  27.155  29.512  1.00  0.00     0.029 A 
ATOM     49  C   UNL A   1      40.500  28.387  29.951  1.00  0.00     0.049 A 
ATOM     50  H   UNL A   1      42.565  28.724  30.057  1.00  0.00     0.167 HD
ATOM     51  C   UNL A   1      46.599  29.967  29.039  1.00  0.00     0.031 A 
ATOM     52  C   UNL A   1      39.949  29.553  30.378  1.00  0.00     0.031 A 
ATOM     53  C   UNL A   1      46.649  29.723  30.456  1.00  0.00     0.049 A 
ATOM     54  C   UNL A   1      41.021  30.363  31.010  1.00  0.00     0.074 A 
ATOM     55  C   UNL A   1      47.121  28.697  31.250  1.00  0.00     0.029 A 
ATOM     56  N   UNL A   1      45.822  30.474  31.259  1.00  0.00    -0.354 N 
ATOM     57  N   UNL A   1      41.580  30.060  32.148  1.00  0.00    -0.248 NA
ATOM     58  C   UNL A   1      41.767  31.304  30.186  1.00  0.00     0.031 C 
ATOM     59  C   UNL A   1      46.200  28.611  32.333  1.00  0.00     0.029 A 
ATOM     60  C   UNL A   1      45.251  29.621  32.166  1.00  0.00     0.049 A 
ATOM     61  H   UNL A   1      45.668  31.444  31.194  1.00  0.00     0.167 HD
ATOM     62  C   UNL A   1      42.912  30.419  31.998  1.00  0.00     0.074 A 
ATOM     63  C   UNL A   1      42.942  31.280  30.821  1.00  0.00     0.031 C 
ATOM     64  C   UNL A   1      43.902  29.759  32.671  1.00  0.00     0.031 A 
BRANCH  51  65
ATOM     65  C   UNL A   1      46.781  31.350  28.456  1.00  0.00    -0.014 A 
ATOM     66  C   UNL A   1      45.684  32.233  28.432  1.00  0.00     0.010 A 
ATOM     67  C   UNL A   1      47.900  31.696  27.666  1.00  0.00     0.010 A 
ATOM     68  C   UNL A   1      45.679  33.355  27.592  1.00  0.00     0.020 A 
ATOM     69  C   UNL A   1      47.926  32.837  26.869  1.00  0.00     0.020 A 
ATOM     70  C   UNL A   1      46.796  33.637  26.803  1.00  0.00     0.054 A 
BRANCH  70  71
ATOM     71  S   UNL A   1      46.734  35.003  25.621  1.00  0.00     0.124 S 
ATOM     72  O   UNL A   1      45.846  34.466  24.596  1.00  0.00    -0.237 OA
ATOM     73  O   UNL A   1      46.191  36.090  26.430  1.00  0.00    -0.237 OA
ATOM     74  O   UNL A   1      48.130  35.167  25.220  1.00  0.00    -0.744 OA
ENDBRANCH  70  71
ENDBRANCH  51  65
BRANCH  52  75
ATOM     75  C   UNL A   1      38.621  30.116  30.022  1.00  0.00    -0.014 A 
ATOM     76  C   UNL A   1      37.784  30.682  31.003  1.00  0.00     0.010 A 
ATOM     77  C   UNL A   1      38.278  30.335  28.671  1.00  0.00     0.010 A 
ATOM     78  C   UNL A   1      36.689  31.486  30.644  1.00  0.00     0.020 A 
ATOM     79  C   UNL A   1      37.178  31.117  28.306  1.00  0.00     0.020 A 
ATOM     80  C   UNL A   1      36.404  31.713  29.296  1.00  0.00     0.054 A 
BRANCH  80  81
ATOM     81  S   UNL A   1      35.108  32.898  28.833  1.00  0.00     0.124 S 
ATOM     82  O   UNL A   1      34.730  32.440  27.500  1.00  0.00    -0.237 OA
ATOM     83  O   UNL A   1      34.109  32.703  29.879  1.00  0.00    -0.237 OA
ATOM     84  O   UNL A   1      35.795  34.189  28.872  1.00  0.00    -0.744 OA
ENDBRANCH  80  81
ENDBRANCH  52  75
BRANCH  64  85
ATOM     85  C   UNL A   1      43.536  28.892  33.851  1.00  0.00    -0.014 A 
ATOM     86  C   UNL A   1      43.452  29.364  35.175  1.00  0.00     0.010 A 
ATOM     87  C   UNL A   1      43.122  27.573  33.584  1.00  0.00     0.010 A 
ATOM     88  C   UNL A   1      43.003  28.529  36.207  1.00  0.00     0.020 A 
ATOM     89  C   UNL A   1      42.650  26.743  34.603  1.00  0.00     0.020 A 
ATOM     90  C   UNL A   1      42.604  27.222  35.912  1.00  0.00     0.054 A 
BRANCH  90  91
ATOM     91  S   UNL A   1      41.975  26.164  37.246  1.00  0.00     0.124 S 
ATOM     92  O   UNL A   1      40.662  26.742  37.515  1.00  0.00    -0.237 OA
ATOM     93  O   UNL A   1      41.965  24.838  36.630  1.00  0.00    -0.237 OA
ATOM     94  O   UNL A   1      42.957  26.332  38.316  1.00  0.00    -0.744 OA
ENDBRANCH  90  91
ENDBRANCH  64  85
ENDBRANCH  38  39
ENDBRANCH  31  33
ENDBRANCH  30  31
ENDBRANCH  29  30
ENDBRANCH  28  29
ENDBRANCH  27  28
ENDBRANCH   1  27
TORSDOF 22
ENDMDL
MODEL 3
REMARK VINA RESULT:      -9.7      2.805      9.989
REMARK SMILES CCCCc1nc(C[N@H+]2CC[NH2+][C@H](C(=O)OCCOCCOC(=O)c3ccc(-c4c5nc(c(-c6ccc(S(=O)(=O)[O-])cc6)c6ccc([nH]6)c(-c6ccc(S(=O)(=O)[O-])cc6)c6nc(c(-c7ccc(S(=O)(=O)[O-])cc7)c7ccc4[nH]7)C=C6)C=C5)cc3)C2)c(Cl)[nH]1
REMARK SMILES IDX 18 1 17 2 16 3 14 4 15 5 13 6 9 7 10 8 85 9 11 11 12 12 8 15
REMARK SMILES IDX 7 16 5 17 6 18 88 19 86 20 87 22 4 23 3 24 2 25 1 26 19 27
REMARK SMILES IDX 20 28 21 29 22 30 23 31 24 32 25 33 26 34 84 35 27 36 83 37
REMARK SMILES IDX 28 38 29 39 30 40 77 41 31 42 82 43 76 44 78 45 32 46 81 47
REMARK SMILES IDX 75 48 74 49 33 51 63 52 44 53 62 54 45 55 48 56 61 57 79 58
REMARK SMILES IDX 46 59 47 60 60 62 80 63 49 64 34 65 35 66 43 67 36 68 42 69
REMARK SMILES IDX 37 70 38 71 39 72 40 73 41 74 64 75 65 76 73 77 66 78 72 79
REMARK SMILES IDX 67 80 68 81 69 82 70 83 71 84 50 85 51 86 59 87 52 88 58 89
REMARK SMILES IDX 53 90 54 91 55 92 56 93 57 94
REMARK H PARENT 9 10 12 13 12 14 88 21 78 50 48 61
REMARK Flexibility Score: inf
ROOT
ATOM      1  C   UNL A   1      33.411  32.144  27.252  1.00  0.00     0.202 C 
ENDROOT
BRANCH   1   2
ATOM      2  C   UNL A   1      33.569  30.670  27.666  1.00  0.00     0.261 C 
BRANCH   2   3
ATOM      3  O   UNL A   1      32.692  29.815  26.906  1.00  0.00    -0.459 OA
BRANCH   3   4
ATOM      4  C   UNL A   1      33.202  29.231  25.777  1.00  0.00     0.371 C 
ATOM      5  O   UNL A   1      34.346  28.810  25.661  1.00  0.00    -0.245 OA
BRANCH   4   6
ATOM      6  C   UNL A   1      32.082  29.033  24.744  1.00  0.00     0.348 C 
ATOM      7  N   UNL A   1      31.601  28.468  22.331  1.00  0.00    -0.320 N 
ATOM      8  C   UNL A   1      30.564  29.502  22.379  1.00  0.00     0.324 C 
ATOM      9  C   UNL A   1      32.640  28.682  23.350  1.00  0.00     0.341 C 
ATOM     10  H   UNL A   1      32.057  28.620  21.432  1.00  0.00     0.348 HD
ATOM     11  C   UNL A   1      30.038  29.829  23.798  1.00  0.00     0.323 C 
ATOM     12  N   UNL A   1      31.120  30.162  24.746  1.00  0.00    -0.325 N 
ATOM     13  H   UNL A   1      30.736  30.288  25.683  1.00  0.00     0.347 HD
ATOM     14  H   UNL A   1      31.584  31.028  24.473  1.00  0.00     0.347 HD
BRANCH   7  15
ATOM     15  C   UNL A   1      31.188  27.076  22.077  1.00  0.00     0.323 C 
BRANCH  15  16
ATOM     16  C   UNL A   1      31.826  25.953  22.859  1.00  0.00     0.132 A 
ATOM     17  C   UNL A   1      33.008  24.135  23.234  1.00  0.00     0.107 A 
ATOM     18  N   UNL A   1      32.785  25.077  22.321  1.00  0.00    -0.231 NA
ATOM     19  N   UNL A   1      32.203  24.360  24.332  1.00  0.00    -0.333 N 
ATOM     20  C   UNL A   1      31.464  25.470  24.091  1.00  0.00     0.135 A 
ATOM     21  H   UNL A   1      32.174  23.810  25.148  1.00  0.00     0.169 HD
ATOM     22  Cl  UNL A   1      30.316  25.918  25.254  1.00  0.00    -0.062 Cl
BRANCH  17  23
ATOM     23  C   UNL A   1      34.049  23.039  23.297  1.00  0.00     0.075 C 
BRANCH  23  24
ATOM     24  C   UNL A   1      35.190  23.139  24.318  1.00  0.00     0.008 C 
BRANCH  24  25
ATOM     25  C   UNL A   1      35.330  22.105  25.443  1.00  0.00    -0.003 C 
ATOM     26  C   UNL A   1      35.498  20.648  25.007  1.00  0.00     0.004 C 
ENDBRANCH  24  25
ENDBRANCH  23  24
ENDBRANCH  17  23
ENDBRANCH  15  16
ENDBRANCH   7  15
ENDBRANCH   4   6
ENDBRANCH   3   4
ENDBRANCH   2   3
ENDBRANCH   1   2
BRANCH   1  27
ATOM     27  O   UNL A   1      34.268  33.082  27.900  1.00  0.00    -0.374 OA
BRANCH  27  28
ATOM     28  C   UNL A   1      33.661  34.258  28.407  1.00  0.00     0.202 C 
BRANCH  28  29
ATOM     29  C   UNL A   1      34.108  34.786  29.772  1.00  0.00     0.261 C 
BRANCH  29  30
ATOM     30  O   UNL A   1      33.365  34.477  30.944  1.00  0.00    -0.460 OA
BRANCH  30  31
ATOM     31  C   UNL A   1      34.143  34.566  32.048  1.00  0.00     0.338 C 
ATOM     32  O   UNL A   1      34.035  35.391  32.937  1.00  0.00    -0.246 OA
BRANCH  31  33
ATOM     33  C   UNL A   1      35.291  33.648  31.964  1.00  0.00     0.060 A 
ATOM     34  C   UNL A   1      36.557  34.237  31.925  1.00  0.00     0.016 A 
ATOM     35  C   UNL A   1      35.126  32.269  31.750  1.00  0.00     0.016 A 
ATOM     36  C   UNL A   1      37.659  33.456  31.634  1.00  0.00     0.010 A 
ATOM     37  C   UNL A   1      36.234  31.487  31.446  1.00  0.00     0.010 A 
ATOM     38  C   UNL A   1      37.492  32.091  31.373  1.00  0.00    -0.014 A 
BRANCH  38  39
ATOM     39  C   UNL A   1      38.708  31.301  31.246  1.00  0.00     0.031 A 
ATOM     40  C   UNL A   1      39.437  31.131  32.529  1.00  0.00     0.074 A 
ATOM     41  C   UNL A   1      39.115  30.674  30.129  1.00  0.00     0.049 A 
ATOM     42  N   UNL A   1      40.596  31.604  32.852  1.00  0.00    -0.248 NA
ATOM     43  C   UNL A   1      38.715  30.480  33.633  1.00  0.00     0.031 C 
ATOM     44  C   UNL A   1      38.376  30.506  28.880  1.00  0.00     0.029 A 
ATOM     45  N   UNL A   1      40.249  29.942  29.928  1.00  0.00    -0.354 N 
ATOM     46  C   UNL A   1      40.839  31.135  34.139  1.00  0.00     0.074 A 
ATOM     47  C   UNL A   1      39.584  30.626  34.632  1.00  0.00     0.031 C 
ATOM     48  C   UNL A   1      38.969  29.535  28.149  1.00  0.00     0.029 A 
ATOM     49  C   UNL A   1      40.177  29.094  28.833  1.00  0.00     0.049 A 
ATOM     50  H   UNL A   1      41.044  30.011  30.505  1.00  0.00     0.167 HD
ATOM     51  C   UNL A   1      42.101  30.947  34.611  1.00  0.00     0.031 A 
ATOM     52  C   UNL A   1      40.994  28.041  28.567  1.00  0.00     0.031 A 
ATOM     53  C   UNL A   1      43.090  31.634  33.824  1.00  0.00     0.049 A 
ATOM     54  C   UNL A   1      42.246  28.225  29.346  1.00  0.00     0.074 A 
ATOM     55  C   UNL A   1      43.282  32.945  33.432  1.00  0.00     0.029 A 
ATOM     56  N   UNL A   1      43.892  30.873  33.007  1.00  0.00    -0.354 N 
ATOM     57  N   UNL A   1      43.131  29.145  29.083  1.00  0.00    -0.248 NA
ATOM     58  C   UNL A   1      42.336  27.642  30.677  1.00  0.00     0.031 C 
ATOM     59  C   UNL A   1      43.816  32.864  32.114  1.00  0.00     0.029 A 
ATOM     60  C   UNL A   1      43.967  31.512  31.798  1.00  0.00     0.049 A 
ATOM     61  H   UNL A   1      44.332  30.024  33.245  1.00  0.00     0.167 HD
ATOM     62  C   UNL A   1      43.598  29.556  30.323  1.00  0.00     0.074 A 
ATOM     63  C   UNL A   1      43.160  28.521  31.254  1.00  0.00     0.031 C 
ATOM     64  C   UNL A   1      44.047  30.831  30.523  1.00  0.00     0.031 A 
BRANCH  51  65
ATOM     65  C   UNL A   1      42.460  29.796  35.523  1.00  0.00    -0.014 A 
ATOM     66  C   UNL A   1      43.434  29.990  36.522  1.00  0.00     0.010 A 
ATOM     67  C   UNL A   1      42.094  28.463  35.236  1.00  0.00     0.010 A 
ATOM     68  C   UNL A   1      44.067  28.900  37.134  1.00  0.00     0.020 A 
ATOM     69  C   UNL A   1      42.678  27.374  35.877  1.00  0.00     0.020 A 
ATOM     70  C   UNL A   1      43.695  27.599  36.791  1.00  0.00     0.054 A 
BRANCH  70  71
ATOM     71  S   UNL A   1      44.606  26.197  37.479  1.00  0.00     0.124 S 
ATOM     72  O   UNL A   1      45.801  26.183  36.642  1.00  0.00    -0.237 OA
ATOM     73  O   UNL A   1      44.805  26.607  38.866  1.00  0.00    -0.237 OA
ATOM     74  O   UNL A   1      43.692  25.073  37.290  1.00  0.00    -0.744 OA
ENDBRANCH  70  71
ENDBRANCH  51  65
BRANCH  52  75
ATOM     75  C   UNL A   1      40.642  26.759  27.905  1.00  0.00    -0.014 A 
ATOM     76  C   UNL A   1      41.465  26.207  26.905  1.00  0.00     0.010 A 
ATOM     77  C   UNL A   1      39.626  25.938  28.436  1.00  0.00     0.010 A 
ATOM     78  C   UNL A   1      41.317  24.869  26.501  1.00  0.00     0.020 A 
ATOM     79  C   UNL A   1      39.458  24.612  28.026  1.00  0.00     0.020 A 
ATOM     80  C   UNL A   1      40.324  24.074  27.079  1.00  0.00     0.054 A 
BRANCH  80  81
ATOM     81  S   UNL A   1      40.251  22.300  26.697  1.00  0.00     0.124 S 
ATOM     82  O   UNL A   1      41.322  22.149  25.718  1.00  0.00    -0.237 OA
ATOM     83  O   UNL A   1      40.489  21.684  27.999  1.00  0.00    -0.237 OA
ATOM     84  O   UNL A   1      38.899  22.119  26.169  1.00  0.00    -0.744 OA
ENDBRANCH  80  81
ENDBRANCH  52  75
BRANCH  64  85
ATOM     85  C   UNL A   1      44.387  31.686  29.326  1.00  0.00    -0.014 A 
ATOM     86  C   UNL A   1      43.462  32.520  28.671  1.00  0.00     0.010 A 
ATOM     87  C   UNL A   1      45.738  31.751  28.938  1.00  0.00     0.010 A 
ATOM     88  C   UNL A   1      43.871  33.368  27.632  1.00  0.00     0.020 A 
ATOM     89  C   UNL A   1      46.157  32.611  27.921  1.00  0.00     0.020 A 
ATOM     90  C   UNL A   1      45.220  33.407  27.265  1.00  0.00     0.054 A 
BRANCH  90  91
ATOM     91  S   UNL A   1      45.749  34.545  25.954  1.00  0.00     0.124 S 
ATOM     92  O   UNL A   1      47.055  34.009  25.580  1.00  0.00    -0.237 OA
ATOM     93  O   UNL A   1      44.697  34.396  24.951  1.00  0.00    -0.237 OA
ATOM     94  O   UNL A   1      45.782  35.848  26.616  1.00  0.00    -0.744 OA
ENDBRANCH  90  91
ENDBRANCH  64  85
ENDBRANCH  38  39
ENDBRANCH  31  33
ENDBRANCH  30  31
ENDBRANCH  29  30
ENDBRANCH  28  29
ENDBRANCH  27  28
ENDBRANCH   1  27
TORSDOF 22
ENDMDL
