MODEL 1
REMARK VINA RESULT:     -10.4      0.000      0.000
REMARK SMILES Cn1ncc(C(=O)OCCOCCOC(=O)c2ccc(-c3c4nc(c(-c5ccc(S(=O)(=O)[O-])cc5)c5ccc([nH]5)c(-c5ccc(S(=O)(=O)[O-])cc5)c5nc(c(-c6ccc(S(=O)(=O)[O-])cc6)c6ccc3[nH]6)C=C5)C=C4)cc2)c1C(=O)Nc1ccccn1
REMARK SMILES IDX 12 1 11 2 10 3 9 4 8 5 6 6 7 7 5 8 1 9 2 10 3 11 77 12 4 13
REMARK SMILES IDX 78 14 79 15 80 16 81 18 82 19 86 20 83 21 85 22 84 23 13 24
REMARK SMILES IDX 14 25 15 26 16 27 17 28 18 29 76 30 19 31 75 32 20 33 21 34
REMARK SMILES IDX 22 35 69 36 23 37 74 38 68 39 70 40 24 41 73 42 67 43 66 44
REMARK SMILES IDX 25 46 55 47 36 48 54 49 37 50 40 51 53 52 71 53 38 54 39 55
REMARK SMILES IDX 52 57 72 58 41 59 26 60 27 61 35 62 28 63 34 64 29 65 30 66
REMARK SMILES IDX 31 67 32 68 33 69 56 70 57 71 65 72 58 73 64 74 59 75 60 76
REMARK SMILES IDX 61 77 62 78 63 79 42 80 43 81 51 82 44 83 50 84 45 85 46 86
REMARK SMILES IDX 47 87 48 88 49 89
REMARK H PARENT 80 17 70 45 40 56
REMARK Flexibility Score: inf
ROOT
ATOM      1  C   UNL A   1      40.278  22.553  26.764  1.00  0.00     0.202 C 
ENDROOT
BRANCH   1   2
ATOM      2  O   UNL A   1      38.985  22.555  26.150  1.00  0.00    -0.374 OA
BRANCH   2   3
ATOM      3  C   UNL A   1      38.522  21.304  25.633  1.00  0.00     0.202 C 
BRANCH   3   4
ATOM      4  C   UNL A   1      37.355  21.419  24.652  1.00  0.00     0.261 C 
BRANCH   4   5
ATOM      5  O   UNL A   1      37.123  22.803  24.349  1.00  0.00    -0.460 OA
BRANCH   5   6
ATOM      6  C   UNL A   1      36.049  23.361  24.959  1.00  0.00     0.342 C 
ATOM      7  O   UNL A   1      36.110  24.182  25.870  1.00  0.00    -0.246 OA
BRANCH   6   8
ATOM      8  C   UNL A   1      34.781  23.056  24.323  1.00  0.00     0.111 A 
ATOM      9  C   UNL A   1      31.315  22.963  24.279  1.00  0.00     0.174 C 
ATOM     10  N   UNL A   1      32.690  22.697  23.916  1.00  0.00    -0.262 N 
ATOM     11  N   UNL A   1      33.125  23.306  22.791  1.00  0.00    -0.180 NA
ATOM     12  C   UNL A   1      33.720  22.219  24.707  1.00  0.00     0.140 A 
ATOM     13  C   UNL A   1      34.367  23.649  23.112  1.00  0.00     0.151 A 
BRANCH  12  14
ATOM     14  C   UNL A   1      33.687  21.305  25.837  1.00  0.00     0.275 C 
ATOM     15  O   UNL A   1      33.760  21.730  26.992  1.00  0.00    -0.267 OA
ATOM     16  N   UNL A   1      33.479  19.956  25.736  1.00  0.00    -0.305 N 
ATOM     17  H   UNL A   1      33.290  19.541  26.609  1.00  0.00     0.171 HD
BRANCH  16  18
ATOM     18  C   UNL A   1      33.470  19.034  24.703  1.00  0.00     0.132 A 
ATOM     19  C   UNL A   1      32.489  18.962  23.728  1.00  0.00     0.047 A 
ATOM     20  N   UNL A   1      34.507  18.173  24.760  1.00  0.00    -0.239 NA
ATOM     21  C   UNL A   1      32.539  17.899  22.821  1.00  0.00     0.005 A 
ATOM     22  C   UNL A   1      34.518  17.139  23.894  1.00  0.00     0.113 A 
ATOM     23  C   UNL A   1      33.554  16.952  22.923  1.00  0.00     0.020 A 
ENDBRANCH  16  18
ENDBRANCH  12  14
ENDBRANCH   6   8
ENDBRANCH   5   6
ENDBRANCH   4   5
ENDBRANCH   3   4
ENDBRANCH   2   3
ENDBRANCH   1   2
BRANCH   1  24
ATOM     24  C   UNL A   1      40.986  23.909  26.804  1.00  0.00     0.261 C 
BRANCH  24  25
ATOM     25  O   UNL A   1      40.048  24.990  26.655  1.00  0.00    -0.460 OA
BRANCH  25  26
ATOM     26  C   UNL A   1      40.607  26.215  26.498  1.00  0.00     0.338 C 
ATOM     27  O   UNL A   1      41.148  26.650  25.496  1.00  0.00    -0.246 OA
BRANCH  26  28
ATOM     28  C   UNL A   1      40.314  27.057  27.676  1.00  0.00     0.060 A 
ATOM     29  C   UNL A   1      40.922  28.318  27.728  1.00  0.00     0.016 A 
ATOM     30  C   UNL A   1      39.505  26.618  28.728  1.00  0.00     0.016 A 
ATOM     31  C   UNL A   1      40.769  29.122  28.854  1.00  0.00     0.010 A 
ATOM     32  C   UNL A   1      39.362  27.423  29.864  1.00  0.00     0.010 A 
ATOM     33  C   UNL A   1      40.021  28.663  29.946  1.00  0.00    -0.014 A 
BRANCH  33  34
ATOM     34  C   UNL A   1      40.059  29.419  31.221  1.00  0.00     0.031 A 
ATOM     35  C   UNL A   1      41.175  29.146  32.194  1.00  0.00     0.074 A 
ATOM     36  C   UNL A   1      39.142  30.364  31.491  1.00  0.00     0.049 A 
ATOM     37  N   UNL A   1      41.410  29.697  33.357  1.00  0.00    -0.248 NA
ATOM     38  C   UNL A   1      42.155  28.120  31.802  1.00  0.00     0.031 C 
ATOM     39  C   UNL A   1      38.037  30.747  30.613  1.00  0.00     0.029 A 
ATOM     40  N   UNL A   1      38.998  31.176  32.588  1.00  0.00    -0.354 N 
ATOM     41  C   UNL A   1      42.563  29.086  33.836  1.00  0.00     0.074 A 
ATOM     42  C   UNL A   1      42.965  28.106  32.851  1.00  0.00     0.031 C 
ATOM     43  C   UNL A   1      37.324  31.720  31.209  1.00  0.00     0.029 A 
ATOM     44  C   UNL A   1      37.906  32.009  32.519  1.00  0.00     0.049 A 
ATOM     45  H   UNL A   1      39.619  31.164  33.352  1.00  0.00     0.167 HD
ATOM     46  C   UNL A   1      43.232  29.324  34.989  1.00  0.00     0.031 A 
ATOM     47  C   UNL A   1      37.425  32.892  33.415  1.00  0.00     0.031 A 
ATOM     48  C   UNL A   1      42.826  30.287  35.977  1.00  0.00     0.049 A 
ATOM     49  C   UNL A   1      38.145  33.087  34.723  1.00  0.00     0.074 A 
ATOM     50  C   UNL A   1      43.444  30.607  37.174  1.00  0.00     0.029 A 
ATOM     51  N   UNL A   1      41.693  31.079  35.888  1.00  0.00    -0.354 N 
ATOM     52  N   UNL A   1      39.249  32.520  35.149  1.00  0.00    -0.248 NA
ATOM     53  C   UNL A   1      37.556  34.045  35.670  1.00  0.00     0.031 C 
ATOM     54  C   UNL A   1      42.658  31.560  37.830  1.00  0.00     0.029 A 
ATOM     55  C   UNL A   1      41.577  31.868  37.019  1.00  0.00     0.049 A 
ATOM     56  H   UNL A   1      41.061  31.080  35.132  1.00  0.00     0.167 HD
ATOM     57  C   UNL A   1      39.497  33.068  36.404  1.00  0.00     0.074 A 
ATOM     58  C   UNL A   1      38.436  34.020  36.663  1.00  0.00     0.031 C 
ATOM     59  C   UNL A   1      40.512  32.808  37.264  1.00  0.00     0.031 A 
BRANCH  46  60
ATOM     60  C   UNL A   1      44.463  28.502  35.255  1.00  0.00    -0.014 A 
ATOM     61  C   UNL A   1      45.740  28.973  34.901  1.00  0.00     0.010 A 
ATOM     62  C   UNL A   1      44.343  27.256  35.895  1.00  0.00     0.010 A 
ATOM     63  C   UNL A   1      46.874  28.195  35.151  1.00  0.00     0.020 A 
ATOM     64  C   UNL A   1      45.477  26.484  36.166  1.00  0.00     0.020 A 
ATOM     65  C   UNL A   1      46.734  26.952  35.777  1.00  0.00     0.054 A 
BRANCH  65  66
ATOM     66  S   UNL A   1      48.221  25.967  36.106  1.00  0.00     0.124 S 
ATOM     67  O   UNL A   1      47.847  24.666  35.557  1.00  0.00    -0.237 OA
ATOM     68  O   UNL A   1      49.254  26.687  35.365  1.00  0.00    -0.237 OA
ATOM     69  O   UNL A   1      48.355  26.015  37.559  1.00  0.00    -0.744 OA
ENDBRANCH  65  66
ENDBRANCH  46  60
BRANCH  47  70
ATOM     70  C   UNL A   1      36.177  33.645  33.119  1.00  0.00    -0.014 A 
ATOM     71  C   UNL A   1      34.918  33.036  33.265  1.00  0.00     0.010 A 
ATOM     72  C   UNL A   1      36.244  34.979  32.680  1.00  0.00     0.010 A 
ATOM     73  C   UNL A   1      33.750  33.743  32.963  1.00  0.00     0.020 A 
ATOM     74  C   UNL A   1      35.079  35.697  32.400  1.00  0.00     0.020 A 
ATOM     75  C   UNL A   1      33.839  35.070  32.531  1.00  0.00     0.054 A 
BRANCH  75  76
ATOM     76  S   UNL A   1      32.311  35.988  32.187  1.00  0.00     0.124 S 
ATOM     77  O   UNL A   1      32.423  36.236  30.754  1.00  0.00    -0.237 OA
ATOM     78  O   UNL A   1      31.274  35.040  32.587  1.00  0.00    -0.237 OA
ATOM     79  O   UNL A   1      32.426  37.169  33.039  1.00  0.00    -0.744 OA
ENDBRANCH  75  76
ENDBRANCH  47  70
BRANCH  59  80
ATOM     80  C   UNL A   1      40.543  33.578  38.556  1.00  0.00    -0.014 A 
ATOM     81  C   UNL A   1      41.186  34.825  38.642  1.00  0.00     0.010 A 
ATOM     82  C   UNL A   1      39.869  33.073  39.684  1.00  0.00     0.010 A 
ATOM     83  C   UNL A   1      41.175  35.543  39.841  1.00  0.00     0.020 A 
ATOM     84  C   UNL A   1      39.837  33.799  40.877  1.00  0.00     0.020 A 
ATOM     85  C   UNL A   1      40.503  35.025  40.952  1.00  0.00     0.054 A 
BRANCH  85  86
ATOM     86  S   UNL A   1      40.461  35.995  42.483  1.00  0.00     0.124 S 
ATOM     87  O   UNL A   1      39.499  37.042  42.154  1.00  0.00    -0.237 OA
ATOM     88  O   UNL A   1      40.013  35.018  43.473  1.00  0.00    -0.237 OA
ATOM     89  O   UNL A   1      41.842  36.446  42.645  1.00  0.00    -0.744 OA
ENDBRANCH  85  86
ENDBRANCH  59  80
ENDBRANCH  33  34
ENDBRANCH  26  28
ENDBRANCH  25  26
ENDBRANCH  24  25
ENDBRANCH   1  24
TORSDOF 19
ENDMDL
MODEL 2
REMARK VINA RESULT:     -10.3      4.041      5.768
REMARK SMILES Cn1ncc(C(=O)OCCOCCOC(=O)c2ccc(-c3c4nc(c(-c5ccc(S(=O)(=O)[O-])cc5)c5ccc([nH]5)c(-c5ccc(S(=O)(=O)[O-])cc5)c5nc(c(-c6ccc(S(=O)(=O)[O-])cc6)c6ccc3[nH]6)C=C5)C=C4)cc2)c1C(=O)Nc1ccccn1
REMARK SMILES IDX 12 1 11 2 10 3 9 4 8 5 6 6 7 7 5 8 1 9 2 10 3 11 77 12 4 13
REMARK SMILES IDX 78 14 79 15 80 16 81 18 82 19 86 20 83 21 85 22 84 23 13 24
REMARK SMILES IDX 14 25 15 26 16 27 17 28 18 29 76 30 19 31 75 32 20 33 21 34
REMARK SMILES IDX 22 35 69 36 23 37 74 38 68 39 70 40 24 41 73 42 67 43 66 44
REMARK SMILES IDX 25 46 55 47 36 48 54 49 37 50 40 51 53 52 71 53 38 54 39 55
REMARK SMILES IDX 52 57 72 58 41 59 26 60 27 61 35 62 28 63 34 64 29 65 30 66
REMARK SMILES IDX 31 67 32 68 33 69 56 70 57 71 65 72 58 73 64 74 59 75 60 76
REMARK SMILES IDX 61 77 62 78 63 79 42 80 43 81 51 82 44 83 50 84 45 85 46 86
REMARK SMILES IDX 47 87 48 88 49 89
REMARK H PARENT 80 17 70 45 40 56
REMARK Flexibility Score: inf
ROOT
ATOM      1  C   UNL A   1      36.685  21.236  24.728  1.00  0.00     0.202 C 
ENDROOT
BRANCH   1   2
ATOM      2  O   UNL A   1      35.656  20.675  25.548  1.00  0.00    -0.374 OA
BRANCH   2   3
ATOM      3  C   UNL A   1      34.361  20.552  24.952  1.00  0.00     0.202 C 
BRANCH   3   4
ATOM      4  C   UNL A   1      33.247  21.274  25.709  1.00  0.00     0.261 C 
BRANCH   4   5
ATOM      5  O   UNL A   1      32.958  22.520  25.056  1.00  0.00    -0.460 OA
BRANCH   5   6
ATOM      6  C   UNL A   1      33.359  23.632  25.719  1.00  0.00     0.342 C 
ATOM      7  O   UNL A   1      34.504  23.841  26.106  1.00  0.00    -0.246 OA
BRANCH   6   8
ATOM      8  C   UNL A   1      32.355  24.679  25.781  1.00  0.00     0.111 A 
ATOM      9  C   UNL A   1      29.970  26.732  24.326  1.00  0.00     0.174 C 
ATOM     10  N   UNL A   1      30.912  26.209  25.293  1.00  0.00    -0.262 N 
ATOM     11  N   UNL A   1      30.367  25.602  26.370  1.00  0.00    -0.180 NA
ATOM     12  C   UNL A   1      32.254  25.917  25.126  1.00  0.00     0.140 A 
ATOM     13  C   UNL A   1      31.189  24.577  26.567  1.00  0.00     0.151 A 
BRANCH  12  14
ATOM     14  C   UNL A   1      33.251  26.543  24.272  1.00  0.00     0.275 C 
ATOM     15  O   UNL A   1      33.676  25.963  23.271  1.00  0.00    -0.267 OA
ATOM     16  N   UNL A   1      33.716  27.820  24.434  1.00  0.00    -0.305 N 
ATOM     17  H   UNL A   1      34.227  28.133  23.653  1.00  0.00     0.171 HD
BRANCH  16  18
ATOM     18  C   UNL A   1      33.643  28.777  25.431  1.00  0.00     0.132 A 
ATOM     19  C   UNL A   1      34.524  28.865  26.497  1.00  0.00     0.047 A 
ATOM     20  N   UNL A   1      32.592  29.609  25.285  1.00  0.00    -0.239 NA
ATOM     21  C   UNL A   1      34.254  29.802  27.500  1.00  0.00     0.005 A 
ATOM     22  C   UNL A   1      32.334  30.484  26.278  1.00  0.00     0.113 A 
ATOM     23  C   UNL A   1      33.122  30.606  27.406  1.00  0.00     0.020 A 
ENDBRANCH  16  18
ENDBRANCH  12  14
ENDBRANCH   6   8
ENDBRANCH   5   6
ENDBRANCH   4   5
ENDBRANCH   3   4
ENDBRANCH   2   3
ENDBRANCH   1   2
BRANCH   1  24
ATOM     24  C   UNL A   1      38.064  21.341  25.386  1.00  0.00     0.261 C 
BRANCH  24  25
ATOM     25  O   UNL A   1      38.300  22.668  25.889  1.00  0.00    -0.460 OA
BRANCH  25  26
ATOM     26  C   UNL A   1      39.559  22.896  26.335  1.00  0.00     0.338 C 
ATOM     27  O   UNL A   1      40.539  22.195  26.148  1.00  0.00    -0.246 OA
BRANCH  26  28
ATOM     28  C   UNL A   1      39.642  24.237  26.948  1.00  0.00     0.060 A 
ATOM     29  C   UNL A   1      40.324  25.228  26.229  1.00  0.00     0.016 A 
ATOM     30  C   UNL A   1      39.113  24.517  28.211  1.00  0.00     0.016 A 
ATOM     31  C   UNL A   1      40.526  26.486  26.791  1.00  0.00     0.010 A 
ATOM     32  C   UNL A   1      39.327  25.779  28.779  1.00  0.00     0.010 A 
ATOM     33  C   UNL A   1      40.064  26.756  28.086  1.00  0.00    -0.014 A 
BRANCH  33  34
ATOM     34  C   UNL A   1      40.487  28.007  28.760  1.00  0.00     0.031 A 
ATOM     35  C   UNL A   1      41.888  28.104  29.300  1.00  0.00     0.074 A 
ATOM     36  C   UNL A   1      39.652  29.057  28.852  1.00  0.00     0.049 A 
ATOM     37  N   UNL A   1      42.472  29.102  29.911  1.00  0.00    -0.248 NA
ATOM     38  C   UNL A   1      42.746  26.920  29.124  1.00  0.00     0.031 C 
ATOM     39  C   UNL A   1      38.285  29.101  28.335  1.00  0.00     0.029 A 
ATOM     40  N   UNL A   1      39.838  30.294  29.417  1.00  0.00    -0.354 N 
ATOM     41  C   UNL A   1      43.762  28.669  30.192  1.00  0.00     0.074 A 
ATOM     42  C   UNL A   1      43.868  27.310  29.709  1.00  0.00     0.031 C 
ATOM     43  C   UNL A   1      37.753  30.305  28.611  1.00  0.00     0.029 A 
ATOM     44  C   UNL A   1      38.732  31.106  29.346  1.00  0.00     0.049 A 
ATOM     45  H   UNL A   1      40.685  30.573  29.835  1.00  0.00     0.167 HD
ATOM     46  C   UNL A   1      44.771  29.344  30.793  1.00  0.00     0.031 A 
ATOM     47  C   UNL A   1      38.527  32.346  29.829  1.00  0.00     0.031 A 
ATOM     48  C   UNL A   1      44.663  30.689  31.289  1.00  0.00     0.049 A 
ATOM     49  C   UNL A   1      39.641  33.050  30.559  1.00  0.00     0.074 A 
ATOM     50  C   UNL A   1      45.633  31.462  31.904  1.00  0.00     0.029 A 
ATOM     51  N   UNL A   1      43.513  31.461  31.234  1.00  0.00    -0.354 N 
ATOM     52  N   UNL A   1      40.864  32.635  30.794  1.00  0.00    -0.248 NA
ATOM     53  C   UNL A   1      39.348  34.391  31.085  1.00  0.00     0.031 C 
ATOM     54  C   UNL A   1      45.055  32.684  32.263  1.00  0.00     0.029 A 
ATOM     55  C   UNL A   1      43.739  32.691  31.828  1.00  0.00     0.049 A 
ATOM     56  H   UNL A   1      42.659  31.177  30.833  1.00  0.00     0.167 HD
ATOM     57  C   UNL A   1      41.491  33.674  31.477  1.00  0.00     0.074 A 
ATOM     58  C   UNL A   1      40.518  34.739  31.606  1.00  0.00     0.031 C 
ATOM     59  C   UNL A   1      42.759  33.739  31.952  1.00  0.00     0.031 A 
BRANCH  46  60
ATOM     60  C   UNL A   1      46.076  28.618  30.973  1.00  0.00    -0.014 A 
ATOM     61  C   UNL A   1      47.102  28.724  30.018  1.00  0.00     0.010 A 
ATOM     62  C   UNL A   1      46.289  27.845  32.128  1.00  0.00     0.010 A 
ATOM     63  C   UNL A   1      48.307  28.040  30.197  1.00  0.00     0.020 A 
ATOM     64  C   UNL A   1      47.501  27.177  32.322  1.00  0.00     0.020 A 
ATOM     65  C   UNL A   1      48.497  27.265  31.346  1.00  0.00     0.054 A 
BRANCH  65  66
ATOM     66  S   UNL A   1      50.075  26.399  31.566  1.00  0.00     0.124 S 
ATOM     67  O   UNL A   1      49.723  25.032  31.188  1.00  0.00    -0.237 OA
ATOM     68  O   UNL A   1      50.958  27.098  30.636  1.00  0.00    -0.237 OA
ATOM     69  O   UNL A   1      50.385  26.595  32.979  1.00  0.00    -0.744 OA
ENDBRANCH  65  66
ENDBRANCH  46  60
BRANCH  47  70
ATOM     70  C   UNL A   1      37.201  32.999  29.663  1.00  0.00    -0.014 A 
ATOM     71  C   UNL A   1      36.314  33.111  30.748  1.00  0.00     0.010 A 
ATOM     72  C   UNL A   1      36.816  33.507  28.409  1.00  0.00     0.010 A 
ATOM     73  C   UNL A   1      35.060  33.706  30.577  1.00  0.00     0.020 A 
ATOM     74  C   UNL A   1      35.573  34.123  28.240  1.00  0.00     0.020 A 
ATOM     75  C   UNL A   1      34.698  34.208  29.323  1.00  0.00     0.054 A 
BRANCH  75  76
ATOM     76  S   UNL A   1      33.084  35.017  29.132  1.00  0.00     0.124 S 
ATOM     77  O   UNL A   1      32.526  34.902  30.475  1.00  0.00    -0.237 OA
ATOM     78  O   UNL A   1      33.454  36.367  28.712  1.00  0.00    -0.237 OA
ATOM     79  O   UNL A   1      32.422  34.214  28.106  1.00  0.00    -0.744 OA
ENDBRANCH  75  76
ENDBRANCH  47  70
BRANCH  59  80
ATOM     80  C   UNL A   1      43.179  35.011  32.637  1.00  0.00    -0.014 A 
ATOM     81  C   UNL A   1      43.733  36.077  31.908  1.00  0.00     0.010 A 
ATOM     82  C   UNL A   1      42.963  35.163  34.019  1.00  0.00     0.010 A 
ATOM     83  C   UNL A   1      44.086  37.266  32.554  1.00  0.00     0.020 A 
ATOM     84  C   UNL A   1      43.293  36.357  34.664  1.00  0.00     0.020 A 
ATOM     85  C   UNL A   1      43.866  37.397  33.928  1.00  0.00     0.054 A 
BRANCH  85  86
ATOM     86  S   UNL A   1      44.288  38.965  34.737  1.00  0.00     0.124 S 
ATOM     87  O   UNL A   1      43.306  39.879  34.161  1.00  0.00    -0.237 OA
ATOM     88  O   UNL A   1      44.104  38.657  36.154  1.00  0.00    -0.237 OA
ATOM     89  O   UNL A   1      45.673  39.201  34.334  1.00  0.00    -0.744 OA
ENDBRANCH  85  86
ENDBRANCH  59  80
ENDBRANCH  33  34
ENDBRANCH  26  28
ENDBRANCH  25  26
ENDBRANCH  24  25
ENDBRANCH   1  24
TORSDOF 19
ENDMDL
MODEL 3
REMARK VINA RESULT:     -10.0      7.279     12.836
REMARK SMILES Cn1ncc(C(=O)OCCOCCOC(=O)c2ccc(-c3c4nc(c(-c5ccc(S(=O)(=O)[O-])cc5)c5ccc([nH]5)c(-c5ccc(S(=O)(=O)[O-])cc5)c5nc(c(-c6ccc(S(=O)(=O)[O-])cc6)c6ccc3[nH]6)C=C5)C=C4)cc2)c1C(=O)Nc1ccccn1
REMARK SMILES IDX 12 1 11 2 10 3 9 4 8 5 6 6 7 7 5 8 1 9 2 10 3 11 77 12 4 13
REMARK SMILES IDX 78 14 79 15 80 16 81 18 82 19 86 20 83 21 85 22 84 23 13 24
REMARK SMILES IDX 14 25 15 26 16 27 17 28 18 29 76 30 19 31 75 32 20 33 21 34
REMARK SMILES IDX 22 35 69 36 23 37 74 38 68 39 70 40 24 41 73 42 67 43 66 44
REMARK SMILES IDX 25 46 55 47 36 48 54 49 37 50 40 51 53 52 71 53 38 54 39 55
REMARK SMILES IDX 52 57 72 58 41 59 26 60 27 61 35 62 28 63 34 64 29 65 30 66
REMARK SMILES IDX 31 67 32 68 33 69 56 70 57 71 65 72 58 73 64 74 59 75 60 76
REMARK SMILES IDX 61 77 62 78 63 79 42 80 43 81 51 82 44 83 50 84 45 85 46 86
REMARK SMILES IDX 47 87 48 88 49 89
REMARK H PARENT 80 17 70 45 40 56
REMARK Flexibility Score: inf
ROOT
ATOM      1  C   UNL A   1      34.076  30.686  27.646  1.00  0.00     0.202 C 
ENDROOT
BRANCH   1   2
ATOM      2  O   UNL A   1      32.791  30.073  27.512  1.00  0.00    -0.374 OA
BRANCH   2   3
ATOM      3  C   UNL A   1      31.878  30.696  26.602  1.00  0.00     0.202 C 
BRANCH   3   4
ATOM      4  C   UNL A   1      31.782  30.012  25.238  1.00  0.00     0.261 C 
BRANCH   4   5
ATOM      5  O   UNL A   1      31.378  28.646  25.418  1.00  0.00    -0.460 OA
BRANCH   5   6
ATOM      6  C   UNL A   1      32.228  27.716  24.918  1.00  0.00     0.342 C 
ATOM      7  O   UNL A   1      33.425  27.650  25.181  1.00  0.00    -0.246 OA
BRANCH   6   8
ATOM      8  C   UNL A   1      31.575  26.657  24.171  1.00  0.00     0.111 A 
ATOM      9  C   UNL A   1      31.089  23.318  23.372  1.00  0.00     0.174 C 
ATOM     10  N   UNL A   1      31.040  24.761  23.285  1.00  0.00    -0.262 N 
ATOM     11  N   UNL A   1      29.843  25.322  23.564  1.00  0.00    -0.180 NA
ATOM     12  C   UNL A   1      32.085  25.669  23.312  1.00  0.00     0.140 A 
ATOM     13  C   UNL A   1      30.188  26.414  24.237  1.00  0.00     0.151 A 
BRANCH  12  14
ATOM     14  C   UNL A   1      33.451  25.540  22.834  1.00  0.00     0.275 C 
ATOM     15  O   UNL A   1      33.839  26.181  21.855  1.00  0.00    -0.267 OA
ATOM     16  N   UNL A   1      34.423  24.805  23.458  1.00  0.00    -0.305 N 
ATOM     17  H   UNL A   1      35.322  24.999  23.105  1.00  0.00     0.171 HD
BRANCH  16  18
ATOM     18  C   UNL A   1      34.448  23.855  24.465  1.00  0.00     0.132 A 
ATOM     19  C   UNL A   1      34.134  24.112  25.790  1.00  0.00     0.047 A 
ATOM     20  N   UNL A   1      34.850  22.643  24.032  1.00  0.00    -0.239 NA
ATOM     21  C   UNL A   1      34.327  23.087  26.722  1.00  0.00     0.005 A 
ATOM     22  C   UNL A   1      35.057  21.680  24.953  1.00  0.00     0.113 A 
ATOM     23  C   UNL A   1      34.827  21.858  26.303  1.00  0.00     0.020 A 
ENDBRANCH  16  18
ENDBRANCH  12  14
ENDBRANCH   6   8
ENDBRANCH   5   6
ENDBRANCH   4   5
ENDBRANCH   3   4
ENDBRANCH   2   3
ENDBRANCH   1   2
BRANCH   1  24
ATOM     24  C   UNL A   1      35.260  29.718  27.718  1.00  0.00     0.261 C 
BRANCH  24  25
ATOM     25  O   UNL A   1      36.430  30.365  28.250  1.00  0.00    -0.460 OA
BRANCH  25  26
ATOM     26  C   UNL A   1      37.075  29.674  29.220  1.00  0.00     0.338 C 
ATOM     27  O   UNL A   1      36.617  29.317  30.292  1.00  0.00    -0.246 OA
BRANCH  26  28
ATOM     28  C   UNL A   1      38.396  29.231  28.729  1.00  0.00     0.060 A 
ATOM     29  C   UNL A   1      39.285  28.702  29.674  1.00  0.00     0.016 A 
ATOM     30  C   UNL A   1      38.784  29.368  27.394  1.00  0.00     0.016 A 
ATOM     31  C   UNL A   1      40.581  28.357  29.299  1.00  0.00     0.010 A 
ATOM     32  C   UNL A   1      40.090  29.032  27.021  1.00  0.00     0.010 A 
ATOM     33  C   UNL A   1      41.004  28.558  27.979  1.00  0.00    -0.014 A 
BRANCH  33  34
ATOM     34  C   UNL A   1      42.442  28.412  27.649  1.00  0.00     0.031 A 
ATOM     35  C   UNL A   1      43.361  29.584  27.868  1.00  0.00     0.074 A 
ATOM     36  C   UNL A   1      42.932  27.242  27.202  1.00  0.00     0.049 A 
ATOM     37  N   UNL A   1      44.650  29.674  27.661  1.00  0.00    -0.248 NA
ATOM     38  C   UNL A   1      42.747  30.814  28.394  1.00  0.00     0.031 C 
ATOM     39  C   UNL A   1      42.152  26.025  26.985  1.00  0.00     0.029 A 
ATOM     40  N   UNL A   1      44.211  26.890  26.849  1.00  0.00    -0.354 N 
ATOM     41  C   UNL A   1      45.001  30.967  28.030  1.00  0.00     0.074 A 
ATOM     42  C   UNL A   1      43.787  31.633  28.449  1.00  0.00     0.031 C 
ATOM     43  C   UNL A   1      42.970  25.058  26.532  1.00  0.00     0.029 A 
ATOM     44  C   UNL A   1      44.324  25.595  26.403  1.00  0.00     0.049 A 
ATOM     45  H   UNL A   1      44.976  27.507  26.912  1.00  0.00     0.167 HD
ATOM     46  C   UNL A   1      46.224  31.547  28.027  1.00  0.00     0.031 A 
ATOM     47  C   UNL A   1      45.393  24.926  25.930  1.00  0.00     0.031 A 
ATOM     48  C   UNL A   1      47.430  30.892  27.596  1.00  0.00     0.049 A 
ATOM     49  C   UNL A   1      46.731  25.615  25.868  1.00  0.00     0.074 A 
ATOM     50  C   UNL A   1      48.720  31.394  27.565  1.00  0.00     0.029 A 
ATOM     51  N   UNL A   1      47.494  29.595  27.112  1.00  0.00    -0.354 N 
ATOM     52  N   UNL A   1      47.050  26.831  26.245  1.00  0.00    -0.248 NA
ATOM     53  C   UNL A   1      47.853  24.840  25.319  1.00  0.00     0.031 C 
ATOM     54  C   UNL A   1      49.556  30.415  27.018  1.00  0.00     0.029 A 
ATOM     55  C   UNL A   1      48.795  29.288  26.754  1.00  0.00     0.049 A 
ATOM     56  H   UNL A   1      46.727  28.983  27.032  1.00  0.00     0.167 HD
ATOM     57  C   UNL A   1      48.414  26.958  25.999  1.00  0.00     0.074 A 
ATOM     58  C   UNL A   1      48.861  25.693  25.452  1.00  0.00     0.031 C 
ATOM     59  C   UNL A   1      49.223  28.025  26.207  1.00  0.00     0.031 A 
BRANCH  46  60
ATOM     60  C   UNL A   1      46.311  32.979  28.480  1.00  0.00    -0.014 A 
ATOM     61  C   UNL A   1      46.160  34.038  27.568  1.00  0.00     0.010 A 
ATOM     62  C   UNL A   1      46.517  33.267  29.841  1.00  0.00     0.010 A 
ATOM     63  C   UNL A   1      46.248  35.363  28.004  1.00  0.00     0.020 A 
ATOM     64  C   UNL A   1      46.585  34.591  30.284  1.00  0.00     0.020 A 
ATOM     65  C   UNL A   1      46.466  35.631  29.359  1.00  0.00     0.054 A 
BRANCH  65  66
ATOM     66  S   UNL A   1      46.562  37.358  29.904  1.00  0.00     0.124 S 
ATOM     67  O   UNL A   1      45.207  37.592  30.398  1.00  0.00    -0.237 OA
ATOM     68  O   UNL A   1      47.604  37.317  30.927  1.00  0.00    -0.237 OA
ATOM     69  O   UNL A   1      46.916  38.086  28.688  1.00  0.00    -0.744 OA
ENDBRANCH  65  66
ENDBRANCH  46  60
BRANCH  47  70
ATOM     70  C   UNL A   1      45.241  23.525  25.453  1.00  0.00    -0.014 A 
ATOM     71  C   UNL A   1      45.619  22.443  26.267  1.00  0.00     0.010 A 
ATOM     72  C   UNL A   1      44.719  23.269  24.172  1.00  0.00     0.010 A 
ATOM     73  C   UNL A   1      45.493  21.130  25.802  1.00  0.00     0.020 A 
ATOM     74  C   UNL A   1      44.570  21.958  23.713  1.00  0.00     0.020 A 
ATOM     75  C   UNL A   1      44.970  20.896  24.527  1.00  0.00     0.054 A 
BRANCH  75  76
ATOM     76  S   UNL A   1      44.771  19.184  23.957  1.00  0.00     0.124 S 
ATOM     77  O   UNL A   1      44.591  19.362  22.520  1.00  0.00    -0.237 OA
ATOM     78  O   UNL A   1      46.029  18.565  24.367  1.00  0.00    -0.237 OA
ATOM     79  O   UNL A   1      43.592  18.720  24.685  1.00  0.00    -0.744 OA
ENDBRANCH  75  76
ENDBRANCH  47  70
BRANCH  59  80
ATOM     80  C   UNL A   1      50.680  27.869  25.867  1.00  0.00    -0.014 A 
ATOM     81  C   UNL A   1      51.608  27.439  26.833  1.00  0.00     0.010 A 
ATOM     82  C   UNL A   1      51.117  28.099  24.549  1.00  0.00     0.010 A 
ATOM     83  C   UNL A   1      52.952  27.266  26.491  1.00  0.00     0.020 A 
ATOM     84  C   UNL A   1      52.456  27.905  24.200  1.00  0.00     0.020 A 
ATOM     85  C   UNL A   1      53.368  27.503  25.177  1.00  0.00     0.054 A 
BRANCH  85  86
ATOM     86  S   UNL A   1      55.108  27.226  24.745  1.00  0.00     0.124 S 
ATOM     87  O   UNL A   1      55.015  26.841  23.340  1.00  0.00    -0.237 OA
ATOM     88  O   UNL A   1      55.716  28.530  25.001  1.00  0.00    -0.237 OA
ATOM     89  O   UNL A   1      55.526  26.163  25.657  1.00  0.00    -0.744 OA
ENDBRANCH  85  86
ENDBRANCH  59  80
ENDBRANCH  33  34
ENDBRANCH  26  28
ENDBRANCH  25  26
ENDBRANCH  24  25
ENDBRANCH   1  24
TORSDOF 19
ENDMDL
