MODEL 1
REMARK VINA RESULT:     -10.4      0.000      0.000
REMARK SMILES CCCc1cc2c(cc1Cl)C=C(C(=O)OCCOCCOC(=O)c1ccc(-c3c4nc(c(-c5ccc(S(=O)(=O)[O-])cc5)c5ccc([nH]5)c(-c5ccc(S(=O)(=O)[O-])cc5)c5nc(c(-c6ccc(S(=O)(=O)[O-])cc6)c6ccc3[nH]6)C=C5)C=C4)cc1)[C@@H](C(F)(F)F)O2
REMARK SMILES IDX 19 1 18 2 17 3 16 4 15 5 13 6 14 7 12 8 4 9 5 10 9 11 6 12
REMARK SMILES IDX 8 13 10 14 7 15 89 16 11 17 84 18 3 19 2 20 1 21 85 22 86 23
REMARK SMILES IDX 87 24 88 25 20 26 21 27 22 28 23 29 24 30 25 31 83 32 26 33
REMARK SMILES IDX 82 34 27 35 28 36 29 37 76 38 30 39 81 40 75 41 77 42 31 43
REMARK SMILES IDX 80 44 74 45 73 46 32 48 62 49 43 50 61 51 44 52 47 53 60 54
REMARK SMILES IDX 78 55 45 56 46 57 59 59 79 60 48 61 33 62 34 63 42 64 35 65
REMARK SMILES IDX 41 66 36 67 37 68 38 69 39 70 40 71 63 72 64 73 72 74 65 75
REMARK SMILES IDX 71 76 66 77 67 78 68 79 69 80 70 81 49 82 50 83 58 84 51 85
REMARK SMILES IDX 57 86 52 87 53 88 54 89 55 90 56 91
REMARK H PARENT 77 47 47 58
REMARK Flexibility Score: inf
ROOT
ATOM      1  C   UNL A   1      36.414  20.690  25.153  1.00  0.00     0.202 C 
ENDROOT
BRANCH   1   2
ATOM      2  O   UNL A   1      35.081  21.180  25.018  1.00  0.00    -0.374 OA
BRANCH   2   3
ATOM      3  C   UNL A   1      34.397  21.622  26.189  1.00  0.00     0.202 C 
BRANCH   3   4
ATOM      4  C   UNL A   1      33.859  23.056  26.206  1.00  0.00     0.261 C 
BRANCH   4   5
ATOM      5  O   UNL A   1      32.439  23.103  26.015  1.00  0.00    -0.460 OA
BRANCH   5   6
ATOM      6  C   UNL A   1      32.052  23.175  24.721  1.00  0.00     0.338 C 
ATOM      7  O   UNL A   1      31.875  22.245  23.952  1.00  0.00    -0.246 OA
BRANCH   6   8
ATOM      8  C   UNL A   1      31.724  24.574  24.387  1.00  0.00     0.087 C 
ATOM      9  C   UNL A   1      29.289  28.705  22.899  1.00  0.00    -0.026 A 
ATOM     10  C   UNL A   1      30.635  28.320  23.005  1.00  0.00     0.052 A 
ATOM     11  C   UNL A   1      28.325  27.830  23.436  1.00  0.00     0.045 A 
ATOM     12  C   UNL A   1      31.010  27.111  23.589  1.00  0.00     0.128 A 
ATOM     13  C   UNL A   1      28.699  26.612  24.018  1.00  0.00     0.032 A 
ATOM     14  Cl  UNL A   1      26.627  28.162  23.371  1.00  0.00    -0.084 Cl
ATOM     15  C   UNL A   1      30.042  26.235  24.062  1.00  0.00     0.019 A 
ATOM     16  O   UNL A   1      32.351  26.866  23.639  1.00  0.00    -0.475 OA
ATOM     17  C   UNL A   1      30.432  24.911  24.501  1.00  0.00     0.027 C 
ATOM     18  C   UNL A   1      32.808  25.521  23.948  1.00  0.00     0.316 C 
BRANCH   9  19
ATOM     19  C   UNL A   1      28.908  29.943  22.110  1.00  0.00     0.037 C 
BRANCH  19  20
ATOM     20  C   UNL A   1      28.864  31.292  22.846  1.00  0.00     0.001 C 
ATOM     21  C   UNL A   1      27.564  31.598  23.581  1.00  0.00     0.004 C 
ENDBRANCH  19  20
ENDBRANCH   9  19
BRANCH  18  22
ATOM     22  C   UNL A   1      33.608  25.004  22.743  1.00  0.00     0.430 C 
ATOM     23  F   UNL A   1      34.639  24.222  23.144  1.00  0.00    -0.167 F 
ATOM     24  F   UNL A   1      32.846  24.254  21.916  1.00  0.00    -0.167 F 
ATOM     25  F   UNL A   1      34.127  26.019  22.015  1.00  0.00    -0.167 F 
ENDBRANCH  18  22
ENDBRANCH   6   8
ENDBRANCH   5   6
ENDBRANCH   4   5
ENDBRANCH   3   4
ENDBRANCH   2   3
ENDBRANCH   1   2
BRANCH   1  26
ATOM     26  C   UNL A   1      37.582  21.603  24.761  1.00  0.00     0.261 C 
BRANCH  26  27
ATOM     27  O   UNL A   1      37.839  22.630  25.734  1.00  0.00    -0.460 OA
BRANCH  27  28
ATOM     28  C   UNL A   1      39.117  22.679  26.186  1.00  0.00     0.338 C 
ATOM     29  O   UNL A   1      40.001  21.858  25.991  1.00  0.00    -0.246 OA
BRANCH  28  30
ATOM     30  C   UNL A   1      39.365  24.000  26.788  1.00  0.00     0.060 A 
ATOM     31  C   UNL A   1      38.925  24.300  28.078  1.00  0.00     0.016 A 
ATOM     32  C   UNL A   1      40.097  24.938  26.047  1.00  0.00     0.016 A 
ATOM     33  C   UNL A   1      39.245  25.541  28.635  1.00  0.00     0.010 A 
ATOM     34  C   UNL A   1      40.410  26.176  26.604  1.00  0.00     0.010 A 
ATOM     35  C   UNL A   1      40.006  26.478  27.911  1.00  0.00    -0.014 A 
BRANCH  35  36
ATOM     36  C   UNL A   1      40.510  27.708  28.573  1.00  0.00     0.031 A 
ATOM     37  C   UNL A   1      41.923  27.813  29.063  1.00  0.00     0.074 A 
ATOM     38  C   UNL A   1      39.650  28.729  28.752  1.00  0.00     0.049 A 
ATOM     39  N   UNL A   1      42.520  28.840  29.611  1.00  0.00    -0.248 NA
ATOM     40  C   UNL A   1      42.775  26.622  28.926  1.00  0.00     0.031 C 
ATOM     41  C   UNL A   1      38.246  28.719  28.338  1.00  0.00     0.029 A 
ATOM     42  N   UNL A   1      39.823  29.969  29.314  1.00  0.00    -0.354 N 
ATOM     43  C   UNL A   1      43.821  28.430  29.867  1.00  0.00     0.074 A 
ATOM     44  C   UNL A   1      43.915  27.044  29.460  1.00  0.00     0.031 C 
ATOM     45  C   UNL A   1      37.698  29.909  28.622  1.00  0.00     0.029 A 
ATOM     46  C   UNL A   1      38.692  30.751  29.281  1.00  0.00     0.049 A 
ATOM     47  H   UNL A   1      40.676  30.270  29.704  1.00  0.00     0.167 HD
ATOM     48  C   UNL A   1      44.845  29.158  30.375  1.00  0.00     0.031 A 
ATOM     49  C   UNL A   1      38.474  32.007  29.723  1.00  0.00     0.031 A 
ATOM     50  C   UNL A   1      44.727  30.534  30.790  1.00  0.00     0.049 A 
ATOM     51  C   UNL A   1      39.612  32.774  30.333  1.00  0.00     0.074 A 
ATOM     52  C   UNL A   1      45.721  31.365  31.278  1.00  0.00     0.029 A 
ATOM     53  N   UNL A   1      43.557  31.279  30.779  1.00  0.00    -0.354 N 
ATOM     54  N   UNL A   1      40.861  32.401  30.488  1.00  0.00    -0.248 NA
ATOM     55  C   UNL A   1      39.327  34.134  30.812  1.00  0.00     0.031 C 
ATOM     56  C   UNL A   1      45.136  32.578  31.643  1.00  0.00     0.029 A 
ATOM     57  C   UNL A   1      43.796  32.544  31.293  1.00  0.00     0.049 A 
ATOM     58  H   UNL A   1      42.684  30.958  30.454  1.00  0.00     0.167 HD
ATOM     59  C   UNL A   1      41.513  33.486  31.063  1.00  0.00     0.074 A 
ATOM     60  C   UNL A   1      40.528  34.537  31.211  1.00  0.00     0.031 C 
ATOM     61  C   UNL A   1      42.812  33.592  31.435  1.00  0.00     0.031 A 
BRANCH  48  62
ATOM     62  C   UNL A   1      46.203  28.510  30.500  1.00  0.00    -0.014 A 
ATOM     63  C   UNL A   1      46.591  27.919  31.719  1.00  0.00     0.010 A 
ATOM     64  C   UNL A   1      47.152  28.627  29.469  1.00  0.00     0.010 A 
ATOM     65  C   UNL A   1      47.909  27.503  31.920  1.00  0.00     0.020 A 
ATOM     66  C   UNL A   1      48.464  28.182  29.654  1.00  0.00     0.020 A 
ATOM     67  C   UNL A   1      48.842  27.648  30.890  1.00  0.00     0.054 A 
BRANCH  67  68
ATOM     68  S   UNL A   1      50.562  27.154  31.189  1.00  0.00     0.124 S 
ATOM     69  O   UNL A   1      51.163  28.398  31.657  1.00  0.00    -0.237 OA
ATOM     70  O   UNL A   1      50.418  26.104  32.195  1.00  0.00    -0.237 OA
ATOM     71  O   UNL A   1      51.019  26.692  29.881  1.00  0.00    -0.744 OA
ENDBRANCH  67  68
ENDBRANCH  48  62
BRANCH  49  72
ATOM     72  C   UNL A   1      37.124  32.611  29.542  1.00  0.00    -0.014 A 
ATOM     73  C   UNL A   1      36.839  33.397  28.408  1.00  0.00     0.010 A 
ATOM     74  C   UNL A   1      36.150  32.495  30.550  1.00  0.00     0.010 A 
ATOM     75  C   UNL A   1      35.642  34.111  28.319  1.00  0.00     0.020 A 
ATOM     76  C   UNL A   1      34.935  33.180  30.447  1.00  0.00     0.020 A 
ATOM     77  C   UNL A   1      34.705  34.011  29.348  1.00  0.00     0.054 A 
BRANCH  77  78
ATOM     78  S   UNL A   1      33.195  35.011  29.248  1.00  0.00     0.124 S 
ATOM     79  O   UNL A   1      33.720  36.299  28.801  1.00  0.00    -0.237 OA
ATOM     80  O   UNL A   1      32.396  34.282  28.267  1.00  0.00    -0.237 OA
ATOM     81  O   UNL A   1      32.676  34.989  30.613  1.00  0.00    -0.744 OA
ENDBRANCH  77  78
ENDBRANCH  49  72
BRANCH  61  82
ATOM     82  C   UNL A   1      43.284  34.888  32.051  1.00  0.00    -0.014 A 
ATOM     83  C   UNL A   1      44.263  35.657  31.392  1.00  0.00     0.010 A 
ATOM     84  C   UNL A   1      42.893  35.253  33.350  1.00  0.00     0.010 A 
ATOM     85  C   UNL A   1      44.887  36.724  32.043  1.00  0.00     0.020 A 
ATOM     86  C   UNL A   1      43.489  36.341  33.993  1.00  0.00     0.020 A 
ATOM     87  C   UNL A   1      44.507  37.048  33.347  1.00  0.00     0.054 A 
BRANCH  87  88
ATOM     88  S   UNL A   1      45.391  38.378  34.207  1.00  0.00     0.124 S 
ATOM     89  O   UNL A   1      44.912  38.231  35.578  1.00  0.00    -0.237 OA
ATOM     90  O   UNL A   1      46.792  38.024  33.988  1.00  0.00    -0.237 OA
ATOM     91  O   UNL A   1      44.947  39.588  33.518  1.00  0.00    -0.744 OA
ENDBRANCH  87  88
ENDBRANCH  61  82
ENDBRANCH  35  36
ENDBRANCH  28  30
ENDBRANCH  27  28
ENDBRANCH  26  27
ENDBRANCH   1  26
TORSDOF 20
ENDMDL
MODEL 2
REMARK VINA RESULT:     -10.2      4.273     10.012
REMARK SMILES CCCc1cc2c(cc1Cl)C=C(C(=O)OCCOCCOC(=O)c1ccc(-c3c4nc(c(-c5ccc(S(=O)(=O)[O-])cc5)c5ccc([nH]5)c(-c5ccc(S(=O)(=O)[O-])cc5)c5nc(c(-c6ccc(S(=O)(=O)[O-])cc6)c6ccc3[nH]6)C=C5)C=C4)cc1)[C@@H](C(F)(F)F)O2
REMARK SMILES IDX 19 1 18 2 17 3 16 4 15 5 13 6 14 7 12 8 4 9 5 10 9 11 6 12
REMARK SMILES IDX 8 13 10 14 7 15 89 16 11 17 84 18 3 19 2 20 1 21 85 22 86 23
REMARK SMILES IDX 87 24 88 25 20 26 21 27 22 28 23 29 24 30 25 31 83 32 26 33
REMARK SMILES IDX 82 34 27 35 28 36 29 37 76 38 30 39 81 40 75 41 77 42 31 43
REMARK SMILES IDX 80 44 74 45 73 46 32 48 62 49 43 50 61 51 44 52 47 53 60 54
REMARK SMILES IDX 78 55 45 56 46 57 59 59 79 60 48 61 33 62 34 63 42 64 35 65
REMARK SMILES IDX 41 66 36 67 37 68 38 69 39 70 40 71 63 72 64 73 72 74 65 75
REMARK SMILES IDX 71 76 66 77 67 78 68 79 69 80 70 81 49 82 50 83 58 84 51 85
REMARK SMILES IDX 57 86 52 87 53 88 54 89 55 90 56 91
REMARK H PARENT 77 47 47 58
REMARK Flexibility Score: inf
ROOT
ATOM      1  C   UNL A   1      34.655  30.487  27.844  1.00  0.00     0.202 C 
ENDROOT
BRANCH   1   2
ATOM      2  O   UNL A   1      33.307  30.273  27.425  1.00  0.00    -0.374 OA
BRANCH   2   3
ATOM      3  C   UNL A   1      33.049  30.072  26.038  1.00  0.00     0.202 C 
BRANCH   3   4
ATOM      4  C   UNL A   1      32.581  28.684  25.589  1.00  0.00     0.261 C 
BRANCH   4   5
ATOM      5  O   UNL A   1      33.648  27.910  25.026  1.00  0.00    -0.460 OA
BRANCH   5   6
ATOM      6  C   UNL A   1      33.302  27.193  23.932  1.00  0.00     0.338 C 
ATOM      7  O   UNL A   1      33.152  27.610  22.795  1.00  0.00    -0.246 OA
BRANCH   6   8
ATOM      8  C   UNL A   1      33.263  25.760  24.280  1.00  0.00     0.087 C 
ATOM      9  C   UNL A   1      34.479  20.917  24.807  1.00  0.00    -0.026 A 
ATOM     10  C   UNL A   1      33.282  21.650  24.773  1.00  0.00     0.052 A 
ATOM     11  C   UNL A   1      35.682  21.649  24.833  1.00  0.00     0.045 A 
ATOM     12  C   UNL A   1      33.275  23.045  24.736  1.00  0.00     0.128 A 
ATOM     13  C   UNL A   1      35.677  23.050  24.790  1.00  0.00     0.032 A 
ATOM     14  Cl  UNL A   1      37.236  20.886  24.863  1.00  0.00    -0.084 Cl
ATOM     15  C   UNL A   1      34.472  23.747  24.705  1.00  0.00     0.019 A 
ATOM     16  O   UNL A   1      32.044  23.632  24.719  1.00  0.00    -0.475 OA
ATOM     17  C   UNL A   1      34.452  25.180  24.487  1.00  0.00     0.027 C 
ATOM     18  C   UNL A   1      31.944  25.042  24.380  1.00  0.00     0.316 C 
BRANCH   9  19
ATOM     19  C   UNL A   1      34.453  19.407  24.676  1.00  0.00     0.037 C 
BRANCH  19  20
ATOM     20  C   UNL A   1      33.212  18.749  24.052  1.00  0.00     0.001 C 
ATOM     21  C   UNL A   1      33.413  17.333  23.526  1.00  0.00     0.004 C 
ENDBRANCH  19  20
ENDBRANCH   9  19
BRANCH  18  22
ATOM     22  C   UNL A   1      31.094  25.163  23.106  1.00  0.00     0.430 C 
ATOM     23  F   UNL A   1      31.873  25.133  21.998  1.00  0.00    -0.167 F 
ATOM     24  F   UNL A   1      30.210  24.147  22.991  1.00  0.00    -0.167 F 
ATOM     25  F   UNL A   1      30.394  26.320  23.079  1.00  0.00    -0.167 F 
ENDBRANCH  18  22
ENDBRANCH   6   8
ENDBRANCH   5   6
ENDBRANCH   4   5
ENDBRANCH   3   4
ENDBRANCH   2   3
ENDBRANCH   1   2
BRANCH   1  26
ATOM     26  C   UNL A   1      35.021  31.819  28.509  1.00  0.00     0.261 C 
BRANCH  26  27
ATOM     27  O   UNL A   1      36.435  31.966  28.724  1.00  0.00    -0.460 OA
BRANCH  27  28
ATOM     28  C   UNL A   1      36.914  31.332  29.824  1.00  0.00     0.338 C 
ATOM     29  O   UNL A   1      36.356  31.208  30.904  1.00  0.00    -0.246 OA
BRANCH  28  30
ATOM     30  C   UNL A   1      38.147  30.611  29.466  1.00  0.00     0.060 A 
ATOM     31  C   UNL A   1      38.311  30.043  28.203  1.00  0.00     0.016 A 
ATOM     32  C   UNL A   1      39.175  30.547  30.417  1.00  0.00     0.016 A 
ATOM     33  C   UNL A   1      39.526  29.430  27.884  1.00  0.00     0.010 A 
ATOM     34  C   UNL A   1      40.384  29.932  30.098  1.00  0.00     0.010 A 
ATOM     35  C   UNL A   1      40.576  29.389  28.820  1.00  0.00    -0.014 A 
BRANCH  35  36
ATOM     36  C   UNL A   1      41.924  28.917  28.416  1.00  0.00     0.031 A 
ATOM     37  C   UNL A   1      42.182  27.480  28.071  1.00  0.00     0.074 A 
ATOM     38  C   UNL A   1      42.930  29.813  28.394  1.00  0.00     0.049 A 
ATOM     39  N   UNL A   1      43.292  26.931  27.651  1.00  0.00    -0.248 NA
ATOM     40  C   UNL A   1      41.061  26.540  28.217  1.00  0.00     0.031 C 
ATOM     41  C   UNL A   1      42.792  31.228  28.740  1.00  0.00     0.029 A 
ATOM     42  N   UNL A   1      44.255  29.677  28.064  1.00  0.00    -0.354 N 
ATOM     43  C   UNL A   1      43.003  25.587  27.461  1.00  0.00     0.074 A 
ATOM     44  C   UNL A   1      41.625  25.392  27.860  1.00  0.00     0.031 C 
ATOM     45  C   UNL A   1      43.973  31.838  28.563  1.00  0.00     0.029 A 
ATOM     46  C   UNL A   1      44.964  30.853  28.139  1.00  0.00     0.049 A 
ATOM     47  H   UNL A   1      44.659  28.819  27.798  1.00  0.00     0.167 HD
ATOM     48  C   UNL A   1      43.812  24.615  26.977  1.00  0.00     0.031 A 
ATOM     49  C   UNL A   1      46.264  31.118  27.892  1.00  0.00     0.031 A 
ATOM     50  C   UNL A   1      45.188  24.826  26.600  1.00  0.00     0.049 A 
ATOM     51  C   UNL A   1      47.155  30.010  27.407  1.00  0.00     0.074 A 
ATOM     52  C   UNL A   1      46.075  23.909  26.060  1.00  0.00     0.029 A 
ATOM     53  N   UNL A   1      45.883  26.021  26.729  1.00  0.00    -0.354 N 
ATOM     54  N   UNL A   1      46.843  28.761  27.150  1.00  0.00    -0.248 NA
ATOM     55  C   UNL A   1      48.566  30.340  27.161  1.00  0.00     0.031 C 
ATOM     56  C   UNL A   1      47.323  24.523  25.946  1.00  0.00     0.029 A 
ATOM     57  C   UNL A   1      47.197  25.852  26.321  1.00  0.00     0.049 A 
ATOM     58  H   UNL A   1      45.500  26.865  27.061  1.00  0.00     0.167 HD
ATOM     59  C   UNL A   1      48.011  28.164  26.693  1.00  0.00     0.074 A 
ATOM     60  C   UNL A   1      49.033  29.190  26.690  1.00  0.00     0.031 C 
ATOM     61  C   UNL A   1      48.213  26.878  26.314  1.00  0.00     0.031 A 
BRANCH  48  62
ATOM     62  C   UNL A   1      43.249  23.226  26.794  1.00  0.00    -0.014 A 
ATOM     63  C   UNL A   1      43.037  22.400  27.914  1.00  0.00     0.010 A 
ATOM     64  C   UNL A   1      43.083  22.683  25.507  1.00  0.00     0.010 A 
ATOM     65  C   UNL A   1      42.716  21.049  27.752  1.00  0.00     0.020 A 
ATOM     66  C   UNL A   1      42.730  21.341  25.340  1.00  0.00     0.020 A 
ATOM     67  C   UNL A   1      42.577  20.525  26.465  1.00  0.00     0.054 A 
BRANCH  67  68
ATOM     68  S   UNL A   1      42.217  18.757  26.274  1.00  0.00     0.124 S 
ATOM     69  O   UNL A   1      43.210  18.344  25.288  1.00  0.00    -0.237 OA
ATOM     70  O   UNL A   1      42.419  18.245  27.627  1.00  0.00    -0.237 OA
ATOM     71  O   UNL A   1      40.831  18.737  25.811  1.00  0.00    -0.744 OA
ENDBRANCH  67  68
ENDBRANCH  48  62
BRANCH  49  72
ATOM     72  C   UNL A   1      46.759  32.514  28.054  1.00  0.00    -0.014 A 
ATOM     73  C   UNL A   1      46.741  33.409  26.967  1.00  0.00     0.010 A 
ATOM     74  C   UNL A   1      47.349  32.924  29.263  1.00  0.00     0.010 A 
ATOM     75  C   UNL A   1      47.366  34.655  27.061  1.00  0.00     0.020 A 
ATOM     76  C   UNL A   1      47.944  34.185  29.372  1.00  0.00     0.020 A 
ATOM     77  C   UNL A   1      47.979  35.028  28.259  1.00  0.00     0.054 A 
BRANCH  77  78
ATOM     78  S   UNL A   1      48.853  36.615  28.329  1.00  0.00     0.124 S 
ATOM     79  O   UNL A   1      50.016  36.353  27.486  1.00  0.00    -0.237 OA
ATOM     80  O   UNL A   1      47.871  37.543  27.776  1.00  0.00    -0.237 OA
ATOM     81  O   UNL A   1      49.139  36.787  29.751  1.00  0.00    -0.744 OA
ENDBRANCH  77  78
ENDBRANCH  49  72
BRANCH  61  82
ATOM     82  C   UNL A   1      49.592  26.466  25.857  1.00  0.00    -0.014 A 
ATOM     83  C   UNL A   1      50.458  25.813  26.755  1.00  0.00     0.010 A 
ATOM     84  C   UNL A   1      50.089  26.878  24.608  1.00  0.00     0.010 A 
ATOM     85  C   UNL A   1      51.808  25.638  26.440  1.00  0.00     0.020 A 
ATOM     86  C   UNL A   1      51.431  26.673  24.275  1.00  0.00     0.020 A 
ATOM     87  C   UNL A   1      52.289  26.085  25.208  1.00  0.00     0.054 A 
BRANCH  87  88
ATOM     88  S   UNL A   1      54.062  25.928  24.856  1.00  0.00     0.124 S 
ATOM     89  O   UNL A   1      54.282  24.494  25.011  1.00  0.00    -0.237 OA
ATOM     90  O   UNL A   1      54.161  26.436  23.489  1.00  0.00    -0.237 OA
ATOM     91  O   UNL A   1      54.691  26.770  25.872  1.00  0.00    -0.744 OA
ENDBRANCH  87  88
ENDBRANCH  61  82
ENDBRANCH  35  36
ENDBRANCH  28  30
ENDBRANCH  27  28
ENDBRANCH  26  27
ENDBRANCH   1  26
TORSDOF 20
ENDMDL
MODEL 3
REMARK VINA RESULT:     -10.2      4.655      9.686
REMARK SMILES CCCc1cc2c(cc1Cl)C=C(C(=O)OCCOCCOC(=O)c1ccc(-c3c4nc(c(-c5ccc(S(=O)(=O)[O-])cc5)c5ccc([nH]5)c(-c5ccc(S(=O)(=O)[O-])cc5)c5nc(c(-c6ccc(S(=O)(=O)[O-])cc6)c6ccc3[nH]6)C=C5)C=C4)cc1)[C@@H](C(F)(F)F)O2
REMARK SMILES IDX 19 1 18 2 17 3 16 4 15 5 13 6 14 7 12 8 4 9 5 10 9 11 6 12
REMARK SMILES IDX 8 13 10 14 7 15 89 16 11 17 84 18 3 19 2 20 1 21 85 22 86 23
REMARK SMILES IDX 87 24 88 25 20 26 21 27 22 28 23 29 24 30 25 31 83 32 26 33
REMARK SMILES IDX 82 34 27 35 28 36 29 37 76 38 30 39 81 40 75 41 77 42 31 43
REMARK SMILES IDX 80 44 74 45 73 46 32 48 62 49 43 50 61 51 44 52 47 53 60 54
REMARK SMILES IDX 78 55 45 56 46 57 59 59 79 60 48 61 33 62 34 63 42 64 35 65
REMARK SMILES IDX 41 66 36 67 37 68 38 69 39 70 40 71 63 72 64 73 72 74 65 75
REMARK SMILES IDX 71 76 66 77 67 78 68 79 69 80 70 81 49 82 50 83 58 84 51 85
REMARK SMILES IDX 57 86 52 87 53 88 54 89 55 90 56 91
REMARK H PARENT 77 47 47 58
REMARK Flexibility Score: inf
ROOT
ATOM      1  C   UNL A   1      34.155  30.860  27.512  1.00  0.00     0.202 C 
ENDROOT
BRANCH   1   2
ATOM      2  O   UNL A   1      33.746  29.639  26.898  1.00  0.00    -0.374 OA
BRANCH   2   3
ATOM      3  C   UNL A   1      33.252  29.680  25.561  1.00  0.00     0.202 C 
BRANCH   3   4
ATOM      4  C   UNL A   1      32.695  28.385  24.961  1.00  0.00     0.261 C 
BRANCH   4   5
ATOM      5  O   UNL A   1      33.153  27.224  25.666  1.00  0.00    -0.460 OA
BRANCH   5   6
ATOM      6  C   UNL A   1      32.208  26.624  26.426  1.00  0.00     0.338 C 
ATOM      7  O   UNL A   1      31.495  27.148  27.266  1.00  0.00    -0.246 OA
BRANCH   6   8
ATOM      8  C   UNL A   1      32.050  25.223  25.992  1.00  0.00     0.087 C 
ATOM      9  C   UNL A   1      32.989  20.594  24.289  1.00  0.00    -0.026 A 
ATOM     10  C   UNL A   1      31.861  21.426  24.355  1.00  0.00     0.052 A 
ATOM     11  C   UNL A   1      34.153  21.034  24.950  1.00  0.00     0.045 A 
ATOM     12  C   UNL A   1      31.889  22.652  25.019  1.00  0.00     0.128 A 
ATOM     13  C   UNL A   1      34.185  22.268  25.613  1.00  0.00     0.032 A 
ATOM     14  Cl  UNL A   1      35.626  20.124  24.947  1.00  0.00    -0.084 Cl
ATOM     15  C   UNL A   1      33.062  23.095  25.616  1.00  0.00     0.019 A 
ATOM     16  O   UNL A   1      30.720  23.355  25.019  1.00  0.00    -0.475 OA
ATOM     17  C   UNL A   1      33.128  24.442  26.145  1.00  0.00     0.027 C 
ATOM     18  C   UNL A   1      30.741  24.753  25.417  1.00  0.00     0.316 C 
BRANCH   9  19
ATOM     19  C   UNL A   1      32.973  19.352  23.419  1.00  0.00     0.037 C 
BRANCH  19  20
ATOM     20  C   UNL A   1      33.169  17.986  24.095  1.00  0.00     0.001 C 
ATOM     21  C   UNL A   1      34.065  17.006  23.346  1.00  0.00     0.004 C 
ENDBRANCH  19  20
ENDBRANCH   9  19
BRANCH  18  22
ATOM     22  C   UNL A   1      30.273  25.594  24.219  1.00  0.00     0.430 C 
ATOM     23  F   UNL A   1      29.429  24.886  23.430  1.00  0.00    -0.167 F 
ATOM     24  F   UNL A   1      29.606  26.702  24.611  1.00  0.00    -0.167 F 
ATOM     25  F   UNL A   1      31.313  25.991  23.450  1.00  0.00    -0.167 F 
ENDBRANCH  18  22
ENDBRANCH   6   8
ENDBRANCH   5   6
ENDBRANCH   4   5
ENDBRANCH   3   4
ENDBRANCH   2   3
ENDBRANCH   1   2
BRANCH   1  26
ATOM     26  C   UNL A   1      33.135  31.997  27.651  1.00  0.00     0.261 C 
BRANCH  26  27
ATOM     27  O   UNL A   1      33.748  33.297  27.682  1.00  0.00    -0.460 OA
BRANCH  27  28
ATOM     28  C   UNL A   1      33.599  33.970  28.850  1.00  0.00     0.338 C 
ATOM     29  O   UNL A   1      32.621  34.606  29.216  1.00  0.00    -0.246 OA
BRANCH  28  30
ATOM     30  C   UNL A   1      34.729  33.650  29.739  1.00  0.00     0.060 A 
ATOM     31  C   UNL A   1      34.585  32.749  30.795  1.00  0.00     0.016 A 
ATOM     32  C   UNL A   1      35.971  34.241  29.469  1.00  0.00     0.016 A 
ATOM     33  C   UNL A   1      35.702  32.421  31.567  1.00  0.00     0.010 A 
ATOM     34  C   UNL A   1      37.082  33.915  30.244  1.00  0.00     0.010 A 
ATOM     35  C   UNL A   1      36.960  32.985  31.285  1.00  0.00    -0.014 A 
BRANCH  35  36
ATOM     36  C   UNL A   1      38.177  32.489  31.976  1.00  0.00     0.031 A 
ATOM     37  C   UNL A   1      38.490  32.877  33.390  1.00  0.00     0.074 A 
ATOM     38  C   UNL A   1      39.020  31.697  31.285  1.00  0.00     0.049 A 
ATOM     39  N   UNL A   1      39.485  32.482  34.141  1.00  0.00    -0.248 NA
ATOM     40  C   UNL A   1      37.579  33.826  34.047  1.00  0.00     0.031 C 
ATOM     41  C   UNL A   1      38.824  31.283  29.895  1.00  0.00     0.029 A 
ATOM     42  N   UNL A   1      40.197  31.093  31.651  1.00  0.00    -0.354 N 
ATOM     43  C   UNL A   1      39.313  33.115  35.364  1.00  0.00     0.074 A 
ATOM     44  C   UNL A   1      38.145  33.961  35.240  1.00  0.00     0.031 C 
ATOM     45  C   UNL A   1      39.822  30.461  29.539  1.00  0.00     0.029 A 
ATOM     46  C   UNL A   1      40.754  30.325  30.654  1.00  0.00     0.049 A 
ATOM     47  H   UNL A   1      40.604  31.199  32.542  1.00  0.00     0.167 HD
ATOM     48  C   UNL A   1      40.054  32.980  36.490  1.00  0.00     0.031 A 
ATOM     49  C   UNL A   1      41.884  29.589  30.635  1.00  0.00     0.031 A 
ATOM     50  C   UNL A   1      41.226  32.145  36.588  1.00  0.00     0.049 A 
ATOM     51  C   UNL A   1      42.718  29.499  31.881  1.00  0.00     0.074 A 
ATOM     52  C   UNL A   1      42.017  31.914  37.701  1.00  0.00     0.029 A 
ATOM     53  N   UNL A   1      41.782  31.415  35.548  1.00  0.00    -0.354 N 
ATOM     54  N   UNL A   1      42.494  30.036  33.057  1.00  0.00    -0.248 NA
ATOM     55  C   UNL A   1      43.947  28.695  31.812  1.00  0.00     0.031 C 
ATOM     56  C   UNL A   1      43.096  31.119  37.313  1.00  0.00     0.029 A 
ATOM     57  C   UNL A   1      42.929  30.770  35.982  1.00  0.00     0.049 A 
ATOM     58  H   UNL A   1      41.416  31.362  34.635  1.00  0.00     0.167 HD
ATOM     59  C   UNL A   1      43.540  29.618  33.872  1.00  0.00     0.074 A 
ATOM     60  C   UNL A   1      44.388  28.769  33.062  1.00  0.00     0.031 C 
ATOM     61  C   UNL A   1      43.771  29.919  35.173  1.00  0.00     0.031 A 
BRANCH  48  62
ATOM     62  C   UNL A   1      39.629  33.727  37.731  1.00  0.00    -0.014 A 
ATOM     63  C   UNL A   1      40.067  35.050  37.942  1.00  0.00     0.010 A 
ATOM     64  C   UNL A   1      38.935  33.069  38.762  1.00  0.00     0.010 A 
ATOM     65  C   UNL A   1      39.859  35.681  39.171  1.00  0.00     0.020 A 
ATOM     66  C   UNL A   1      38.696  33.708  39.982  1.00  0.00     0.020 A 
ATOM     67  C   UNL A   1      39.185  35.001  40.189  1.00  0.00     0.054 A 
BRANCH  67  68
ATOM     68  S   UNL A   1      38.976  35.816  41.796  1.00  0.00     0.124 S 
ATOM     69  O   UNL A   1      39.205  37.218  41.464  1.00  0.00    -0.237 OA
ATOM     70  O   UNL A   1      37.602  35.466  42.151  1.00  0.00    -0.237 OA
ATOM     71  O   UNL A   1      40.002  35.195  42.631  1.00  0.00    -0.744 OA
ENDBRANCH  67  68
ENDBRANCH  48  62
BRANCH  49  72
ATOM     72  C   UNL A   1      42.238  28.843  29.394  1.00  0.00    -0.014 A 
ATOM     73  C   UNL A   1      42.880  29.499  28.325  1.00  0.00     0.010 A 
ATOM     74  C   UNL A   1      41.840  27.505  29.230  1.00  0.00     0.010 A 
ATOM     75  C   UNL A   1      43.051  28.858  27.097  1.00  0.00     0.020 A 
ATOM     76  C   UNL A   1      42.043  26.847  28.012  1.00  0.00     0.020 A 
ATOM     77  C   UNL A   1      42.615  27.540  26.943  1.00  0.00     0.054 A 
BRANCH  77  78
ATOM     78  S   UNL A   1      42.775  26.757  25.315  1.00  0.00     0.124 S 
ATOM     79  O   UNL A   1      44.038  26.035  25.453  1.00  0.00    -0.237 OA
ATOM     80  O   UNL A   1      41.578  25.924  25.245  1.00  0.00    -0.237 OA
ATOM     81  O   UNL A   1      42.801  27.888  24.391  1.00  0.00    -0.744 OA
ENDBRANCH  77  78
ENDBRANCH  49  72
BRANCH  61  82
ATOM     82  C   UNL A   1      44.995  29.340  35.842  1.00  0.00    -0.014 A 
ATOM     83  C   UNL A   1      44.891  28.131  36.558  1.00  0.00     0.010 A 
ATOM     84  C   UNL A   1      46.193  30.072  35.911  1.00  0.00     0.010 A 
ATOM     85  C   UNL A   1      45.936  27.699  37.379  1.00  0.00     0.020 A 
ATOM     86  C   UNL A   1      47.254  29.625  36.704  1.00  0.00     0.020 A 
ATOM     87  C   UNL A   1      47.104  28.459  37.460  1.00  0.00     0.054 A 
BRANCH  87  88
ATOM     88  S   UNL A   1      48.413  27.929  38.599  1.00  0.00     0.124 S 
ATOM     89  O   UNL A   1      49.596  28.566  38.029  1.00  0.00    -0.237 OA
ATOM     90  O   UNL A   1      47.961  28.471  39.879  1.00  0.00    -0.237 OA
ATOM     91  O   UNL A   1      48.382  26.471  38.504  1.00  0.00    -0.744 OA
ENDBRANCH  87  88
ENDBRANCH  61  82
ENDBRANCH  35  36
ENDBRANCH  28  30
ENDBRANCH  27  28
ENDBRANCH  26  27
ENDBRANCH   1  26
TORSDOF 20
ENDMDL
