MODEL 1
REMARK VINA RESULT:      -9.9      0.000      0.000
REMARK SMILES CC1(C)[C@@H](C(=O)OCCOCCOC(=O)c2ccc(-c3c4nc(c(-c5ccc(S(=O)(=O)[O-])cc5)c5ccc([nH]5)c(-c5ccc(S(=O)(=O)[O-])cc5)c5nc(c(-c6ccc(S(=O)(=O)[O-])cc6)c6ccc3[nH]6)C=C5)C=C4)cc2)CC[C@@]1(C)C(N)=O
REMARK SMILES IDX 11 1 10 2 9 3 8 4 7 5 5 6 6 7 4 8 1 9 2 10 3 11 78 12 76 13
REMARK SMILES IDX 77 14 79 15 80 16 81 17 82 18 12 21 13 22 14 23 15 24 16 25
REMARK SMILES IDX 17 26 75 27 18 28 74 29 19 30 20 31 21 32 68 33 22 34 73 35
REMARK SMILES IDX 67 36 69 37 23 38 72 39 66 40 65 41 24 43 54 44 35 45 53 46
REMARK SMILES IDX 36 47 39 48 52 49 70 50 37 51 38 52 51 54 71 55 40 56 25 57
REMARK SMILES IDX 26 58 34 59 27 60 33 61 28 62 29 63 30 64 31 65 32 66 55 67
REMARK SMILES IDX 56 68 64 69 57 70 63 71 58 72 59 73 60 74 61 75 62 76 41 77
REMARK SMILES IDX 42 78 50 79 43 80 49 81 44 82 45 83 46 84 47 85 48 86
REMARK H PARENT 81 19 81 20 69 42 39 53
REMARK Flexibility Score: inf
ROOT
ATOM      1  C   UNL A   1      31.803  29.489  26.426  1.00  0.00     0.202 C 
ENDROOT
BRANCH   1   2
ATOM      2  O   UNL A   1      32.095  28.296  25.719  1.00  0.00    -0.374 OA
BRANCH   2   3
ATOM      3  C   UNL A   1      31.078  27.665  24.955  1.00  0.00     0.202 C 
BRANCH   3   4
ATOM      4  C   UNL A   1      30.597  26.251  25.292  1.00  0.00     0.261 C 
BRANCH   4   5
ATOM      5  O   UNL A   1      31.300  25.592  26.364  1.00  0.00    -0.463 OA
BRANCH   5   6
ATOM      6  C   UNL A   1      31.608  24.296  26.089  1.00  0.00     0.309 C 
ATOM      7  O   UNL A   1      30.763  23.450  25.806  1.00  0.00    -0.252 OA
BRANCH   6   8
ATOM      8  C   UNL A   1      33.088  23.965  26.263  1.00  0.00     0.106 C 
ATOM      9  C   UNL A   1      34.247  25.814  24.758  1.00  0.00     0.013 C 
ATOM     10  C   UNL A   1      34.170  24.354  25.202  1.00  0.00    -0.008 C 
ATOM     11  C   UNL A   1      35.565  24.129  25.878  1.00  0.00     0.013 C 
ATOM     12  C   UNL A   1      33.914  23.360  24.004  1.00  0.00     0.052 C 
ATOM     13  C   UNL A   1      33.156  22.426  26.191  1.00  0.00     0.017 C 
ATOM     14  C   UNL A   1      33.322  22.099  24.694  1.00  0.00     0.018 C 
ATOM     15  C   UNL A   1      35.209  22.969  23.259  1.00  0.00     0.022 C 
BRANCH  12  16
ATOM     16  C   UNL A   1      33.009  23.968  22.883  1.00  0.00     0.223 C 
ATOM     17  N   UNL A   1      31.676  23.739  22.886  1.00  0.00    -0.369 N 
ATOM     18  O   UNL A   1      33.450  24.732  22.021  1.00  0.00    -0.275 OA
ATOM     19  H   UNL A   1      31.282  23.135  23.556  1.00  0.00     0.159 HD
ATOM     20  H   UNL A   1      31.101  24.174  22.216  1.00  0.00     0.159 HD
ENDBRANCH  12  16
ENDBRANCH   6   8
ENDBRANCH   5   6
ENDBRANCH   4   5
ENDBRANCH   3   4
ENDBRANCH   2   3
ENDBRANCH   1   2
BRANCH   1  21
ATOM     21  C   UNL A   1      32.909  30.463  26.859  1.00  0.00     0.261 C 
BRANCH  21  22
ATOM     22  O   UNL A   1      33.969  29.911  27.609  1.00  0.00    -0.460 OA
BRANCH  22  23
ATOM     23  C   UNL A   1      34.693  30.835  28.280  1.00  0.00     0.338 C 
ATOM     24  O   UNL A   1      34.320  31.874  28.774  1.00  0.00    -0.246 OA
BRANCH  23  25
ATOM     25  C   UNL A   1      36.022  30.240  28.425  1.00  0.00     0.060 A 
ATOM     26  C   UNL A   1      36.358  29.676  29.658  1.00  0.00     0.016 A 
ATOM     27  C   UNL A   1      36.884  30.189  27.326  1.00  0.00     0.016 A 
ATOM     28  C   UNL A   1      37.603  29.090  29.810  1.00  0.00     0.010 A 
ATOM     29  C   UNL A   1      38.131  29.605  27.482  1.00  0.00     0.010 A 
ATOM     30  C   UNL A   1      38.503  29.096  28.736  1.00  0.00    -0.014 A 
BRANCH  30  31
ATOM     31  C   UNL A   1      39.910  28.751  28.985  1.00  0.00     0.031 A 
ATOM     32  C   UNL A   1      40.791  29.807  29.587  1.00  0.00     0.074 A 
ATOM     33  C   UNL A   1      40.364  27.520  28.702  1.00  0.00     0.049 A 
ATOM     34  N   UNL A   1      42.058  29.748  29.889  1.00  0.00    -0.248 NA
ATOM     35  C   UNL A   1      40.158  31.107  29.882  1.00  0.00     0.031 C 
ATOM     36  C   UNL A   1      39.562  26.432  28.140  1.00  0.00     0.029 A 
ATOM     37  N   UNL A   1      41.612  26.983  28.848  1.00  0.00    -0.354 N 
ATOM     38  C   UNL A   1      42.378  31.003  30.393  1.00  0.00     0.074 A 
ATOM     39  C   UNL A   1      41.185  31.814  30.327  1.00  0.00     0.031 C 
ATOM     40  C   UNL A   1      40.345  25.351  27.988  1.00  0.00     0.029 A 
ATOM     41  C   UNL A   1      41.704  25.685  28.408  1.00  0.00     0.049 A 
ATOM     42  H   UNL A   1      42.371  27.477  29.232  1.00  0.00     0.167 HD
ATOM     43  C   UNL A   1      43.566  31.431  30.875  1.00  0.00     0.031 A 
ATOM     44  C   UNL A   1      42.775  24.874  28.337  1.00  0.00     0.031 A 
ATOM     45  C   UNL A   1      44.739  30.603  30.923  1.00  0.00     0.049 A 
ATOM     46  C   UNL A   1      44.099  25.392  28.833  1.00  0.00     0.074 A 
ATOM     47  C   UNL A   1      45.992  30.915  31.416  1.00  0.00     0.029 A 
ATOM     48  N   UNL A   1      44.802  29.300  30.449  1.00  0.00    -0.354 N 
ATOM     49  N   UNL A   1      44.382  26.567  29.351  1.00  0.00    -0.248 NA
ATOM     50  C   UNL A   1      45.243  24.478  28.748  1.00  0.00     0.031 C 
ATOM     51  C   UNL A   1      46.831  29.824  31.177  1.00  0.00     0.029 A 
ATOM     52  C   UNL A   1      46.083  28.803  30.606  1.00  0.00     0.049 A 
ATOM     53  H   UNL A   1      44.048  28.803  30.060  1.00  0.00     0.167 HD
ATOM     54  C   UNL A   1      45.732  26.520  29.679  1.00  0.00     0.074 A 
ATOM     55  C   UNL A   1      46.201  25.197  29.317  1.00  0.00     0.031 C 
ATOM     56  C   UNL A   1      46.516  27.480  30.233  1.00  0.00     0.031 A 
BRANCH  43  57
ATOM     57  C   UNL A   1      43.659  32.858  31.344  1.00  0.00    -0.014 A 
ATOM     58  C   UNL A   1      43.406  33.213  32.682  1.00  0.00     0.010 A 
ATOM     59  C   UNL A   1      44.041  33.859  30.432  1.00  0.00     0.010 A 
ATOM     60  C   UNL A   1      43.504  34.546  33.092  1.00  0.00     0.020 A 
ATOM     61  C   UNL A   1      44.171  35.188  30.845  1.00  0.00     0.020 A 
ATOM     62  C   UNL A   1      43.889  35.524  32.170  1.00  0.00     0.054 A 
BRANCH  62  63
ATOM     63  S   UNL A   1      44.051  37.238  32.739  1.00  0.00     0.124 S 
ATOM     64  O   UNL A   1      42.983  37.329  33.733  1.00  0.00    -0.237 OA
ATOM     65  O   UNL A   1      45.410  37.269  33.274  1.00  0.00    -0.237 OA
ATOM     66  O   UNL A   1      43.842  38.028  31.529  1.00  0.00    -0.744 OA
ENDBRANCH  62  63
ENDBRANCH  43  57
BRANCH  44  67
ATOM     67  C   UNL A   1      42.638  23.509  27.761  1.00  0.00    -0.014 A 
ATOM     68  C   UNL A   1      42.259  22.420  28.564  1.00  0.00     0.010 A 
ATOM     69  C   UNL A   1      42.881  23.296  26.391  1.00  0.00     0.010 A 
ATOM     70  C   UNL A   1      42.145  21.140  28.013  1.00  0.00     0.020 A 
ATOM     71  C   UNL A   1      42.737  22.024  25.830  1.00  0.00     0.020 A 
ATOM     72  C   UNL A   1      42.383  20.951  26.648  1.00  0.00     0.054 A 
BRANCH  72  73
ATOM     73  S   UNL A   1      42.189  19.289  25.947  1.00  0.00     0.124 S 
ATOM     74  O   UNL A   1      43.020  19.365  24.749  1.00  0.00    -0.237 OA
ATOM     75  O   UNL A   1      42.697  18.437  27.019  1.00  0.00    -0.237 OA
ATOM     76  O   UNL A   1      40.751  19.185  25.707  1.00  0.00    -0.744 OA
ENDBRANCH  72  73
ENDBRANCH  44  67
BRANCH  56  77
ATOM     77  C   UNL A   1      47.950  27.121  30.514  1.00  0.00    -0.014 A 
ATOM     78  C   UNL A   1      48.976  27.455  29.615  1.00  0.00     0.010 A 
ATOM     79  C   UNL A   1      48.277  26.502  31.735  1.00  0.00     0.010 A 
ATOM     80  C   UNL A   1      50.305  27.146  29.917  1.00  0.00     0.020 A 
ATOM     81  C   UNL A   1      49.607  26.223  32.055  1.00  0.00     0.020 A 
ATOM     82  C   UNL A   1      50.610  26.535  31.138  1.00  0.00     0.054 A 
BRANCH  82  83
ATOM     83  S   UNL A   1      52.347  26.190  31.526  1.00  0.00     0.124 S 
ATOM     84  O   UNL A   1      52.965  26.212  30.203  1.00  0.00    -0.237 OA
ATOM     85  O   UNL A   1      52.703  27.301  32.406  1.00  0.00    -0.237 OA
ATOM     86  O   UNL A   1      52.305  24.880  32.173  1.00  0.00    -0.744 OA
ENDBRANCH  82  83
ENDBRANCH  56  77
ENDBRANCH  30  31
ENDBRANCH  23  25
ENDBRANCH  22  23
ENDBRANCH  21  22
ENDBRANCH   1  21
TORSDOF 18
ENDMDL
MODEL 2
REMARK VINA RESULT:      -9.7      3.397      6.431
REMARK SMILES CC1(C)[C@@H](C(=O)OCCOCCOC(=O)c2ccc(-c3c4nc(c(-c5ccc(S(=O)(=O)[O-])cc5)c5ccc([nH]5)c(-c5ccc(S(=O)(=O)[O-])cc5)c5nc(c(-c6ccc(S(=O)(=O)[O-])cc6)c6ccc3[nH]6)C=C5)C=C4)cc2)CC[C@@]1(C)C(N)=O
REMARK SMILES IDX 11 1 10 2 9 3 8 4 7 5 5 6 6 7 4 8 1 9 2 10 3 11 78 12 76 13
REMARK SMILES IDX 77 14 79 15 80 16 81 17 82 18 12 21 13 22 14 23 15 24 16 25
REMARK SMILES IDX 17 26 75 27 18 28 74 29 19 30 20 31 21 32 68 33 22 34 73 35
REMARK SMILES IDX 67 36 69 37 23 38 72 39 66 40 65 41 24 43 54 44 35 45 53 46
REMARK SMILES IDX 36 47 39 48 52 49 70 50 37 51 38 52 51 54 71 55 40 56 25 57
REMARK SMILES IDX 26 58 34 59 27 60 33 61 28 62 29 63 30 64 31 65 32 66 55 67
REMARK SMILES IDX 56 68 64 69 57 70 63 71 58 72 59 73 60 74 61 75 62 76 41 77
REMARK SMILES IDX 42 78 50 79 43 80 49 81 44 82 45 83 46 84 47 85 48 86
REMARK H PARENT 81 19 81 20 69 42 39 53
REMARK Flexibility Score: inf
ROOT
ATOM      1  C   UNL A   1      34.650  33.010  30.157  1.00  0.00     0.202 C 
ENDROOT
BRANCH   1   2
ATOM      2  O   UNL A   1      33.972  33.805  31.114  1.00  0.00    -0.374 OA
BRANCH   2   3
ATOM      3  C   UNL A   1      34.710  34.697  31.936  1.00  0.00     0.202 C 
BRANCH   3   4
ATOM      4  C   UNL A   1      36.134  34.362  32.389  1.00  0.00     0.261 C 
BRANCH   4   5
ATOM      5  O   UNL A   1      36.550  34.962  33.632  1.00  0.00    -0.463 OA
BRANCH   5   6
ATOM      6  C   UNL A   1      36.656  34.068  34.651  1.00  0.00     0.309 C 
ATOM      7  O   UNL A   1      35.744  33.315  34.983  1.00  0.00    -0.252 OA
BRANCH   6   8
ATOM      8  C   UNL A   1      37.978  34.156  35.412  1.00  0.00     0.106 C 
ATOM      9  C   UNL A   1      39.746  33.633  33.508  1.00  0.00     0.013 C 
ATOM     10  C   UNL A   1      39.272  33.413  34.944  1.00  0.00    -0.008 C 
ATOM     11  C   UNL A   1      40.456  33.997  35.787  1.00  0.00     0.013 C 
ATOM     12  C   UNL A   1      38.989  31.897  35.272  1.00  0.00     0.052 C 
ATOM     13  C   UNL A   1      37.706  33.443  36.752  1.00  0.00     0.017 C 
ATOM     14  C   UNL A   1      38.026  31.959  36.491  1.00  0.00     0.018 C 
ATOM     15  C   UNL A   1      40.262  31.119  35.671  1.00  0.00     0.022 C 
BRANCH  12  16
ATOM     16  C   UNL A   1      38.433  31.097  34.049  1.00  0.00     0.223 C 
ATOM     17  N   UNL A   1      37.114  31.141  33.750  1.00  0.00    -0.369 N 
ATOM     18  O   UNL A   1      39.167  30.476  33.277  1.00  0.00    -0.275 OA
ATOM     19  H   UNL A   1      36.492  31.625  34.340  1.00  0.00     0.159 HD
ATOM     20  H   UNL A   1      36.777  30.688  32.944  1.00  0.00     0.159 HD
ENDBRANCH  12  16
ENDBRANCH   6   8
ENDBRANCH   5   6
ENDBRANCH   4   5
ENDBRANCH   3   4
ENDBRANCH   2   3
ENDBRANCH   1   2
BRANCH   1  21
ATOM     21  C   UNL A   1      34.257  33.025  28.672  1.00  0.00     0.261 C 
BRANCH  21  22
ATOM     22  O   UNL A   1      35.010  32.190  27.818  1.00  0.00    -0.460 OA
BRANCH  22  23
ATOM     23  C   UNL A   1      34.742  30.874  27.979  1.00  0.00     0.338 C 
ATOM     24  O   UNL A   1      33.690  30.294  27.836  1.00  0.00    -0.246 OA
BRANCH  23  25
ATOM     25  C   UNL A   1      36.044  30.251  28.216  1.00  0.00     0.060 A 
ATOM     26  C   UNL A   1      36.277  29.673  29.466  1.00  0.00     0.016 A 
ATOM     27  C   UNL A   1      36.984  30.191  27.183  1.00  0.00     0.016 A 
ATOM     28  C   UNL A   1      37.496  29.060  29.704  1.00  0.00     0.010 A 
ATOM     29  C   UNL A   1      38.204  29.580  27.425  1.00  0.00     0.010 A 
ATOM     30  C   UNL A   1      38.472  29.055  28.699  1.00  0.00    -0.014 A 
BRANCH  30  31
ATOM     31  C   UNL A   1      39.851  28.680  29.048  1.00  0.00     0.031 A 
ATOM     32  C   UNL A   1      40.694  29.702  29.753  1.00  0.00     0.074 A 
ATOM     33  C   UNL A   1      40.308  27.452  28.761  1.00  0.00     0.049 A 
ATOM     34  N   UNL A   1      41.932  29.613  30.152  1.00  0.00    -0.248 NA
ATOM     35  C   UNL A   1      40.057  31.002  30.039  1.00  0.00     0.031 C 
ATOM     36  C   UNL A   1      39.540  26.395  28.102  1.00  0.00     0.029 A 
ATOM     37  N   UNL A   1      41.534  26.890  28.989  1.00  0.00    -0.354 N 
ATOM     38  C   UNL A   1      42.227  30.846  30.722  1.00  0.00     0.074 A 
ATOM     39  C   UNL A   1      41.054  31.678  30.587  1.00  0.00     0.031 C 
ATOM     40  C   UNL A   1      40.318  25.306  27.978  1.00  0.00     0.029 A 
ATOM     41  C   UNL A   1      41.643  25.606  28.515  1.00  0.00     0.049 A 
ATOM     42  H   UNL A   1      42.266  27.359  29.448  1.00  0.00     0.167 HD
ATOM     43  C   UNL A   1      43.378  31.239  31.311  1.00  0.00     0.031 A 
ATOM     44  C   UNL A   1      42.706  24.780  28.503  1.00  0.00     0.031 A 
ATOM     45  C   UNL A   1      44.532  30.391  31.425  1.00  0.00     0.049 A 
ATOM     46  C   UNL A   1      43.992  25.261  29.120  1.00  0.00     0.074 A 
ATOM     47  C   UNL A   1      45.746  30.667  32.027  1.00  0.00     0.029 A 
ATOM     48  N   UNL A   1      44.616  29.103  30.915  1.00  0.00    -0.354 N 
ATOM     49  N   UNL A   1      44.249  26.413  29.698  1.00  0.00    -0.248 NA
ATOM     50  C   UNL A   1      45.127  24.332  29.096  1.00  0.00     0.031 C 
ATOM     51  C   UNL A   1      46.587  29.571  31.819  1.00  0.00     0.029 A 
ATOM     52  C   UNL A   1      45.874  28.581  31.157  1.00  0.00     0.049 A 
ATOM     53  H   UNL A   1      43.888  28.631  30.451  1.00  0.00     0.167 HD
ATOM     54  C   UNL A   1      45.567  26.335  30.130  1.00  0.00     0.074 A 
ATOM     55  C   UNL A   1      46.046  25.017  29.763  1.00  0.00     0.031 C 
ATOM     56  C   UNL A   1      46.317  27.264  30.776  1.00  0.00     0.031 A 
BRANCH  43  57
ATOM     57  C   UNL A   1      43.453  32.649  31.832  1.00  0.00    -0.014 A 
ATOM     58  C   UNL A   1      43.323  32.936  33.204  1.00  0.00     0.010 A 
ATOM     59  C   UNL A   1      43.691  33.704  30.934  1.00  0.00     0.010 A 
ATOM     60  C   UNL A   1      43.401  34.254  33.662  1.00  0.00     0.020 A 
ATOM     61  C   UNL A   1      43.801  35.020  31.391  1.00  0.00     0.020 A 
ATOM     62  C   UNL A   1      43.643  35.287  32.752  1.00  0.00     0.054 A 
BRANCH  62  63
ATOM     63  S   UNL A   1      43.783  36.983  33.380  1.00  0.00     0.124 S 
ATOM     64  O   UNL A   1      43.896  37.754  32.144  1.00  0.00    -0.237 OA
ATOM     65  O   UNL A   1      42.531  37.155  34.115  1.00  0.00    -0.237 OA
ATOM     66  O   UNL A   1      44.987  36.951  34.205  1.00  0.00    -0.744 OA
ENDBRANCH  62  63
ENDBRANCH  43  57
BRANCH  44  67
ATOM     67  C   UNL A   1      42.597  23.436  27.874  1.00  0.00    -0.014 A 
ATOM     68  C   UNL A   1      42.097  22.339  28.594  1.00  0.00     0.010 A 
ATOM     69  C   UNL A   1      42.990  23.253  26.534  1.00  0.00     0.010 A 
ATOM     70  C   UNL A   1      42.010  21.079  27.994  1.00  0.00     0.020 A 
ATOM     71  C   UNL A   1      42.875  22.003  25.921  1.00  0.00     0.020 A 
ATOM     72  C   UNL A   1      42.398  20.920  26.660  1.00  0.00     0.054 A 
BRANCH  72  73
ATOM     73  S   UNL A   1      42.239  19.284  25.891  1.00  0.00     0.124 S 
ATOM     74  O   UNL A   1      40.797  19.182  25.689  1.00  0.00    -0.237 OA
ATOM     75  O   UNL A   1      43.040  19.429  24.678  1.00  0.00    -0.237 OA
ATOM     76  O   UNL A   1      42.798  18.379  26.893  1.00  0.00    -0.744 OA
ENDBRANCH  72  73
ENDBRANCH  44  67
BRANCH  56  77
ATOM     77  C   UNL A   1      47.718  26.873  31.159  1.00  0.00    -0.014 A 
ATOM     78  C   UNL A   1      48.801  27.090  30.289  1.00  0.00     0.010 A 
ATOM     79  C   UNL A   1      47.960  26.347  32.441  1.00  0.00     0.010 A 
ATOM     80  C   UNL A   1      50.098  26.754  30.683  1.00  0.00     0.020 A 
ATOM     81  C   UNL A   1      49.259  26.043  32.851  1.00  0.00     0.020 A 
ATOM     82  C   UNL A   1      50.318  26.236  31.964  1.00  0.00     0.054 A 
BRANCH  82  83
ATOM     83  S   UNL A   1      52.018  25.856  32.468  1.00  0.00     0.124 S 
ATOM     84  O   UNL A   1      52.795  26.749  31.612  1.00  0.00    -0.237 OA
ATOM     85  O   UNL A   1      52.011  26.195  33.889  1.00  0.00    -0.237 OA
ATOM     86  O   UNL A   1      52.157  24.432  32.172  1.00  0.00    -0.744 OA
ENDBRANCH  82  83
ENDBRANCH  56  77
ENDBRANCH  30  31
ENDBRANCH  23  25
ENDBRANCH  22  23
ENDBRANCH  21  22
ENDBRANCH   1  21
TORSDOF 18
ENDMDL
MODEL 3
REMARK VINA RESULT:      -9.7      2.685      9.075
REMARK SMILES CC1(C)[C@@H](C(=O)OCCOCCOC(=O)c2ccc(-c3c4nc(c(-c5ccc(S(=O)(=O)[O-])cc5)c5ccc([nH]5)c(-c5ccc(S(=O)(=O)[O-])cc5)c5nc(c(-c6ccc(S(=O)(=O)[O-])cc6)c6ccc3[nH]6)C=C5)C=C4)cc2)CC[C@@]1(C)C(N)=O
REMARK SMILES IDX 11 1 10 2 9 3 8 4 7 5 5 6 6 7 4 8 1 9 2 10 3 11 78 12 76 13
REMARK SMILES IDX 77 14 79 15 80 16 81 17 82 18 12 21 13 22 14 23 15 24 16 25
REMARK SMILES IDX 17 26 75 27 18 28 74 29 19 30 20 31 21 32 68 33 22 34 73 35
REMARK SMILES IDX 67 36 69 37 23 38 72 39 66 40 65 41 24 43 54 44 35 45 53 46
REMARK SMILES IDX 36 47 39 48 52 49 70 50 37 51 38 52 51 54 71 55 40 56 25 57
REMARK SMILES IDX 26 58 34 59 27 60 33 61 28 62 29 63 30 64 31 65 32 66 55 67
REMARK SMILES IDX 56 68 64 69 57 70 63 71 58 72 59 73 60 74 61 75 62 76 41 77
REMARK SMILES IDX 42 78 50 79 43 80 49 81 44 82 45 83 46 84 47 85 48 86
REMARK H PARENT 81 19 81 20 69 42 39 53
REMARK Flexibility Score: inf
ROOT
ATOM      1  C   UNL A   1      34.771  23.141  26.716  1.00  0.00     0.202 C 
ENDROOT
BRANCH   1   2
ATOM      2  O   UNL A   1      33.503  23.512  26.204  1.00  0.00    -0.374 OA
BRANCH   2   3
ATOM      3  C   UNL A   1      32.334  22.864  26.685  1.00  0.00     0.202 C 
BRANCH   3   4
ATOM      4  C   UNL A   1      30.945  23.469  26.462  1.00  0.00     0.261 C 
BRANCH   4   5
ATOM      5  O   UNL A   1      30.882  24.909  26.479  1.00  0.00    -0.463 OA
BRANCH   5   6
ATOM      6  C   UNL A   1      30.704  25.454  25.245  1.00  0.00     0.309 C 
ATOM      7  O   UNL A   1      30.448  24.786  24.246  1.00  0.00    -0.252 OA
BRANCH   6   8
ATOM      8  C   UNL A   1      30.952  26.960  25.196  1.00  0.00     0.106 C 
ATOM      9  C   UNL A   1      30.976  27.429  22.588  1.00  0.00     0.013 C 
ATOM     10  C   UNL A   1      31.601  27.668  23.962  1.00  0.00    -0.008 C 
ATOM     11  C   UNL A   1      31.396  29.207  24.167  1.00  0.00     0.013 C 
ATOM     12  C   UNL A   1      33.120  27.248  24.027  1.00  0.00     0.052 C 
ATOM     13  C   UNL A   1      32.028  27.214  26.271  1.00  0.00     0.017 C 
ATOM     14  C   UNL A   1      33.375  27.031  25.545  1.00  0.00     0.018 C 
ATOM     15  C   UNL A   1      34.071  28.347  23.506  1.00  0.00     0.022 C 
BRANCH  12  16
ATOM     16  C   UNL A   1      33.454  26.011  23.131  1.00  0.00     0.223 C 
ATOM     17  N   UNL A   1      33.350  24.759  23.633  1.00  0.00    -0.369 N 
ATOM     18  O   UNL A   1      33.739  26.119  21.937  1.00  0.00    -0.275 OA
ATOM     19  H   UNL A   1      33.125  24.627  24.583  1.00  0.00     0.159 HD
ATOM     20  H   UNL A   1      33.500  23.981  23.050  1.00  0.00     0.159 HD
ENDBRANCH  12  16
ENDBRANCH   6   8
ENDBRANCH   5   6
ENDBRANCH   4   5
ENDBRANCH   3   4
ENDBRANCH   2   3
ENDBRANCH   1   2
BRANCH   1  21
ATOM     21  C   UNL A   1      35.966  22.864  25.791  1.00  0.00     0.261 C 
BRANCH  21  22
ATOM     22  O   UNL A   1      36.985  23.840  25.777  1.00  0.00    -0.460 OA
BRANCH  22  23
ATOM     23  C   UNL A   1      38.209  23.345  26.070  1.00  0.00     0.338 C 
ATOM     24  O   UNL A   1      38.708  22.303  25.711  1.00  0.00    -0.246 OA
BRANCH  23  25
ATOM     25  C   UNL A   1      38.885  24.418  26.800  1.00  0.00     0.060 A 
ATOM     26  C   UNL A   1      38.633  24.541  28.168  1.00  0.00     0.016 A 
ATOM     27  C   UNL A   1      39.803  25.238  26.138  1.00  0.00     0.016 A 
ATOM     28  C   UNL A   1      39.277  25.537  28.882  1.00  0.00     0.010 A 
ATOM     29  C   UNL A   1      40.445  26.236  26.853  1.00  0.00     0.010 A 
ATOM     30  C   UNL A   1      40.147  26.410  28.214  1.00  0.00    -0.014 A 
BRANCH  30  31
ATOM     31  C   UNL A   1      40.589  27.634  28.897  1.00  0.00     0.031 A 
ATOM     32  C   UNL A   1      41.977  27.651  29.469  1.00  0.00     0.074 A 
ATOM     33  C   UNL A   1      39.774  28.698  28.970  1.00  0.00     0.049 A 
ATOM     34  N   UNL A   1      42.587  28.602  30.120  1.00  0.00    -0.248 NA
ATOM     35  C   UNL A   1      42.781  26.428  29.289  1.00  0.00     0.031 C 
ATOM     36  C   UNL A   1      38.422  28.767  28.415  1.00  0.00     0.029 A 
ATOM     37  N   UNL A   1      39.968  29.923  29.546  1.00  0.00    -0.354 N 
ATOM     38  C   UNL A   1      43.838  28.089  30.440  1.00  0.00     0.074 A 
ATOM     39  C   UNL A   1      43.890  26.733  29.944  1.00  0.00     0.031 C 
ATOM     40  C   UNL A   1      37.906  29.979  28.679  1.00  0.00     0.029 A 
ATOM     41  C   UNL A   1      38.877  30.751  29.450  1.00  0.00     0.049 A 
ATOM     42  H   UNL A   1      40.809  30.186  29.984  1.00  0.00     0.167 HD
ATOM     43  C   UNL A   1      44.853  28.705  31.086  1.00  0.00     0.031 A 
ATOM     44  C   UNL A   1      38.687  31.985  29.952  1.00  0.00     0.031 A 
ATOM     45  C   UNL A   1      44.770  30.054  31.574  1.00  0.00     0.049 A 
ATOM     46  C   UNL A   1      39.816  32.630  30.712  1.00  0.00     0.074 A 
ATOM     47  C   UNL A   1      45.742  30.796  32.217  1.00  0.00     0.029 A 
ATOM     48  N   UNL A   1      43.642  30.857  31.480  1.00  0.00    -0.354 N 
ATOM     49  N   UNL A   1      41.013  32.154  30.971  1.00  0.00    -0.248 NA
ATOM     50  C   UNL A   1      39.576  33.978  31.237  1.00  0.00     0.031 C 
ATOM     51  C   UNL A   1      45.179  32.024  32.574  1.00  0.00     0.029 A 
ATOM     52  C   UNL A   1      43.881  32.077  32.084  1.00  0.00     0.049 A 
ATOM     53  H   UNL A   1      42.798  30.597  31.046  1.00  0.00     0.167 HD
ATOM     54  C   UNL A   1      41.678  33.157  31.665  1.00  0.00     0.074 A 
ATOM     55  C   UNL A   1      40.755  34.270  31.769  1.00  0.00     0.031 C 
ATOM     56  C   UNL A   1      42.938  33.164  32.170  1.00  0.00     0.031 A 
BRANCH  43  57
ATOM     57  C   UNL A   1      46.109  27.914  31.333  1.00  0.00    -0.014 A 
ATOM     58  C   UNL A   1      47.141  27.853  30.379  1.00  0.00     0.010 A 
ATOM     59  C   UNL A   1      46.273  27.246  32.560  1.00  0.00     0.010 A 
ATOM     60  C   UNL A   1      48.301  27.115  30.636  1.00  0.00     0.020 A 
ATOM     61  C   UNL A   1      47.443  26.532  32.834  1.00  0.00     0.020 A 
ATOM     62  C   UNL A   1      48.444  26.461  31.863  1.00  0.00     0.054 A 
BRANCH  62  63
ATOM     63  S   UNL A   1      49.976  25.547  32.187  1.00  0.00     0.124 S 
ATOM     64  O   UNL A   1      50.434  25.235  30.835  1.00  0.00    -0.237 OA
ATOM     65  O   UNL A   1      50.783  26.525  32.914  1.00  0.00    -0.237 OA
ATOM     66  O   UNL A   1      49.536  24.398  32.975  1.00  0.00    -0.744 OA
ENDBRANCH  62  63
ENDBRANCH  43  57
BRANCH  44  67
ATOM     67  C   UNL A   1      37.380  32.671  29.765  1.00  0.00    -0.014 A 
ATOM     68  C   UNL A   1      36.342  32.517  30.699  1.00  0.00     0.010 A 
ATOM     69  C   UNL A   1      37.173  33.495  28.643  1.00  0.00     0.010 A 
ATOM     70  C   UNL A   1      35.115  33.158  30.505  1.00  0.00     0.020 A 
ATOM     71  C   UNL A   1      35.959  34.163  28.462  1.00  0.00     0.020 A 
ATOM     72  C   UNL A   1      34.932  33.979  29.389  1.00  0.00     0.054 A 
BRANCH  72  73
ATOM     73  S   UNL A   1      33.345  34.832  29.180  1.00  0.00     0.124 S 
ATOM     74  O   UNL A   1      33.761  36.120  28.632  1.00  0.00    -0.237 OA
ATOM     75  O   UNL A   1      32.634  33.950  28.258  1.00  0.00    -0.237 OA
ATOM     76  O   UNL A   1      32.799  34.875  30.535  1.00  0.00    -0.744 OA
ENDBRANCH  72  73
ENDBRANCH  44  67
BRANCH  56  77
ATOM     77  C   UNL A   1      43.403  34.425  32.846  1.00  0.00    -0.014 A 
ATOM     78  C   UNL A   1      43.882  35.518  32.104  1.00  0.00     0.010 A 
ATOM     79  C   UNL A   1      43.290  34.538  34.244  1.00  0.00     0.010 A 
ATOM     80  C   UNL A   1      44.271  36.692  32.753  1.00  0.00     0.020 A 
ATOM     81  C   UNL A   1      43.645  35.722  34.892  1.00  0.00     0.020 A 
ATOM     82  C   UNL A   1      44.147  36.787  34.143  1.00  0.00     0.054 A 
BRANCH  82  83
ATOM     83  S   UNL A   1      44.612  38.340  34.954  1.00  0.00     0.124 S 
ATOM     84  O   UNL A   1      44.449  38.005  36.366  1.00  0.00    -0.237 OA
ATOM     85  O   UNL A   1      45.990  38.532  34.507  1.00  0.00    -0.237 OA
ATOM     86  O   UNL A   1      43.651  39.307  34.428  1.00  0.00    -0.744 OA
ENDBRANCH  82  83
ENDBRANCH  56  77
ENDBRANCH  30  31
ENDBRANCH  23  25
ENDBRANCH  22  23
ENDBRANCH  21  22
ENDBRANCH   1  21
TORSDOF 18
ENDMDL
