MODEL 1
REMARK VINA RESULT:     -10.1      0.000      0.000
REMARK SMILES COc1cc2c(cc1OC)[C@H](C(=O)OCCOCCOC(=O)c1ccc(-c3c4nc(c(-c5ccc(S(=O)(=O)[O-])cc5)c5ccc([nH]5)c(-c5ccc(S(=O)(=O)[O-])cc5)c5nc(c(-c6ccc(S(=O)(=O)[O-])cc6)c6ccc3[nH]6)C=C5)C=C4)cc1)[C@@H](c1ccc(SC)cc1)N(C)C2=O
REMARK SMILES IDX 18 1 17 2 16 3 15 4 14 5 12 6 13 7 11 8 3 9 4 10 8 11 5 12
REMARK SMILES IDX 7 13 6 14 94 15 92 16 95 17 83 18 93 19 2 20 1 21 9 22 10 23
REMARK SMILES IDX 84 24 85 25 91 26 86 27 90 28 87 29 88 30 89 31 19 32 20 33
REMARK SMILES IDX 21 34 22 35 23 36 24 37 82 38 25 39 81 40 26 41 27 42 28 43
REMARK SMILES IDX 75 44 29 45 80 46 74 47 76 48 30 49 79 50 73 51 72 52 31 54
REMARK SMILES IDX 61 55 42 56 60 57 43 58 46 59 59 60 77 61 44 62 45 63 58 65
REMARK SMILES IDX 78 66 47 67 32 68 33 69 41 70 34 71 40 72 35 73 36 74 37 75
REMARK SMILES IDX 38 76 39 77 62 78 63 79 71 80 64 81 70 82 65 83 66 84 67 85
REMARK SMILES IDX 68 86 69 87 48 88 49 89 57 90 50 91 56 92 51 93 52 94 53 95
REMARK SMILES IDX 54 96 55 97
REMARK H PARENT 76 53 46 64
REMARK Flexibility Score: inf
ROOT
ATOM      1  C   UNL A   1      34.783  31.198  27.999  1.00  0.00     0.202 C 
ENDROOT
BRANCH   1   2
ATOM      2  O   UNL A   1      33.514  30.860  27.472  1.00  0.00    -0.374 OA
BRANCH   2   3
ATOM      3  C   UNL A   1      33.136  29.495  27.360  1.00  0.00     0.202 C 
BRANCH   3   4
ATOM      4  C   UNL A   1      33.593  28.689  26.143  1.00  0.00     0.261 C 
BRANCH   4   5
ATOM      5  O   UNL A   1      33.916  27.311  26.413  1.00  0.00    -0.463 OA
BRANCH   5   6
ATOM      6  C   UNL A   1      33.121  26.392  25.793  1.00  0.00     0.316 C 
ATOM      7  O   UNL A   1      32.219  25.770  26.341  1.00  0.00    -0.251 OA
BRANCH   6   8
ATOM      8  C   UNL A   1      33.589  26.113  24.365  1.00  0.00     0.157 C 
ATOM      9  C   UNL A   1      35.808  22.386  24.649  1.00  0.00     0.161 A 
ATOM     10  C   UNL A   1      34.920  22.614  23.589  1.00  0.00     0.064 A 
ATOM     11  C   UNL A   1      36.074  23.419  25.553  1.00  0.00     0.161 A 
ATOM     12  C   UNL A   1      34.267  23.847  23.441  1.00  0.00     0.048 A 
ATOM     13  C   UNL A   1      35.415  24.650  25.391  1.00  0.00     0.056 A 
ATOM     14  C   UNL A   1      34.453  24.857  24.384  1.00  0.00    -0.015 A 
ATOM     15  C   UNL A   1      33.391  24.044  22.260  1.00  0.00     0.254 C 
ATOM     16  N   UNL A   1      32.588  25.182  22.235  1.00  0.00    -0.333 N 
ATOM     17  O   UNL A   1      33.416  23.214  21.354  1.00  0.00    -0.269 OA
ATOM     18  C   UNL A   1      32.310  25.905  23.495  1.00  0.00     0.134 C 
ATOM     19  C   UNL A   1      31.677  25.306  21.101  1.00  0.00     0.147 C 
BRANCH   9  20
ATOM     20  O   UNL A   1      36.332  21.138  24.855  1.00  0.00    -0.493 OA
ATOM     21  C   UNL A   1      37.743  21.057  24.666  1.00  0.00     0.278 C 
ENDBRANCH   9  20
BRANCH  11  22
ATOM     22  O   UNL A   1      36.906  23.417  26.640  1.00  0.00    -0.493 OA
ATOM     23  C   UNL A   1      38.026  24.289  26.650  1.00  0.00     0.278 C 
ENDBRANCH  11  22
BRANCH  18  24
ATOM     24  C   UNL A   1      31.508  27.185  23.257  1.00  0.00    -0.024 A 
ATOM     25  C   UNL A   1      30.152  27.297  23.600  1.00  0.00     0.007 A 
ATOM     26  C   UNL A   1      32.159  28.323  22.748  1.00  0.00     0.007 A 
ATOM     27  C   UNL A   1      29.467  28.506  23.405  1.00  0.00     0.015 A 
ATOM     28  C   UNL A   1      31.472  29.530  22.563  1.00  0.00     0.015 A 
ATOM     29  C   UNL A   1      30.119  29.632  22.888  1.00  0.00     0.007 A 
BRANCH  29  30
ATOM     30  S   UNL A   1      29.146  31.098  22.581  1.00  0.00    -0.130 SA
ATOM     31  C   UNL A   1      28.047  30.560  21.243  1.00  0.00     0.091 C 
ENDBRANCH  29  30
ENDBRANCH  18  24
ENDBRANCH   6   8
ENDBRANCH   5   6
ENDBRANCH   4   5
ENDBRANCH   3   4
ENDBRANCH   2   3
ENDBRANCH   1   2
BRANCH   1  32
ATOM     32  C   UNL A   1      34.916  31.747  29.426  1.00  0.00     0.261 C 
BRANCH  32  33
ATOM     33  O   UNL A   1      36.196  31.654  30.040  1.00  0.00    -0.460 OA
BRANCH  33  34
ATOM     34  C   UNL A   1      36.572  30.404  30.374  1.00  0.00     0.338 C 
ATOM     35  O   UNL A   1      35.894  29.525  30.884  1.00  0.00    -0.246 OA
BRANCH  34  36
ATOM     36  C   UNL A   1      37.958  30.229  29.927  1.00  0.00     0.060 A 
ATOM     37  C   UNL A   1      38.197  30.102  28.558  1.00  0.00     0.016 A 
ATOM     38  C   UNL A   1      39.001  30.158  30.856  1.00  0.00     0.016 A 
ATOM     39  C   UNL A   1      39.489  29.848  28.112  1.00  0.00     0.010 A 
ATOM     40  C   UNL A   1      40.296  29.904  30.405  1.00  0.00     0.010 A 
ATOM     41  C   UNL A   1      40.536  29.708  29.034  1.00  0.00    -0.014 A 
BRANCH  41  42
ATOM     42  C   UNL A   1      41.850  29.217  28.557  1.00  0.00     0.031 A 
ATOM     43  C   UNL A   1      42.994  30.189  28.456  1.00  0.00     0.074 A 
ATOM     44  C   UNL A   1      42.027  27.914  28.277  1.00  0.00     0.049 A 
ATOM     45  N   UNL A   1      44.240  29.965  28.131  1.00  0.00    -0.248 NA
ATOM     46  C   UNL A   1      42.696  31.598  28.762  1.00  0.00     0.031 C 
ATOM     47  C   UNL A   1      40.990  26.885  28.358  1.00  0.00     0.029 A 
ATOM     48  N   UNL A   1      43.148  27.234  27.878  1.00  0.00    -0.354 N 
ATOM     49  C   UNL A   1      44.873  31.200  28.190  1.00  0.00     0.074 A 
ATOM     50  C   UNL A   1      43.870  32.177  28.549  1.00  0.00     0.031 C 
ATOM     51  C   UNL A   1      41.527  25.699  28.024  1.00  0.00     0.029 A 
ATOM     52  C   UNL A   1      42.935  25.889  27.684  1.00  0.00     0.049 A 
ATOM     53  H   UNL A   1      44.022  27.666  27.743  1.00  0.00     0.167 HD
ATOM     54  C   UNL A   1      46.178  31.492  27.974  1.00  0.00     0.031 A 
ATOM     55  C   UNL A   1      43.781  24.925  27.272  1.00  0.00     0.031 A 
ATOM     56  C   UNL A   1      47.167  30.515  27.609  1.00  0.00     0.049 A 
ATOM     57  C   UNL A   1      45.219  25.282  27.001  1.00  0.00     0.074 A 
ATOM     58  C   UNL A   1      48.522  30.701  27.394  1.00  0.00     0.029 A 
ATOM     59  N   UNL A   1      46.908  29.169  27.396  1.00  0.00    -0.354 N 
ATOM     60  N   UNL A   1      45.813  26.447  27.112  1.00  0.00    -0.248 NA
ATOM     61  C   UNL A   1      46.103  24.193  26.565  1.00  0.00     0.031 C 
ATOM     62  C   UNL A   1      49.071  29.477  26.996  1.00  0.00     0.029 A 
ATOM     63  C   UNL A   1      48.072  28.517  27.023  1.00  0.00     0.049 A 
ATOM     64  H   UNL A   1      46.028  28.741  27.495  1.00  0.00     0.167 HD
ATOM     65  C   UNL A   1      47.145  26.227  26.780  1.00  0.00     0.074 A 
ATOM     66  C   UNL A   1      47.272  24.814  26.484  1.00  0.00     0.031 C 
ATOM     67  C   UNL A   1      48.173  27.110  26.726  1.00  0.00     0.031 A 
BRANCH  54  68
ATOM     68  C   UNL A   1      46.601  32.933  28.094  1.00  0.00    -0.014 A 
ATOM     69  C   UNL A   1      47.064  33.460  29.313  1.00  0.00     0.010 A 
ATOM     70  C   UNL A   1      46.573  33.761  26.957  1.00  0.00     0.010 A 
ATOM     71  C   UNL A   1      47.464  34.797  29.400  1.00  0.00     0.020 A 
ATOM     72  C   UNL A   1      46.995  35.091  27.034  1.00  0.00     0.020 A 
ATOM     73  C   UNL A   1      47.424  35.605  28.259  1.00  0.00     0.054 A 
BRANCH  73  74
ATOM     74  S   UNL A   1      47.978  37.327  28.391  1.00  0.00     0.124 S 
ATOM     75  O   UNL A   1      49.016  37.390  27.366  1.00  0.00    -0.237 OA
ATOM     76  O   UNL A   1      46.761  38.079  28.098  1.00  0.00    -0.237 OA
ATOM     77  O   UNL A   1      48.456  37.433  29.767  1.00  0.00    -0.744 OA
ENDBRANCH  73  74
ENDBRANCH  54  68
BRANCH  55  78
ATOM     78  C   UNL A   1      43.285  23.535  27.079  1.00  0.00    -0.014 A 
ATOM     79  C   UNL A   1      42.977  23.046  25.798  1.00  0.00     0.010 A 
ATOM     80  C   UNL A   1      43.125  22.687  28.190  1.00  0.00     0.010 A 
ATOM     81  C   UNL A   1      42.502  21.741  25.633  1.00  0.00     0.020 A 
ATOM     82  C   UNL A   1      42.677  21.373  28.027  1.00  0.00     0.020 A 
ATOM     83  C   UNL A   1      42.356  20.912  26.749  1.00  0.00     0.054 A 
BRANCH  83  84
ATOM     84  S   UNL A   1      41.787  19.206  26.509  1.00  0.00     0.124 S 
ATOM     85  O   UNL A   1      41.522  18.779  27.878  1.00  0.00    -0.237 OA
ATOM     86  O   UNL A   1      40.611  19.381  25.660  1.00  0.00    -0.237 OA
ATOM     87  O   UNL A   1      42.923  18.556  25.857  1.00  0.00    -0.744 OA
ENDBRANCH  83  84
ENDBRANCH  55  78
BRANCH  67  88
ATOM     88  C   UNL A   1      49.529  26.572  26.358  1.00  0.00    -0.014 A 
ATOM     89  C   UNL A   1      50.043  26.720  25.057  1.00  0.00     0.010 A 
ATOM     90  C   UNL A   1      50.321  25.954  27.343  1.00  0.00     0.010 A 
ATOM     91  C   UNL A   1      51.311  26.226  24.740  1.00  0.00     0.020 A 
ATOM     92  C   UNL A   1      51.601  25.486  27.037  1.00  0.00     0.020 A 
ATOM     93  C   UNL A   1      52.082  25.611  25.732  1.00  0.00     0.054 A 
BRANCH  93  94
ATOM     94  S   UNL A   1      53.739  25.009  25.304  1.00  0.00     0.124 S 
ATOM     95  O   UNL A   1      53.994  25.699  24.043  1.00  0.00    -0.237 OA
ATOM     96  O   UNL A   1      54.544  25.453  26.438  1.00  0.00    -0.237 OA
ATOM     97  O   UNL A   1      53.565  23.563  25.199  1.00  0.00    -0.744 OA
ENDBRANCH  93  94
ENDBRANCH  67  88
ENDBRANCH  41  42
ENDBRANCH  34  36
ENDBRANCH  33  34
ENDBRANCH  32  33
ENDBRANCH   1  32
TORSDOF 21
ENDMDL
MODEL 2
REMARK VINA RESULT:     -10.0      2.099      8.753
REMARK SMILES COc1cc2c(cc1OC)[C@H](C(=O)OCCOCCOC(=O)c1ccc(-c3c4nc(c(-c5ccc(S(=O)(=O)[O-])cc5)c5ccc([nH]5)c(-c5ccc(S(=O)(=O)[O-])cc5)c5nc(c(-c6ccc(S(=O)(=O)[O-])cc6)c6ccc3[nH]6)C=C5)C=C4)cc1)[C@@H](c1ccc(SC)cc1)N(C)C2=O
REMARK SMILES IDX 18 1 17 2 16 3 15 4 14 5 12 6 13 7 11 8 3 9 4 10 8 11 5 12
REMARK SMILES IDX 7 13 6 14 94 15 92 16 95 17 83 18 93 19 2 20 1 21 9 22 10 23
REMARK SMILES IDX 84 24 85 25 91 26 86 27 90 28 87 29 88 30 89 31 19 32 20 33
REMARK SMILES IDX 21 34 22 35 23 36 24 37 82 38 25 39 81 40 26 41 27 42 28 43
REMARK SMILES IDX 75 44 29 45 80 46 74 47 76 48 30 49 79 50 73 51 72 52 31 54
REMARK SMILES IDX 61 55 42 56 60 57 43 58 46 59 59 60 77 61 44 62 45 63 58 65
REMARK SMILES IDX 78 66 47 67 32 68 33 69 41 70 34 71 40 72 35 73 36 74 37 75
REMARK SMILES IDX 38 76 39 77 62 78 63 79 71 80 64 81 70 82 65 83 66 84 67 85
REMARK SMILES IDX 68 86 69 87 48 88 49 89 57 90 50 91 56 92 51 93 52 94 53 95
REMARK SMILES IDX 54 96 55 97
REMARK H PARENT 76 53 46 64
REMARK Flexibility Score: inf
ROOT
ATOM      1  C   UNL A   1      38.631  20.365  25.373  1.00  0.00     0.202 C 
ENDROOT
BRANCH   1   2
ATOM      2  O   UNL A   1      38.741  21.641  25.974  1.00  0.00    -0.374 OA
BRANCH   2   3
ATOM      3  C   UNL A   1      37.889  22.697  25.552  1.00  0.00     0.202 C 
BRANCH   3   4
ATOM      4  C   UNL A   1      36.832  23.237  26.516  1.00  0.00     0.261 C 
BRANCH   4   5
ATOM      5  O   UNL A   1      35.628  23.719  25.889  1.00  0.00    -0.463 OA
BRANCH   5   6
ATOM      6  C   UNL A   1      34.465  23.369  26.512  1.00  0.00     0.316 C 
ATOM      7  O   UNL A   1      34.395  22.890  27.637  1.00  0.00    -0.251 OA
BRANCH   6   8
ATOM      8  C   UNL A   1      33.263  23.502  25.577  1.00  0.00     0.157 C 
ATOM      9  C   UNL A   1      33.212  27.699  24.448  1.00  0.00     0.161 A 
ATOM     10  C   UNL A   1      32.981  26.697  23.497  1.00  0.00     0.064 A 
ATOM     11  C   UNL A   1      33.336  27.347  25.796  1.00  0.00     0.161 A 
ATOM     12  C   UNL A   1      32.908  25.346  23.867  1.00  0.00     0.048 A 
ATOM     13  C   UNL A   1      33.257  25.991  26.154  1.00  0.00     0.056 A 
ATOM     14  C   UNL A   1      33.117  24.970  25.194  1.00  0.00    -0.015 A 
ATOM     15  C   UNL A   1      32.595  24.342  22.820  1.00  0.00     0.254 C 
ATOM     16  N   UNL A   1      32.735  22.997  23.154  1.00  0.00    -0.333 N 
ATOM     17  O   UNL A   1      32.217  24.730  21.717  1.00  0.00    -0.269 OA
ATOM     18  C   UNL A   1      33.556  22.619  24.324  1.00  0.00     0.134 C 
ATOM     19  C   UNL A   1      32.500  22.037  22.080  1.00  0.00     0.147 C 
BRANCH   9  20
ATOM     20  O   UNL A   1      33.414  28.994  24.052  1.00  0.00    -0.493 OA
ATOM     21  C   UNL A   1      33.784  29.136  22.683  1.00  0.00     0.278 C 
ENDBRANCH   9  20
BRANCH  11  22
ATOM     22  O   UNL A   1      33.549  28.157  26.879  1.00  0.00    -0.493 OA
ATOM     23  C   UNL A   1      32.438  28.794  27.490  1.00  0.00     0.278 C 
ENDBRANCH  11  22
BRANCH  18  24
ATOM     24  C   UNL A   1      33.501  21.115  24.600  1.00  0.00    -0.024 A 
ATOM     25  C   UNL A   1      32.299  20.443  24.867  1.00  0.00     0.007 A 
ATOM     26  C   UNL A   1      34.680  20.354  24.511  1.00  0.00     0.007 A 
ATOM     27  C   UNL A   1      32.289  19.055  25.069  1.00  0.00     0.015 A 
ATOM     28  C   UNL A   1      34.664  18.966  24.706  1.00  0.00     0.015 A 
ATOM     29  C   UNL A   1      33.468  18.304  24.990  1.00  0.00     0.007 A 
BRANCH  29  30
ATOM     30  S   UNL A   1      33.379  16.559  25.359  1.00  0.00    -0.130 SA
ATOM     31  C   UNL A   1      35.118  16.055  25.273  1.00  0.00     0.091 C 
ENDBRANCH  29  30
ENDBRANCH  18  24
ENDBRANCH   6   8
ENDBRANCH   5   6
ENDBRANCH   4   5
ENDBRANCH   3   4
ENDBRANCH   2   3
ENDBRANCH   1   2
BRANCH   1  32
ATOM     32  C   UNL A   1      39.656  19.265  25.680  1.00  0.00     0.261 C 
BRANCH  32  33
ATOM     33  O   UNL A   1      40.621  19.540  26.688  1.00  0.00    -0.460 OA
BRANCH  33  34
ATOM     34  C   UNL A   1      41.868  19.762  26.229  1.00  0.00     0.338 C 
ATOM     35  O   UNL A   1      42.584  19.002  25.596  1.00  0.00    -0.246 OA
BRANCH  34  36
ATOM     36  C   UNL A   1      42.210  21.153  26.546  1.00  0.00     0.060 A 
ATOM     37  C   UNL A   1      42.248  22.076  25.499  1.00  0.00     0.016 A 
ATOM     38  C   UNL A   1      42.522  21.528  27.856  1.00  0.00     0.016 A 
ATOM     39  C   UNL A   1      42.655  23.381  25.755  1.00  0.00     0.010 A 
ATOM     40  C   UNL A   1      42.929  22.838  28.109  1.00  0.00     0.010 A 
ATOM     41  C   UNL A   1      43.034  23.757  27.052  1.00  0.00    -0.014 A 
BRANCH  41  42
ATOM     42  C   UNL A   1      43.674  25.077  27.256  1.00  0.00     0.031 A 
ATOM     43  C   UNL A   1      42.830  26.227  27.735  1.00  0.00     0.074 A 
ATOM     44  C   UNL A   1      44.997  25.227  27.071  1.00  0.00     0.049 A 
ATOM     45  N   UNL A   1      43.192  27.444  28.044  1.00  0.00    -0.248 NA
ATOM     46  C   UNL A   1      41.387  25.971  27.887  1.00  0.00     0.031 C 
ATOM     47  C   UNL A   1      45.911  24.175  26.624  1.00  0.00     0.029 A 
ATOM     48  N   UNL A   1      45.803  26.321  27.247  1.00  0.00    -0.354 N 
ATOM     49  C   UNL A   1      42.027  28.099  28.424  1.00  0.00     0.074 A 
ATOM     50  C   UNL A   1      40.940  27.157  28.275  1.00  0.00     0.031 C 
ATOM     51  C   UNL A   1      47.157  24.676  26.567  1.00  0.00     0.029 A 
ATOM     52  C   UNL A   1      47.124  26.085  26.949  1.00  0.00     0.049 A 
ATOM     53  H   UNL A   1      45.468  27.194  27.556  1.00  0.00     0.167 HD
ATOM     54  C   UNL A   1      41.878  29.370  28.867  1.00  0.00     0.031 A 
ATOM     55  C   UNL A   1      48.184  26.916  26.976  1.00  0.00     0.031 A 
ATOM     56  C   UNL A   1      42.964  30.302  29.004  1.00  0.00     0.049 A 
ATOM     57  C   UNL A   1      47.987  28.337  27.436  1.00  0.00     0.074 A 
ATOM     58  C   UNL A   1      42.926  31.605  29.470  1.00  0.00     0.029 A 
ATOM     59  N   UNL A   1      44.283  30.034  28.668  1.00  0.00    -0.354 N 
ATOM     60  N   UNL A   1      46.886  28.925  27.841  1.00  0.00    -0.248 NA
ATOM     61  C   UNL A   1      49.176  29.199  27.458  1.00  0.00     0.031 C 
ATOM     62  C   UNL A   1      44.213  32.143  29.362  1.00  0.00     0.029 A 
ATOM     63  C   UNL A   1      45.063  31.157  28.887  1.00  0.00     0.049 A 
ATOM     64  H   UNL A   1      44.614  29.174  28.323  1.00  0.00     0.167 HD
ATOM     65  C   UNL A   1      47.254  30.221  28.186  1.00  0.00     0.074 A 
ATOM     66  C   UNL A   1      48.682  30.323  27.961  1.00  0.00     0.031 C 
ATOM     67  C   UNL A   1      46.483  31.237  28.649  1.00  0.00     0.031 A 
BRANCH  54  68
ATOM     68  C   UNL A   1      40.485  29.834  29.203  1.00  0.00    -0.014 A 
ATOM     69  C   UNL A   1      40.180  30.382  30.462  1.00  0.00     0.010 A 
ATOM     70  C   UNL A   1      39.475  29.761  28.226  1.00  0.00     0.010 A 
ATOM     71  C   UNL A   1      38.883  30.819  30.749  1.00  0.00     0.020 A 
ATOM     72  C   UNL A   1      38.184  30.219  28.500  1.00  0.00     0.020 A 
ATOM     73  C   UNL A   1      37.892  30.732  29.765  1.00  0.00     0.054 A 
BRANCH  73  74
ATOM     74  S   UNL A   1      36.226  31.335  30.153  1.00  0.00     0.124 S 
ATOM     75  O   UNL A   1      35.476  30.934  28.965  1.00  0.00    -0.237 OA
ATOM     76  O   UNL A   1      35.898  30.607  31.376  1.00  0.00    -0.237 OA
ATOM     77  O   UNL A   1      36.407  32.775  30.318  1.00  0.00    -0.744 OA
ENDBRANCH  73  74
ENDBRANCH  54  68
BRANCH  55  78
ATOM     78  C   UNL A   1      49.522  26.428  26.542  1.00  0.00    -0.014 A 
ATOM     79  C   UNL A   1      49.903  26.461  25.190  1.00  0.00     0.010 A 
ATOM     80  C   UNL A   1      50.430  25.930  27.495  1.00  0.00     0.010 A 
ATOM     81  C   UNL A   1      51.159  25.990  24.796  1.00  0.00     0.020 A 
ATOM     82  C   UNL A   1      51.696  25.484  27.109  1.00  0.00     0.020 A 
ATOM     83  C   UNL A   1      52.049  25.505  25.759  1.00  0.00     0.054 A 
BRANCH  83  84
ATOM     84  S   UNL A   1      53.693  24.945  25.234  1.00  0.00     0.124 S 
ATOM     85  O   UNL A   1      53.491  23.508  25.083  1.00  0.00    -0.237 OA
ATOM     86  O   UNL A   1      53.900  25.690  23.994  1.00  0.00    -0.237 OA
ATOM     87  O   UNL A   1      54.559  25.344  26.342  1.00  0.00    -0.744 OA
ENDBRANCH  83  84
ENDBRANCH  55  78
BRANCH  67  88
ATOM     88  C   UNL A   1      47.170  32.537  28.968  1.00  0.00    -0.014 A 
ATOM     89  C   UNL A   1      47.228  33.581  28.027  1.00  0.00     0.010 A 
ATOM     90  C   UNL A   1      47.722  32.735  30.247  1.00  0.00     0.010 A 
ATOM     91  C   UNL A   1      47.858  34.786  28.348  1.00  0.00     0.020 A 
ATOM     92  C   UNL A   1      48.326  33.949  30.582  1.00  0.00     0.020 A 
ATOM     93  C   UNL A   1      48.404  34.962  29.624  1.00  0.00     0.054 A 
BRANCH  93  94
ATOM     94  S   UNL A   1      49.186  36.548  30.029  1.00  0.00     0.124 S 
ATOM     95  O   UNL A   1      49.447  36.401  31.458  1.00  0.00    -0.237 OA
ATOM     96  O   UNL A   1      50.368  36.552  29.172  1.00  0.00    -0.237 OA
ATOM     97  O   UNL A   1      48.167  37.535  29.680  1.00  0.00    -0.744 OA
ENDBRANCH  93  94
ENDBRANCH  67  88
ENDBRANCH  41  42
ENDBRANCH  34  36
ENDBRANCH  33  34
ENDBRANCH  32  33
ENDBRANCH   1  32
TORSDOF 21
ENDMDL
MODEL 3
REMARK VINA RESULT:      -9.9      2.189      9.046
REMARK SMILES COc1cc2c(cc1OC)[C@H](C(=O)OCCOCCOC(=O)c1ccc(-c3c4nc(c(-c5ccc(S(=O)(=O)[O-])cc5)c5ccc([nH]5)c(-c5ccc(S(=O)(=O)[O-])cc5)c5nc(c(-c6ccc(S(=O)(=O)[O-])cc6)c6ccc3[nH]6)C=C5)C=C4)cc1)[C@@H](c1ccc(SC)cc1)N(C)C2=O
REMARK SMILES IDX 18 1 17 2 16 3 15 4 14 5 12 6 13 7 11 8 3 9 4 10 8 11 5 12
REMARK SMILES IDX 7 13 6 14 94 15 92 16 95 17 83 18 93 19 2 20 1 21 9 22 10 23
REMARK SMILES IDX 84 24 85 25 91 26 86 27 90 28 87 29 88 30 89 31 19 32 20 33
REMARK SMILES IDX 21 34 22 35 23 36 24 37 82 38 25 39 81 40 26 41 27 42 28 43
REMARK SMILES IDX 75 44 29 45 80 46 74 47 76 48 30 49 79 50 73 51 72 52 31 54
REMARK SMILES IDX 61 55 42 56 60 57 43 58 46 59 59 60 77 61 44 62 45 63 58 65
REMARK SMILES IDX 78 66 47 67 32 68 33 69 41 70 34 71 40 72 35 73 36 74 37 75
REMARK SMILES IDX 38 76 39 77 62 78 63 79 71 80 64 81 70 82 65 83 66 84 67 85
REMARK SMILES IDX 68 86 69 87 48 88 49 89 57 90 50 91 56 92 51 93 52 94 53 95
REMARK SMILES IDX 54 96 55 97
REMARK H PARENT 76 53 46 64
REMARK Flexibility Score: inf
ROOT
ATOM      1  C   UNL A   1      39.187  20.488  25.324  1.00  0.00     0.202 C 
ENDROOT
BRANCH   1   2
ATOM      2  O   UNL A   1      38.763  21.585  26.112  1.00  0.00    -0.374 OA
BRANCH   2   3
ATOM      3  C   UNL A   1      37.908  22.570  25.550  1.00  0.00     0.202 C 
BRANCH   3   4
ATOM      4  C   UNL A   1      36.924  23.312  26.454  1.00  0.00     0.261 C 
BRANCH   4   5
ATOM      5  O   UNL A   1      35.720  23.761  25.803  1.00  0.00    -0.463 OA
BRANCH   5   6
ATOM      6  C   UNL A   1      34.556  23.435  26.436  1.00  0.00     0.316 C 
ATOM      7  O   UNL A   1      34.486  22.970  27.568  1.00  0.00    -0.251 OA
BRANCH   6   8
ATOM      8  C   UNL A   1      33.351  23.571  25.507  1.00  0.00     0.157 C 
ATOM      9  C   UNL A   1      33.382  27.741  24.280  1.00  0.00     0.161 A 
ATOM     10  C   UNL A   1      33.123  26.722  23.353  1.00  0.00     0.064 A 
ATOM     11  C   UNL A   1      33.508  27.418  25.634  1.00  0.00     0.161 A 
ATOM     12  C   UNL A   1      33.024  25.382  23.756  1.00  0.00     0.048 A 
ATOM     13  C   UNL A   1      33.402  26.073  26.025  1.00  0.00     0.056 A 
ATOM     14  C   UNL A   1      33.234  25.033  25.090  1.00  0.00    -0.015 A 
ATOM     15  C   UNL A   1      32.682  24.361  22.735  1.00  0.00     0.254 C 
ATOM     16  N   UNL A   1      32.795  23.021  23.099  1.00  0.00    -0.333 N 
ATOM     17  O   UNL A   1      32.305  24.731  21.626  1.00  0.00    -0.269 OA
ATOM     18  C   UNL A   1      33.616  22.653  24.273  1.00  0.00     0.134 C 
ATOM     19  C   UNL A   1      32.532  22.041  22.050  1.00  0.00     0.147 C 
BRANCH   9  20
ATOM     20  O   UNL A   1      33.609  29.022  23.852  1.00  0.00    -0.493 OA
ATOM     21  C   UNL A   1      33.559  29.183  22.437  1.00  0.00     0.278 C 
ENDBRANCH   9  20
BRANCH  11  22
ATOM     22  O   UNL A   1      33.746  28.248  26.696  1.00  0.00    -0.493 OA
ATOM     23  C   UNL A   1      32.701  28.493  27.626  1.00  0.00     0.278 C 
ENDBRANCH  11  22
BRANCH  18  24
ATOM     24  C   UNL A   1      33.531  21.157  24.585  1.00  0.00    -0.024 A 
ATOM     25  C   UNL A   1      32.307  20.498  24.776  1.00  0.00     0.007 A 
ATOM     26  C   UNL A   1      34.708  20.389  24.607  1.00  0.00     0.007 A 
ATOM     27  C   UNL A   1      32.274  19.116  25.015  1.00  0.00     0.015 A 
ATOM     28  C   UNL A   1      34.669  19.007  24.838  1.00  0.00     0.015 A 
ATOM     29  C   UNL A   1      33.451  18.358  25.047  1.00  0.00     0.007 A 
BRANCH  29  30
ATOM     30  S   UNL A   1      33.322  16.625  25.455  1.00  0.00    -0.130 SA
ATOM     31  C   UNL A   1      34.974  16.005  25.037  1.00  0.00     0.091 C 
ENDBRANCH  29  30
ENDBRANCH  18  24
ENDBRANCH   6   8
ENDBRANCH   5   6
ENDBRANCH   4   5
ENDBRANCH   3   4
ENDBRANCH   2   3
ENDBRANCH   1   2
BRANCH   1  32
ATOM     32  C   UNL A   1      40.070  19.387  25.927  1.00  0.00     0.261 C 
BRANCH  32  33
ATOM     33  O   UNL A   1      41.148  19.802  26.757  1.00  0.00    -0.460 OA
BRANCH  33  34
ATOM     34  C   UNL A   1      42.227  20.259  26.094  1.00  0.00     0.338 C 
ATOM     35  O   UNL A   1      42.873  19.693  25.225  1.00  0.00    -0.246 OA
BRANCH  34  36
ATOM     36  C   UNL A   1      42.462  21.638  26.536  1.00  0.00     0.060 A 
ATOM     37  C   UNL A   1      42.395  22.655  25.582  1.00  0.00     0.016 A 
ATOM     38  C   UNL A   1      42.778  21.914  27.870  1.00  0.00     0.016 A 
ATOM     39  C   UNL A   1      42.699  23.960  25.953  1.00  0.00     0.010 A 
ATOM     40  C   UNL A   1      43.082  23.224  28.239  1.00  0.00     0.010 A 
ATOM     41  C   UNL A   1      43.081  24.244  27.273  1.00  0.00    -0.014 A 
BRANCH  41  42
ATOM     42  C   UNL A   1      43.615  25.589  27.590  1.00  0.00     0.031 A 
ATOM     43  C   UNL A   1      45.063  25.880  27.303  1.00  0.00     0.074 A 
ATOM     44  C   UNL A   1      42.803  26.546  28.071  1.00  0.00     0.049 A 
ATOM     45  N   UNL A   1      45.721  27.002  27.436  1.00  0.00    -0.248 NA
ATOM     46  C   UNL A   1      45.878  24.761  26.799  1.00  0.00     0.031 C 
ATOM     47  C   UNL A   1      41.381  26.375  28.369  1.00  0.00     0.029 A 
ATOM     48  N   UNL A   1      43.058  27.856  28.382  1.00  0.00    -0.354 N 
ATOM     49  C   UNL A   1      47.023  26.725  27.037  1.00  0.00     0.074 A 
ATOM     50  C   UNL A   1      47.073  25.323  26.687  1.00  0.00     0.031 C 
ATOM     51  C   UNL A   1      40.886  27.542  28.816  1.00  0.00     0.029 A 
ATOM     52  C   UNL A   1      41.960  28.533  28.858  1.00  0.00     0.049 A 
ATOM     53  H   UNL A   1      43.944  28.274  28.277  1.00  0.00     0.167 HD
ATOM     54  C   UNL A   1      48.080  27.568  26.958  1.00  0.00     0.031 A 
ATOM     55  C   UNL A   1      41.838  29.805  29.283  1.00  0.00     0.031 A 
ATOM     56  C   UNL A   1      48.022  28.960  27.316  1.00  0.00     0.049 A 
ATOM     57  C   UNL A   1      43.039  30.713  29.222  1.00  0.00     0.074 A 
ATOM     58  C   UNL A   1      49.028  29.908  27.246  1.00  0.00     0.029 A 
ATOM     59  N   UNL A   1      46.899  29.601  27.817  1.00  0.00    -0.354 N 
ATOM     60  N   UNL A   1      44.250  30.448  28.793  1.00  0.00    -0.248 NA
ATOM     61  C   UNL A   1      42.851  32.094  29.688  1.00  0.00     0.031 C 
ATOM     62  C   UNL A   1      48.528  31.110  27.760  1.00  0.00     0.029 A 
ATOM     63  C   UNL A   1      47.195  30.926  28.091  1.00  0.00     0.049 A 
ATOM     64  H   UNL A   1      46.022  29.177  27.958  1.00  0.00     0.167 HD
ATOM     65  C   UNL A   1      44.963  31.635  28.916  1.00  0.00     0.074 A 
ATOM     66  C   UNL A   1      44.042  32.623  29.442  1.00  0.00     0.031 C 
ATOM     67  C   UNL A   1      46.263  31.889  28.621  1.00  0.00     0.031 A 
BRANCH  54  68
ATOM     68  C   UNL A   1      49.396  26.998  26.499  1.00  0.00    -0.014 A 
ATOM     69  C   UNL A   1      50.294  26.407  27.405  1.00  0.00     0.010 A 
ATOM     70  C   UNL A   1      49.719  27.017  25.130  1.00  0.00     0.010 A 
ATOM     71  C   UNL A   1      51.505  25.872  26.956  1.00  0.00     0.020 A 
ATOM     72  C   UNL A   1      50.917  26.461  24.673  1.00  0.00     0.020 A 
ATOM     73  C   UNL A   1      51.810  25.905  25.591  1.00  0.00     0.054 A 
BRANCH  73  74
ATOM     74  S   UNL A   1      53.373  25.177  25.030  1.00  0.00     0.124 S 
ATOM     75  O   UNL A   1      53.430  25.619  23.638  1.00  0.00    -0.237 OA
ATOM     76  O   UNL A   1      54.352  25.791  25.923  1.00  0.00    -0.237 OA
ATOM     77  O   UNL A   1      53.176  23.742  25.218  1.00  0.00    -0.744 OA
ENDBRANCH  73  74
ENDBRANCH  54  68
BRANCH  55  78
ATOM     78  C   UNL A   1      40.535  30.288  29.817  1.00  0.00    -0.014 A 
ATOM     79  C   UNL A   1      39.518  30.732  28.955  1.00  0.00     0.010 A 
ATOM     80  C   UNL A   1      40.306  30.297  31.205  1.00  0.00     0.010 A 
ATOM     81  C   UNL A   1      38.303  31.192  29.471  1.00  0.00     0.020 A 
ATOM     82  C   UNL A   1      39.083  30.730  31.724  1.00  0.00     0.020 A 
ATOM     83  C   UNL A   1      38.092  31.188  30.854  1.00  0.00     0.054 A 
BRANCH  83  84
ATOM     84  S   UNL A   1      36.490  31.741  31.501  1.00  0.00     0.124 S 
ATOM     85  O   UNL A   1      35.591  31.425  30.397  1.00  0.00    -0.237 OA
ATOM     86  O   UNL A   1      36.334  30.922  32.701  1.00  0.00    -0.237 OA
ATOM     87  O   UNL A   1      36.698  33.166  31.754  1.00  0.00    -0.744 OA
ENDBRANCH  83  84
ENDBRANCH  55  78
BRANCH  67  88
ATOM     88  C   UNL A   1      46.759  33.294  28.834  1.00  0.00    -0.014 A 
ATOM     89  C   UNL A   1      47.354  33.681  30.048  1.00  0.00     0.010 A 
ATOM     90  C   UNL A   1      46.674  34.227  27.784  1.00  0.00     0.010 A 
ATOM     91  C   UNL A   1      47.821  34.985  30.221  1.00  0.00     0.020 A 
ATOM     92  C   UNL A   1      47.167  35.524  27.942  1.00  0.00     0.020 A 
ATOM     93  C   UNL A   1      47.724  35.900  29.167  1.00  0.00     0.054 A 
BRANCH  93  94
ATOM     94  S   UNL A   1      48.370  37.578  29.403  1.00  0.00     0.124 S 
ATOM     95  O   UNL A   1      49.231  37.739  28.234  1.00  0.00    -0.237 OA
ATOM     96  O   UNL A   1      47.158  38.392  29.408  1.00  0.00    -0.237 OA
ATOM     97  O   UNL A   1      49.068  37.503  30.684  1.00  0.00    -0.744 OA
ENDBRANCH  93  94
ENDBRANCH  67  88
ENDBRANCH  41  42
ENDBRANCH  34  36
ENDBRANCH  33  34
ENDBRANCH  32  33
ENDBRANCH   1  32
TORSDOF 21
ENDMDL
