MODEL 1
REMARK VINA RESULT:      -9.2      0.000      0.000
REMARK SMILES CS(=O)(=O)c1ccc(/C=C(/C(=O)OCCOCCOC(=O)c2ccc(-c3c4nc(c(-c5ccc(S(=O)(=O)[O-])cc5)c5ccc([nH]5)c(-c5ccc(S(=O)(=O)[O-])cc5)c5nc(c(-c6ccc(S(=O)(=O)[O-])cc6)c6ccc3[nH]6)C=C5)C=C4)cc2)c2ccc(-c3ccc(F)cc3F)cc2)cc1
REMARK SMILES IDX 17 1 16 2 15 3 14 4 13 5 11 6 12 7 10 8 9 9 8 10 5 11 6 12
REMARK SMILES IDX 97 13 7 14 96 15 2 16 1 17 3 18 4 19 82 20 83 21 95 22 84 23
REMARK SMILES IDX 94 24 85 25 86 26 87 27 92 28 88 29 91 30 93 31 89 32 90 33
REMARK SMILES IDX 18 34 19 35 20 36 21 37 22 38 23 39 81 40 24 41 80 42 25 43
REMARK SMILES IDX 26 44 27 45 74 46 28 47 79 48 73 49 75 50 29 51 78 52 72 53
REMARK SMILES IDX 71 54 30 56 60 57 41 58 59 59 42 60 45 61 58 62 76 63 43 64
REMARK SMILES IDX 44 65 57 67 77 68 46 69 31 70 32 71 40 72 33 73 39 74 34 75
REMARK SMILES IDX 35 76 36 77 37 78 38 79 61 80 62 81 70 82 63 83 69 84 64 85
REMARK SMILES IDX 65 86 66 87 67 88 68 89 47 90 48 91 56 92 49 93 55 94 50 95
REMARK SMILES IDX 51 96 52 97 53 98 54 99
REMARK H PARENT 75 55 45 66
REMARK Flexibility Score: inf
ROOT
ATOM      1  C   UNL A   1      34.214  34.276  32.900  1.00  0.00     0.202 C 
ENDROOT
BRANCH   1   2
ATOM      2  O   UNL A   1      34.207  35.279  31.892  1.00  0.00    -0.374 OA
BRANCH   2   3
ATOM      3  C   UNL A   1      33.423  35.037  30.724  1.00  0.00     0.202 C 
BRANCH   3   4
ATOM      4  C   UNL A   1      34.135  34.601  29.438  1.00  0.00     0.261 C 
BRANCH   4   5
ATOM      5  O   UNL A   1      34.234  33.169  29.328  1.00  0.00    -0.460 OA
BRANCH   5   6
ATOM      6  C   UNL A   1      34.798  32.737  28.171  1.00  0.00     0.338 C 
ATOM      7  O   UNL A   1      35.450  33.425  27.397  1.00  0.00    -0.246 OA
BRANCH   6   8
ATOM      8  C   UNL A   1      34.680  31.252  27.999  1.00  0.00     0.067 C 
ATOM      9  C   UNL A   1      33.535  30.687  27.547  1.00  0.00     0.024 C 
BRANCH   9  10
ATOM     10  C   UNL A   1      33.337  29.288  27.080  1.00  0.00    -0.025 A 
ATOM     11  C   UNL A   1      32.523  26.871  25.889  1.00  0.00     0.067 A 
ATOM     12  C   UNL A   1      33.674  27.509  25.441  1.00  0.00     0.021 A 
ATOM     13  C   UNL A   1      31.845  27.361  27.009  1.00  0.00     0.021 A 
ATOM     14  C   UNL A   1      34.098  28.682  26.072  1.00  0.00     0.009 A 
ATOM     15  C   UNL A   1      32.253  28.564  27.599  1.00  0.00     0.009 A 
BRANCH  11  16
ATOM     16  S   UNL A   1      31.831  25.478  25.035  1.00  0.00     0.175 S 
ATOM     17  C   UNL A   1      30.161  25.895  24.615  1.00  0.00     0.163 C 
ATOM     18  O   UNL A   1      31.765  24.394  25.996  1.00  0.00    -0.224 OA
ATOM     19  O   UNL A   1      32.567  25.341  23.794  1.00  0.00    -0.224 OA
ENDBRANCH  11  16
ENDBRANCH   9  10
BRANCH   8  20
ATOM     20  C   UNL A   1      35.911  30.493  28.296  1.00  0.00    -0.011 A 
ATOM     21  C   UNL A   1      36.880  30.351  27.296  1.00  0.00     0.009 A 
ATOM     22  C   UNL A   1      36.146  29.929  29.549  1.00  0.00     0.009 A 
ATOM     23  C   UNL A   1      38.057  29.649  27.537  1.00  0.00     0.009 A 
ATOM     24  C   UNL A   1      37.345  29.250  29.796  1.00  0.00     0.009 A 
ATOM     25  C   UNL A   1      38.320  29.086  28.794  1.00  0.00    -0.015 A 
BRANCH  25  26
ATOM     26  C   UNL A   1      39.568  28.331  29.026  1.00  0.00     0.018 A 
ATOM     27  C   UNL A   1      39.825  27.128  28.337  1.00  0.00     0.015 A 
ATOM     28  C   UNL A   1      40.525  28.750  29.968  1.00  0.00     0.133 A 
ATOM     29  C   UNL A   1      40.971  26.373  28.601  1.00  0.00     0.040 A 
ATOM     30  C   UNL A   1      41.672  28.009  30.231  1.00  0.00     0.079 A 
ATOM     31  F   UNL A   1      40.342  29.880  30.669  1.00  0.00    -0.206 F 
ATOM     32  C   UNL A   1      41.881  26.822  29.549  1.00  0.00     0.126 A 
ATOM     33  F   UNL A   1      42.974  26.094  29.809  1.00  0.00    -0.207 F 
ENDBRANCH  25  26
ENDBRANCH   8  20
ENDBRANCH   6   8
ENDBRANCH   5   6
ENDBRANCH   4   5
ENDBRANCH   3   4
ENDBRANCH   2   3
ENDBRANCH   1   2
BRANCH   1  34
ATOM     34  C   UNL A   1      35.120  34.449  34.125  1.00  0.00     0.261 C 
BRANCH  34  35
ATOM     35  O   UNL A   1      35.471  33.213  34.757  1.00  0.00    -0.460 OA
BRANCH  35  36
ATOM     36  C   UNL A   1      36.494  33.310  35.641  1.00  0.00     0.338 C 
ATOM     37  O   UNL A   1      36.419  33.555  36.836  1.00  0.00    -0.246 OA
BRANCH  36  38
ATOM     38  C   UNL A   1      37.736  32.874  34.985  1.00  0.00     0.060 A 
ATOM     39  C   UNL A   1      38.951  33.325  35.516  1.00  0.00     0.016 A 
ATOM     40  C   UNL A   1      37.710  32.047  33.861  1.00  0.00     0.016 A 
ATOM     41  C   UNL A   1      40.152  32.955  34.920  1.00  0.00     0.010 A 
ATOM     42  C   UNL A   1      38.914  31.692  33.253  1.00  0.00     0.010 A 
ATOM     43  C   UNL A   1      40.138  32.155  33.770  1.00  0.00    -0.014 A 
BRANCH  43  44
ATOM     44  C   UNL A   1      41.397  31.872  33.047  1.00  0.00     0.031 A 
ATOM     45  C   UNL A   1      41.899  32.860  32.035  1.00  0.00     0.074 A 
ATOM     46  C   UNL A   1      42.077  30.739  33.291  1.00  0.00     0.049 A 
ATOM     47  N   UNL A   1      42.933  32.776  31.240  1.00  0.00    -0.248 NA
ATOM     48  C   UNL A   1      41.129  34.107  31.898  1.00  0.00     0.031 C 
ATOM     49  C   UNL A   1      41.715  29.735  34.292  1.00  0.00     0.029 A 
ATOM     50  N   UNL A   1      43.213  30.239  32.707  1.00  0.00    -0.354 N 
ATOM     51  C   UNL A   1      42.937  33.953  30.502  1.00  0.00     0.074 A 
ATOM     52  C   UNL A   1      41.782  34.719  30.922  1.00  0.00     0.031 C 
ATOM     53  C   UNL A   1      42.611  28.734  34.247  1.00  0.00     0.029 A 
ATOM     54  C   UNL A   1      43.579  29.004  33.187  1.00  0.00     0.049 A 
ATOM     55  H   UNL A   1      43.717  30.719  32.011  1.00  0.00     0.167 HD
ATOM     56  C   UNL A   1      43.823  34.357  29.560  1.00  0.00     0.031 A 
ATOM     57  C   UNL A   1      44.565  28.176  32.795  1.00  0.00     0.031 A 
ATOM     58  C   UNL A   1      44.948  33.570  29.127  1.00  0.00     0.049 A 
ATOM     59  C   UNL A   1      45.469  28.594  31.667  1.00  0.00     0.074 A 
ATOM     60  C   UNL A   1      45.912  33.889  28.188  1.00  0.00     0.029 A 
ATOM     61  N   UNL A   1      45.249  32.297  29.592  1.00  0.00    -0.354 N 
ATOM     62  N   UNL A   1      45.480  29.720  30.993  1.00  0.00    -0.248 NA
ATOM     63  C   UNL A   1      46.493  27.628  31.244  1.00  0.00     0.031 C 
ATOM     64  C   UNL A   1      46.753  32.782  28.033  1.00  0.00     0.029 A 
ATOM     65  C   UNL A   1      46.358  31.799  28.927  1.00  0.00     0.049 A 
ATOM     66  H   UNL A   1      44.749  31.819  30.292  1.00  0.00     0.167 HD
ATOM     67  C   UNL A   1      46.523  29.607  30.080  1.00  0.00     0.074 A 
ATOM     68  C   UNL A   1      47.130  28.309  30.299  1.00  0.00     0.031 C 
ATOM     69  C   UNL A   1      46.942  30.498  29.147  1.00  0.00     0.031 A 
BRANCH  56  70
ATOM     70  C   UNL A   1      43.571  35.690  28.902  1.00  0.00    -0.014 A 
ATOM     71  C   UNL A   1      43.021  35.776  27.609  1.00  0.00     0.010 A 
ATOM     72  C   UNL A   1      43.887  36.876  29.587  1.00  0.00     0.010 A 
ATOM     73  C   UNL A   1      42.849  37.019  26.995  1.00  0.00     0.020 A 
ATOM     74  C   UNL A   1      43.686  38.124  28.990  1.00  0.00     0.020 A 
ATOM     75  C   UNL A   1      43.191  38.185  27.686  1.00  0.00     0.054 A 
BRANCH  75  76
ATOM     76  S   UNL A   1      42.972  39.784  26.858  1.00  0.00     0.124 S 
ATOM     77  O   UNL A   1      43.153  40.722  27.963  1.00  0.00    -0.237 OA
ATOM     78  O   UNL A   1      44.038  39.776  25.861  1.00  0.00    -0.237 OA
ATOM     79  O   UNL A   1      41.616  39.714  26.318  1.00  0.00    -0.744 OA
ENDBRANCH  75  76
ENDBRANCH  56  70
BRANCH  57  80
ATOM     80  C   UNL A   1      44.736  26.861  33.471  1.00  0.00    -0.014 A 
ATOM     81  C   UNL A   1      44.204  25.693  32.898  1.00  0.00     0.010 A 
ATOM     82  C   UNL A   1      45.463  26.765  34.672  1.00  0.00     0.010 A 
ATOM     83  C   UNL A   1      44.399  24.452  33.513  1.00  0.00     0.020 A 
ATOM     84  C   UNL A   1      45.684  25.523  35.274  1.00  0.00     0.020 A 
ATOM     85  C   UNL A   1      45.147  24.375  34.692  1.00  0.00     0.054 A 
BRANCH  85  86
ATOM     86  S   UNL A   1      45.456  22.742  35.420  1.00  0.00     0.124 S 
ATOM     87  O   UNL A   1      44.327  21.966  34.919  1.00  0.00    -0.237 OA
ATOM     88  O   UNL A   1      46.761  22.394  34.864  1.00  0.00    -0.237 OA
ATOM     89  O   UNL A   1      45.449  23.003  36.858  1.00  0.00    -0.744 OA
ENDBRANCH  85  86
ENDBRANCH  57  80
BRANCH  69  90
ATOM     90  C   UNL A   1      48.122  30.110  28.293  1.00  0.00    -0.014 A 
ATOM     91  C   UNL A   1      47.951  29.365  27.112  1.00  0.00     0.010 A 
ATOM     92  C   UNL A   1      49.410  30.560  28.638  1.00  0.00     0.010 A 
ATOM     93  C   UNL A   1      49.048  29.063  26.302  1.00  0.00     0.020 A 
ATOM     94  C   UNL A   1      50.505  30.287  27.813  1.00  0.00     0.020 A 
ATOM     95  C   UNL A   1      50.318  29.533  26.654  1.00  0.00     0.054 A 
BRANCH  95  96
ATOM     96  S   UNL A   1      51.712  29.186  25.546  1.00  0.00     0.124 S 
ATOM     97  O   UNL A   1      52.275  30.518  25.338  1.00  0.00    -0.237 OA
ATOM     98  O   UNL A   1      52.530  28.273  26.340  1.00  0.00    -0.237 OA
ATOM     99  O   UNL A   1      51.081  28.587  24.371  1.00  0.00    -0.744 OA
ENDBRANCH  95  96
ENDBRANCH  69  90
ENDBRANCH  43  44
ENDBRANCH  36  38
ENDBRANCH  35  36
ENDBRANCH  34  35
ENDBRANCH   1  34
TORSDOF 21
ENDMDL
MODEL 2
REMARK VINA RESULT:      -8.9      3.664      6.147
REMARK SMILES CS(=O)(=O)c1ccc(/C=C(/C(=O)OCCOCCOC(=O)c2ccc(-c3c4nc(c(-c5ccc(S(=O)(=O)[O-])cc5)c5ccc([nH]5)c(-c5ccc(S(=O)(=O)[O-])cc5)c5nc(c(-c6ccc(S(=O)(=O)[O-])cc6)c6ccc3[nH]6)C=C5)C=C4)cc2)c2ccc(-c3ccc(F)cc3F)cc2)cc1
REMARK SMILES IDX 17 1 16 2 15 3 14 4 13 5 11 6 12 7 10 8 9 9 8 10 5 11 6 12
REMARK SMILES IDX 97 13 7 14 96 15 2 16 1 17 3 18 4 19 82 20 83 21 95 22 84 23
REMARK SMILES IDX 94 24 85 25 86 26 87 27 92 28 88 29 91 30 93 31 89 32 90 33
REMARK SMILES IDX 18 34 19 35 20 36 21 37 22 38 23 39 81 40 24 41 80 42 25 43
REMARK SMILES IDX 26 44 27 45 74 46 28 47 79 48 73 49 75 50 29 51 78 52 72 53
REMARK SMILES IDX 71 54 30 56 60 57 41 58 59 59 42 60 45 61 58 62 76 63 43 64
REMARK SMILES IDX 44 65 57 67 77 68 46 69 31 70 32 71 40 72 33 73 39 74 34 75
REMARK SMILES IDX 35 76 36 77 37 78 38 79 61 80 62 81 70 82 63 83 69 84 64 85
REMARK SMILES IDX 65 86 66 87 67 88 68 89 47 90 48 91 56 92 49 93 55 94 50 95
REMARK SMILES IDX 51 96 52 97 53 98 54 99
REMARK H PARENT 75 55 45 66
REMARK Flexibility Score: inf
ROOT
ATOM      1  C   UNL A   1      38.562  35.031  40.728  1.00  0.00     0.202 C 
ENDROOT
BRANCH   1   2
ATOM      2  O   UNL A   1      38.318  33.988  39.792  1.00  0.00    -0.374 OA
BRANCH   2   3
ATOM      3  C   UNL A   1      39.412  33.140  39.446  1.00  0.00     0.202 C 
BRANCH   3   4
ATOM      4  C   UNL A   1      39.748  32.944  37.963  1.00  0.00     0.261 C 
BRANCH   4   5
ATOM      5  O   UNL A   1      38.959  31.903  37.358  1.00  0.00    -0.460 OA
BRANCH   5   6
ATOM      6  C   UNL A   1      37.998  32.351  36.511  1.00  0.00     0.338 C 
ATOM      7  O   UNL A   1      37.065  33.081  36.817  1.00  0.00    -0.246 OA
BRANCH   6   8
ATOM      8  C   UNL A   1      38.280  31.988  35.083  1.00  0.00     0.067 C 
ATOM      9  C   UNL A   1      39.223  31.069  34.767  1.00  0.00     0.024 C 
BRANCH   9  10
ATOM     10  C   UNL A   1      39.444  30.415  33.449  1.00  0.00    -0.025 A 
ATOM     11  C   UNL A   1      39.331  29.379  30.834  1.00  0.00     0.067 A 
ATOM     12  C   UNL A   1      40.110  30.499  31.100  1.00  0.00     0.021 A 
ATOM     13  C   UNL A   1      38.708  28.697  31.883  1.00  0.00     0.021 A 
ATOM     14  C   UNL A   1      40.200  30.976  32.412  1.00  0.00     0.009 A 
ATOM     15  C   UNL A   1      38.767  29.215  33.184  1.00  0.00     0.009 A 
BRANCH  11  16
ATOM     16  S   UNL A   1      39.032  28.818  29.177  1.00  0.00     0.175 S 
ATOM     17  C   UNL A   1      37.395  29.328  28.736  1.00  0.00     0.163 C 
ATOM     18  O   UNL A   1      39.023  27.368  29.226  1.00  0.00    -0.224 OA
ATOM     19  O   UNL A   1      39.954  29.537  28.320  1.00  0.00    -0.224 OA
ENDBRANCH  11  16
ENDBRANCH   9  10
BRANCH   8  20
ATOM     20  C   UNL A   1      37.415  32.656  34.090  1.00  0.00    -0.011 A 
ATOM     21  C   UNL A   1      36.278  31.988  33.620  1.00  0.00     0.009 A 
ATOM     22  C   UNL A   1      37.686  33.941  33.622  1.00  0.00     0.009 A 
ATOM     23  C   UNL A   1      35.433  32.586  32.689  1.00  0.00     0.009 A 
ATOM     24  C   UNL A   1      36.817  34.549  32.708  1.00  0.00     0.009 A 
ATOM     25  C   UNL A   1      35.680  33.882  32.215  1.00  0.00    -0.015 A 
BRANCH  25  26
ATOM     26  C   UNL A   1      34.780  34.492  31.216  1.00  0.00     0.018 A 
ATOM     27  C   UNL A   1      34.939  34.226  29.839  1.00  0.00     0.015 A 
ATOM     28  C   UNL A   1      33.766  35.394  31.583  1.00  0.00     0.133 A 
ATOM     29  C   UNL A   1      34.136  34.853  28.884  1.00  0.00     0.040 A 
ATOM     30  C   UNL A   1      32.956  36.017  30.638  1.00  0.00     0.079 A 
ATOM     31  F   UNL A   1      33.563  35.704  32.873  1.00  0.00    -0.206 F 
ATOM     32  C   UNL A   1      33.154  35.745  29.295  1.00  0.00     0.126 A 
ATOM     33  F   UNL A   1      32.391  36.354  28.378  1.00  0.00    -0.207 F 
ENDBRANCH  25  26
ENDBRANCH   8  20
ENDBRANCH   6   8
ENDBRANCH   5   6
ENDBRANCH   4   5
ENDBRANCH   3   4
ENDBRANCH   2   3
ENDBRANCH   1   2
BRANCH   1  34
ATOM     34  C   UNL A   1      38.588  36.485  40.243  1.00  0.00     0.261 C 
BRANCH  34  35
ATOM     35  O   UNL A   1      39.009  36.626  38.881  1.00  0.00    -0.460 OA
BRANCH  35  36
ATOM     36  C   UNL A   1      40.231  37.193  38.732  1.00  0.00     0.338 C 
ATOM     37  O   UNL A   1      40.779  37.983  39.488  1.00  0.00    -0.246 OA
BRANCH  36  38
ATOM     38  C   UNL A   1      40.917  36.559  37.595  1.00  0.00     0.060 A 
ATOM     39  C   UNL A   1      40.131  36.092  36.534  1.00  0.00     0.016 A 
ATOM     40  C   UNL A   1      42.305  36.415  37.576  1.00  0.00     0.016 A 
ATOM     41  C   UNL A   1      40.732  35.470  35.445  1.00  0.00     0.010 A 
ATOM     42  C   UNL A   1      42.903  35.772  36.493  1.00  0.00     0.010 A 
ATOM     43  C   UNL A   1      42.121  35.285  35.431  1.00  0.00    -0.014 A 
BRANCH  43  44
ATOM     44  C   UNL A   1      42.754  34.501  34.348  1.00  0.00     0.031 A 
ATOM     45  C   UNL A   1      43.235  35.209  33.115  1.00  0.00     0.074 A 
ATOM     46  C   UNL A   1      42.887  33.169  34.466  1.00  0.00     0.049 A 
ATOM     47  N   UNL A   1      43.747  34.710  32.022  1.00  0.00    -0.248 NA
ATOM     48  C   UNL A   1      43.119  36.676  33.115  1.00  0.00     0.031 C 
ATOM     49  C   UNL A   1      42.507  32.382  35.640  1.00  0.00     0.029 A 
ATOM     50  N   UNL A   1      43.373  32.241  33.580  1.00  0.00    -0.354 N 
ATOM     51  C   UNL A   1      44.008  35.798  31.198  1.00  0.00     0.074 A 
ATOM     52  C   UNL A   1      43.567  36.981  31.906  1.00  0.00     0.031 C 
ATOM     53  C   UNL A   1      42.771  31.087  35.399  1.00  0.00     0.029 A 
ATOM     54  C   UNL A   1      43.291  30.948  34.041  1.00  0.00     0.049 A 
ATOM     55  H   UNL A   1      43.743  32.478  32.700  1.00  0.00     0.167 HD
ATOM     56  C   UNL A   1      44.566  35.808  29.963  1.00  0.00     0.031 A 
ATOM     57  C   UNL A   1      43.578  29.786  33.424  1.00  0.00     0.031 A 
ATOM     58  C   UNL A   1      44.969  34.620  29.255  1.00  0.00     0.049 A 
ATOM     59  C   UNL A   1      44.088  29.812  32.009  1.00  0.00     0.074 A 
ATOM     60  C   UNL A   1      45.552  34.519  28.005  1.00  0.00     0.029 A 
ATOM     61  N   UNL A   1      44.812  33.325  29.728  1.00  0.00    -0.354 N 
ATOM     62  N   UNL A   1      44.356  30.848  31.248  1.00  0.00    -0.248 NA
ATOM     63  C   UNL A   1      44.331  28.513  31.367  1.00  0.00     0.031 C 
ATOM     64  C   UNL A   1      45.682  33.162  27.693  1.00  0.00     0.029 A 
ATOM     65  C   UNL A   1      45.247  32.416  28.777  1.00  0.00     0.049 A 
ATOM     66  H   UNL A   1      44.447  33.087  30.611  1.00  0.00     0.167 HD
ATOM     67  C   UNL A   1      44.818  30.325  30.045  1.00  0.00     0.074 A 
ATOM     68  C   UNL A   1      44.809  28.882  30.185  1.00  0.00     0.031 C 
ATOM     69  C   UNL A   1      45.218  30.981  28.927  1.00  0.00     0.031 A 
BRANCH  56  70
ATOM     70  C   UNL A   1      44.718  37.146  29.285  1.00  0.00    -0.014 A 
ATOM     71  C   UNL A   1      45.891  37.911  29.428  1.00  0.00     0.010 A 
ATOM     72  C   UNL A   1      43.672  37.646  28.489  1.00  0.00     0.010 A 
ATOM     73  C   UNL A   1      45.989  39.174  28.838  1.00  0.00     0.020 A 
ATOM     74  C   UNL A   1      43.779  38.895  27.870  1.00  0.00     0.020 A 
ATOM     75  C   UNL A   1      44.928  39.661  28.069  1.00  0.00     0.054 A 
BRANCH  75  76
ATOM     76  S   UNL A   1      45.076  41.310  27.329  1.00  0.00     0.124 S 
ATOM     77  O   UNL A   1      44.555  41.083  25.983  1.00  0.00    -0.237 OA
ATOM     78  O   UNL A   1      44.235  42.128  28.198  1.00  0.00    -0.237 OA
ATOM     79  O   UNL A   1      46.507  41.597  27.401  1.00  0.00    -0.744 OA
ENDBRANCH  75  76
ENDBRANCH  56  70
BRANCH  57  80
ATOM     80  C   UNL A   1      43.373  28.500  34.146  1.00  0.00    -0.014 A 
ATOM     81  C   UNL A   1      42.144  27.824  34.058  1.00  0.00     0.010 A 
ATOM     82  C   UNL A   1      44.419  27.926  34.892  1.00  0.00     0.010 A 
ATOM     83  C   UNL A   1      41.966  26.596  34.702  1.00  0.00     0.020 A 
ATOM     84  C   UNL A   1      44.254  26.685  35.513  1.00  0.00     0.020 A 
ATOM     85  C   UNL A   1      43.026  26.029  35.417  1.00  0.00     0.054 A 
BRANCH  85  86
ATOM     86  S   UNL A   1      42.793  24.396  36.171  1.00  0.00     0.124 S 
ATOM     87  O   UNL A   1      43.967  24.287  37.030  1.00  0.00    -0.237 OA
ATOM     88  O   UNL A   1      41.514  24.550  36.861  1.00  0.00    -0.237 OA
ATOM     89  O   UNL A   1      42.769  23.491  35.024  1.00  0.00    -0.744 OA
ENDBRANCH  85  86
ENDBRANCH  57  80
BRANCH  69  90
ATOM     90  C   UNL A   1      45.690  30.149  27.762  1.00  0.00    -0.014 A 
ATOM     91  C   UNL A   1      47.060  30.019  27.470  1.00  0.00     0.010 A 
ATOM     92  C   UNL A   1      44.755  29.428  26.996  1.00  0.00     0.010 A 
ATOM     93  C   UNL A   1      47.484  29.198  26.422  1.00  0.00     0.020 A 
ATOM     94  C   UNL A   1      45.178  28.581  25.968  1.00  0.00     0.020 A 
ATOM     95  C   UNL A   1      46.540  28.478  25.683  1.00  0.00     0.054 A 
BRANCH  95  96
ATOM     96  S   UNL A   1      47.125  27.365  24.375  1.00  0.00     0.124 S 
ATOM     97  O   UNL A   1      46.124  26.302  24.408  1.00  0.00    -0.237 OA
ATOM     98  O   UNL A   1      47.097  28.220  23.192  1.00  0.00    -0.237 OA
ATOM     99  O   UNL A   1      48.461  26.974  24.823  1.00  0.00    -0.744 OA
ENDBRANCH  95  96
ENDBRANCH  69  90
ENDBRANCH  43  44
ENDBRANCH  36  38
ENDBRANCH  35  36
ENDBRANCH  34  35
ENDBRANCH   1  34
TORSDOF 21
ENDMDL
MODEL 3
REMARK VINA RESULT:      -8.8      4.062      7.763
REMARK SMILES CS(=O)(=O)c1ccc(/C=C(/C(=O)OCCOCCOC(=O)c2ccc(-c3c4nc(c(-c5ccc(S(=O)(=O)[O-])cc5)c5ccc([nH]5)c(-c5ccc(S(=O)(=O)[O-])cc5)c5nc(c(-c6ccc(S(=O)(=O)[O-])cc6)c6ccc3[nH]6)C=C5)C=C4)cc2)c2ccc(-c3ccc(F)cc3F)cc2)cc1
REMARK SMILES IDX 17 1 16 2 15 3 14 4 13 5 11 6 12 7 10 8 9 9 8 10 5 11 6 12
REMARK SMILES IDX 97 13 7 14 96 15 2 16 1 17 3 18 4 19 82 20 83 21 95 22 84 23
REMARK SMILES IDX 94 24 85 25 86 26 87 27 92 28 88 29 91 30 93 31 89 32 90 33
REMARK SMILES IDX 18 34 19 35 20 36 21 37 22 38 23 39 81 40 24 41 80 42 25 43
REMARK SMILES IDX 26 44 27 45 74 46 28 47 79 48 73 49 75 50 29 51 78 52 72 53
REMARK SMILES IDX 71 54 30 56 60 57 41 58 59 59 42 60 45 61 58 62 76 63 43 64
REMARK SMILES IDX 44 65 57 67 77 68 46 69 31 70 32 71 40 72 33 73 39 74 34 75
REMARK SMILES IDX 35 76 36 77 37 78 38 79 61 80 62 81 70 82 63 83 69 84 64 85
REMARK SMILES IDX 65 86 66 87 67 88 68 89 47 90 48 91 56 92 49 93 55 94 50 95
REMARK SMILES IDX 51 96 52 97 53 98 54 99
REMARK H PARENT 75 55 45 66
REMARK Flexibility Score: inf
ROOT
ATOM      1  C   UNL A   1      35.872  31.186  31.994  1.00  0.00     0.202 C 
ENDROOT
BRANCH   1   2
ATOM      2  O   UNL A   1      35.867  32.433  31.310  1.00  0.00    -0.374 OA
BRANCH   2   3
ATOM      3  C   UNL A   1      36.472  33.547  31.964  1.00  0.00     0.202 C 
BRANCH   3   4
ATOM      4  C   UNL A   1      36.375  33.645  33.491  1.00  0.00     0.261 C 
BRANCH   4   5
ATOM      5  O   UNL A   1      37.669  33.655  34.121  1.00  0.00    -0.460 OA
BRANCH   5   6
ATOM      6  C   UNL A   1      38.016  32.480  34.704  1.00  0.00     0.338 C 
ATOM      7  O   UNL A   1      37.269  31.763  35.357  1.00  0.00    -0.246 OA
BRANCH   6   8
ATOM      8  C   UNL A   1      39.401  32.043  34.330  1.00  0.00     0.067 C 
ATOM      9  C   UNL A   1      40.030  31.053  35.005  1.00  0.00     0.024 C 
BRANCH   9  10
ATOM     10  C   UNL A   1      41.272  30.334  34.611  1.00  0.00    -0.025 A 
ATOM     11  C   UNL A   1      43.512  29.199  33.339  1.00  0.00     0.067 A 
ATOM     12  C   UNL A   1      43.677  30.287  34.188  1.00  0.00     0.021 A 
ATOM     13  C   UNL A   1      42.258  28.594  33.216  1.00  0.00     0.021 A 
ATOM     14  C   UNL A   1      42.566  30.812  34.855  1.00  0.00     0.009 A 
ATOM     15  C   UNL A   1      41.145  29.161  33.851  1.00  0.00     0.009 A 
BRANCH  11  16
ATOM     16  S   UNL A   1      44.839  28.586  32.332  1.00  0.00     0.175 S 
ATOM     17  C   UNL A   1      46.078  27.951  33.425  1.00  0.00     0.163 C 
ATOM     18  O   UNL A   1      45.416  29.736  31.663  1.00  0.00    -0.224 OA
ATOM     19  O   UNL A   1      44.309  27.464  31.581  1.00  0.00    -0.224 OA
ENDBRANCH  11  16
ENDBRANCH   9  10
BRANCH   8  20
ATOM     20  C   UNL A   1      39.970  32.727  33.151  1.00  0.00    -0.011 A 
ATOM     21  C   UNL A   1      40.714  33.897  33.337  1.00  0.00     0.009 A 
ATOM     22  C   UNL A   1      39.804  32.230  31.859  1.00  0.00     0.009 A 
ATOM     23  C   UNL A   1      41.273  34.568  32.253  1.00  0.00     0.009 A 
ATOM     24  C   UNL A   1      40.393  32.891  30.775  1.00  0.00     0.009 A 
ATOM     25  C   UNL A   1      41.130  34.078  30.946  1.00  0.00    -0.015 A 
BRANCH  25  26
ATOM     26  C   UNL A   1      41.717  34.813  29.808  1.00  0.00     0.018 A 
ATOM     27  C   UNL A   1      43.085  35.157  29.796  1.00  0.00     0.015 A 
ATOM     28  C   UNL A   1      40.938  35.238  28.718  1.00  0.00     0.133 A 
ATOM     29  C   UNL A   1      43.632  35.911  28.755  1.00  0.00     0.040 A 
ATOM     30  C   UNL A   1      41.476  35.982  27.673  1.00  0.00     0.079 A 
ATOM     31  F   UNL A   1      39.627  34.956  28.665  1.00  0.00    -0.206 F 
ATOM     32  C   UNL A   1      42.819  36.318  27.705  1.00  0.00     0.126 A 
ATOM     33  F   UNL A   1      43.342  37.049  26.713  1.00  0.00    -0.207 F 
ENDBRANCH  25  26
ENDBRANCH   8  20
ENDBRANCH   6   8
ENDBRANCH   5   6
ENDBRANCH   4   5
ENDBRANCH   3   4
ENDBRANCH   2   3
ENDBRANCH   1   2
BRANCH   1  34
ATOM     34  C   UNL A   1      37.111  30.286  31.907  1.00  0.00     0.261 C 
BRANCH  34  35
ATOM     35  O   UNL A   1      36.896  29.087  31.153  1.00  0.00    -0.460 OA
BRANCH  35  36
ATOM     36  C   UNL A   1      37.073  29.231  29.817  1.00  0.00     0.338 C 
ATOM     37  O   UNL A   1      36.234  29.550  28.988  1.00  0.00    -0.246 OA
BRANCH  36  38
ATOM     38  C   UNL A   1      38.509  29.135  29.513  1.00  0.00     0.060 A 
ATOM     39  C   UNL A   1      38.916  29.366  28.192  1.00  0.00     0.016 A 
ATOM     40  C   UNL A   1      39.440  28.815  30.502  1.00  0.00     0.016 A 
ATOM     41  C   UNL A   1      40.261  29.270  27.851  1.00  0.00     0.010 A 
ATOM     42  C   UNL A   1      40.786  28.700  30.154  1.00  0.00     0.010 A 
ATOM     43  C   UNL A   1      41.200  28.913  28.827  1.00  0.00    -0.014 A 
BRANCH  43  44
ATOM     44  C   UNL A   1      42.609  28.670  28.447  1.00  0.00     0.031 A 
ATOM     45  C   UNL A   1      43.601  29.791  28.558  1.00  0.00     0.074 A 
ATOM     46  C   UNL A   1      42.991  27.462  27.999  1.00  0.00     0.049 A 
ATOM     47  N   UNL A   1      44.861  29.817  28.211  1.00  0.00    -0.248 NA
ATOM     48  C   UNL A   1      43.105  31.050  29.135  1.00  0.00     0.031 C 
ATOM     49  C   UNL A   1      42.127  26.285  27.902  1.00  0.00     0.029 A 
ATOM     50  N   UNL A   1      44.206  27.028  27.534  1.00  0.00    -0.354 N 
ATOM     51  C   UNL A   1      45.309  31.096  28.518  1.00  0.00     0.074 A 
ATOM     52  C   UNL A   1      44.176  31.825  29.050  1.00  0.00     0.031 C 
ATOM     53  C   UNL A   1      42.841  25.262  27.402  1.00  0.00     0.029 A 
ATOM     54  C   UNL A   1      44.194  25.724  27.101  1.00  0.00     0.049 A 
ATOM     55  H   UNL A   1      45.009  27.597  27.512  1.00  0.00     0.167 HD
ATOM     56  C   UNL A   1      46.552  31.615  28.370  1.00  0.00     0.031 A 
ATOM     57  C   UNL A   1      45.157  24.997  26.503  1.00  0.00     0.031 A 
ATOM     58  C   UNL A   1      47.662  30.889  27.807  1.00  0.00     0.049 A 
ATOM     59  C   UNL A   1      46.498  25.628  26.242  1.00  0.00     0.074 A 
ATOM     60  C   UNL A   1      48.964  31.316  27.621  1.00  0.00     0.029 A 
ATOM     61  N   UNL A   1      47.593  29.591  27.322  1.00  0.00    -0.354 N 
ATOM     62  N   UNL A   1      46.919  26.830  26.561  1.00  0.00    -0.248 NA
ATOM     63  C   UNL A   1      47.492  24.807  25.539  1.00  0.00     0.031 C 
ATOM     64  C   UNL A   1      49.665  30.303  26.959  1.00  0.00     0.029 A 
ATOM     65  C   UNL A   1      48.819  29.216  26.795  1.00  0.00     0.049 A 
ATOM     66  H   UNL A   1      46.792  29.020  27.348  1.00  0.00     0.167 HD
ATOM     67  C   UNL A   1      48.234  26.902  26.114  1.00  0.00     0.074 A 
ATOM     68  C   UNL A   1      48.543  25.617  25.518  1.00  0.00     0.031 C 
ATOM     69  C   UNL A   1      49.108  27.937  26.193  1.00  0.00     0.031 A 
BRANCH  56  70
ATOM     70  C   UNL A   1      46.754  33.052  28.776  1.00  0.00    -0.014 A 
ATOM     71  C   UNL A   1      46.901  33.418  30.127  1.00  0.00     0.010 A 
ATOM     72  C   UNL A   1      46.798  34.054  27.791  1.00  0.00     0.010 A 
ATOM     73  C   UNL A   1      47.030  34.763  30.486  1.00  0.00     0.020 A 
ATOM     74  C   UNL A   1      46.960  35.397  28.142  1.00  0.00     0.020 A 
ATOM     75  C   UNL A   1      47.050  35.745  29.491  1.00  0.00     0.054 A 
BRANCH  75  76
ATOM     76  S   UNL A   1      47.202  37.482  29.988  1.00  0.00     0.124 S 
ATOM     77  O   UNL A   1      46.603  38.173  28.848  1.00  0.00    -0.237 OA
ATOM     78  O   UNL A   1      46.430  37.530  31.226  1.00  0.00    -0.237 OA
ATOM     79  O   UNL A   1      48.641  37.676  30.145  1.00  0.00    -0.744 OA
ENDBRANCH  75  76
ENDBRANCH  56  70
BRANCH  57  80
ATOM     80  C   UNL A   1      44.876  23.591  26.101  1.00  0.00    -0.014 A 
ATOM     81  C   UNL A   1      43.664  23.261  25.471  1.00  0.00     0.010 A 
ATOM     82  C   UNL A   1      45.836  22.583  26.312  1.00  0.00     0.010 A 
ATOM     83  C   UNL A   1      43.418  21.949  25.057  1.00  0.00     0.020 A 
ATOM     84  C   UNL A   1      45.605  21.277  25.874  1.00  0.00     0.020 A 
ATOM     85  C   UNL A   1      44.395  20.967  25.252  1.00  0.00     0.054 A 
BRANCH  85  86
ATOM     86  S   UNL A   1      44.082  19.293  24.628  1.00  0.00     0.124 S 
ATOM     87  O   UNL A   1      44.446  19.419  23.220  1.00  0.00    -0.237 OA
ATOM     88  O   UNL A   1      44.982  18.482  25.444  1.00  0.00    -0.237 OA
ATOM     89  O   UNL A   1      42.660  19.090  24.892  1.00  0.00    -0.744 OA
ENDBRANCH  85  86
ENDBRANCH  57  80
BRANCH  69  90
ATOM     90  C   UNL A   1      50.490  27.727  25.631  1.00  0.00    -0.014 A 
ATOM     91  C   UNL A   1      51.512  27.156  26.410  1.00  0.00     0.010 A 
ATOM     92  C   UNL A   1      50.748  28.035  24.282  1.00  0.00     0.010 A 
ATOM     93  C   UNL A   1      52.772  26.915  25.856  1.00  0.00     0.020 A 
ATOM     94  C   UNL A   1      51.997  27.766  23.716  1.00  0.00     0.020 A 
ATOM     95  C   UNL A   1      53.004  27.215  24.510  1.00  0.00     0.054 A 
BRANCH  95  96
ATOM     96  S   UNL A   1      54.627  26.824  23.800  1.00  0.00     0.124 S 
ATOM     97  O   UNL A   1      55.378  28.049  24.064  1.00  0.00    -0.237 OA
ATOM     98  O   UNL A   1      55.040  25.654  24.570  1.00  0.00    -0.237 OA
ATOM     99  O   UNL A   1      54.337  26.565  22.391  1.00  0.00    -0.744 OA
ENDBRANCH  95  96
ENDBRANCH  69  90
ENDBRANCH  43  44
ENDBRANCH  36  38
ENDBRANCH  35  36
ENDBRANCH  34  35
ENDBRANCH   1  34
TORSDOF 21
ENDMDL
