MODEL 1
REMARK VINA RESULT:     -11.6      0.000      0.000
REMARK SMILES C[C@H]1OCC[C@@H]1C(=O)Nc1sc2c(c1C(=O)OCCOCCOC(=O)c1ccc(-c3c4nc(c(-c5ccc(S(=O)(=O)[O-])cc5)c5ccc([nH]5)c(-c5ccc(S(=O)(=O)[O-])cc5)c5nc(c(-c6ccc(S(=O)(=O)[O-])cc6)c6ccc3[nH]6)C=C5)C=C4)cc1)CCC2
REMARK SMILES IDX 21 1 20 2 19 3 18 4 17 5 15 6 16 7 14 8 10 9 11 10 12 11
REMARK SMILES IDX 13 12 88 13 86 14 87 15 9 16 7 17 8 18 6 20 1 21 2 22 3 23
REMARK SMILES IDX 4 24 5 25 22 26 23 27 24 28 25 29 26 30 27 31 85 32 28 33
REMARK SMILES IDX 84 34 29 35 30 36 31 37 78 38 32 39 83 40 77 41 79 42 33 43
REMARK SMILES IDX 82 44 76 45 75 46 34 48 64 49 45 50 63 51 46 52 49 53 62 54
REMARK SMILES IDX 80 55 47 56 48 57 61 59 81 60 50 61 35 62 36 63 44 64 37 65
REMARK SMILES IDX 43 66 38 67 39 68 40 69 41 70 42 71 65 72 66 73 74 74 67 75
REMARK SMILES IDX 73 76 68 77 69 78 70 79 71 80 72 81 51 82 52 83 60 84 53 85
REMARK SMILES IDX 59 86 54 87 55 88 56 89 57 90 58 91
REMARK H PARENT 9 19 79 47 49 58
REMARK Flexibility Score: inf
ROOT
ATOM      1  C   UNL A   1      32.643  30.195  26.128  1.00  0.00     0.202 C 
ENDROOT
BRANCH   1   2
ATOM      2  O   UNL A   1      31.560  29.283  26.265  1.00  0.00    -0.374 OA
BRANCH   2   3
ATOM      3  C   UNL A   1      31.642  28.441  27.431  1.00  0.00     0.202 C 
BRANCH   3   4
ATOM      4  C   UNL A   1      32.187  27.039  27.110  1.00  0.00     0.261 C 
BRANCH   4   5
ATOM      5  O   UNL A   1      31.113  26.101  26.838  1.00  0.00    -0.460 OA
BRANCH   5   6
ATOM      6  C   UNL A   1      31.519  24.835  26.497  1.00  0.00     0.341 C 
ATOM      7  O   UNL A   1      31.161  23.823  27.088  1.00  0.00    -0.246 OA
BRANCH   6   8
ATOM      8  C   UNL A   1      32.397  24.788  25.327  1.00  0.00     0.098 A 
ATOM      9  C   UNL A   1      33.551  24.012  25.246  1.00  0.00     0.110 A 
ATOM     10  S   UNL A   1      34.543  24.363  23.890  1.00  0.00    -0.122 S 
ATOM     11  C   UNL A   1      33.330  25.311  23.257  1.00  0.00     0.011 A 
ATOM     12  C   UNL A   1      32.240  25.460  24.075  1.00  0.00    -0.017 A 
ATOM     13  C   UNL A   1      33.227  25.998  21.952  1.00  0.00     0.047 C 
ATOM     14  C   UNL A   1      31.213  26.302  23.406  1.00  0.00     0.038 C 
ATOM     15  C   UNL A   1      31.703  26.299  21.918  1.00  0.00     0.010 C 
BRANCH   9  16
ATOM     16  N   UNL A   1      34.107  23.088  26.101  1.00  0.00    -0.317 N 
ATOM     17  C   UNL A   1      34.640  21.903  25.659  1.00  0.00     0.230 C 
ATOM     18  O   UNL A   1      35.681  21.517  26.210  1.00  0.00    -0.274 OA
ATOM     19  H   UNL A   1      34.121  23.283  27.065  1.00  0.00     0.170 HD
BRANCH  17  20
ATOM     20  C   UNL A   1      33.998  21.012  24.597  1.00  0.00     0.110 C 
ATOM     21  C   UNL A   1      32.172  21.040  22.871  1.00  0.00     0.039 C 
ATOM     22  C   UNL A   1      32.509  21.187  24.361  1.00  0.00     0.127 C 
ATOM     23  O   UNL A   1      31.863  20.107  25.053  1.00  0.00    -0.378 OA
ATOM     24  C   UNL A   1      32.758  18.998  25.072  1.00  0.00     0.161 C 
ATOM     25  C   UNL A   1      34.147  19.532  24.775  1.00  0.00     0.044 C 
ENDBRANCH  17  20
ENDBRANCH   9  16
ENDBRANCH   6   8
ENDBRANCH   5   6
ENDBRANCH   4   5
ENDBRANCH   3   4
ENDBRANCH   2   3
ENDBRANCH   1   2
BRANCH   1  26
ATOM     26  C   UNL A   1      32.872  31.097  27.335  1.00  0.00     0.261 C 
BRANCH  26  27
ATOM     27  O   UNL A   1      34.217  31.560  27.325  1.00  0.00    -0.460 OA
BRANCH  27  28
ATOM     28  C   UNL A   1      34.745  31.792  28.546  1.00  0.00     0.338 C 
ATOM     29  O   UNL A   1      34.239  32.380  29.487  1.00  0.00    -0.246 OA
BRANCH  28  30
ATOM     30  C   UNL A   1      36.135  31.351  28.481  1.00  0.00     0.060 A 
ATOM     31  C   UNL A   1      36.345  30.129  27.857  1.00  0.00     0.016 A 
ATOM     32  C   UNL A   1      37.157  32.026  29.176  1.00  0.00     0.016 A 
ATOM     33  C   UNL A   1      37.549  29.503  28.062  1.00  0.00     0.010 A 
ATOM     34  C   UNL A   1      38.373  31.400  29.369  1.00  0.00     0.010 A 
ATOM     35  C   UNL A   1      38.534  30.120  28.855  1.00  0.00    -0.014 A 
BRANCH  35  36
ATOM     36  C   UNL A   1      39.768  29.374  28.985  1.00  0.00     0.031 A 
ATOM     37  C   UNL A   1      40.148  29.136  30.394  1.00  0.00     0.074 A 
ATOM     38  C   UNL A   1      40.546  28.989  27.964  1.00  0.00     0.049 A 
ATOM     39  N   UNL A   1      41.066  29.742  31.070  1.00  0.00    -0.248 NA
ATOM     40  C   UNL A   1      39.272  28.265  31.187  1.00  0.00     0.031 C 
ATOM     41  C   UNL A   1      40.232  28.892  26.541  1.00  0.00     0.029 A 
ATOM     42  N   UNL A   1      41.821  28.527  28.042  1.00  0.00    -0.354 N 
ATOM     43  C   UNL A   1      41.006  29.204  32.347  1.00  0.00     0.074 A 
ATOM     44  C   UNL A   1      39.791  28.426  32.402  1.00  0.00     0.031 C 
ATOM     45  C   UNL A   1      41.218  28.197  25.925  1.00  0.00     0.029 A 
ATOM     46  C   UNL A   1      42.284  27.935  26.882  1.00  0.00     0.049 A 
ATOM     47  H   UNL A   1      42.369  28.608  28.856  1.00  0.00     0.167 HD
ATOM     48  C   UNL A   1      42.060  29.265  33.203  1.00  0.00     0.031 A 
ATOM     49  C   UNL A   1      43.425  27.214  26.769  1.00  0.00     0.031 A 
ATOM     50  C   UNL A   1      43.012  30.275  32.820  1.00  0.00     0.049 A 
ATOM     51  C   UNL A   1      44.314  27.596  27.899  1.00  0.00     0.074 A 
ATOM     52  C   UNL A   1      42.960  31.648  32.669  1.00  0.00     0.029 A 
ATOM     53  N   UNL A   1      44.148  29.867  32.160  1.00  0.00    -0.354 N 
ATOM     54  N   UNL A   1      44.888  28.761  28.005  1.00  0.00    -0.248 NA
ATOM     55  C   UNL A   1      44.246  26.825  29.132  1.00  0.00     0.031 C 
ATOM     56  C   UNL A   1      43.802  31.935  31.555  1.00  0.00     0.029 A 
ATOM     57  C   UNL A   1      44.347  30.729  31.111  1.00  0.00     0.049 A 
ATOM     58  H   UNL A   1      44.715  29.097  32.398  1.00  0.00     0.167 HD
ATOM     59  C   UNL A   1      44.885  29.046  29.364  1.00  0.00     0.074 A 
ATOM     60  C   UNL A   1      44.571  27.776  30.013  1.00  0.00     0.031 C 
ATOM     61  C   UNL A   1      44.877  30.333  29.822  1.00  0.00     0.031 A 
BRANCH  48  62
ATOM     62  C   UNL A   1      42.393  28.138  34.145  1.00  0.00    -0.014 A 
ATOM     63  C   UNL A   1      42.540  28.410  35.519  1.00  0.00     0.010 A 
ATOM     64  C   UNL A   1      42.838  26.877  33.693  1.00  0.00     0.010 A 
ATOM     65  C   UNL A   1      43.180  27.501  36.372  1.00  0.00     0.020 A 
ATOM     66  C   UNL A   1      43.432  25.945  34.542  1.00  0.00     0.020 A 
ATOM     67  C   UNL A   1      43.639  26.283  35.869  1.00  0.00     0.054 A 
BRANCH  67  68
ATOM     68  S   UNL A   1      44.587  25.174  36.937  1.00  0.00     0.124 S 
ATOM     69  O   UNL A   1      45.924  25.751  36.851  1.00  0.00    -0.237 OA
ATOM     70  O   UNL A   1      43.908  25.326  38.220  1.00  0.00    -0.237 OA
ATOM     71  O   UNL A   1      44.424  23.868  36.302  1.00  0.00    -0.744 OA
ENDBRANCH  67  68
ENDBRANCH  48  62
BRANCH  49  72
ATOM     72  C   UNL A   1      43.637  25.987  25.967  1.00  0.00    -0.014 A 
ATOM     73  C   UNL A   1      44.902  25.706  25.416  1.00  0.00     0.010 A 
ATOM     74  C   UNL A   1      42.683  24.950  25.989  1.00  0.00     0.010 A 
ATOM     75  C   UNL A   1      45.225  24.411  24.985  1.00  0.00     0.020 A 
ATOM     76  C   UNL A   1      42.994  23.661  25.547  1.00  0.00     0.020 A 
ATOM     77  C   UNL A   1      44.276  23.390  25.077  1.00  0.00     0.054 A 
BRANCH  77  78
ATOM     78  S   UNL A   1      44.767  21.679  24.720  1.00  0.00     0.124 S 
ATOM     79  O   UNL A   1      46.051  21.575  25.409  1.00  0.00    -0.237 OA
ATOM     80  O   UNL A   1      43.672  20.907  25.301  1.00  0.00    -0.237 OA
ATOM     81  O   UNL A   1      44.842  21.639  23.260  1.00  0.00    -0.744 OA
ENDBRANCH  77  78
ENDBRANCH  49  72
BRANCH  61  82
ATOM     82  C   UNL A   1      45.188  31.445  28.844  1.00  0.00    -0.014 A 
ATOM     83  C   UNL A   1      46.467  32.017  28.695  1.00  0.00     0.010 A 
ATOM     84  C   UNL A   1      44.173  31.840  27.953  1.00  0.00     0.010 A 
ATOM     85  C   UNL A   1      46.711  32.985  27.710  1.00  0.00     0.020 A 
ATOM     86  C   UNL A   1      44.415  32.790  26.956  1.00  0.00     0.020 A 
ATOM     87  C   UNL A   1      45.680  33.368  26.848  1.00  0.00     0.054 A 
BRANCH  87  88
ATOM     88  S   UNL A   1      46.013  34.595  25.552  1.00  0.00     0.124 S 
ATOM     89  O   UNL A   1      47.429  34.379  25.268  1.00  0.00    -0.237 OA
ATOM     90  O   UNL A   1      45.091  34.203  24.488  1.00  0.00    -0.237 OA
ATOM     91  O   UNL A   1      45.698  35.872  26.192  1.00  0.00    -0.744 OA
ENDBRANCH  87  88
ENDBRANCH  61  82
ENDBRANCH  35  36
ENDBRANCH  28  30
ENDBRANCH  27  28
ENDBRANCH  26  27
ENDBRANCH   1  26
TORSDOF 19
ENDMDL
MODEL 2
REMARK VINA RESULT:     -11.6      2.834      9.507
REMARK SMILES C[C@H]1OCC[C@@H]1C(=O)Nc1sc2c(c1C(=O)OCCOCCOC(=O)c1ccc(-c3c4nc(c(-c5ccc(S(=O)(=O)[O-])cc5)c5ccc([nH]5)c(-c5ccc(S(=O)(=O)[O-])cc5)c5nc(c(-c6ccc(S(=O)(=O)[O-])cc6)c6ccc3[nH]6)C=C5)C=C4)cc1)CCC2
REMARK SMILES IDX 21 1 20 2 19 3 18 4 17 5 15 6 16 7 14 8 10 9 11 10 12 11
REMARK SMILES IDX 13 12 88 13 86 14 87 15 9 16 7 17 8 18 6 20 1 21 2 22 3 23
REMARK SMILES IDX 4 24 5 25 22 26 23 27 24 28 25 29 26 30 27 31 85 32 28 33
REMARK SMILES IDX 84 34 29 35 30 36 31 37 78 38 32 39 83 40 77 41 79 42 33 43
REMARK SMILES IDX 82 44 76 45 75 46 34 48 64 49 45 50 63 51 46 52 49 53 62 54
REMARK SMILES IDX 80 55 47 56 48 57 61 59 81 60 50 61 35 62 36 63 44 64 37 65
REMARK SMILES IDX 43 66 38 67 39 68 40 69 41 70 42 71 65 72 66 73 74 74 67 75
REMARK SMILES IDX 73 76 68 77 69 78 70 79 71 80 72 81 51 82 52 83 60 84 53 85
REMARK SMILES IDX 59 86 54 87 55 88 56 89 57 90 58 91
REMARK H PARENT 9 19 79 47 49 58
REMARK Flexibility Score: inf
ROOT
ATOM      1  C   UNL A   1      37.567  21.910  25.394  1.00  0.00     0.202 C 
ENDROOT
BRANCH   1   2
ATOM      2  O   UNL A   1      37.129  21.691  24.058  1.00  0.00    -0.374 OA
BRANCH   2   3
ATOM      3  C   UNL A   1      36.810  22.896  23.337  1.00  0.00     0.202 C 
BRANCH   3   4
ATOM      4  C   UNL A   1      35.507  23.551  23.827  1.00  0.00     0.261 C 
BRANCH   4   5
ATOM      5  O   UNL A   1      34.551  23.705  22.745  1.00  0.00    -0.460 OA
BRANCH   5   6
ATOM      6  C   UNL A   1      33.803  24.855  22.790  1.00  0.00     0.341 C 
ATOM      7  O   UNL A   1      33.730  25.656  21.865  1.00  0.00    -0.246 OA
BRANCH   6   8
ATOM      8  C   UNL A   1      33.055  25.029  24.036  1.00  0.00     0.098 A 
ATOM      9  C   UNL A   1      32.865  26.256  24.669  1.00  0.00     0.110 A 
ATOM     10  S   UNL A   1      32.210  26.139  26.251  1.00  0.00    -0.122 S 
ATOM     11  C   UNL A   1      31.902  24.523  25.996  1.00  0.00     0.011 A 
ATOM     12  C   UNL A   1      32.367  24.038  24.801  1.00  0.00    -0.017 A 
ATOM     13  C   UNL A   1      31.193  23.534  26.836  1.00  0.00     0.047 C 
ATOM     14  C   UNL A   1      32.019  22.598  24.667  1.00  0.00     0.038 C 
ATOM     15  C   UNL A   1      30.942  22.413  25.789  1.00  0.00     0.010 C 
BRANCH   9  16
ATOM     16  N   UNL A   1      33.200  27.543  24.313  1.00  0.00    -0.317 N 
ATOM     17  C   UNL A   1      32.346  28.602  24.494  1.00  0.00     0.230 C 
ATOM     18  O   UNL A   1      32.850  29.668  24.874  1.00  0.00    -0.274 OA
ATOM     19  H   UNL A   1      34.083  27.709  23.913  1.00  0.00     0.170 HD
BRANCH  17  20
ATOM     20  C   UNL A   1      30.849  28.564  24.192  1.00  0.00     0.110 C 
ATOM     21  C   UNL A   1      29.032  26.958  23.537  1.00  0.00     0.039 C 
ATOM     22  C   UNL A   1      30.384  27.568  23.146  1.00  0.00     0.127 C 
ATOM     23  O   UNL A   1      30.180  28.319  21.939  1.00  0.00    -0.378 OA
ATOM     24  C   UNL A   1      29.810  29.647  22.304  1.00  0.00     0.161 C 
ATOM     25  C   UNL A   1      30.215  29.848  23.752  1.00  0.00     0.044 C 
ENDBRANCH  17  20
ENDBRANCH   9  16
ENDBRANCH   6   8
ENDBRANCH   5   6
ENDBRANCH   4   5
ENDBRANCH   3   4
ENDBRANCH   2   3
ENDBRANCH   1   2
BRANCH   1  26
ATOM     26  C   UNL A   1      38.940  21.333  25.716  1.00  0.00     0.261 C 
BRANCH  26  27
ATOM     27  O   UNL A   1      39.515  22.065  26.792  1.00  0.00    -0.460 OA
BRANCH  27  28
ATOM     28  C   UNL A   1      40.803  22.428  26.606  1.00  0.00     0.338 C 
ATOM     29  O   UNL A   1      41.759  21.714  26.354  1.00  0.00    -0.246 OA
BRANCH  28  30
ATOM     30  C   UNL A   1      40.881  23.846  26.942  1.00  0.00     0.060 A 
ATOM     31  C   UNL A   1      41.884  24.194  27.836  1.00  0.00     0.016 A 
ATOM     32  C   UNL A   1      39.886  24.757  26.538  1.00  0.00     0.016 A 
ATOM     33  C   UNL A   1      41.799  25.418  28.450  1.00  0.00     0.010 A 
ATOM     34  C   UNL A   1      39.811  25.994  27.147  1.00  0.00     0.010 A 
ATOM     35  C   UNL A   1      40.738  26.288  28.138  1.00  0.00    -0.014 A 
BRANCH  35  36
ATOM     36  C   UNL A   1      40.764  27.557  28.834  1.00  0.00     0.031 A 
ATOM     37  C   UNL A   1      41.794  28.479  28.309  1.00  0.00     0.074 A 
ATOM     38  C   UNL A   1      40.002  27.870  29.891  1.00  0.00     0.049 A 
ATOM     39  N   UNL A   1      42.932  28.767  28.845  1.00  0.00    -0.248 NA
ATOM     40  C   UNL A   1      41.614  28.975  26.939  1.00  0.00     0.031 C 
ATOM     41  C   UNL A   1      38.782  27.232  30.380  1.00  0.00     0.029 A 
ATOM     42  N   UNL A   1      40.167  28.927  30.728  1.00  0.00    -0.354 N 
ATOM     43  C   UNL A   1      43.555  29.630  27.956  1.00  0.00     0.074 A 
ATOM     44  C   UNL A   1      42.777  29.594  26.742  1.00  0.00     0.031 C 
ATOM     45  C   UNL A   1      38.204  28.045  31.296  1.00  0.00     0.029 A 
ATOM     46  C   UNL A   1      39.085  29.176  31.551  1.00  0.00     0.049 A 
ATOM     47  H   UNL A   1      40.989  29.469  30.747  1.00  0.00     0.167 HD
ATOM     48  C   UNL A   1      44.548  30.473  28.349  1.00  0.00     0.031 A 
ATOM     49  C   UNL A   1      38.915  30.284  32.311  1.00  0.00     0.031 A 
ATOM     50  C   UNL A   1      45.139  30.069  29.598  1.00  0.00     0.049 A 
ATOM     51  C   UNL A   1      40.253  30.901  32.517  1.00  0.00     0.074 A 
ATOM     52  C   UNL A   1      45.821  28.946  30.030  1.00  0.00     0.029 A 
ATOM     53  N   UNL A   1      44.741  30.728  30.738  1.00  0.00    -0.354 N 
ATOM     54  N   UNL A   1      41.191  30.366  33.246  1.00  0.00    -0.248 NA
ATOM     55  C   UNL A   1      40.703  31.919  31.579  1.00  0.00     0.031 C 
ATOM     56  C   UNL A   1      45.404  28.750  31.379  1.00  0.00     0.029 A 
ATOM     57  C   UNL A   1      44.522  29.781  31.707  1.00  0.00     0.049 A 
ATOM     58  H   UNL A   1      44.635  31.702  30.840  1.00  0.00     0.167 HD
ATOM     59  C   UNL A   1      42.377  30.670  32.594  1.00  0.00     0.074 A 
ATOM     60  C   UNL A   1      42.022  31.711  31.633  1.00  0.00     0.031 C 
ATOM     61  C   UNL A   1      43.478  29.868  32.708  1.00  0.00     0.031 A 
BRANCH  48  62
ATOM     62  C   UNL A   1      44.689  31.862  27.784  1.00  0.00    -0.014 A 
ATOM     63  C   UNL A   1      45.882  32.219  27.126  1.00  0.00     0.010 A 
ATOM     64  C   UNL A   1      43.808  32.912  28.121  1.00  0.00     0.010 A 
ATOM     65  C   UNL A   1      46.208  33.562  26.897  1.00  0.00     0.020 A 
ATOM     66  C   UNL A   1      44.100  34.248  27.856  1.00  0.00     0.020 A 
ATOM     67  C   UNL A   1      45.321  34.567  27.284  1.00  0.00     0.054 A 
BRANCH  67  68
ATOM     68  S   UNL A   1      45.804  36.301  27.118  1.00  0.00     0.124 S 
ATOM     69  O   UNL A   1      46.589  36.273  25.888  1.00  0.00    -0.237 OA
ATOM     70  O   UNL A   1      44.513  36.976  27.036  1.00  0.00    -0.237 OA
ATOM     71  O   UNL A   1      46.562  36.562  28.341  1.00  0.00    -0.744 OA
ENDBRANCH  67  68
ENDBRANCH  48  62
BRANCH  49  72
ATOM     72  C   UNL A   1      37.652  31.017  32.562  1.00  0.00    -0.014 A 
ATOM     73  C   UNL A   1      37.482  31.760  33.745  1.00  0.00     0.010 A 
ATOM     74  C   UNL A   1      36.733  31.228  31.513  1.00  0.00     0.010 A 
ATOM     75  C   UNL A   1      36.483  32.740  33.840  1.00  0.00     0.020 A 
ATOM     76  C   UNL A   1      35.726  32.193  31.608  1.00  0.00     0.020 A 
ATOM     77  C   UNL A   1      35.627  32.968  32.760  1.00  0.00     0.054 A 
BRANCH  77  78
ATOM     78  S   UNL A   1      34.482  34.376  32.809  1.00  0.00     0.124 S 
ATOM     79  O   UNL A   1      33.219  33.736  33.164  1.00  0.00    -0.237 OA
ATOM     80  O   UNL A   1      35.071  35.228  33.837  1.00  0.00    -0.237 OA
ATOM     81  O   UNL A   1      34.544  34.917  31.452  1.00  0.00    -0.744 OA
ENDBRANCH  77  78
ENDBRANCH  49  72
BRANCH  61  82
ATOM     82  C   UNL A   1      43.492  28.819  33.798  1.00  0.00    -0.014 A 
ATOM     83  C   UNL A   1      44.024  29.039  35.084  1.00  0.00     0.010 A 
ATOM     84  C   UNL A   1      42.830  27.603  33.549  1.00  0.00     0.010 A 
ATOM     85  C   UNL A   1      43.929  28.054  36.078  1.00  0.00     0.020 A 
ATOM     86  C   UNL A   1      42.714  26.625  34.542  1.00  0.00     0.020 A 
ATOM     87  C   UNL A   1      43.277  26.850  35.799  1.00  0.00     0.054 A 
BRANCH  87  88
ATOM     88  S   UNL A   1      43.126  25.596  37.101  1.00  0.00     0.124 S 
ATOM     89  O   UNL A   1      44.214  24.676  36.783  1.00  0.00    -0.237 OA
ATOM     90  O   UNL A   1      43.300  26.375  38.326  1.00  0.00    -0.237 OA
ATOM     91  O   UNL A   1      41.781  25.053  36.909  1.00  0.00    -0.744 OA
ENDBRANCH  87  88
ENDBRANCH  61  82
ENDBRANCH  35  36
ENDBRANCH  28  30
ENDBRANCH  27  28
ENDBRANCH  26  27
ENDBRANCH   1  26
TORSDOF 19
ENDMDL
MODEL 3
REMARK VINA RESULT:     -11.5      2.672      9.486
REMARK SMILES C[C@H]1OCC[C@@H]1C(=O)Nc1sc2c(c1C(=O)OCCOCCOC(=O)c1ccc(-c3c4nc(c(-c5ccc(S(=O)(=O)[O-])cc5)c5ccc([nH]5)c(-c5ccc(S(=O)(=O)[O-])cc5)c5nc(c(-c6ccc(S(=O)(=O)[O-])cc6)c6ccc3[nH]6)C=C5)C=C4)cc1)CCC2
REMARK SMILES IDX 21 1 20 2 19 3 18 4 17 5 15 6 16 7 14 8 10 9 11 10 12 11
REMARK SMILES IDX 13 12 88 13 86 14 87 15 9 16 7 17 8 18 6 20 1 21 2 22 3 23
REMARK SMILES IDX 4 24 5 25 22 26 23 27 24 28 25 29 26 30 27 31 85 32 28 33
REMARK SMILES IDX 84 34 29 35 30 36 31 37 78 38 32 39 83 40 77 41 79 42 33 43
REMARK SMILES IDX 82 44 76 45 75 46 34 48 64 49 45 50 63 51 46 52 49 53 62 54
REMARK SMILES IDX 80 55 47 56 48 57 61 59 81 60 50 61 35 62 36 63 44 64 37 65
REMARK SMILES IDX 43 66 38 67 39 68 40 69 41 70 42 71 65 72 66 73 74 74 67 75
REMARK SMILES IDX 73 76 68 77 69 78 70 79 71 80 72 81 51 82 52 83 60 84 53 85
REMARK SMILES IDX 59 86 54 87 55 88 56 89 57 90 58 91
REMARK H PARENT 9 19 79 47 49 58
REMARK Flexibility Score: inf
ROOT
ATOM      1  C   UNL A   1      39.681  20.845  26.141  1.00  0.00     0.202 C 
ENDROOT
BRANCH   1   2
ATOM      2  O   UNL A   1      38.925  22.025  26.388  1.00  0.00    -0.374 OA
BRANCH   2   3
ATOM      3  C   UNL A   1      37.821  22.218  25.484  1.00  0.00     0.202 C 
BRANCH   3   4
ATOM      4  C   UNL A   1      37.440  23.699  25.323  1.00  0.00     0.261 C 
BRANCH   4   5
ATOM      5  O   UNL A   1      36.058  23.849  24.903  1.00  0.00    -0.460 OA
BRANCH   5   6
ATOM      6  C   UNL A   1      35.770  23.340  23.662  1.00  0.00     0.341 C 
ATOM      7  O   UNL A   1      36.526  23.419  22.701  1.00  0.00    -0.246 OA
BRANCH   6   8
ATOM      8  C   UNL A   1      34.481  22.649  23.588  1.00  0.00     0.098 A 
ATOM      9  C   UNL A   1      33.389  23.107  22.853  1.00  0.00     0.110 A 
ATOM     10  S   UNL A   1      31.925  22.270  23.171  1.00  0.00    -0.122 S 
ATOM     11  C   UNL A   1      32.773  21.130  24.038  1.00  0.00     0.011 A 
ATOM     12  C   UNL A   1      34.108  21.407  24.187  1.00  0.00    -0.017 A 
ATOM     13  C   UNL A   1      32.329  19.861  24.652  1.00  0.00     0.047 C 
ATOM     14  C   UNL A   1      34.771  20.317  24.952  1.00  0.00     0.038 C 
ATOM     15  C   UNL A   1      33.702  19.174  24.892  1.00  0.00     0.010 C 
BRANCH   9  16
ATOM     16  N   UNL A   1      33.231  24.173  21.997  1.00  0.00    -0.317 N 
ATOM     17  C   UNL A   1      33.304  25.476  22.422  1.00  0.00     0.230 C 
ATOM     18  O   UNL A   1      33.879  26.278  21.673  1.00  0.00    -0.274 OA
ATOM     19  H   UNL A   1      33.058  23.994  21.045  1.00  0.00     0.170 HD
BRANCH  17  20
ATOM     20  C   UNL A   1      32.666  26.000  23.708  1.00  0.00     0.110 C 
ATOM     21  C   UNL A   1      30.624  27.223  24.515  1.00  0.00     0.039 C 
ATOM     22  C   UNL A   1      31.856  27.280  23.602  1.00  0.00     0.127 C 
ATOM     23  O   UNL A   1      32.703  28.331  24.092  1.00  0.00    -0.378 OA
ATOM     24  C   UNL A   1      33.584  27.772  25.064  1.00  0.00     0.161 C 
ATOM     25  C   UNL A   1      33.586  26.268  24.859  1.00  0.00     0.044 C 
ENDBRANCH  17  20
ENDBRANCH   9  16
ENDBRANCH   6   8
ENDBRANCH   5   6
ENDBRANCH   4   5
ENDBRANCH   3   4
ENDBRANCH   2   3
ENDBRANCH   1   2
BRANCH   1  26
ATOM     26  C   UNL A   1      41.065  20.831  26.779  1.00  0.00     0.261 C 
BRANCH  26  27
ATOM     27  O   UNL A   1      41.430  22.159  27.136  1.00  0.00    -0.460 OA
BRANCH  27  28
ATOM     28  C   UNL A   1      42.035  22.863  26.155  1.00  0.00     0.338 C 
ATOM     29  O   UNL A   1      42.662  22.439  25.199  1.00  0.00    -0.246 OA
BRANCH  28  30
ATOM     30  C   UNL A   1      41.950  24.266  26.547  1.00  0.00     0.060 A 
ATOM     31  C   UNL A   1      42.837  24.664  27.539  1.00  0.00     0.016 A 
ATOM     32  C   UNL A   1      40.912  25.100  26.089  1.00  0.00     0.016 A 
ATOM     33  C   UNL A   1      42.585  25.847  28.187  1.00  0.00     0.010 A 
ATOM     34  C   UNL A   1      40.670  26.297  26.734  1.00  0.00     0.010 A 
ATOM     35  C   UNL A   1      41.478  26.630  27.813  1.00  0.00    -0.014 A 
BRANCH  35  36
ATOM     36  C   UNL A   1      41.324  27.864  28.553  1.00  0.00     0.031 A 
ATOM     37  C   UNL A   1      42.365  28.862  28.226  1.00  0.00     0.074 A 
ATOM     38  C   UNL A   1      40.397  28.087  29.495  1.00  0.00     0.049 A 
ATOM     39  N   UNL A   1      43.391  29.185  28.940  1.00  0.00    -0.248 NA
ATOM     40  C   UNL A   1      42.362  29.413  26.866  1.00  0.00     0.031 C 
ATOM     41  C   UNL A   1      39.158  27.363  29.769  1.00  0.00     0.029 A 
ATOM     42  N   UNL A   1      40.373  29.109  30.388  1.00  0.00    -0.354 N 
ATOM     43  C   UNL A   1      44.088  30.121  28.189  1.00  0.00     0.074 A 
ATOM     44  C   UNL A   1      43.502  30.101  26.871  1.00  0.00     0.031 C 
ATOM     45  C   UNL A   1      38.403  28.100  30.618  1.00  0.00     0.029 A 
ATOM     46  C   UNL A   1      39.168  29.262  31.048  1.00  0.00     0.049 A 
ATOM     47  H   UNL A   1      41.149  29.692  30.552  1.00  0.00     0.167 HD
ATOM     48  C   UNL A   1      44.959  30.994  28.760  1.00  0.00     0.031 A 
ATOM     49  C   UNL A   1      38.822  30.323  31.815  1.00  0.00     0.031 A 
ATOM     50  C   UNL A   1      45.382  30.564  30.067  1.00  0.00     0.049 A 
ATOM     51  C   UNL A   1      40.075  30.998  32.244  1.00  0.00     0.074 A 
ATOM     52  C   UNL A   1      46.057  29.459  30.553  1.00  0.00     0.029 A 
ATOM     53  N   UNL A   1      44.781  31.146  31.159  1.00  0.00    -0.354 N 
ATOM     54  N   UNL A   1      40.924  30.480  33.086  1.00  0.00    -0.248 NA
ATOM     55  C   UNL A   1      40.599  32.082  31.426  1.00  0.00     0.031 C 
ATOM     56  C   UNL A   1      45.456  29.177  31.815  1.00  0.00     0.029 A 
ATOM     57  C   UNL A   1      44.476  30.144  32.045  1.00  0.00     0.049 A 
ATOM     58  H   UNL A   1      44.603  32.107  31.282  1.00  0.00     0.167 HD
ATOM     59  C   UNL A   1      42.175  30.876  32.633  1.00  0.00     0.074 A 
ATOM     60  C   UNL A   1      41.905  31.941  31.671  1.00  0.00     0.031 C 
ATOM     61  C   UNL A   1      43.292  30.128  32.880  1.00  0.00     0.031 A 
BRANCH  48  62
ATOM     62  C   UNL A   1      45.101  32.415  28.278  1.00  0.00    -0.014 A 
ATOM     63  C   UNL A   1      46.368  32.883  27.882  1.00  0.00     0.010 A 
ATOM     64  C   UNL A   1      44.092  33.384  28.463  1.00  0.00     0.010 A 
ATOM     65  C   UNL A   1      46.628  34.255  27.764  1.00  0.00     0.020 A 
ATOM     66  C   UNL A   1      44.325  34.748  28.303  1.00  0.00     0.020 A 
ATOM     67  C   UNL A   1      45.606  35.177  27.997  1.00  0.00     0.054 A 
BRANCH  67  68
ATOM     68  S   UNL A   1      45.977  36.946  27.984  1.00  0.00     0.124 S 
ATOM     69  O   UNL A   1      47.429  36.944  27.839  1.00  0.00    -0.237 OA
ATOM     70  O   UNL A   1      45.221  37.412  26.825  1.00  0.00    -0.237 OA
ATOM     71  O   UNL A   1      45.475  37.409  29.277  1.00  0.00    -0.744 OA
ENDBRANCH  67  68
ENDBRANCH  48  62
BRANCH  49  72
ATOM     72  C   UNL A   1      37.494  30.975  31.901  1.00  0.00    -0.014 A 
ATOM     73  C   UNL A   1      37.016  31.459  33.133  1.00  0.00     0.010 A 
ATOM     74  C   UNL A   1      36.828  31.387  30.728  1.00  0.00     0.010 A 
ATOM     75  C   UNL A   1      35.966  32.388  33.182  1.00  0.00     0.020 A 
ATOM     76  C   UNL A   1      35.772  32.301  30.771  1.00  0.00     0.020 A 
ATOM     77  C   UNL A   1      35.368  32.823  31.997  1.00  0.00     0.054 A 
BRANCH  77  78
ATOM     78  S   UNL A   1      34.162  34.179  32.051  1.00  0.00     0.124 S 
ATOM     79  O   UNL A   1      33.183  33.685  33.015  1.00  0.00    -0.237 OA
ATOM     80  O   UNL A   1      34.974  35.308  32.495  1.00  0.00    -0.237 OA
ATOM     81  O   UNL A   1      33.683  34.269  30.672  1.00  0.00    -0.744 OA
ENDBRANCH  77  78
ENDBRANCH  49  72
BRANCH  61  82
ATOM     82  C   UNL A   1      43.206  29.031  33.918  1.00  0.00    -0.014 A 
ATOM     83  C   UNL A   1      43.480  29.229  35.286  1.00  0.00     0.010 A 
ATOM     84  C   UNL A   1      42.708  27.780  33.512  1.00  0.00     0.010 A 
ATOM     85  C   UNL A   1      43.299  28.191  36.212  1.00  0.00     0.020 A 
ATOM     86  C   UNL A   1      42.505  26.747  34.434  1.00  0.00     0.020 A 
ATOM     87  C   UNL A   1      42.815  26.954  35.778  1.00  0.00     0.054 A 
BRANCH  87  88
ATOM     88  S   UNL A   1      42.548  25.629  36.989  1.00  0.00     0.124 S 
ATOM     89  O   UNL A   1      41.478  26.170  37.821  1.00  0.00    -0.237 OA
ATOM     90  O   UNL A   1      42.176  24.491  36.149  1.00  0.00    -0.237 OA
ATOM     91  O   UNL A   1      43.844  25.498  37.654  1.00  0.00    -0.744 OA
ENDBRANCH  87  88
ENDBRANCH  61  82
ENDBRANCH  35  36
ENDBRANCH  28  30
ENDBRANCH  27  28
ENDBRANCH  26  27
ENDBRANCH   1  26
TORSDOF 19
ENDMDL
