MODEL 1
REMARK VINA RESULT:      -9.8      0.000      0.000
REMARK SMILES O=C(CCC(=O)c1c[nH]c2ccccc12)OCCOCCOC(=O)c1ccc(-c2c3nc(c(-c4ccc(S(=O)(=O)[O-])cc4)c4ccc([nH]4)c(-c4ccc(S(=O)(=O)[O-])cc4)c4nc(c(-c5ccc(S(=O)(=O)[O-])cc5)c5ccc2[nH]5)C=C4)C=C3)cc1
REMARK SMILES IDX 19 1 18 2 17 3 16 4 2 5 1 6 3 7 4 8 5 9 6 10 7 11 8 12 15 13
REMARK SMILES IDX 9 14 10 15 14 16 11 18 13 19 12 20 20 21 21 22 22 23 23 24
REMARK SMILES IDX 24 25 25 26 26 27 84 28 27 29 83 30 28 31 29 32 30 33 77 34
REMARK SMILES IDX 31 35 82 36 76 37 78 38 32 39 81 40 75 41 74 42 33 44 63 45
REMARK SMILES IDX 44 46 62 47 45 48 48 49 61 50 79 51 46 52 47 53 60 55 80 56
REMARK SMILES IDX 49 57 34 58 35 59 43 60 36 61 42 62 37 63 38 64 39 65 40 66
REMARK SMILES IDX 41 67 64 68 65 69 73 70 66 71 72 72 67 73 68 74 69 75 70 76
REMARK SMILES IDX 71 77 50 78 51 79 59 80 52 81 58 82 53 83 54 84 55 85 56 86
REMARK SMILES IDX 57 87
REMARK H PARENT 9 17 78 43 48 54
REMARK Flexibility Score: inf
ROOT
ATOM      1  O   UNL A   1      31.768  29.529  26.914  1.00  0.00    -0.374 OA
ENDROOT
BRANCH   1   2
ATOM      2  C   UNL A   1      31.785  28.287  27.611  1.00  0.00     0.202 C 
BRANCH   2   3
ATOM      3  C   UNL A   1      32.116  27.061  26.758  1.00  0.00     0.261 C 
BRANCH   3   4
ATOM      4  O   UNL A   1      31.015  26.143  26.729  1.00  0.00    -0.463 OA
BRANCH   4   5
ATOM      5  C   UNL A   1      31.202  24.843  26.400  1.00  0.00     0.306 C 
ATOM      6  O   UNL A   1      30.998  23.944  27.212  1.00  0.00    -0.252 OA
BRANCH   5   7
ATOM      7  C   UNL A   1      31.398  24.549  24.943  1.00  0.00     0.131 C 
BRANCH   7   8
ATOM      8  C   UNL A   1      30.311  25.258  24.149  1.00  0.00     0.093 C 
BRANCH   8   9
ATOM      9  C   UNL A   1      30.914  26.176  23.107  1.00  0.00     0.165 C 
ATOM     10  O   UNL A   1      31.465  25.686  22.119  1.00  0.00    -0.294 OA
BRANCH   9  11
ATOM     11  C   UNL A   1      30.762  27.621  23.241  1.00  0.00     0.043 A 
ATOM     12  C   UNL A   1      31.827  28.446  23.559  1.00  0.00     0.095 A 
ATOM     13  C   UNL A   1      29.595  28.460  23.176  1.00  0.00     0.010 A 
ATOM     14  N   UNL A   1      31.369  29.726  23.681  1.00  0.00    -0.360 N 
ATOM     15  C   UNL A   1      30.007  29.758  23.498  1.00  0.00     0.046 A 
ATOM     16  C   UNL A   1      28.216  28.261  22.938  1.00  0.00     0.011 A 
ATOM     17  H   UNL A   1      31.931  30.511  23.872  1.00  0.00     0.166 HD
ATOM     18  C   UNL A   1      29.121  30.837  23.614  1.00  0.00     0.027 A 
ATOM     19  C   UNL A   1      27.314  29.325  23.072  1.00  0.00     0.001 A 
ATOM     20  C   UNL A   1      27.762  30.595  23.410  1.00  0.00     0.002 A 
ENDBRANCH   9  11
ENDBRANCH   8   9
ENDBRANCH   7   8
ENDBRANCH   5   7
ENDBRANCH   4   5
ENDBRANCH   3   4
ENDBRANCH   2   3
ENDBRANCH   1   2
BRANCH   1  21
ATOM     21  C   UNL A   1      32.885  30.408  27.101  1.00  0.00     0.202 C 
BRANCH  21  22
ATOM     22  C   UNL A   1      32.579  31.901  27.268  1.00  0.00     0.261 C 
BRANCH  22  23
ATOM     23  O   UNL A   1      33.753  32.700  27.533  1.00  0.00    -0.460 OA
BRANCH  23  24
ATOM     24  C   UNL A   1      33.538  33.743  28.368  1.00  0.00     0.338 C 
ATOM     25  O   UNL A   1      32.569  34.495  28.364  1.00  0.00    -0.246 OA
BRANCH  24  26
ATOM     26  C   UNL A   1      34.578  33.869  29.400  1.00  0.00     0.060 A 
ATOM     27  C   UNL A   1      35.836  34.329  28.996  1.00  0.00     0.016 A 
ATOM     28  C   UNL A   1      34.411  33.253  30.642  1.00  0.00     0.016 A 
ATOM     29  C   UNL A   1      36.956  34.066  29.783  1.00  0.00     0.010 A 
ATOM     30  C   UNL A   1      35.538  32.993  31.434  1.00  0.00     0.010 A 
ATOM     31  C   UNL A   1      36.822  33.330  30.969  1.00  0.00    -0.014 A 
BRANCH  31  32
ATOM     32  C   UNL A   1      38.033  32.722  31.580  1.00  0.00     0.031 A 
ATOM     33  C   UNL A   1      38.490  33.208  32.935  1.00  0.00     0.074 A 
ATOM     34  C   UNL A   1      38.684  31.710  30.980  1.00  0.00     0.049 A 
ATOM     35  N   UNL A   1      39.488  32.792  33.673  1.00  0.00    -0.248 NA
ATOM     36  C   UNL A   1      37.719  34.309  33.537  1.00  0.00     0.031 C 
ATOM     37  C   UNL A   1      38.326  31.118  29.692  1.00  0.00     0.029 A 
ATOM     38  N   UNL A   1      39.783  30.995  31.387  1.00  0.00    -0.354 N 
ATOM     39  C   UNL A   1      39.470  33.582  34.819  1.00  0.00     0.074 A 
ATOM     40  C   UNL A   1      38.382  34.522  34.665  1.00  0.00     0.031 C 
ATOM     41  C   UNL A   1      39.190  30.124  29.417  1.00  0.00     0.029 A 
ATOM     42  C   UNL A   1      40.169  30.022  30.498  1.00  0.00     0.049 A 
ATOM     43  H   UNL A   1      40.250  31.165  32.238  1.00  0.00     0.167 HD
ATOM     44  C   UNL A   1      40.278  33.530  35.906  1.00  0.00     0.031 A 
ATOM     45  C   UNL A   1      41.195  29.150  30.549  1.00  0.00     0.031 A 
ATOM     46  C   UNL A   1      41.361  32.597  36.068  1.00  0.00     0.049 A 
ATOM     47  C   UNL A   1      42.103  29.133  31.750  1.00  0.00     0.074 A 
ATOM     48  C   UNL A   1      42.222  32.455  37.143  1.00  0.00     0.029 A 
ATOM     49  N   UNL A   1      41.733  31.647  35.131  1.00  0.00    -0.354 N 
ATOM     50  N   UNL A   1      42.055  29.872  32.832  1.00  0.00    -0.248 NA
ATOM     51  C   UNL A   1      43.194  28.147  31.740  1.00  0.00     0.031 C 
ATOM     52  C   UNL A   1      43.141  31.444  36.838  1.00  0.00     0.029 A 
ATOM     53  C   UNL A   1      42.820  30.927  35.593  1.00  0.00     0.049 A 
ATOM     54  H   UNL A   1      41.288  31.505  34.263  1.00  0.00     0.167 HD
ATOM     55  C   UNL A   1      43.089  29.418  33.647  1.00  0.00     0.074 A 
ATOM     56  C   UNL A   1      43.739  28.338  32.935  1.00  0.00     0.031 C 
ATOM     57  C   UNL A   1      43.458  29.852  34.878  1.00  0.00     0.031 A 
BRANCH  44  58
ATOM     58  C   UNL A   1      40.035  34.538  36.998  1.00  0.00    -0.014 A 
ATOM     59  C   UNL A   1      39.061  34.320  37.988  1.00  0.00     0.010 A 
ATOM     60  C   UNL A   1      40.812  35.709  37.049  1.00  0.00     0.010 A 
ATOM     61  C   UNL A   1      38.839  35.275  38.986  1.00  0.00     0.020 A 
ATOM     62  C   UNL A   1      40.610  36.655  38.057  1.00  0.00     0.020 A 
ATOM     63  C   UNL A   1      39.611  36.441  39.009  1.00  0.00     0.054 A 
BRANCH  63  64
ATOM     64  S   UNL A   1      39.314  37.662  40.318  1.00  0.00     0.124 S 
ATOM     65  O   UNL A   1      40.532  38.467  40.258  1.00  0.00    -0.237 OA
ATOM     66  O   UNL A   1      38.097  38.330  39.866  1.00  0.00    -0.237 OA
ATOM     67  O   UNL A   1      39.164  36.848  41.521  1.00  0.00    -0.744 OA
ENDBRANCH  63  64
ENDBRANCH  44  58
BRANCH  45  68
ATOM     68  C   UNL A   1      41.416  28.206  29.421  1.00  0.00    -0.014 A 
ATOM     69  C   UNL A   1      42.208  28.578  28.320  1.00  0.00     0.010 A 
ATOM     70  C   UNL A   1      40.834  26.927  29.447  1.00  0.00     0.010 A 
ATOM     71  C   UNL A   1      42.403  27.691  27.258  1.00  0.00     0.020 A 
ATOM     72  C   UNL A   1      41.045  26.030  28.397  1.00  0.00     0.020 A 
ATOM     73  C   UNL A   1      41.820  26.421  27.304  1.00  0.00     0.054 A 
BRANCH  73  74
ATOM     74  S   UNL A   1      42.135  25.259  25.947  1.00  0.00     0.124 S 
ATOM     75  O   UNL A   1      41.754  23.983  26.546  1.00  0.00    -0.237 OA
ATOM     76  O   UNL A   1      41.253  25.753  24.894  1.00  0.00    -0.237 OA
ATOM     77  O   UNL A   1      43.562  25.428  25.682  1.00  0.00    -0.744 OA
ENDBRANCH  73  74
ENDBRANCH  45  68
BRANCH  57  78
ATOM     78  C   UNL A   1      44.591  29.128  35.555  1.00  0.00    -0.014 A 
ATOM     79  C   UNL A   1      44.362  28.001  36.364  1.00  0.00     0.010 A 
ATOM     80  C   UNL A   1      45.913  29.564  35.347  1.00  0.00     0.010 A 
ATOM     81  C   UNL A   1      45.430  27.349  36.987  1.00  0.00     0.020 A 
ATOM     82  C   UNL A   1      46.985  28.902  35.949  1.00  0.00     0.020 A 
ATOM     83  C   UNL A   1      46.735  27.808  36.782  1.00  0.00     0.054 A 
BRANCH  83  84
ATOM     84  S   UNL A   1      48.111  26.938  37.582  1.00  0.00     0.124 S 
ATOM     85  O   UNL A   1      47.698  25.542  37.459  1.00  0.00    -0.237 OA
ATOM     86  O   UNL A   1      49.259  27.326  36.766  1.00  0.00    -0.237 OA
ATOM     87  O   UNL A   1      48.113  27.471  38.942  1.00  0.00    -0.744 OA
ENDBRANCH  83  84
ENDBRANCH  57  78
ENDBRANCH  31  32
ENDBRANCH  24  26
ENDBRANCH  23  24
ENDBRANCH  22  23
ENDBRANCH  21  22
ENDBRANCH   1  21
TORSDOF 20
ENDMDL
MODEL 2
REMARK VINA RESULT:      -9.5      3.027      9.125
REMARK SMILES O=C(CCC(=O)c1c[nH]c2ccccc12)OCCOCCOC(=O)c1ccc(-c2c3nc(c(-c4ccc(S(=O)(=O)[O-])cc4)c4ccc([nH]4)c(-c4ccc(S(=O)(=O)[O-])cc4)c4nc(c(-c5ccc(S(=O)(=O)[O-])cc5)c5ccc2[nH]5)C=C4)C=C3)cc1
REMARK SMILES IDX 19 1 18 2 17 3 16 4 2 5 1 6 3 7 4 8 5 9 6 10 7 11 8 12 15 13
REMARK SMILES IDX 9 14 10 15 14 16 11 18 13 19 12 20 20 21 21 22 22 23 23 24
REMARK SMILES IDX 24 25 25 26 26 27 84 28 27 29 83 30 28 31 29 32 30 33 77 34
REMARK SMILES IDX 31 35 82 36 76 37 78 38 32 39 81 40 75 41 74 42 33 44 63 45
REMARK SMILES IDX 44 46 62 47 45 48 48 49 61 50 79 51 46 52 47 53 60 55 80 56
REMARK SMILES IDX 49 57 34 58 35 59 43 60 36 61 42 62 37 63 38 64 39 65 40 66
REMARK SMILES IDX 41 67 64 68 65 69 73 70 66 71 72 72 67 73 68 74 69 75 70 76
REMARK SMILES IDX 71 77 50 78 51 79 59 80 52 81 58 82 53 83 54 84 55 85 56 86
REMARK SMILES IDX 57 87
REMARK H PARENT 9 17 78 43 48 54
REMARK Flexibility Score: inf
ROOT
ATOM      1  O   UNL A   1      40.627  22.028  27.309  1.00  0.00    -0.374 OA
ENDROOT
BRANCH   1   2
ATOM      2  C   UNL A   1      39.876  21.427  26.259  1.00  0.00     0.202 C 
BRANCH   2   3
ATOM      3  C   UNL A   1      38.544  22.107  25.933  1.00  0.00     0.261 C 
BRANCH   3   4
ATOM      4  O   UNL A   1      37.852  21.408  24.889  1.00  0.00    -0.463 OA
BRANCH   4   5
ATOM      5  C   UNL A   1      36.723  21.916  24.343  1.00  0.00     0.306 C 
ATOM      6  O   UNL A   1      36.768  22.690  23.391  1.00  0.00    -0.252 OA
BRANCH   5   7
ATOM      7  C   UNL A   1      35.433  21.281  24.772  1.00  0.00     0.131 C 
BRANCH   7   8
ATOM      8  C   UNL A   1      35.125  21.711  26.199  1.00  0.00     0.093 C 
BRANCH   8   9
ATOM      9  C   UNL A   1      33.813  22.460  26.267  1.00  0.00     0.165 C 
ATOM     10  O   UNL A   1      32.933  22.065  27.035  1.00  0.00    -0.294 OA
BRANCH   9  11
ATOM     11  C   UNL A   1      33.635  23.683  25.490  1.00  0.00     0.043 A 
ATOM     12  C   UNL A   1      34.516  24.746  25.583  1.00  0.00     0.095 A 
ATOM     13  C   UNL A   1      32.582  24.095  24.602  1.00  0.00     0.010 A 
ATOM     14  N   UNL A   1      34.056  25.765  24.799  1.00  0.00    -0.360 N 
ATOM     15  C   UNL A   1      32.857  25.414  24.225  1.00  0.00     0.046 A 
ATOM     16  C   UNL A   1      31.385  23.522  24.114  1.00  0.00     0.011 A 
ATOM     17  H   UNL A   1      34.516  26.626  24.664  1.00  0.00     0.166 HD
ATOM     18  C   UNL A   1      32.001  26.178  23.422  1.00  0.00     0.027 A 
ATOM     19  C   UNL A   1      30.507  24.279  23.328  1.00  0.00     0.001 A 
ATOM     20  C   UNL A   1      30.810  25.592  22.991  1.00  0.00     0.002 A 
ENDBRANCH   9  11
ENDBRANCH   8   9
ENDBRANCH   7   8
ENDBRANCH   5   7
ENDBRANCH   4   5
ENDBRANCH   3   4
ENDBRANCH   2   3
ENDBRANCH   1   2
BRANCH   1  21
ATOM     21  C   UNL A   1      41.787  22.786  26.941  1.00  0.00     0.202 C 
BRANCH  21  22
ATOM     22  C   UNL A   1      41.564  24.020  26.058  1.00  0.00     0.261 C 
BRANCH  22  23
ATOM     23  O   UNL A   1      40.600  24.947  26.603  1.00  0.00    -0.460 OA
BRANCH  23  24
ATOM     24  C   UNL A   1      40.861  26.246  26.327  1.00  0.00     0.338 C 
ATOM     25  O   UNL A   1      41.512  26.676  25.381  1.00  0.00    -0.246 OA
BRANCH  24  26
ATOM     26  C   UNL A   1      40.197  27.171  27.258  1.00  0.00     0.060 A 
ATOM     27  C   UNL A   1      40.679  28.483  27.319  1.00  0.00     0.016 A 
ATOM     28  C   UNL A   1      39.356  26.676  28.258  1.00  0.00     0.016 A 
ATOM     29  C   UNL A   1      40.419  29.268  28.441  1.00  0.00     0.010 A 
ATOM     30  C   UNL A   1      39.092  27.467  29.383  1.00  0.00     0.010 A 
ATOM     31  C   UNL A   1      39.687  28.736  29.512  1.00  0.00    -0.014 A 
BRANCH  31  32
ATOM     32  C   UNL A   1      39.752  29.411  30.834  1.00  0.00     0.031 A 
ATOM     33  C   UNL A   1      40.906  29.099  31.758  1.00  0.00     0.074 A 
ATOM     34  C   UNL A   1      38.844  30.337  31.191  1.00  0.00     0.049 A 
ATOM     35  N   UNL A   1      41.188  29.602  32.934  1.00  0.00    -0.248 NA
ATOM     36  C   UNL A   1      41.869  28.086  31.294  1.00  0.00     0.031 C 
ATOM     37  C   UNL A   1      37.705  30.763  30.379  1.00  0.00     0.029 A 
ATOM     38  N   UNL A   1      38.747  31.093  32.333  1.00  0.00    -0.354 N 
ATOM     39  C   UNL A   1      42.352  28.963  33.353  1.00  0.00     0.074 A 
ATOM     40  C   UNL A   1      42.706  28.015  32.319  1.00  0.00     0.031 C 
ATOM     41  C   UNL A   1      37.025  31.710  31.049  1.00  0.00     0.029 A 
ATOM     42  C   UNL A   1      37.670  31.944  32.341  1.00  0.00     0.049 A 
ATOM     43  H   UNL A   1      39.391  31.031  33.075  1.00  0.00     0.167 HD
ATOM     44  C   UNL A   1      43.068  29.150  34.488  1.00  0.00     0.031 A 
ATOM     45  C   UNL A   1      37.249  32.812  33.283  1.00  0.00     0.031 A 
ATOM     46  C   UNL A   1      42.723  30.091  35.519  1.00  0.00     0.049 A 
ATOM     47  C   UNL A   1      38.040  32.977  34.553  1.00  0.00     0.074 A 
ATOM     48  C   UNL A   1      43.399  30.365  36.696  1.00  0.00     0.029 A 
ATOM     49  N   UNL A   1      41.608  30.913  35.499  1.00  0.00    -0.354 N 
ATOM     50  N   UNL A   1      39.150  32.381  34.919  1.00  0.00    -0.248 NA
ATOM     51  C   UNL A   1      37.527  33.950  35.530  1.00  0.00     0.031 C 
ATOM     52  C   UNL A   1      42.669  31.326  37.407  1.00  0.00     0.029 A 
ATOM     53  C   UNL A   1      41.566  31.683  36.648  1.00  0.00     0.049 A 
ATOM     54  H   UNL A   1      40.944  30.946  34.772  1.00  0.00     0.167 HD
ATOM     55  C   UNL A   1      39.485  32.932  36.153  1.00  0.00     0.074 A 
ATOM     56  C   UNL A   1      38.465  33.910  36.466  1.00  0.00     0.031 C 
ATOM     57  C   UNL A   1      40.548  32.656  36.949  1.00  0.00     0.031 A 
BRANCH  44  58
ATOM     58  C   UNL A   1      44.287  28.289  34.686  1.00  0.00    -0.014 A 
ATOM     59  C   UNL A   1      44.213  27.069  35.383  1.00  0.00     0.010 A 
ATOM     60  C   UNL A   1      45.520  28.692  34.141  1.00  0.00     0.010 A 
ATOM     61  C   UNL A   1      45.360  26.290  35.569  1.00  0.00     0.020 A 
ATOM     62  C   UNL A   1      46.663  27.905  34.305  1.00  0.00     0.020 A 
ATOM     63  C   UNL A   1      46.579  26.717  35.035  1.00  0.00     0.054 A 
BRANCH  63  64
ATOM     64  S   UNL A   1      48.052  25.686  35.279  1.00  0.00     0.124 S 
ATOM     65  O   UNL A   1      49.067  26.684  35.605  1.00  0.00    -0.237 OA
ATOM     66  O   UNL A   1      47.655  24.812  36.380  1.00  0.00    -0.237 OA
ATOM     67  O   UNL A   1      48.225  25.020  33.990  1.00  0.00    -0.744 OA
ENDBRANCH  63  64
ENDBRANCH  44  58
BRANCH  45  68
ATOM     68  C   UNL A   1      36.012  33.604  33.054  1.00  0.00    -0.014 A 
ATOM     69  C   UNL A   1      36.085  34.924  32.574  1.00  0.00     0.010 A 
ATOM     70  C   UNL A   1      34.752  33.038  33.316  1.00  0.00     0.010 A 
ATOM     71  C   UNL A   1      34.919  35.668  32.372  1.00  0.00     0.020 A 
ATOM     72  C   UNL A   1      33.584  33.771  33.094  1.00  0.00     0.020 A 
ATOM     73  C   UNL A   1      33.675  35.086  32.633  1.00  0.00     0.054 A 
BRANCH  73  74
ATOM     74  S   UNL A   1      32.169  36.043  32.305  1.00  0.00     0.124 S 
ATOM     75  O   UNL A   1      32.306  37.154  33.243  1.00  0.00    -0.237 OA
ATOM     76  O   UNL A   1      32.312  36.386  30.892  1.00  0.00    -0.237 OA
ATOM     77  O   UNL A   1      31.096  35.097  32.602  1.00  0.00    -0.744 OA
ENDBRANCH  73  74
ENDBRANCH  45  68
BRANCH  57  78
ATOM     78  C   UNL A   1      40.688  33.456  38.217  1.00  0.00    -0.014 A 
ATOM     79  C   UNL A   1      40.135  33.011  39.430  1.00  0.00     0.010 A 
ATOM     80  C   UNL A   1      41.419  34.658  38.198  1.00  0.00     0.010 A 
ATOM     81  C   UNL A   1      40.273  33.774  40.592  1.00  0.00     0.020 A 
ATOM     82  C   UNL A   1      41.581  35.412  39.363  1.00  0.00     0.020 A 
ATOM     83  C   UNL A   1      40.989  34.974  40.550  1.00  0.00     0.054 A 
BRANCH  83  84
ATOM     84  S   UNL A   1      41.176  35.942  42.073  1.00  0.00     0.124 S 
ATOM     85  O   UNL A   1      41.012  34.920  43.103  1.00  0.00    -0.237 OA
ATOM     86  O   UNL A   1      42.523  36.492  41.944  1.00  0.00    -0.237 OA
ATOM     87  O   UNL A   1      40.098  36.926  41.993  1.00  0.00    -0.744 OA
ENDBRANCH  83  84
ENDBRANCH  57  78
ENDBRANCH  31  32
ENDBRANCH  24  26
ENDBRANCH  23  24
ENDBRANCH  22  23
ENDBRANCH  21  22
ENDBRANCH   1  21
TORSDOF 20
ENDMDL
MODEL 3
REMARK VINA RESULT:      -9.5      3.659      7.154
REMARK SMILES O=C(CCC(=O)c1c[nH]c2ccccc12)OCCOCCOC(=O)c1ccc(-c2c3nc(c(-c4ccc(S(=O)(=O)[O-])cc4)c4ccc([nH]4)c(-c4ccc(S(=O)(=O)[O-])cc4)c4nc(c(-c5ccc(S(=O)(=O)[O-])cc5)c5ccc2[nH]5)C=C4)C=C3)cc1
REMARK SMILES IDX 19 1 18 2 17 3 16 4 2 5 1 6 3 7 4 8 5 9 6 10 7 11 8 12 15 13
REMARK SMILES IDX 9 14 10 15 14 16 11 18 13 19 12 20 20 21 21 22 22 23 23 24
REMARK SMILES IDX 24 25 25 26 26 27 84 28 27 29 83 30 28 31 29 32 30 33 77 34
REMARK SMILES IDX 31 35 82 36 76 37 78 38 32 39 81 40 75 41 74 42 33 44 63 45
REMARK SMILES IDX 44 46 62 47 45 48 48 49 61 50 79 51 46 52 47 53 60 55 80 56
REMARK SMILES IDX 49 57 34 58 35 59 43 60 36 61 42 62 37 63 38 64 39 65 40 66
REMARK SMILES IDX 41 67 64 68 65 69 73 70 66 71 72 72 67 73 68 74 69 75 70 76
REMARK SMILES IDX 71 77 50 78 51 79 59 80 52 81 58 82 53 83 54 84 55 85 56 86
REMARK SMILES IDX 57 87
REMARK H PARENT 9 17 78 43 48 54
REMARK Flexibility Score: inf
ROOT
ATOM      1  O   UNL A   1      33.706  33.767  29.107  1.00  0.00    -0.374 OA
ENDROOT
BRANCH   1   2
ATOM      2  C   UNL A   1      33.095  35.039  28.914  1.00  0.00     0.202 C 
BRANCH   2   3
ATOM      3  C   UNL A   1      33.297  36.044  30.049  1.00  0.00     0.261 C 
BRANCH   3   4
ATOM      4  O   UNL A   1      32.524  35.681  31.201  1.00  0.00    -0.463 OA
BRANCH   4   5
ATOM      5  C   UNL A   1      32.694  36.320  32.382  1.00  0.00     0.306 C 
ATOM      6  O   UNL A   1      31.793  36.990  32.880  1.00  0.00    -0.252 OA
BRANCH   5   7
ATOM      7  C   UNL A   1      33.916  35.947  33.168  1.00  0.00     0.131 C 
BRANCH   7   8
ATOM      8  C   UNL A   1      34.029  34.430  33.209  1.00  0.00     0.093 C 
BRANCH   8   9
ATOM      9  C   UNL A   1      35.408  34.003  33.659  1.00  0.00     0.165 C 
ATOM     10  O   UNL A   1      35.541  33.448  34.752  1.00  0.00    -0.294 OA
BRANCH   9  11
ATOM     11  C   UNL A   1      36.548  34.173  32.764  1.00  0.00     0.043 A 
ATOM     12  C   UNL A   1      36.434  34.027  31.392  1.00  0.00     0.095 A 
ATOM     13  C   UNL A   1      37.939  34.419  33.038  1.00  0.00     0.010 A 
ATOM     14  N   UNL A   1      37.669  34.177  30.831  1.00  0.00    -0.360 N 
ATOM     15  C   UNL A   1      38.612  34.371  31.813  1.00  0.00     0.046 A 
ATOM     16  C   UNL A   1      38.723  34.619  34.197  1.00  0.00     0.011 A 
ATOM     17  H   UNL A   1      37.858  34.149  29.865  1.00  0.00     0.166 HD
ATOM     18  C   UNL A   1      40.003  34.488  31.696  1.00  0.00     0.027 A 
ATOM     19  C   UNL A   1      40.117  34.716  34.101  1.00  0.00     0.001 A 
ATOM     20  C   UNL A   1      40.748  34.646  32.865  1.00  0.00     0.002 A 
ENDBRANCH   9  11
ENDBRANCH   8   9
ENDBRANCH   7   8
ENDBRANCH   5   7
ENDBRANCH   4   5
ENDBRANCH   3   4
ENDBRANCH   2   3
ENDBRANCH   1   2
BRANCH   1  21
ATOM     21  C   UNL A   1      33.991  32.986  27.939  1.00  0.00     0.202 C 
BRANCH  21  22
ATOM     22  C   UNL A   1      33.645  31.494  27.995  1.00  0.00     0.261 C 
BRANCH  22  23
ATOM     23  O   UNL A   1      34.175  30.740  26.882  1.00  0.00    -0.460 OA
BRANCH  23  24
ATOM     24  C   UNL A   1      34.872  29.638  27.240  1.00  0.00     0.338 C 
ATOM     25  O   UNL A   1      34.714  28.500  26.810  1.00  0.00    -0.246 OA
BRANCH  24  26
ATOM     26  C   UNL A   1      35.959  29.934  28.186  1.00  0.00     0.060 A 
ATOM     27  C   UNL A   1      37.182  30.359  27.653  1.00  0.00     0.016 A 
ATOM     28  C   UNL A   1      35.875  29.498  29.510  1.00  0.00     0.016 A 
ATOM     29  C   UNL A   1      38.348  30.236  28.406  1.00  0.00     0.010 A 
ATOM     30  C   UNL A   1      37.048  29.379  30.268  1.00  0.00     0.010 A 
ATOM     31  C   UNL A   1      38.296  29.675  29.690  1.00  0.00    -0.014 A 
BRANCH  31  32
ATOM     32  C   UNL A   1      39.554  29.187  30.314  1.00  0.00     0.031 A 
ATOM     33  C   UNL A   1      39.998  29.786  31.628  1.00  0.00     0.074 A 
ATOM     34  C   UNL A   1      40.263  28.186  29.764  1.00  0.00     0.049 A 
ATOM     35  N   UNL A   1      41.032  29.483  32.371  1.00  0.00    -0.248 NA
ATOM     36  C   UNL A   1      39.163  30.868  32.176  1.00  0.00     0.031 C 
ATOM     37  C   UNL A   1      39.927  27.493  28.521  1.00  0.00     0.029 A 
ATOM     38  N   UNL A   1      41.414  27.572  30.193  1.00  0.00    -0.354 N 
ATOM     39  C   UNL A   1      40.978  30.340  33.467  1.00  0.00     0.074 A 
ATOM     40  C   UNL A   1      39.826  31.194  33.277  1.00  0.00     0.031 C 
ATOM     41  C   UNL A   1      40.852  26.543  28.291  1.00  0.00     0.029 A 
ATOM     42  C   UNL A   1      41.852  26.574  29.357  1.00  0.00     0.049 A 
ATOM     43  H   UNL A   1      41.881  27.824  31.023  1.00  0.00     0.167 HD
ATOM     44  C   UNL A   1      41.804  30.408  34.540  1.00  0.00     0.031 A 
ATOM     45  C   UNL A   1      42.935  25.777  29.441  1.00  0.00     0.031 A 
ATOM     46  C   UNL A   1      42.949  29.561  34.738  1.00  0.00     0.049 A 
ATOM     47  C   UNL A   1      43.859  25.894  30.624  1.00  0.00     0.074 A 
ATOM     48  C   UNL A   1      43.833  29.544  35.803  1.00  0.00     0.029 A 
ATOM     49  N   UNL A   1      43.371  28.582  33.853  1.00  0.00    -0.354 N 
ATOM     50  N   UNL A   1      43.778  26.694  31.660  1.00  0.00    -0.248 NA
ATOM     51  C   UNL A   1      45.015  24.985  30.654  1.00  0.00     0.031 C 
ATOM     52  C   UNL A   1      44.814  28.579  35.542  1.00  0.00     0.029 A 
ATOM     53  C   UNL A   1      44.511  27.965  34.337  1.00  0.00     0.049 A 
ATOM     54  H   UNL A   1      42.924  28.358  33.004  1.00  0.00     0.167 HD
ATOM     55  C   UNL A   1      44.851  26.360  32.481  1.00  0.00     0.074 A 
ATOM     56  C   UNL A   1      45.562  25.284  31.824  1.00  0.00     0.031 C 
ATOM     57  C   UNL A   1      45.209  26.893  33.676  1.00  0.00     0.031 A 
BRANCH  44  58
ATOM     58  C   UNL A   1      41.509  31.464  35.572  1.00  0.00    -0.014 A 
ATOM     59  C   UNL A   1      42.436  32.482  35.859  1.00  0.00     0.010 A 
ATOM     60  C   UNL A   1      40.275  31.453  36.246  1.00  0.00     0.010 A 
ATOM     61  C   UNL A   1      42.150  33.445  36.832  1.00  0.00     0.020 A 
ATOM     62  C   UNL A   1      39.976  32.427  37.203  1.00  0.00     0.020 A 
ATOM     63  C   UNL A   1      40.924  33.407  37.503  1.00  0.00     0.054 A 
BRANCH  63  64
ATOM     64  S   UNL A   1      40.570  34.673  38.754  1.00  0.00     0.124 S 
ATOM     65  O   UNL A   1      41.911  35.144  39.091  1.00  0.00    -0.237 OA
ATOM     66  O   UNL A   1      39.735  35.623  38.024  1.00  0.00    -0.237 OA
ATOM     67  O   UNL A   1      39.887  33.932  39.811  1.00  0.00    -0.744 OA
ENDBRANCH  63  64
ENDBRANCH  44  58
BRANCH  45  68
ATOM     68  C   UNL A   1      43.202  24.782  28.369  1.00  0.00    -0.014 A 
ATOM     69  C   UNL A   1      43.886  25.157  27.199  1.00  0.00     0.010 A 
ATOM     70  C   UNL A   1      42.773  23.451  28.517  1.00  0.00     0.010 A 
ATOM     71  C   UNL A   1      44.125  24.219  26.189  1.00  0.00     0.020 A 
ATOM     72  C   UNL A   1      43.030  22.507  27.520  1.00  0.00     0.020 A 
ATOM     73  C   UNL A   1      43.695  22.900  26.358  1.00  0.00     0.054 A 
BRANCH  73  74
ATOM     74  S   UNL A   1      44.069  21.682  25.066  1.00  0.00     0.124 S 
ATOM     75  O   UNL A   1      43.039  20.673  25.293  1.00  0.00    -0.237 OA
ATOM     76  O   UNL A   1      43.931  22.465  23.841  1.00  0.00    -0.237 OA
ATOM     77  O   UNL A   1      45.435  21.268  25.378  1.00  0.00    -0.744 OA
ENDBRANCH  73  74
ENDBRANCH  45  68
BRANCH  57  78
ATOM     78  C   UNL A   1      46.398  26.289  34.375  1.00  0.00    -0.014 A 
ATOM     79  C   UNL A   1      47.686  26.837  34.237  1.00  0.00     0.010 A 
ATOM     80  C   UNL A   1      46.215  25.173  35.211  1.00  0.00     0.010 A 
ATOM     81  C   UNL A   1      48.775  26.254  34.891  1.00  0.00     0.020 A 
ATOM     82  C   UNL A   1      47.297  24.601  35.885  1.00  0.00     0.020 A 
ATOM     83  C   UNL A   1      48.575  25.135  35.705  1.00  0.00     0.054 A 
BRANCH  83  84
ATOM     84  S   UNL A   1      49.998  24.404  36.562  1.00  0.00     0.124 S 
ATOM     85  O   UNL A   1      50.192  23.161  35.819  1.00  0.00    -0.237 OA
ATOM     86  O   UNL A   1      51.039  25.413  36.380  1.00  0.00    -0.237 OA
ATOM     87  O   UNL A   1      49.528  24.243  37.936  1.00  0.00    -0.744 OA
ENDBRANCH  83  84
ENDBRANCH  57  78
ENDBRANCH  31  32
ENDBRANCH  24  26
ENDBRANCH  23  24
ENDBRANCH  22  23
ENDBRANCH  21  22
ENDBRANCH   1  21
TORSDOF 20
ENDMDL
