MODEL 1
REMARK VINA RESULT:     -10.8      0.000      0.000
REMARK SMILES Cc1nsc(NC(=O)[C@@H]2C[NH2+]C[C@H]2C)c1C(=O)OCCOCCOC(=O)c1ccc(-c2c3nc(c(-c4ccc(S(=O)(=O)[O-])cc4)c4ccc([nH]4)c(-c4ccc(S(=O)(=O)[O-])cc4)c4nc(c(-c5ccc(S(=O)(=O)[O-])cc5)c5ccc2[nH]5)C=C4)C=C3)cc1
REMARK SMILES IDX 22 1 21 2 20 3 19 4 18 5 16 6 17 7 15 8 1 9 2 10 3 11 4 12
REMARK SMILES IDX 5 13 6 14 7 15 8 17 9 18 10 19 13 20 11 21 12 22 14 23 23 26
REMARK SMILES IDX 24 27 25 28 26 29 27 30 28 31 86 32 29 33 85 34 30 35 31 36
REMARK SMILES IDX 32 37 79 38 33 39 84 40 78 41 80 42 34 43 83 44 77 45 76 46
REMARK SMILES IDX 35 48 65 49 46 50 64 51 47 52 50 53 63 54 81 55 48 56 49 57
REMARK SMILES IDX 62 59 82 60 51 61 36 62 37 63 45 64 38 65 44 66 39 67 40 68
REMARK SMILES IDX 41 69 42 70 43 71 66 72 67 73 75 74 68 75 74 76 69 77 70 78
REMARK SMILES IDX 71 79 72 80 73 81 52 82 53 83 61 84 54 85 60 86 55 87 56 88
REMARK SMILES IDX 57 89 58 90 59 91
REMARK H PARENT 6 16 11 24 11 25 80 47 50 58
REMARK Flexibility Score: inf
ROOT
ATOM      1  C   UNL A   1      32.504  30.239  25.947  1.00  0.00     0.202 C 
ENDROOT
BRANCH   1   2
ATOM      2  O   UNL A   1      31.594  29.152  26.074  1.00  0.00    -0.374 OA
BRANCH   2   3
ATOM      3  C   UNL A   1      31.904  28.043  26.919  1.00  0.00     0.202 C 
BRANCH   3   4
ATOM      4  C   UNL A   1      33.085  27.153  26.528  1.00  0.00     0.261 C 
BRANCH   4   5
ATOM      5  O   UNL A   1      32.707  26.144  25.576  1.00  0.00    -0.460 OA
BRANCH   5   6
ATOM      6  C   UNL A   1      33.291  26.247  24.348  1.00  0.00     0.343 C 
ATOM      7  O   UNL A   1      33.960  27.199  23.975  1.00  0.00    -0.246 OA
BRANCH   6   8
ATOM      8  C   UNL A   1      33.216  25.003  23.598  1.00  0.00     0.117 A 
ATOM      9  C   UNL A   1      32.396  25.869  21.250  1.00  0.00     0.069 C 
ATOM     10  C   UNL A   1      32.807  24.821  22.226  1.00  0.00     0.068 A 
ATOM     11  N   UNL A   1      32.776  23.560  21.798  1.00  0.00    -0.195 NA
ATOM     12  S   UNL A   1      33.121  22.561  23.053  1.00  0.00    -0.017 S 
ATOM     13  C   UNL A   1      33.447  23.765  24.196  1.00  0.00     0.130 A 
BRANCH  13  14
ATOM     14  N   UNL A   1      33.662  23.502  25.541  1.00  0.00    -0.315 N 
ATOM     15  C   UNL A   1      34.389  22.526  26.170  1.00  0.00     0.234 C 
ATOM     16  H   UNL A   1      33.213  24.129  26.152  1.00  0.00     0.170 HD
ATOM     17  O   UNL A   1      33.845  21.944  27.113  1.00  0.00    -0.274 OA
BRANCH  15  18
ATOM     18  C   UNL A   1      35.903  22.431  25.937  1.00  0.00     0.142 C 
ATOM     19  C   UNL A   1      36.613  23.756  25.701  1.00  0.00     0.274 C 
ATOM     20  C   UNL A   1      36.258  21.604  24.667  1.00  0.00     0.059 C 
ATOM     21  N   UNL A   1      37.613  23.524  24.654  1.00  0.00    -0.345 N 
ATOM     22  C   UNL A   1      36.917  22.621  23.738  1.00  0.00     0.264 C 
ATOM     23  C   UNL A   1      37.217  20.455  24.997  1.00  0.00     0.015 C 
ATOM     24  H   UNL A   1      38.451  23.086  25.037  1.00  0.00     0.346 HD
ATOM     25  H   UNL A   1      37.939  24.382  24.208  1.00  0.00     0.346 HD
ENDBRANCH  15  18
ENDBRANCH  13  14
ENDBRANCH   6   8
ENDBRANCH   5   6
ENDBRANCH   4   5
ENDBRANCH   3   4
ENDBRANCH   2   3
ENDBRANCH   1   2
BRANCH   1  26
ATOM     26  C   UNL A   1      33.189  30.797  27.184  1.00  0.00     0.261 C 
BRANCH  26  27
ATOM     27  O   UNL A   1      34.579  30.528  27.170  1.00  0.00    -0.460 OA
BRANCH  27  28
ATOM     28  C   UNL A   1      35.320  31.499  27.761  1.00  0.00     0.338 C 
ATOM     29  O   UNL A   1      35.294  32.688  27.524  1.00  0.00    -0.246 OA
BRANCH  28  30
ATOM     30  C   UNL A   1      36.284  30.853  28.655  1.00  0.00     0.060 A 
ATOM     31  C   UNL A   1      37.233  31.702  29.223  1.00  0.00     0.016 A 
ATOM     32  C   UNL A   1      36.449  29.461  28.604  1.00  0.00     0.016 A 
ATOM     33  C   UNL A   1      38.478  31.184  29.476  1.00  0.00     0.010 A 
ATOM     34  C   UNL A   1      37.696  28.948  28.847  1.00  0.00     0.010 A 
ATOM     35  C   UNL A   1      38.713  29.840  29.169  1.00  0.00    -0.014 A 
BRANCH  35  36
ATOM     36  C   UNL A   1      40.061  29.346  29.290  1.00  0.00     0.031 A 
ATOM     37  C   UNL A   1      40.422  29.109  30.699  1.00  0.00     0.074 A 
ATOM     38  C   UNL A   1      40.827  29.058  28.222  1.00  0.00     0.049 A 
ATOM     39  N   UNL A   1      41.167  29.850  31.447  1.00  0.00    -0.248 NA
ATOM     40  C   UNL A   1      39.662  28.079  31.431  1.00  0.00     0.031 C 
ATOM     41  C   UNL A   1      40.457  28.994  26.807  1.00  0.00     0.029 A 
ATOM     42  N   UNL A   1      42.119  28.651  28.208  1.00  0.00    -0.354 N 
ATOM     43  C   UNL A   1      41.167  29.226  32.685  1.00  0.00     0.074 A 
ATOM     44  C   UNL A   1      40.045  28.323  32.683  1.00  0.00     0.031 C 
ATOM     45  C   UNL A   1      41.419  28.321  26.128  1.00  0.00     0.029 A 
ATOM     46  C   UNL A   1      42.523  28.036  27.032  1.00  0.00     0.049 A 
ATOM     47  H   UNL A   1      42.725  28.782  28.974  1.00  0.00     0.167 HD
ATOM     48  C   UNL A   1      42.263  29.260  33.489  1.00  0.00     0.031 A 
ATOM     49  C   UNL A   1      43.641  27.277  26.873  1.00  0.00     0.031 A 
ATOM     50  C   UNL A   1      43.193  30.280  33.077  1.00  0.00     0.049 A 
ATOM     51  C   UNL A   1      44.555  27.621  27.999  1.00  0.00     0.074 A 
ATOM     52  C   UNL A   1      43.114  31.652  32.931  1.00  0.00     0.029 A 
ATOM     53  N   UNL A   1      44.270  29.877  32.321  1.00  0.00    -0.354 N 
ATOM     54  N   UNL A   1      45.093  28.803  28.142  1.00  0.00    -0.248 NA
ATOM     55  C   UNL A   1      44.446  26.838  29.223  1.00  0.00     0.031 C 
ATOM     56  C   UNL A   1      43.832  31.934  31.732  1.00  0.00     0.029 A 
ATOM     57  C   UNL A   1      44.382  30.741  31.260  1.00  0.00     0.049 A 
ATOM     58  H   UNL A   1      44.855  29.107  32.508  1.00  0.00     0.167 HD
ATOM     59  C   UNL A   1      44.992  29.083  29.500  1.00  0.00     0.074 A 
ATOM     60  C   UNL A   1      44.642  27.806  30.124  1.00  0.00     0.031 C 
ATOM     61  C   UNL A   1      44.902  30.368  29.959  1.00  0.00     0.031 A 
BRANCH  48  62
ATOM     62  C   UNL A   1      42.667  28.091  34.349  1.00  0.00    -0.014 A 
ATOM     63  C   UNL A   1      42.932  28.312  35.712  1.00  0.00     0.010 A 
ATOM     64  C   UNL A   1      43.051  26.841  33.815  1.00  0.00     0.010 A 
ATOM     65  C   UNL A   1      43.593  27.349  36.485  1.00  0.00     0.020 A 
ATOM     66  C   UNL A   1      43.666  25.858  34.585  1.00  0.00     0.020 A 
ATOM     67  C   UNL A   1      43.962  26.131  35.911  1.00  0.00     0.054 A 
BRANCH  67  68
ATOM     68  S   UNL A   1      44.884  24.927  36.892  1.00  0.00     0.124 S 
ATOM     69  O   UNL A   1      44.337  25.146  38.227  1.00  0.00    -0.237 OA
ATOM     70  O   UNL A   1      44.516  23.666  36.253  1.00  0.00    -0.237 OA
ATOM     71  O   UNL A   1      46.276  25.330  36.708  1.00  0.00    -0.744 OA
ENDBRANCH  67  68
ENDBRANCH  48  62
BRANCH  49  72
ATOM     72  C   UNL A   1      43.758  26.008  26.098  1.00  0.00    -0.014 A 
ATOM     73  C   UNL A   1      44.943  25.662  25.420  1.00  0.00     0.010 A 
ATOM     74  C   UNL A   1      42.786  24.996  26.255  1.00  0.00     0.010 A 
ATOM     75  C   UNL A   1      45.167  24.344  24.967  1.00  0.00     0.020 A 
ATOM     76  C   UNL A   1      42.999  23.687  25.805  1.00  0.00     0.020 A 
ATOM     77  C   UNL A   1      44.198  23.360  25.182  1.00  0.00     0.054 A 
BRANCH  77  78
ATOM     78  S   UNL A   1      44.557  21.627  24.756  1.00  0.00     0.124 S 
ATOM     79  O   UNL A   1      43.439  20.916  25.369  1.00  0.00    -0.237 OA
ATOM     80  O   UNL A   1      44.566  21.653  23.296  1.00  0.00    -0.237 OA
ATOM     81  O   UNL A   1      45.860  21.384  25.374  1.00  0.00    -0.744 OA
ENDBRANCH  77  78
ENDBRANCH  49  72
BRANCH  61  82
ATOM     82  C   UNL A   1      45.164  31.507  28.996  1.00  0.00    -0.014 A 
ATOM     83  C   UNL A   1      46.429  32.096  28.785  1.00  0.00     0.010 A 
ATOM     84  C   UNL A   1      44.108  31.877  28.146  1.00  0.00     0.010 A 
ATOM     85  C   UNL A   1      46.617  33.047  27.766  1.00  0.00     0.020 A 
ATOM     86  C   UNL A   1      44.292  32.807  27.121  1.00  0.00     0.020 A 
ATOM     87  C   UNL A   1      45.543  33.397  26.941  1.00  0.00     0.054 A 
BRANCH  87  88
ATOM     88  S   UNL A   1      45.788  34.600  25.603  1.00  0.00     0.124 S 
ATOM     89  O   UNL A   1      47.220  34.494  25.339  1.00  0.00    -0.237 OA
ATOM     90  O   UNL A   1      44.913  34.095  24.547  1.00  0.00    -0.237 OA
ATOM     91  O   UNL A   1      45.362  35.869  26.193  1.00  0.00    -0.744 OA
ENDBRANCH  87  88
ENDBRANCH  61  82
ENDBRANCH  35  36
ENDBRANCH  28  30
ENDBRANCH  27  28
ENDBRANCH  26  27
ENDBRANCH   1  26
TORSDOF 19
ENDMDL
MODEL 2
REMARK VINA RESULT:     -10.8      2.732      9.056
REMARK SMILES Cc1nsc(NC(=O)[C@@H]2C[NH2+]C[C@H]2C)c1C(=O)OCCOCCOC(=O)c1ccc(-c2c3nc(c(-c4ccc(S(=O)(=O)[O-])cc4)c4ccc([nH]4)c(-c4ccc(S(=O)(=O)[O-])cc4)c4nc(c(-c5ccc(S(=O)(=O)[O-])cc5)c5ccc2[nH]5)C=C4)C=C3)cc1
REMARK SMILES IDX 22 1 21 2 20 3 19 4 18 5 16 6 17 7 15 8 1 9 2 10 3 11 4 12
REMARK SMILES IDX 5 13 6 14 7 15 8 17 9 18 10 19 13 20 11 21 12 22 14 23 23 26
REMARK SMILES IDX 24 27 25 28 26 29 27 30 28 31 86 32 29 33 85 34 30 35 31 36
REMARK SMILES IDX 32 37 79 38 33 39 84 40 78 41 80 42 34 43 83 44 77 45 76 46
REMARK SMILES IDX 35 48 65 49 46 50 64 51 47 52 50 53 63 54 81 55 48 56 49 57
REMARK SMILES IDX 62 59 82 60 51 61 36 62 37 63 45 64 38 65 44 66 39 67 40 68
REMARK SMILES IDX 41 69 42 70 43 71 66 72 67 73 75 74 68 75 74 76 69 77 70 78
REMARK SMILES IDX 71 79 72 80 73 81 52 82 53 83 61 84 54 85 60 86 55 87 56 88
REMARK SMILES IDX 57 89 58 90 59 91
REMARK H PARENT 6 16 11 24 11 25 80 47 50 58
REMARK Flexibility Score: inf
ROOT
ATOM      1  C   UNL A   1      39.017  21.983  26.112  1.00  0.00     0.202 C 
ENDROOT
BRANCH   1   2
ATOM      2  O   UNL A   1      38.576  23.336  26.142  1.00  0.00    -0.374 OA
BRANCH   2   3
ATOM      3  C   UNL A   1      37.273  23.685  25.675  1.00  0.00     0.202 C 
BRANCH   3   4
ATOM      4  C   UNL A   1      36.069  23.204  26.487  1.00  0.00     0.261 C 
BRANCH   4   5
ATOM      5  O   UNL A   1      34.855  23.862  26.090  1.00  0.00    -0.460 OA
BRANCH   5   6
ATOM      6  C   UNL A   1      33.702  23.195  26.381  1.00  0.00     0.343 C 
ATOM      7  O   UNL A   1      33.331  22.911  27.510  1.00  0.00    -0.246 OA
BRANCH   6   8
ATOM      8  C   UNL A   1      32.844  23.045  25.217  1.00  0.00     0.117 A 
ATOM      9  C   UNL A   1      30.737  24.446  25.946  1.00  0.00     0.069 C 
ATOM     10  C   UNL A   1      31.520  23.584  25.017  1.00  0.00     0.068 A 
ATOM     11  N   UNL A   1      30.929  23.247  23.872  1.00  0.00    -0.195 NA
ATOM     12  S   UNL A   1      31.889  22.189  23.066  1.00  0.00    -0.017 S 
ATOM     13  C   UNL A   1      33.192  22.224  24.144  1.00  0.00     0.130 A 
BRANCH  13  14
ATOM     14  N   UNL A   1      34.285  21.376  24.049  1.00  0.00    -0.315 N 
ATOM     15  C   UNL A   1      34.592  20.213  24.704  1.00  0.00     0.234 C 
ATOM     16  H   UNL A   1      34.961  21.661  23.393  1.00  0.00     0.170 HD
ATOM     17  O   UNL A   1      35.741  20.106  25.146  1.00  0.00    -0.274 OA
BRANCH  15  18
ATOM     18  C   UNL A   1      33.670  18.993  24.569  1.00  0.00     0.142 C 
ATOM     19  C   UNL A   1      32.869  18.639  25.814  1.00  0.00     0.274 C 
ATOM     20  C   UNL A   1      34.457  17.685  24.267  1.00  0.00     0.059 C 
ATOM     21  N   UNL A   1      32.859  17.176  25.913  1.00  0.00    -0.345 N 
ATOM     22  C   UNL A   1      34.216  16.817  25.499  1.00  0.00     0.264 C 
ATOM     23  C   UNL A   1      33.938  17.000  22.999  1.00  0.00     0.015 C 
ATOM     24  H   UNL A   1      32.164  16.770  25.288  1.00  0.00     0.346 HD
ATOM     25  H   UNL A   1      32.616  16.835  26.844  1.00  0.00     0.346 HD
ENDBRANCH  15  18
ENDBRANCH  13  14
ENDBRANCH   6   8
ENDBRANCH   5   6
ENDBRANCH   4   5
ENDBRANCH   3   4
ENDBRANCH   2   3
ENDBRANCH   1   2
BRANCH   1  26
ATOM     26  C   UNL A   1      40.382  21.623  26.674  1.00  0.00     0.261 C 
BRANCH  26  27
ATOM     27  O   UNL A   1      41.134  22.780  26.990  1.00  0.00    -0.460 OA
BRANCH  27  28
ATOM     28  C   UNL A   1      42.008  23.136  26.016  1.00  0.00     0.338 C 
ATOM     29  O   UNL A   1      42.503  22.416  25.176  1.00  0.00    -0.246 OA
BRANCH  28  30
ATOM     30  C   UNL A   1      42.379  24.537  26.229  1.00  0.00     0.060 A 
ATOM     31  C   UNL A   1      43.239  24.771  27.303  1.00  0.00     0.016 A 
ATOM     32  C   UNL A   1      41.612  25.553  25.640  1.00  0.00     0.016 A 
ATOM     33  C   UNL A   1      43.108  25.961  27.973  1.00  0.00     0.010 A 
ATOM     34  C   UNL A   1      41.475  26.736  26.317  1.00  0.00     0.010 A 
ATOM     35  C   UNL A   1      42.142  26.869  27.530  1.00  0.00    -0.014 A 
BRANCH  35  36
ATOM     36  C   UNL A   1      41.903  28.043  28.331  1.00  0.00     0.031 A 
ATOM     37  C   UNL A   1      43.005  29.014  28.202  1.00  0.00     0.074 A 
ATOM     38  C   UNL A   1      40.763  28.235  29.019  1.00  0.00     0.049 A 
ATOM     39  N   UNL A   1      43.945  29.243  29.056  1.00  0.00    -0.248 NA
ATOM     40  C   UNL A   1      43.238  29.605  26.871  1.00  0.00     0.031 C 
ATOM     41  C   UNL A   1      39.516  27.466  28.976  1.00  0.00     0.029 A 
ATOM     42  N   UNL A   1      40.450  29.259  29.848  1.00  0.00    -0.354 N 
ATOM     43  C   UNL A   1      44.747  30.203  28.458  1.00  0.00     0.074 A 
ATOM     44  C   UNL A   1      44.423  30.185  27.055  1.00  0.00     0.031 C 
ATOM     45  C   UNL A   1      38.524  28.205  29.532  1.00  0.00     0.029 A 
ATOM     46  C   UNL A   1      39.093  29.423  30.086  1.00  0.00     0.049 A 
ATOM     47  H   UNL A   1      41.134  29.841  30.252  1.00  0.00     0.167 HD
ATOM     48  C   UNL A   1      45.377  31.152  29.199  1.00  0.00     0.031 A 
ATOM     49  C   UNL A   1      38.506  30.531  30.613  1.00  0.00     0.031 A 
ATOM     50  C   UNL A   1      45.407  30.802  30.597  1.00  0.00     0.049 A 
ATOM     51  C   UNL A   1      39.580  31.295  31.308  1.00  0.00     0.074 A 
ATOM     52  C   UNL A   1      45.922  29.737  31.311  1.00  0.00     0.029 A 
ATOM     53  N   UNL A   1      44.461  31.386  31.409  1.00  0.00    -0.354 N 
ATOM     54  N   UNL A   1      40.208  30.841  32.360  1.00  0.00    -0.248 NA
ATOM     55  C   UNL A   1      40.305  32.297  30.538  1.00  0.00     0.031 C 
ATOM     56  C   UNL A   1      44.934  29.446  32.297  1.00  0.00     0.029 A 
ATOM     57  C   UNL A   1      43.917  30.398  32.191  1.00  0.00     0.049 A 
ATOM     58  H   UNL A   1      44.219  32.340  31.426  1.00  0.00     0.167 HD
ATOM     59  C   UNL A   1      41.544  31.162  32.148  1.00  0.00     0.074 A 
ATOM     60  C   UNL A   1      41.532  32.116  31.039  1.00  0.00     0.031 C 
ATOM     61  C   UNL A   1      42.552  30.407  32.681  1.00  0.00     0.031 A 
BRANCH  48  62
ATOM     62  C   UNL A   1      45.559  32.566  28.712  1.00  0.00    -0.014 A 
ATOM     63  C   UNL A   1      46.863  33.050  28.506  1.00  0.00     0.010 A 
ATOM     64  C   UNL A   1      44.513  33.515  28.701  1.00  0.00     0.010 A 
ATOM     65  C   UNL A   1      47.108  34.420  28.350  1.00  0.00     0.020 A 
ATOM     66  C   UNL A   1      44.740  34.874  28.500  1.00  0.00     0.020 A 
ATOM     67  C   UNL A   1      46.043  35.322  28.356  1.00  0.00     0.054 A 
BRANCH  67  68
ATOM     68  S   UNL A   1      46.375  37.094  28.234  1.00  0.00     0.124 S 
ATOM     69  O   UNL A   1      47.833  37.130  28.301  1.00  0.00    -0.237 OA
ATOM     70  O   UNL A   1      45.789  37.425  26.938  1.00  0.00    -0.237 OA
ATOM     71  O   UNL A   1      45.678  37.653  29.389  1.00  0.00    -0.744 OA
ENDBRANCH  67  68
ENDBRANCH  48  62
BRANCH  49  72
ATOM     72  C   UNL A   1      37.224  31.157  30.176  1.00  0.00    -0.014 A 
ATOM     73  C   UNL A   1      36.296  31.667  31.106  1.00  0.00     0.010 A 
ATOM     74  C   UNL A   1      37.036  31.504  28.821  1.00  0.00     0.010 A 
ATOM     75  C   UNL A   1      35.257  32.532  30.701  1.00  0.00     0.020 A 
ATOM     76  C   UNL A   1      36.005  32.360  28.411  1.00  0.00     0.020 A 
ATOM     77  C   UNL A   1      35.132  32.888  29.355  1.00  0.00     0.054 A 
BRANCH  77  78
ATOM     78  S   UNL A   1      33.905  34.137  28.858  1.00  0.00     0.124 S 
ATOM     79  O   UNL A   1      33.254  34.458  30.124  1.00  0.00    -0.237 OA
ATOM     80  O   UNL A   1      34.738  35.193  28.289  1.00  0.00    -0.237 OA
ATOM     81  O   UNL A   1      33.066  33.429  27.892  1.00  0.00    -0.744 OA
ENDBRANCH  77  78
ENDBRANCH  49  72
BRANCH  61  82
ATOM     82  C   UNL A   1      42.209  29.356  33.715  1.00  0.00    -0.014 A 
ATOM     83  C   UNL A   1      41.714  28.070  33.410  1.00  0.00     0.010 A 
ATOM     84  C   UNL A   1      42.568  29.632  35.045  1.00  0.00     0.010 A 
ATOM     85  C   UNL A   1      41.563  27.102  34.419  1.00  0.00     0.020 A 
ATOM     86  C   UNL A   1      42.438  28.669  36.048  1.00  0.00     0.020 A 
ATOM     87  C   UNL A   1      41.925  27.411  35.734  1.00  0.00     0.054 A 
BRANCH  87  88
ATOM     88  S   UNL A   1      41.762  26.154  37.035  1.00  0.00     0.124 S 
ATOM     89  O   UNL A   1      42.020  24.913  36.310  1.00  0.00    -0.237 OA
ATOM     90  O   UNL A   1      42.788  26.547  37.998  1.00  0.00    -0.237 OA
ATOM     91  O   UNL A   1      40.387  26.318  37.507  1.00  0.00    -0.744 OA
ENDBRANCH  87  88
ENDBRANCH  61  82
ENDBRANCH  35  36
ENDBRANCH  28  30
ENDBRANCH  27  28
ENDBRANCH  26  27
ENDBRANCH   1  26
TORSDOF 19
ENDMDL
MODEL 3
REMARK VINA RESULT:     -10.8      3.193      7.144
REMARK SMILES Cc1nsc(NC(=O)[C@@H]2C[NH2+]C[C@H]2C)c1C(=O)OCCOCCOC(=O)c1ccc(-c2c3nc(c(-c4ccc(S(=O)(=O)[O-])cc4)c4ccc([nH]4)c(-c4ccc(S(=O)(=O)[O-])cc4)c4nc(c(-c5ccc(S(=O)(=O)[O-])cc5)c5ccc2[nH]5)C=C4)C=C3)cc1
REMARK SMILES IDX 22 1 21 2 20 3 19 4 18 5 16 6 17 7 15 8 1 9 2 10 3 11 4 12
REMARK SMILES IDX 5 13 6 14 7 15 8 17 9 18 10 19 13 20 11 21 12 22 14 23 23 26
REMARK SMILES IDX 24 27 25 28 26 29 27 30 28 31 86 32 29 33 85 34 30 35 31 36
REMARK SMILES IDX 32 37 79 38 33 39 84 40 78 41 80 42 34 43 83 44 77 45 76 46
REMARK SMILES IDX 35 48 65 49 46 50 64 51 47 52 50 53 63 54 81 55 48 56 49 57
REMARK SMILES IDX 62 59 82 60 51 61 36 62 37 63 45 64 38 65 44 66 39 67 40 68
REMARK SMILES IDX 41 69 42 70 43 71 66 72 67 73 75 74 68 75 74 76 69 77 70 78
REMARK SMILES IDX 71 79 72 80 73 81 52 82 53 83 61 84 54 85 60 86 55 87 56 88
REMARK SMILES IDX 57 89 58 90 59 91
REMARK H PARENT 6 16 11 24 11 25 80 47 50 58
REMARK Flexibility Score: inf
ROOT
ATOM      1  C   UNL A   1      32.125  30.080  25.582  1.00  0.00     0.202 C 
ENDROOT
BRANCH   1   2
ATOM      2  O   UNL A   1      32.409  28.710  25.847  1.00  0.00    -0.374 OA
BRANCH   2   3
ATOM      3  C   UNL A   1      33.727  28.194  25.663  1.00  0.00     0.202 C 
BRANCH   3   4
ATOM      4  C   UNL A   1      33.966  27.242  24.489  1.00  0.00     0.261 C 
BRANCH   4   5
ATOM      5  O   UNL A   1      33.339  27.707  23.282  1.00  0.00    -0.460 OA
BRANCH   5   6
ATOM      6  C   UNL A   1      33.065  26.747  22.354  1.00  0.00     0.343 C 
ATOM      7  O   UNL A   1      33.731  26.543  21.349  1.00  0.00    -0.246 OA
BRANCH   6   8
ATOM      8  C   UNL A   1      32.016  25.841  22.792  1.00  0.00     0.117 A 
ATOM      9  C   UNL A   1      30.134  27.541  23.502  1.00  0.00     0.069 C 
ATOM     10  C   UNL A   1      30.714  26.182  23.316  1.00  0.00     0.068 A 
ATOM     11  N   UNL A   1      29.961  25.152  23.697  1.00  0.00    -0.195 NA
ATOM     12  S   UNL A   1      30.830  23.769  23.546  1.00  0.00    -0.017 S 
ATOM     13  C   UNL A   1      32.208  24.462  22.852  1.00  0.00     0.130 A 
BRANCH  13  14
ATOM     14  N   UNL A   1      33.385  23.762  22.630  1.00  0.00    -0.315 N 
ATOM     15  C   UNL A   1      34.487  23.566  23.419  1.00  0.00     0.234 C 
ATOM     16  H   UNL A   1      33.437  23.329  21.748  1.00  0.00     0.170 HD
ATOM     17  O   UNL A   1      35.591  23.727  22.888  1.00  0.00    -0.274 OA
BRANCH  15  18
ATOM     18  C   UNL A   1      34.345  22.843  24.766  1.00  0.00     0.142 C 
ATOM     19  C   UNL A   1      35.506  23.029  25.733  1.00  0.00     0.274 C 
ATOM     20  C   UNL A   1      34.260  21.298  24.604  1.00  0.00     0.059 C 
ATOM     21  N   UNL A   1      35.731  21.734  26.383  1.00  0.00    -0.345 N 
ATOM     22  C   UNL A   1      35.523  20.785  25.290  1.00  0.00     0.264 C 
ATOM     23  C   UNL A   1      33.001  20.734  25.271  1.00  0.00     0.015 C 
ATOM     24  H   UNL A   1      35.061  21.580  27.137  1.00  0.00     0.346 HD
ATOM     25  H   UNL A   1      36.650  21.655  26.820  1.00  0.00     0.346 HD
ENDBRANCH  15  18
ENDBRANCH  13  14
ENDBRANCH   6   8
ENDBRANCH   5   6
ENDBRANCH   4   5
ENDBRANCH   3   4
ENDBRANCH   2   3
ENDBRANCH   1   2
BRANCH   1  26
ATOM     26  C   UNL A   1      31.859  31.030  26.738  1.00  0.00     0.261 C 
BRANCH  26  27
ATOM     27  O   UNL A   1      33.066  31.491  27.318  1.00  0.00    -0.460 OA
BRANCH  27  28
ATOM     28  C   UNL A   1      32.995  32.771  27.760  1.00  0.00     0.338 C 
ATOM     29  O   UNL A   1      32.142  33.591  27.499  1.00  0.00    -0.246 OA
BRANCH  28  30
ATOM     30  C   UNL A   1      34.220  33.060  28.510  1.00  0.00     0.060 A 
ATOM     31  C   UNL A   1      35.244  33.657  27.775  1.00  0.00     0.016 A 
ATOM     32  C   UNL A   1      34.446  32.422  29.739  1.00  0.00     0.016 A 
ATOM     33  C   UNL A   1      36.536  33.359  28.128  1.00  0.00     0.010 A 
ATOM     34  C   UNL A   1      35.736  32.118  30.083  1.00  0.00     0.010 A 
ATOM     35  C   UNL A   1      36.748  32.498  29.209  1.00  0.00    -0.014 A 
BRANCH  35  36
ATOM     36  C   UNL A   1      38.097  32.067  29.473  1.00  0.00     0.031 A 
ATOM     37  C   UNL A   1      38.256  30.621  29.232  1.00  0.00     0.074 A 
ATOM     38  C   UNL A   1      39.081  32.923  29.802  1.00  0.00     0.049 A 
ATOM     39  N   UNL A   1      38.324  29.687  30.119  1.00  0.00    -0.248 NA
ATOM     40  C   UNL A   1      38.054  30.136  27.855  1.00  0.00     0.031 C 
ATOM     41  C   UNL A   1      39.079  34.387  29.786  1.00  0.00     0.029 A 
ATOM     42  N   UNL A   1      40.363  32.634  30.131  1.00  0.00    -0.354 N 
ATOM     43  C   UNL A   1      38.429  28.511  29.393  1.00  0.00     0.074 A 
ATOM     44  C   UNL A   1      38.000  28.820  28.054  1.00  0.00     0.031 C 
ATOM     45  C   UNL A   1      40.360  34.832  29.830  1.00  0.00     0.029 A 
ATOM     46  C   UNL A   1      41.248  33.695  30.016  1.00  0.00     0.049 A 
ATOM     47  H   UNL A   1      40.644  31.738  30.431  1.00  0.00     0.167 HD
ATOM     48  C   UNL A   1      39.157  27.461  29.859  1.00  0.00     0.031 A 
ATOM     49  C   UNL A   1      42.605  33.601  29.984  1.00  0.00     0.031 A 
ATOM     50  C   UNL A   1      39.444  27.595  31.265  1.00  0.00     0.049 A 
ATOM     51  C   UNL A   1      42.955  32.274  30.564  1.00  0.00     0.074 A 
ATOM     52  C   UNL A   1      38.664  27.707  32.400  1.00  0.00     0.029 A 
ATOM     53  N   UNL A   1      40.687  28.077  31.607  1.00  0.00    -0.354 N 
ATOM     54  N   UNL A   1      42.729  31.961  31.812  1.00  0.00    -0.248 NA
ATOM     55  C   UNL A   1      43.060  31.143  29.650  1.00  0.00     0.031 C 
ATOM     56  C   UNL A   1      39.324  28.682  33.204  1.00  0.00     0.029 A 
ATOM     57  C   UNL A   1      40.510  29.046  32.563  1.00  0.00     0.049 A 
ATOM     58  H   UNL A   1      41.548  27.779  31.234  1.00  0.00     0.167 HD
ATOM     59  C   UNL A   1      42.239  30.660  31.774  1.00  0.00     0.074 A 
ATOM     60  C   UNL A   1      42.527  30.187  30.419  1.00  0.00     0.031 C 
ATOM     61  C   UNL A   1      41.382  30.192  32.731  1.00  0.00     0.031 A 
BRANCH  48  62
ATOM     62  C   UNL A   1      39.961  26.571  28.948  1.00  0.00    -0.014 A 
ATOM     63  C   UNL A   1      39.336  25.449  28.373  1.00  0.00     0.010 A 
ATOM     64  C   UNL A   1      41.367  26.645  28.844  1.00  0.00     0.010 A 
ATOM     65  C   UNL A   1      40.090  24.432  27.774  1.00  0.00     0.020 A 
ATOM     66  C   UNL A   1      42.123  25.663  28.210  1.00  0.00     0.020 A 
ATOM     67  C   UNL A   1      41.480  24.545  27.704  1.00  0.00     0.054 A 
BRANCH  67  68
ATOM     68  S   UNL A   1      42.449  23.193  27.000  1.00  0.00     0.124 S 
ATOM     69  O   UNL A   1      41.454  22.504  26.184  1.00  0.00    -0.237 OA
ATOM     70  O   UNL A   1      43.487  23.911  26.267  1.00  0.00    -0.237 OA
ATOM     71  O   UNL A   1      42.916  22.459  28.174  1.00  0.00    -0.744 OA
ENDBRANCH  67  68
ENDBRANCH  48  62
BRANCH  49  72
ATOM     72  C   UNL A   1      43.534  34.369  29.105  1.00  0.00    -0.014 A 
ATOM     73  C   UNL A   1      44.680  35.008  29.619  1.00  0.00     0.010 A 
ATOM     74  C   UNL A   1      43.442  34.240  27.702  1.00  0.00     0.010 A 
ATOM     75  C   UNL A   1      45.713  35.449  28.765  1.00  0.00     0.020 A 
ATOM     76  C   UNL A   1      44.462  34.679  26.848  1.00  0.00     0.020 A 
ATOM     77  C   UNL A   1      45.605  35.263  27.385  1.00  0.00     0.054 A 
BRANCH  77  78
ATOM     78  S   UNL A   1      47.009  35.672  26.301  1.00  0.00     0.124 S 
ATOM     79  O   UNL A   1      46.716  37.048  25.915  1.00  0.00    -0.237 OA
ATOM     80  O   UNL A   1      48.157  35.494  27.186  1.00  0.00    -0.237 OA
ATOM     81  O   UNL A   1      46.907  34.690  25.221  1.00  0.00    -0.744 OA
ENDBRANCH  77  78
ENDBRANCH  49  72
BRANCH  61  82
ATOM     82  C   UNL A   1      41.161  31.019  33.980  1.00  0.00    -0.014 A 
ATOM     83  C   UNL A   1      41.904  30.877  35.171  1.00  0.00     0.010 A 
ATOM     84  C   UNL A   1      40.272  32.102  33.876  1.00  0.00     0.010 A 
ATOM     85  C   UNL A   1      41.737  31.784  36.233  1.00  0.00     0.020 A 
ATOM     86  C   UNL A   1      40.115  33.017  34.919  1.00  0.00     0.020 A 
ATOM     87  C   UNL A   1      40.840  32.848  36.098  1.00  0.00     0.054 A 
BRANCH  87  88
ATOM     88  S   UNL A   1      40.644  34.041  37.454  1.00  0.00     0.124 S 
ATOM     89  O   UNL A   1      42.026  34.325  37.828  1.00  0.00    -0.237 OA
ATOM     90  O   UNL A   1      39.924  35.142  36.818  1.00  0.00    -0.237 OA
ATOM     91  O   UNL A   1      39.873  33.306  38.456  1.00  0.00    -0.744 OA
ENDBRANCH  87  88
ENDBRANCH  61  82
ENDBRANCH  35  36
ENDBRANCH  28  30
ENDBRANCH  27  28
ENDBRANCH  26  27
ENDBRANCH   1  26
TORSDOF 19
ENDMDL
