MODEL 1
REMARK VINA RESULT:      -7.7      0.000      0.000
REMARK SMILES COc1ccc(/C=C/C(=O)OCCOCCOC(=O)c2ccc(-c3c4nc(c(-c5ccc(S(=O)(=O)[O-])cc5)c5ccc([nH]5)c(-c5ccc(S(=O)(=O)[O-])cc5)c5nc(c(-c6ccc(S(=O)(=O)[O-])cc6)c6ccc3[nH]6)C=C5)C=C4)cc2)cc1S(=O)(=O)Nc1ccc(F)cc1F
REMARK SMILES IDX 13 1 12 2 11 3 9 4 10 5 8 6 7 7 6 8 3 9 4 10 81 11 5 12
REMARK SMILES IDX 80 13 2 14 1 15 82 16 83 17 84 18 85 19 86 21 87 22 92 23
REMARK SMILES IDX 88 24 91 25 93 26 89 27 90 28 14 29 15 30 16 31 17 32 18 33
REMARK SMILES IDX 19 34 20 35 21 36 79 37 22 38 78 39 23 40 24 41 25 42 72 43
REMARK SMILES IDX 26 44 77 45 71 46 73 47 27 48 76 49 70 50 69 51 28 53 58 54
REMARK SMILES IDX 39 55 57 56 40 57 43 58 56 59 74 60 41 61 42 62 55 64 75 65
REMARK SMILES IDX 44 66 29 67 30 68 38 69 31 70 37 71 32 72 33 73 34 74 35 75
REMARK SMILES IDX 36 76 59 77 60 78 68 79 61 80 67 81 62 82 63 83 64 84 65 85
REMARK SMILES IDX 66 86 45 87 46 88 54 89 47 90 53 91 48 92 49 93 50 94 51 95
REMARK SMILES IDX 52 96
REMARK H PARENT 85 20 73 52 43 63
REMARK Flexibility Score: inf
ROOT
ATOM      1  C   UNL A   1      34.907  33.773  31.992  1.00  0.00     0.202 C 
ENDROOT
BRANCH   1   2
ATOM      2  C   UNL A   1      36.357  33.365  32.257  1.00  0.00     0.261 C 
BRANCH   2   3
ATOM      3  O   UNL A   1      36.616  33.194  33.660  1.00  0.00    -0.460 OA
BRANCH   3   4
ATOM      4  C   UNL A   1      37.766  33.761  34.080  1.00  0.00     0.330 C 
ATOM      5  O   UNL A   1      38.018  34.957  34.131  1.00  0.00    -0.247 OA
BRANCH   4   6
ATOM      6  C   UNL A   1      38.780  32.784  34.508  1.00  0.00     0.094 C 
ATOM      7  C   UNL A   1      38.919  31.476  34.224  1.00  0.00     0.015 C 
BRANCH   7   8
ATOM      8  C   UNL A   1      40.067  30.748  34.807  1.00  0.00    -0.024 A 
ATOM      9  C   UNL A   1      42.601  29.819  35.514  1.00  0.00     0.139 A 
ATOM     10  C   UNL A   1      42.012  30.839  36.252  1.00  0.00     0.048 A 
ATOM     11  C   UNL A   1      41.829  29.079  34.625  1.00  0.00     0.130 A 
ATOM     12  C   UNL A   1      40.735  31.276  35.922  1.00  0.00     0.012 A 
ATOM     13  C   UNL A   1      40.568  29.574  34.233  1.00  0.00     0.034 A 
BRANCH   9  14
ATOM     14  O   UNL A   1      43.937  29.647  35.724  1.00  0.00    -0.495 OA
ATOM     15  C   UNL A   1      44.230  29.539  37.121  1.00  0.00     0.278 C 
ENDBRANCH   9  14
BRANCH  11  16
ATOM     16  S   UNL A   1      42.311  27.492  33.991  1.00  0.00     0.265 S 
ATOM     17  O   UNL A   1      41.518  26.491  34.673  1.00  0.00    -0.201 OA
ATOM     18  O   UNL A   1      42.257  27.614  32.547  1.00  0.00    -0.201 OA
BRANCH  16  19
ATOM     19  N   UNL A   1      43.932  27.175  34.316  1.00  0.00    -0.277 N 
ATOM     20  H   UNL A   1      44.574  27.908  34.185  1.00  0.00     0.180 HD
BRANCH  19  21
ATOM     21  C   UNL A   1      44.445  25.920  34.768  1.00  0.00     0.085 A 
ATOM     22  C   UNL A   1      44.948  25.896  36.081  1.00  0.00     0.033 A 
ATOM     23  C   UNL A   1      44.424  24.728  34.036  1.00  0.00     0.150 A 
ATOM     24  C   UNL A   1      45.294  24.687  36.684  1.00  0.00     0.041 A 
ATOM     25  C   UNL A   1      44.779  23.519  34.631  1.00  0.00     0.080 A 
ATOM     26  F   UNL A   1      43.992  24.698  32.770  1.00  0.00    -0.205 F 
ATOM     27  C   UNL A   1      45.186  23.507  35.958  1.00  0.00     0.126 A 
ATOM     28  F   UNL A   1      45.469  22.342  36.554  1.00  0.00    -0.207 F 
ENDBRANCH  19  21
ENDBRANCH  16  19
ENDBRANCH  11  16
ENDBRANCH   7   8
ENDBRANCH   4   6
ENDBRANCH   3   4
ENDBRANCH   2   3
ENDBRANCH   1   2
BRANCH   1  29
ATOM     29  O   UNL A   1      34.238  33.046  30.963  1.00  0.00    -0.374 OA
BRANCH  29  30
ATOM     30  C   UNL A   1      34.134  33.682  29.686  1.00  0.00     0.202 C 
BRANCH  30  31
ATOM     31  C   UNL A   1      35.235  33.334  28.675  1.00  0.00     0.261 C 
BRANCH  31  32
ATOM     32  O   UNL A   1      34.733  32.510  27.605  1.00  0.00    -0.460 OA
BRANCH  32  33
ATOM     33  C   UNL A   1      34.513  31.213  27.935  1.00  0.00     0.338 C 
ATOM     34  O   UNL A   1      33.452  30.613  27.886  1.00  0.00    -0.246 OA
BRANCH  33  35
ATOM     35  C   UNL A   1      35.798  30.531  28.195  1.00  0.00     0.060 A 
ATOM     36  C   UNL A   1      36.021  30.048  29.492  1.00  0.00     0.016 A 
ATOM     37  C   UNL A   1      36.792  30.420  27.220  1.00  0.00     0.016 A 
ATOM     38  C   UNL A   1      37.256  29.496  29.831  1.00  0.00     0.010 A 
ATOM     39  C   UNL A   1      38.035  29.876  27.566  1.00  0.00     0.010 A 
ATOM     40  C   UNL A   1      38.284  29.443  28.881  1.00  0.00    -0.014 A 
BRANCH  40  41
ATOM     41  C   UNL A   1      39.653  29.061  29.305  1.00  0.00     0.031 A 
ATOM     42  C   UNL A   1      40.479  30.051  30.083  1.00  0.00     0.074 A 
ATOM     43  C   UNL A   1      40.148  27.842  29.025  1.00  0.00     0.049 A 
ATOM     44  N   UNL A   1      41.698  29.929  30.542  1.00  0.00    -0.248 NA
ATOM     45  C   UNL A   1      39.849  31.348  30.383  1.00  0.00     0.031 C 
ATOM     46  C   UNL A   1      39.438  26.783  28.308  1.00  0.00     0.029 A 
ATOM     47  N   UNL A   1      41.372  27.291  29.311  1.00  0.00    -0.354 N 
ATOM     48  C   UNL A   1      41.984  31.131  31.179  1.00  0.00     0.074 A 
ATOM     49  C   UNL A   1      40.819  31.977  31.033  1.00  0.00     0.031 C 
ATOM     50  C   UNL A   1      40.246  25.714  28.195  1.00  0.00     0.029 A 
ATOM     51  C   UNL A   1      41.535  26.020  28.812  1.00  0.00     0.049 A 
ATOM     52  H   UNL A   1      42.068  27.762  29.823  1.00  0.00     0.167 HD
ATOM     53  C   UNL A   1      43.113  31.497  31.830  1.00  0.00     0.031 A 
ATOM     54  C   UNL A   1      42.608  25.204  28.835  1.00  0.00     0.031 A 
ATOM     55  C   UNL A   1      44.275  30.662  31.974  1.00  0.00     0.049 A 
ATOM     56  C   UNL A   1      43.870  25.657  29.521  1.00  0.00     0.074 A 
ATOM     57  C   UNL A   1      45.457  30.940  32.640  1.00  0.00     0.029 A 
ATOM     58  N   UNL A   1      44.406  29.392  31.440  1.00  0.00    -0.354 N 
ATOM     59  N   UNL A   1      44.108  26.782  30.152  1.00  0.00    -0.248 NA
ATOM     60  C   UNL A   1      45.009  24.725  29.503  1.00  0.00     0.031 C 
ATOM     61  C   UNL A   1      46.319  29.852  32.472  1.00  0.00     0.029 A 
ATOM     62  C   UNL A   1      45.657  28.881  31.740  1.00  0.00     0.049 A 
ATOM     63  H   UNL A   1      43.711  28.921  30.924  1.00  0.00     0.167 HD
ATOM     64  C   UNL A   1      45.412  26.682  30.626  1.00  0.00     0.074 A 
ATOM     65  C   UNL A   1      45.909  25.384  30.220  1.00  0.00     0.031 C 
ATOM     66  C   UNL A   1      46.134  27.584  31.335  1.00  0.00     0.031 A 
BRANCH  53  67
ATOM     67  C   UNL A   1      43.160  32.879  32.422  1.00  0.00    -0.014 A 
ATOM     68  C   UNL A   1      42.706  33.122  33.729  1.00  0.00     0.010 A 
ATOM     69  C   UNL A   1      43.728  33.933  31.683  1.00  0.00     0.010 A 
ATOM     70  C   UNL A   1      42.802  34.402  34.283  1.00  0.00     0.020 A 
ATOM     71  C   UNL A   1      43.842  35.209  32.239  1.00  0.00     0.020 A 
ATOM     72  C   UNL A   1      43.369  35.438  33.534  1.00  0.00     0.054 A 
BRANCH  72  73
ATOM     73  S   UNL A   1      43.525  37.079  34.291  1.00  0.00     0.124 S 
ATOM     74  O   UNL A   1      44.843  36.996  34.918  1.00  0.00    -0.237 OA
ATOM     75  O   UNL A   1      43.432  37.975  33.142  1.00  0.00    -0.237 OA
ATOM     76  O   UNL A   1      42.398  37.141  35.218  1.00  0.00    -0.744 OA
ENDBRANCH  72  73
ENDBRANCH  53  67
BRANCH  54  77
ATOM     77  C   UNL A   1      42.554  23.879  28.161  1.00  0.00    -0.014 A 
ATOM     78  C   UNL A   1      42.868  23.753  26.796  1.00  0.00     0.010 A 
ATOM     79  C   UNL A   1      42.158  22.739  28.881  1.00  0.00     0.010 A 
ATOM     80  C   UNL A   1      42.759  22.514  26.157  1.00  0.00     0.020 A 
ATOM     81  C   UNL A   1      42.071  21.494  28.253  1.00  0.00     0.020 A 
ATOM     82  C   UNL A   1      42.356  21.393  26.889  1.00  0.00     0.054 A 
BRANCH  82  83
ATOM     83  S   UNL A   1      42.248  19.785  26.055  1.00  0.00     0.124 S 
ATOM     84  O   UNL A   1      42.680  18.870  27.105  1.00  0.00    -0.237 OA
ATOM     85  O   UNL A   1      40.836  19.709  25.689  1.00  0.00    -0.237 OA
ATOM     86  O   UNL A   1      43.167  19.927  24.927  1.00  0.00    -0.744 OA
ENDBRANCH  82  83
ENDBRANCH  54  77
BRANCH  66  87
ATOM     87  C   UNL A   1      47.525  27.190  31.750  1.00  0.00    -0.014 A 
ATOM     88  C   UNL A   1      47.746  26.404  32.894  1.00  0.00     0.010 A 
ATOM     89  C   UNL A   1      48.620  27.563  30.949  1.00  0.00     0.010 A 
ATOM     90  C   UNL A   1      49.043  26.020  33.246  1.00  0.00     0.020 A 
ATOM     91  C   UNL A   1      49.916  27.162  31.286  1.00  0.00     0.020 A 
ATOM     92  C   UNL A   1      50.120  26.404  32.441  1.00  0.00     0.054 A 
BRANCH  92  93
ATOM     93  S   UNL A   1      51.791  25.856  32.889  1.00  0.00     0.124 S 
ATOM     94  O   UNL A   1      51.553  25.158  34.149  1.00  0.00    -0.237 OA
ATOM     95  O   UNL A   1      52.168  25.007  31.761  1.00  0.00    -0.237 OA
ATOM     96  O   UNL A   1      52.544  27.104  32.999  1.00  0.00    -0.744 OA
ENDBRANCH  92  93
ENDBRANCH  66  87
ENDBRANCH  40  41
ENDBRANCH  33  35
ENDBRANCH  32  33
ENDBRANCH  31  32
ENDBRANCH  30  31
ENDBRANCH  29  30
ENDBRANCH   1  29
TORSDOF 22
ENDMDL
MODEL 2
REMARK VINA RESULT:      -7.4      4.797     12.296
REMARK SMILES COc1ccc(/C=C/C(=O)OCCOCCOC(=O)c2ccc(-c3c4nc(c(-c5ccc(S(=O)(=O)[O-])cc5)c5ccc([nH]5)c(-c5ccc(S(=O)(=O)[O-])cc5)c5nc(c(-c6ccc(S(=O)(=O)[O-])cc6)c6ccc3[nH]6)C=C5)C=C4)cc2)cc1S(=O)(=O)Nc1ccc(F)cc1F
REMARK SMILES IDX 13 1 12 2 11 3 9 4 10 5 8 6 7 7 6 8 3 9 4 10 81 11 5 12
REMARK SMILES IDX 80 13 2 14 1 15 82 16 83 17 84 18 85 19 86 21 87 22 92 23
REMARK SMILES IDX 88 24 91 25 93 26 89 27 90 28 14 29 15 30 16 31 17 32 18 33
REMARK SMILES IDX 19 34 20 35 21 36 79 37 22 38 78 39 23 40 24 41 25 42 72 43
REMARK SMILES IDX 26 44 77 45 71 46 73 47 27 48 76 49 70 50 69 51 28 53 58 54
REMARK SMILES IDX 39 55 57 56 40 57 43 58 56 59 74 60 41 61 42 62 55 64 75 65
REMARK SMILES IDX 44 66 29 67 30 68 38 69 31 70 37 71 32 72 33 73 34 74 35 75
REMARK SMILES IDX 36 76 59 77 60 78 68 79 61 80 67 81 62 82 63 83 64 84 65 85
REMARK SMILES IDX 66 86 45 87 46 88 54 89 47 90 53 91 48 92 49 93 50 94 51 95
REMARK SMILES IDX 52 96
REMARK H PARENT 85 20 73 52 43 63
REMARK Flexibility Score: inf
ROOT
ATOM      1  C   UNL A   1      39.870  19.771  25.942  1.00  0.00     0.202 C 
ENDROOT
BRANCH   1   2
ATOM      2  C   UNL A   1      38.527  19.287  25.395  1.00  0.00     0.261 C 
BRANCH   2   3
ATOM      3  O   UNL A   1      37.922  20.260  24.528  1.00  0.00    -0.460 OA
BRANCH   3   4
ATOM      4  C   UNL A   1      37.508  21.378  25.160  1.00  0.00     0.330 C 
ATOM      5  O   UNL A   1      38.179  22.102  25.883  1.00  0.00    -0.247 OA
BRANCH   4   6
ATOM      6  C   UNL A   1      36.096  21.705  24.909  1.00  0.00     0.094 C 
ATOM      7  C   UNL A   1      34.993  20.935  24.944  1.00  0.00     0.015 C 
BRANCH   7   8
ATOM      8  C   UNL A   1      33.687  21.563  24.648  1.00  0.00    -0.024 A 
ATOM      9  C   UNL A   1      31.625  23.246  23.809  1.00  0.00     0.139 A 
ATOM     10  C   UNL A   1      32.102  22.263  22.951  1.00  0.00     0.048 A 
ATOM     11  C   UNL A   1      31.965  23.207  25.158  1.00  0.00     0.130 A 
ATOM     12  C   UNL A   1      33.103  21.401  23.383  1.00  0.00     0.012 A 
ATOM     13  C   UNL A   1      33.038  22.391  25.572  1.00  0.00     0.034 A 
BRANCH   9  14
ATOM     14  O   UNL A   1      30.857  24.207  23.222  1.00  0.00    -0.495 OA
ATOM     15  C   UNL A   1      31.652  25.080  22.412  1.00  0.00     0.278 C 
ENDBRANCH   9  14
BRANCH  11  16
ATOM     16  S   UNL A   1      31.078  24.085  26.420  1.00  0.00     0.265 S 
ATOM     17  O   UNL A   1      29.745  24.340  25.918  1.00  0.00    -0.201 OA
ATOM     18  O   UNL A   1      31.271  23.321  27.638  1.00  0.00    -0.201 OA
BRANCH  16  19
ATOM     19  N   UNL A   1      31.798  25.571  26.748  1.00  0.00    -0.277 N 
ATOM     20  H   UNL A   1      31.913  25.822  27.692  1.00  0.00     0.180 HD
BRANCH  19  21
ATOM     21  C   UNL A   1      32.257  26.494  25.758  1.00  0.00     0.085 A 
ATOM     22  C   UNL A   1      31.337  27.480  25.361  1.00  0.00     0.033 A 
ATOM     23  C   UNL A   1      33.546  26.522  25.216  1.00  0.00     0.150 A 
ATOM     24  C   UNL A   1      31.742  28.539  24.548  1.00  0.00     0.041 A 
ATOM     25  C   UNL A   1      33.952  27.572  24.395  1.00  0.00     0.080 A 
ATOM     26  F   UNL A   1      34.451  25.587  25.528  1.00  0.00    -0.205 F 
ATOM     27  C   UNL A   1      33.053  28.584  24.090  1.00  0.00     0.126 A 
ATOM     28  F   UNL A   1      33.454  29.628  23.353  1.00  0.00    -0.207 F 
ENDBRANCH  19  21
ENDBRANCH  16  19
ENDBRANCH  11  16
ENDBRANCH   7   8
ENDBRANCH   4   6
ENDBRANCH   3   4
ENDBRANCH   2   3
ENDBRANCH   1   2
BRANCH   1  29
ATOM     29  O   UNL A   1      40.998  18.958  25.620  1.00  0.00    -0.374 OA
BRANCH  29  30
ATOM     30  C   UNL A   1      42.218  19.243  26.309  1.00  0.00     0.202 C 
BRANCH  30  31
ATOM     31  C   UNL A   1      43.072  20.371  25.714  1.00  0.00     0.261 C 
BRANCH  31  32
ATOM     32  O   UNL A   1      42.271  21.516  25.362  1.00  0.00    -0.460 OA
BRANCH  32  33
ATOM     33  C   UNL A   1      42.972  22.643  25.086  1.00  0.00     0.338 C 
ATOM     34  O   UNL A   1      43.667  22.855  24.106  1.00  0.00    -0.246 OA
BRANCH  33  35
ATOM     35  C   UNL A   1      42.636  23.701  26.062  1.00  0.00     0.060 A 
ATOM     36  C   UNL A   1      43.298  24.930  25.937  1.00  0.00     0.016 A 
ATOM     37  C   UNL A   1      41.745  23.484  27.116  1.00  0.00     0.016 A 
ATOM     38  C   UNL A   1      43.109  25.929  26.891  1.00  0.00     0.010 A 
ATOM     39  C   UNL A   1      41.566  24.484  28.080  1.00  0.00     0.010 A 
ATOM     40  C   UNL A   1      42.272  25.697  27.990  1.00  0.00    -0.014 A 
BRANCH  40  41
ATOM     41  C   UNL A   1      42.247  26.671  29.109  1.00  0.00     0.031 A 
ATOM     42  C   UNL A   1      43.294  26.573  30.186  1.00  0.00     0.074 A 
ATOM     43  C   UNL A   1      41.322  27.647  29.153  1.00  0.00     0.049 A 
ATOM     44  N   UNL A   1      43.451  27.312  31.254  1.00  0.00    -0.248 NA
ATOM     45  C   UNL A   1      44.294  25.502  30.041  1.00  0.00     0.031 C 
ATOM     46  C   UNL A   1      40.275  27.869  28.156  1.00  0.00     0.029 A 
ATOM     47  N   UNL A   1      41.113  28.634  30.084  1.00  0.00    -0.354 N 
ATOM     48  C   UNL A   1      44.562  26.794  31.911  1.00  0.00     0.074 A 
ATOM     49  C   UNL A   1      45.029  25.668  31.132  1.00  0.00     0.031 C 
ATOM     50  C   UNL A   1      39.524  28.917  28.538  1.00  0.00     0.029 A 
ATOM     51  C   UNL A   1      40.023  29.426  29.814  1.00  0.00     0.049 A 
ATOM     52  H   UNL A   1      41.690  28.762  30.872  1.00  0.00     0.167 HD
ATOM     53  C   UNL A   1      45.142  27.220  33.058  1.00  0.00     0.031 A 
ATOM     54  C   UNL A   1      39.478  30.434  30.525  1.00  0.00     0.031 A 
ATOM     55  C   UNL A   1      44.678  28.335  33.838  1.00  0.00     0.049 A 
ATOM     56  C   UNL A   1      40.113  30.853  31.824  1.00  0.00     0.074 A 
ATOM     57  C   UNL A   1      45.220  28.855  35.001  1.00  0.00     0.029 A 
ATOM     58  N   UNL A   1      43.562  29.098  33.540  1.00  0.00    -0.354 N 
ATOM     59  N   UNL A   1      41.186  30.377  32.409  1.00  0.00    -0.248 NA
ATOM     60  C   UNL A   1      39.465  31.953  32.557  1.00  0.00     0.031 C 
ATOM     61  C   UNL A   1      44.404  29.907  35.429  1.00  0.00     0.029 A 
ATOM     62  C   UNL A   1      43.382  30.070  34.509  1.00  0.00     0.049 A 
ATOM     63  H   UNL A   1      42.982  28.969  32.754  1.00  0.00     0.167 HD
ATOM     64  C   UNL A   1      41.355  31.135  33.564  1.00  0.00     0.074 A 
ATOM     65  C   UNL A   1      40.283  32.107  33.590  1.00  0.00     0.031 C 
ATOM     66  C   UNL A   1      42.314  31.035  34.518  1.00  0.00     0.031 A 
BRANCH  53  67
ATOM     67  C   UNL A   1      46.339  26.459  33.558  1.00  0.00    -0.014 A 
ATOM     68  C   UNL A   1      47.644  26.868  33.234  1.00  0.00     0.010 A 
ATOM     69  C   UNL A   1      46.155  25.361  34.418  1.00  0.00     0.010 A 
ATOM     70  C   UNL A   1      48.747  26.179  33.747  1.00  0.00     0.020 A 
ATOM     71  C   UNL A   1      47.255  24.681  34.947  1.00  0.00     0.020 A 
ATOM     72  C   UNL A   1      48.545  25.089  34.600  1.00  0.00     0.054 A 
BRANCH  72  73
ATOM     73  S   UNL A   1      49.992  24.241  35.290  1.00  0.00     0.124 S 
ATOM     74  O   UNL A   1      49.465  22.901  35.540  1.00  0.00    -0.237 OA
ATOM     75  O   UNL A   1      50.969  24.339  34.209  1.00  0.00    -0.237 OA
ATOM     76  O   UNL A   1      50.311  25.017  36.485  1.00  0.00    -0.744 OA
ENDBRANCH  72  73
ENDBRANCH  53  67
BRANCH  54  77
ATOM     77  C   UNL A   1      38.241  31.105  30.043  1.00  0.00    -0.014 A 
ATOM     78  C   UNL A   1      36.976  30.535  30.274  1.00  0.00     0.010 A 
ATOM     79  C   UNL A   1      38.329  32.308  29.321  1.00  0.00     0.010 A 
ATOM     80  C   UNL A   1      35.823  31.144  29.768  1.00  0.00     0.020 A 
ATOM     81  C   UNL A   1      37.177  32.932  28.834  1.00  0.00     0.020 A 
ATOM     82  C   UNL A   1      35.932  32.336  29.047  1.00  0.00     0.054 A 
BRANCH  82  83
ATOM     83  S   UNL A   1      34.426  33.130  28.421  1.00  0.00     0.124 S 
ATOM     84  O   UNL A   1      34.969  34.150  27.530  1.00  0.00    -0.237 OA
ATOM     85  O   UNL A   1      33.729  32.025  27.768  1.00  0.00    -0.237 OA
ATOM     86  O   UNL A   1      33.780  33.633  29.632  1.00  0.00    -0.744 OA
ENDBRANCH  82  83
ENDBRANCH  54  77
BRANCH  66  87
ATOM     87  C   UNL A   1      42.272  32.021  35.652  1.00  0.00    -0.014 A 
ATOM     88  C   UNL A   1      41.604  31.720  36.851  1.00  0.00     0.010 A 
ATOM     89  C   UNL A   1      42.960  33.243  35.535  1.00  0.00     0.010 A 
ATOM     90  C   UNL A   1      41.602  32.636  37.907  1.00  0.00     0.020 A 
ATOM     91  C   UNL A   1      42.978  34.152  36.597  1.00  0.00     0.020 A 
ATOM     92  C   UNL A   1      42.288  33.848  37.772  1.00  0.00     0.054 A 
BRANCH  92  93
ATOM     93  S   UNL A   1      42.313  35.005  39.170  1.00  0.00     0.124 S 
ATOM     94  O   UNL A   1      41.965  36.267  38.524  1.00  0.00    -0.237 OA
ATOM     95  O   UNL A   1      41.296  34.454  40.064  1.00  0.00    -0.237 OA
ATOM     96  O   UNL A   1      43.684  34.914  39.667  1.00  0.00    -0.744 OA
ENDBRANCH  92  93
ENDBRANCH  66  87
ENDBRANCH  40  41
ENDBRANCH  33  35
ENDBRANCH  32  33
ENDBRANCH  31  32
ENDBRANCH  30  31
ENDBRANCH  29  30
ENDBRANCH   1  29
TORSDOF 22
ENDMDL
MODEL 3
REMARK VINA RESULT:      -7.2      4.757      8.155
REMARK SMILES COc1ccc(/C=C/C(=O)OCCOCCOC(=O)c2ccc(-c3c4nc(c(-c5ccc(S(=O)(=O)[O-])cc5)c5ccc([nH]5)c(-c5ccc(S(=O)(=O)[O-])cc5)c5nc(c(-c6ccc(S(=O)(=O)[O-])cc6)c6ccc3[nH]6)C=C5)C=C4)cc2)cc1S(=O)(=O)Nc1ccc(F)cc1F
REMARK SMILES IDX 13 1 12 2 11 3 9 4 10 5 8 6 7 7 6 8 3 9 4 10 81 11 5 12
REMARK SMILES IDX 80 13 2 14 1 15 82 16 83 17 84 18 85 19 86 21 87 22 92 23
REMARK SMILES IDX 88 24 91 25 93 26 89 27 90 28 14 29 15 30 16 31 17 32 18 33
REMARK SMILES IDX 19 34 20 35 21 36 79 37 22 38 78 39 23 40 24 41 25 42 72 43
REMARK SMILES IDX 26 44 77 45 71 46 73 47 27 48 76 49 70 50 69 51 28 53 58 54
REMARK SMILES IDX 39 55 57 56 40 57 43 58 56 59 74 60 41 61 42 62 55 64 75 65
REMARK SMILES IDX 44 66 29 67 30 68 38 69 31 70 37 71 32 72 33 73 34 74 35 75
REMARK SMILES IDX 36 76 59 77 60 78 68 79 61 80 67 81 62 82 63 83 64 84 65 85
REMARK SMILES IDX 66 86 45 87 46 88 54 89 47 90 53 91 48 92 49 93 50 94 51 95
REMARK SMILES IDX 52 96
REMARK H PARENT 85 20 73 52 43 63
REMARK Flexibility Score: inf
ROOT
ATOM      1  C   UNL A   1      33.896  36.190  32.949  1.00  0.00     0.202 C 
ENDROOT
BRANCH   1   2
ATOM      2  C   UNL A   1      33.507  37.283  31.953  1.00  0.00     0.261 C 
BRANCH   2   3
ATOM      3  O   UNL A   1      32.551  36.812  30.989  1.00  0.00    -0.460 OA
BRANCH   3   4
ATOM      4  C   UNL A   1      33.048  36.679  29.742  1.00  0.00     0.330 C 
ATOM      5  O   UNL A   1      33.251  37.575  28.934  1.00  0.00    -0.247 OA
BRANCH   4   6
ATOM      6  C   UNL A   1      33.358  35.287  29.379  1.00  0.00     0.094 C 
ATOM      7  C   UNL A   1      34.504  34.720  28.960  1.00  0.00     0.015 C 
BRANCH   7   8
ATOM      8  C   UNL A   1      34.507  33.268  28.676  1.00  0.00    -0.024 A 
ATOM      9  C   UNL A   1      34.894  30.727  27.589  1.00  0.00     0.139 A 
ATOM     10  C   UNL A   1      35.811  31.231  28.503  1.00  0.00     0.048 A 
ATOM     11  C   UNL A   1      33.660  31.352  27.437  1.00  0.00     0.130 A 
ATOM     12  C   UNL A   1      35.598  32.481  29.072  1.00  0.00     0.012 A 
ATOM     13  C   UNL A   1      33.482  32.654  27.947  1.00  0.00     0.034 A 
BRANCH   9  14
ATOM     14  O   UNL A   1      35.315  29.640  26.883  1.00  0.00    -0.495 OA
ATOM     15  C   UNL A   1      36.327  28.922  27.596  1.00  0.00     0.278 C 
ENDBRANCH   9  14
BRANCH  11  16
ATOM     16  S   UNL A   1      32.252  30.574  26.687  1.00  0.00     0.265 S 
ATOM     17  O   UNL A   1      31.826  29.504  27.564  1.00  0.00    -0.201 OA
ATOM     18  O   UNL A   1      31.343  31.652  26.347  1.00  0.00    -0.201 OA
BRANCH  16  19
ATOM     19  N   UNL A   1      32.655  29.892  25.201  1.00  0.00    -0.277 N 
ATOM     20  H   UNL A   1      33.371  30.323  24.682  1.00  0.00     0.180 HD
BRANCH  19  21
ATOM     21  C   UNL A   1      32.035  28.734  24.637  1.00  0.00     0.085 A 
ATOM     22  C   UNL A   1      32.720  27.520  24.813  1.00  0.00     0.033 A 
ATOM     23  C   UNL A   1      30.793  28.717  23.993  1.00  0.00     0.150 A 
ATOM     24  C   UNL A   1      32.115  26.310  24.472  1.00  0.00     0.041 A 
ATOM     25  C   UNL A   1      30.189  27.511  23.641  1.00  0.00     0.080 A 
ATOM     26  F   UNL A   1      30.113  29.847  23.764  1.00  0.00    -0.205 F 
ATOM     27  C   UNL A   1      30.845  26.318  23.908  1.00  0.00     0.126 A 
ATOM     28  F   UNL A   1      30.244  25.154  23.629  1.00  0.00    -0.207 F 
ENDBRANCH  19  21
ENDBRANCH  16  19
ENDBRANCH  11  16
ENDBRANCH   7   8
ENDBRANCH   4   6
ENDBRANCH   3   4
ENDBRANCH   2   3
ENDBRANCH   1   2
BRANCH   1  29
ATOM     29  O   UNL A   1      35.218  35.670  32.811  1.00  0.00    -0.374 OA
BRANCH  29  30
ATOM     30  C   UNL A   1      35.346  34.380  32.209  1.00  0.00     0.202 C 
BRANCH  30  31
ATOM     31  C   UNL A   1      36.225  33.375  32.965  1.00  0.00     0.261 C 
BRANCH  31  32
ATOM     32  O   UNL A   1      37.354  32.955  32.174  1.00  0.00    -0.460 OA
BRANCH  32  33
ATOM     33  C   UNL A   1      38.545  32.971  32.822  1.00  0.00     0.338 C 
ATOM     34  O   UNL A   1      38.782  33.465  33.911  1.00  0.00    -0.246 OA
BRANCH  33  35
ATOM     35  C   UNL A   1      39.522  32.122  32.107  1.00  0.00     0.060 A 
ATOM     36  C   UNL A   1      40.302  31.248  32.877  1.00  0.00     0.016 A 
ATOM     37  C   UNL A   1      39.723  32.219  30.729  1.00  0.00     0.016 A 
ATOM     38  C   UNL A   1      41.317  30.503  32.278  1.00  0.00     0.010 A 
ATOM     39  C   UNL A   1      40.751  31.479  30.131  1.00  0.00     0.010 A 
ATOM     40  C   UNL A   1      41.574  30.644  30.909  1.00  0.00    -0.014 A 
BRANCH  40  41
ATOM     41  C   UNL A   1      42.788  30.022  30.324  1.00  0.00     0.031 A 
ATOM     42  C   UNL A   1      44.069  30.810  30.292  1.00  0.00     0.074 A 
ATOM     43  C   UNL A   1      42.758  28.762  29.851  1.00  0.00     0.049 A 
ATOM     44  N   UNL A   1      45.240  30.466  29.820  1.00  0.00    -0.248 NA
ATOM     45  C   UNL A   1      44.027  32.167  30.866  1.00  0.00     0.031 C 
ATOM     46  C   UNL A   1      41.589  27.883  29.853  1.00  0.00     0.029 A 
ATOM     47  N   UNL A   1      43.745  28.007  29.270  1.00  0.00    -0.354 N 
ATOM     48  C   UNL A   1      46.071  31.559  30.035  1.00  0.00     0.074 A 
ATOM     49  C   UNL A   1      45.268  32.586  30.662  1.00  0.00     0.031 C 
ATOM     50  C   UNL A   1      41.923  26.711  29.285  1.00  0.00     0.029 A 
ATOM     51  C   UNL A   1      43.321  26.765  28.861  1.00  0.00     0.049 A 
ATOM     52  H   UNL A   1      44.670  28.324  29.157  1.00  0.00     0.167 HD
ATOM     53  C   UNL A   1      47.385  31.695  29.739  1.00  0.00     0.031 A 
ATOM     54  C   UNL A   1      43.979  25.790  28.201  1.00  0.00     0.031 A 
ATOM     55  C   UNL A   1      48.185  30.680  29.111  1.00  0.00     0.049 A 
ATOM     56  C   UNL A   1      45.427  25.988  27.837  1.00  0.00     0.074 A 
ATOM     57  C   UNL A   1      49.533  30.720  28.796  1.00  0.00     0.029 A 
ATOM     58  N   UNL A   1      47.714  29.445  28.696  1.00  0.00    -0.354 N 
ATOM     59  N   UNL A   1      46.207  27.014  28.084  1.00  0.00    -0.248 NA
ATOM     60  C   UNL A   1      46.087  24.892  27.110  1.00  0.00     0.031 C 
ATOM     61  C   UNL A   1      49.866  29.524  28.151  1.00  0.00     0.029 A 
ATOM     62  C   UNL A   1      48.737  28.724  28.106  1.00  0.00     0.049 A 
ATOM     63  H   UNL A   1      46.788  29.128  28.806  1.00  0.00     0.167 HD
ATOM     64  C   UNL A   1      47.452  26.676  27.565  1.00  0.00     0.074 A 
ATOM     65  C   UNL A   1      47.327  25.349  27.001  1.00  0.00     0.031 C 
ATOM     66  C   UNL A   1      48.599  27.400  27.556  1.00  0.00     0.031 A 
BRANCH  53  67
ATOM     67  C   UNL A   1      48.042  33.006  30.071  1.00  0.00    -0.014 A 
ATOM     68  C   UNL A   1      48.041  34.070  29.152  1.00  0.00     0.010 A 
ATOM     69  C   UNL A   1      48.610  33.197  31.344  1.00  0.00     0.010 A 
ATOM     70  C   UNL A   1      48.613  35.299  29.494  1.00  0.00     0.020 A 
ATOM     71  C   UNL A   1      49.166  34.429  31.696  1.00  0.00     0.020 A 
ATOM     72  C   UNL A   1      49.173  35.470  30.764  1.00  0.00     0.054 A 
BRANCH  72  73
ATOM     73  S   UNL A   1      49.867  37.088  31.201  1.00  0.00     0.124 S 
ATOM     74  O   UNL A   1      50.204  37.635  29.888  1.00  0.00    -0.237 OA
ATOM     75  O   UNL A   1      48.755  37.742  31.886  1.00  0.00    -0.237 OA
ATOM     76  O   UNL A   1      51.009  36.757  32.049  1.00  0.00    -0.744 OA
ENDBRANCH  72  73
ENDBRANCH  53  67
BRANCH  54  77
ATOM     77  C   UNL A   1      43.271  24.542  27.810  1.00  0.00    -0.014 A 
ATOM     78  C   UNL A   1      42.617  24.444  26.570  1.00  0.00     0.010 A 
ATOM     79  C   UNL A   1      43.225  23.452  28.697  1.00  0.00     0.010 A 
ATOM     80  C   UNL A   1      41.905  23.288  26.234  1.00  0.00     0.020 A 
ATOM     81  C   UNL A   1      42.535  22.285  28.356  1.00  0.00     0.020 A 
ATOM     82  C   UNL A   1      41.865  22.218  27.133  1.00  0.00     0.054 A 
BRANCH  82  83
ATOM     83  S   UNL A   1      40.963  20.712  26.672  1.00  0.00     0.124 S 
ATOM     84  O   UNL A   1      41.900  20.065  25.760  1.00  0.00    -0.237 OA
ATOM     85  O   UNL A   1      40.771  20.048  27.959  1.00  0.00    -0.237 OA
ATOM     86  O   UNL A   1      39.740  21.226  26.058  1.00  0.00    -0.744 OA
ENDBRANCH  82  83
ENDBRANCH  54  77
BRANCH  66  87
ATOM     87  C   UNL A   1      49.819  26.763  26.951  1.00  0.00    -0.014 A 
ATOM     88  C   UNL A   1      50.025  26.764  25.561  1.00  0.00     0.010 A 
ATOM     89  C   UNL A   1      50.801  26.207  27.792  1.00  0.00     0.010 A 
ATOM     90  C   UNL A   1      51.181  26.195  25.019  1.00  0.00     0.020 A 
ATOM     91  C   UNL A   1      51.968  25.657  27.254  1.00  0.00     0.020 A 
ATOM     92  C   UNL A   1      52.144  25.643  25.870  1.00  0.00     0.054 A 
BRANCH  92  93
ATOM     93  S   UNL A   1      53.659  24.951  25.149  1.00  0.00     0.124 S 
ATOM     94  O   UNL A   1      53.797  25.733  23.924  1.00  0.00    -0.237 OA
ATOM     95  O   UNL A   1      54.659  25.216  26.181  1.00  0.00    -0.237 OA
ATOM     96  O   UNL A   1      53.335  23.539  24.956  1.00  0.00    -0.744 OA
ENDBRANCH  92  93
ENDBRANCH  66  87
ENDBRANCH  40  41
ENDBRANCH  33  35
ENDBRANCH  32  33
ENDBRANCH  31  32
ENDBRANCH  30  31
ENDBRANCH  29  30
ENDBRANCH   1  29
TORSDOF 22
ENDMDL
