MODEL 1
REMARK VINA RESULT:     -10.9      0.000      0.000
REMARK SMILES COc1c(C(=O)OCCOCCOC(=O)c2ccc(-c3c4nc(c(-c5ccc(S(=O)(=O)[O-])cc5)c5ccc([nH]5)c(-c5ccc(S(=O)(=O)[O-])cc5)c5nc(c(-c6ccc(S(=O)(=O)[O-])cc6)c6ccc3[nH]6)C=C5)C=C4)cc2)cccc1-c1cccc(C)c1
REMARK SMILES IDX 11 1 10 2 9 3 8 4 7 5 5 6 6 7 4 8 3 9 79 10 76 11 78 12
REMARK SMILES IDX 77 13 2 14 1 15 80 16 81 17 86 18 82 19 84 20 83 21 85 22
REMARK SMILES IDX 12 23 13 24 14 25 15 26 16 27 17 28 75 29 18 30 74 31 19 32
REMARK SMILES IDX 20 33 21 34 68 35 22 36 73 37 67 38 69 39 23 40 72 41 66 42
REMARK SMILES IDX 65 43 24 45 54 46 35 47 53 48 36 49 39 50 52 51 70 52 37 53
REMARK SMILES IDX 38 54 51 56 71 57 40 58 25 59 26 60 34 61 27 62 33 63 28 64
REMARK SMILES IDX 29 65 30 66 31 67 32 68 55 69 56 70 64 71 57 72 63 73 58 74
REMARK SMILES IDX 59 75 60 76 61 77 62 78 41 79 42 80 50 81 43 82 49 83 44 84
REMARK SMILES IDX 45 85 46 86 47 87 48 88
REMARK H PARENT 69 44 39 55
REMARK Flexibility Score: inf
ROOT
ATOM      1  C   UNL A   1      38.895  23.314  26.568  1.00  0.00     0.202 C 
ENDROOT
BRANCH   1   2
ATOM      2  O   UNL A   1      38.080  22.753  25.541  1.00  0.00    -0.374 OA
BRANCH   2   3
ATOM      3  C   UNL A   1      38.049  21.325  25.437  1.00  0.00     0.202 C 
BRANCH   3   4
ATOM      4  C   UNL A   1      36.670  20.705  25.192  1.00  0.00     0.261 C 
BRANCH   4   5
ATOM      5  O   UNL A   1      35.643  21.608  25.633  1.00  0.00    -0.460 OA
BRANCH   5   6
ATOM      6  C   UNL A   1      34.436  21.459  25.039  1.00  0.00     0.342 C 
ATOM      7  O   UNL A   1      33.729  20.461  25.053  1.00  0.00    -0.246 OA
BRANCH   6   8
ATOM      8  C   UNL A   1      33.938  22.772  24.576  1.00  0.00     0.102 A 
ATOM      9  C   UNL A   1      33.488  23.784  25.439  1.00  0.00     0.141 A 
ATOM     10  C   UNL A   1      33.125  25.049  24.916  1.00  0.00     0.025 A 
ATOM     11  C   UNL A   1      33.927  22.971  23.187  1.00  0.00     0.019 A 
ATOM     12  C   UNL A   1      33.103  25.207  23.513  1.00  0.00     0.012 A 
ATOM     13  C   UNL A   1      33.485  24.176  22.655  1.00  0.00     0.002 A 
BRANCH   9  14
ATOM     14  O   UNL A   1      33.505  23.540  26.791  1.00  0.00    -0.495 OA
ATOM     15  C   UNL A   1      32.268  22.980  27.248  1.00  0.00     0.278 C 
ENDBRANCH   9  14
BRANCH  10  16
ATOM     16  C   UNL A   1      32.873  26.226  25.771  1.00  0.00    -0.014 A 
ATOM     17  C   UNL A   1      31.615  26.473  26.343  1.00  0.00     0.009 A 
ATOM     18  C   UNL A   1      33.902  27.153  26.020  1.00  0.00     0.012 A 
ATOM     19  C   UNL A   1      31.401  27.598  27.144  1.00  0.00     0.001 A 
ATOM     20  C   UNL A   1      33.706  28.271  26.838  1.00  0.00    -0.051 A 
ATOM     21  C   UNL A   1      32.443  28.491  27.392  1.00  0.00     0.003 A 
ATOM     22  C   UNL A   1      34.838  29.214  27.120  1.00  0.00     0.044 C 
ENDBRANCH  10  16
ENDBRANCH   6   8
ENDBRANCH   5   6
ENDBRANCH   4   5
ENDBRANCH   3   4
ENDBRANCH   2   3
ENDBRANCH   1   2
BRANCH   1  23
ATOM     23  C   UNL A   1      40.246  22.635  26.826  1.00  0.00     0.261 C 
BRANCH  23  24
ATOM     24  O   UNL A   1      41.110  23.422  27.663  1.00  0.00    -0.460 OA
BRANCH  24  25
ATOM     25  C   UNL A   1      41.581  24.547  27.074  1.00  0.00     0.338 C 
ATOM     26  O   UNL A   1      42.090  24.638  25.965  1.00  0.00    -0.246 OA
BRANCH  25  27
ATOM     27  C   UNL A   1      41.256  25.732  27.890  1.00  0.00     0.060 A 
ATOM     28  C   UNL A   1      42.329  26.436  28.449  1.00  0.00     0.016 A 
ATOM     29  C   UNL A   1      39.940  26.102  28.175  1.00  0.00     0.016 A 
ATOM     30  C   UNL A   1      42.091  27.476  29.344  1.00  0.00     0.010 A 
ATOM     31  C   UNL A   1      39.701  27.145  29.079  1.00  0.00     0.010 A 
ATOM     32  C   UNL A   1      40.776  27.809  29.698  1.00  0.00    -0.014 A 
BRANCH  32  33
ATOM     33  C   UNL A   1      40.552  28.751  30.823  1.00  0.00     0.031 A 
ATOM     34  C   UNL A   1      41.418  28.647  32.050  1.00  0.00     0.074 A 
ATOM     35  C   UNL A   1      39.637  29.733  30.723  1.00  0.00     0.049 A 
ATOM     36  N   UNL A   1      41.421  29.391  33.126  1.00  0.00    -0.248 NA
ATOM     37  C   UNL A   1      42.416  27.564  32.066  1.00  0.00     0.031 C 
ATOM     38  C   UNL A   1      38.761  29.960  29.573  1.00  0.00     0.029 A 
ATOM     39  N   UNL A   1      39.301  30.728  31.605  1.00  0.00    -0.354 N 
ATOM     40  C   UNL A   1      42.424  28.877  33.941  1.00  0.00     0.074 A 
ATOM     41  C   UNL A   1      42.979  27.730  33.254  1.00  0.00     0.031 C 
ATOM     42  C   UNL A   1      37.985  31.030  29.822  1.00  0.00     0.029 A 
ATOM     43  C   UNL A   1      38.293  31.547  31.153  1.00  0.00     0.049 A 
ATOM     44  H   UNL A   1      39.738  30.845  32.479  1.00  0.00     0.167 HD
ATOM     45  C   UNL A   1      42.858  29.326  35.143  1.00  0.00     0.031 A 
ATOM     46  C   UNL A   1      37.683  32.590  31.749  1.00  0.00     0.031 A 
ATOM     47  C   UNL A   1      42.296  30.454  35.838  1.00  0.00     0.049 A 
ATOM     48  C   UNL A   1      38.141  33.032  33.115  1.00  0.00     0.074 A 
ATOM     49  C   UNL A   1      42.653  30.974  37.069  1.00  0.00     0.029 A 
ATOM     50  N   UNL A   1      41.257  31.238  35.360  1.00  0.00    -0.354 N 
ATOM     51  N   UNL A   1      39.098  32.537  33.866  1.00  0.00    -0.248 NA
ATOM     52  C   UNL A   1      37.450  34.187  33.704  1.00  0.00     0.031 C 
ATOM     53  C   UNL A   1      41.803  32.049  37.354  1.00  0.00     0.029 A 
ATOM     54  C   UNL A   1      40.955  32.232  36.275  1.00  0.00     0.049 A 
ATOM     55  H   UNL A   1      40.801  31.108  34.497  1.00  0.00     0.167 HD
ATOM     56  C   UNL A   1      39.139  33.340  35.002  1.00  0.00     0.074 A 
ATOM     57  C   UNL A   1      38.128  34.362  34.831  1.00  0.00     0.031 C 
ATOM     58  C   UNL A   1      39.944  33.242  36.090  1.00  0.00     0.031 A 
BRANCH  45  59
ATOM     59  C   UNL A   1      43.997  28.583  35.791  1.00  0.00    -0.014 A 
ATOM     60  C   UNL A   1      43.750  27.533  36.695  1.00  0.00     0.010 A 
ATOM     61  C   UNL A   1      45.326  28.908  35.465  1.00  0.00     0.010 A 
ATOM     62  C   UNL A   1      44.813  26.843  37.285  1.00  0.00     0.020 A 
ATOM     63  C   UNL A   1      46.390  28.204  36.033  1.00  0.00     0.020 A 
ATOM     64  C   UNL A   1      46.128  27.185  36.952  1.00  0.00     0.054 A 
BRANCH  64  65
ATOM     65  S   UNL A   1      47.487  26.255  37.712  1.00  0.00     0.124 S 
ATOM     66  O   UNL A   1      48.334  25.964  36.558  1.00  0.00    -0.237 OA
ATOM     67  O   UNL A   1      48.036  27.212  38.669  1.00  0.00    -0.237 OA
ATOM     68  O   UNL A   1      46.825  25.096  38.305  1.00  0.00    -0.744 OA
ENDBRANCH  64  65
ENDBRANCH  45  59
BRANCH  46  69
ATOM     69  C   UNL A   1      36.555  33.285  31.069  1.00  0.00    -0.014 A 
ATOM     70  C   UNL A   1      36.714  33.842  29.788  1.00  0.00     0.010 A 
ATOM     71  C   UNL A   1      35.316  33.419  31.723  1.00  0.00     0.010 A 
ATOM     72  C   UNL A   1      35.666  34.549  29.189  1.00  0.00     0.020 A 
ATOM     73  C   UNL A   1      34.258  34.098  31.116  1.00  0.00     0.020 A 
ATOM     74  C   UNL A   1      34.446  34.676  29.859  1.00  0.00     0.054 A 
BRANCH  74  75
ATOM     75  S   UNL A   1      33.091  35.577  29.058  1.00  0.00     0.124 S 
ATOM     76  O   UNL A   1      32.300  36.016  30.203  1.00  0.00    -0.237 OA
ATOM     77  O   UNL A   1      33.796  36.632  28.334  1.00  0.00    -0.237 OA
ATOM     78  O   UNL A   1      32.462  34.566  28.211  1.00  0.00    -0.744 OA
ENDBRANCH  74  75
ENDBRANCH  46  69
BRANCH  58  79
ATOM     79  C   UNL A   1      39.789  34.294  37.158  1.00  0.00    -0.014 A 
ATOM     80  C   UNL A   1      40.481  35.515  37.090  1.00  0.00     0.010 A 
ATOM     81  C   UNL A   1      38.921  34.058  38.240  1.00  0.00     0.010 A 
ATOM     82  C   UNL A   1      40.350  36.460  38.112  1.00  0.00     0.020 A 
ATOM     83  C   UNL A   1      38.764  35.012  39.249  1.00  0.00     0.020 A 
ATOM     84  C   UNL A   1      39.497  36.197  39.190  1.00  0.00     0.054 A 
BRANCH  84  85
ATOM     85  S   UNL A   1      39.337  37.439  40.503  1.00  0.00     0.124 S 
ATOM     86  O   UNL A   1      38.905  36.627  41.637  1.00  0.00    -0.237 OA
ATOM     87  O   UNL A   1      40.689  37.983  40.599  1.00  0.00    -0.237 OA
ATOM     88  O   UNL A   1      38.336  38.366  39.982  1.00  0.00    -0.744 OA
ENDBRANCH  84  85
ENDBRANCH  58  79
ENDBRANCH  32  33
ENDBRANCH  25  27
ENDBRANCH  24  25
ENDBRANCH  23  24
ENDBRANCH   1  23
TORSDOF 19
ENDMDL
MODEL 2
REMARK VINA RESULT:     -10.8      5.974      8.134
REMARK SMILES COc1c(C(=O)OCCOCCOC(=O)c2ccc(-c3c4nc(c(-c5ccc(S(=O)(=O)[O-])cc5)c5ccc([nH]5)c(-c5ccc(S(=O)(=O)[O-])cc5)c5nc(c(-c6ccc(S(=O)(=O)[O-])cc6)c6ccc3[nH]6)C=C5)C=C4)cc2)cccc1-c1cccc(C)c1
REMARK SMILES IDX 11 1 10 2 9 3 8 4 7 5 5 6 6 7 4 8 3 9 79 10 76 11 78 12
REMARK SMILES IDX 77 13 2 14 1 15 80 16 81 17 86 18 82 19 84 20 83 21 85 22
REMARK SMILES IDX 12 23 13 24 14 25 15 26 16 27 17 28 75 29 18 30 74 31 19 32
REMARK SMILES IDX 20 33 21 34 68 35 22 36 73 37 67 38 69 39 23 40 72 41 66 42
REMARK SMILES IDX 65 43 24 45 54 46 35 47 53 48 36 49 39 50 52 51 70 52 37 53
REMARK SMILES IDX 38 54 51 56 71 57 40 58 25 59 26 60 34 61 27 62 33 63 28 64
REMARK SMILES IDX 29 65 30 66 31 67 32 68 55 69 56 70 64 71 57 72 63 73 58 74
REMARK SMILES IDX 59 75 60 76 61 77 62 78 41 79 42 80 50 81 43 82 49 83 44 84
REMARK SMILES IDX 45 85 46 86 47 87 48 88
REMARK H PARENT 69 44 39 55
REMARK Flexibility Score: inf
ROOT
ATOM      1  C   UNL A   1      38.066  21.830  25.889  1.00  0.00     0.202 C 
ENDROOT
BRANCH   1   2
ATOM      2  O   UNL A   1      37.430  22.529  24.821  1.00  0.00    -0.374 OA
BRANCH   2   3
ATOM      3  C   UNL A   1      36.325  21.881  24.182  1.00  0.00     0.202 C 
BRANCH   3   4
ATOM      4  C   UNL A   1      35.393  21.090  25.106  1.00  0.00     0.261 C 
BRANCH   4   5
ATOM      5  O   UNL A   1      34.315  21.931  25.549  1.00  0.00    -0.460 OA
BRANCH   5   6
ATOM      6  C   UNL A   1      33.227  21.962  24.744  1.00  0.00     0.342 C 
ATOM      7  O   UNL A   1      32.949  21.170  23.855  1.00  0.00    -0.246 OA
BRANCH   6   8
ATOM      8  C   UNL A   1      32.250  22.947  25.257  1.00  0.00     0.102 A 
ATOM      9  C   UNL A   1      32.235  24.299  24.879  1.00  0.00     0.141 A 
ATOM     10  C   UNL A   1      31.200  25.149  25.339  1.00  0.00     0.025 A 
ATOM     11  C   UNL A   1      31.307  22.458  26.173  1.00  0.00     0.019 A 
ATOM     12  C   UNL A   1      30.282  24.632  26.278  1.00  0.00     0.012 A 
ATOM     13  C   UNL A   1      30.342  23.305  26.703  1.00  0.00     0.002 A 
BRANCH   9  14
ATOM     14  O   UNL A   1      33.186  24.736  23.989  1.00  0.00    -0.495 OA
ATOM     15  C   UNL A   1      34.340  25.262  24.655  1.00  0.00     0.278 C 
ENDBRANCH   9  14
BRANCH  10  16
ATOM     16  C   UNL A   1      30.983  26.508  24.802  1.00  0.00    -0.014 A 
ATOM     17  C   UNL A   1      30.252  26.734  23.625  1.00  0.00     0.009 A 
ATOM     18  C   UNL A   1      31.530  27.624  25.462  1.00  0.00     0.012 A 
ATOM     19  C   UNL A   1      30.066  28.030  23.136  1.00  0.00     0.001 A 
ATOM     20  C   UNL A   1      31.332  28.929  24.994  1.00  0.00    -0.051 A 
ATOM     21  C   UNL A   1      30.601  29.122  23.819  1.00  0.00     0.003 A 
ATOM     22  C   UNL A   1      31.890  30.099  25.747  1.00  0.00     0.044 C 
ENDBRANCH  10  16
ENDBRANCH   6   8
ENDBRANCH   5   6
ENDBRANCH   4   5
ENDBRANCH   3   4
ENDBRANCH   2   3
ENDBRANCH   1   2
BRANCH   1  23
ATOM     23  C   UNL A   1      39.038  20.710  25.499  1.00  0.00     0.261 C 
BRANCH  23  24
ATOM     24  O   UNL A   1      39.848  20.270  26.602  1.00  0.00    -0.460 OA
BRANCH  24  25
ATOM     25  C   UNL A   1      41.138  20.016  26.278  1.00  0.00     0.338 C 
ATOM     26  O   UNL A   1      41.576  19.007  25.742  1.00  0.00    -0.246 OA
BRANCH  25  27
ATOM     27  C   UNL A   1      41.973  21.209  26.510  1.00  0.00     0.060 A 
ATOM     28  C   UNL A   1      42.268  21.534  27.840  1.00  0.00     0.016 A 
ATOM     29  C   UNL A   1      42.392  22.039  25.468  1.00  0.00     0.016 A 
ATOM     30  C   UNL A   1      42.928  22.723  28.138  1.00  0.00     0.010 A 
ATOM     31  C   UNL A   1      43.053  23.237  25.769  1.00  0.00     0.010 A 
ATOM     32  C   UNL A   1      43.288  23.603  27.107  1.00  0.00    -0.014 A 
BRANCH  32  33
ATOM     33  C   UNL A   1      43.772  24.960  27.459  1.00  0.00     0.031 A 
ATOM     34  C   UNL A   1      45.227  25.295  27.264  1.00  0.00     0.074 A 
ATOM     35  C   UNL A   1      42.912  25.907  27.881  1.00  0.00     0.049 A 
ATOM     36  N   UNL A   1      45.851  26.427  27.467  1.00  0.00    -0.248 NA
ATOM     37  C   UNL A   1      46.094  24.212  26.770  1.00  0.00     0.031 C 
ATOM     38  C   UNL A   1      41.475  25.717  28.077  1.00  0.00     0.029 A 
ATOM     39  N   UNL A   1      43.128  27.221  28.211  1.00  0.00    -0.354 N 
ATOM     40  C   UNL A   1      47.177  26.198  27.116  1.00  0.00     0.074 A 
ATOM     41  C   UNL A   1      47.277  24.807  26.730  1.00  0.00     0.031 C 
ATOM     42  C   UNL A   1      40.936  26.877  28.496  1.00  0.00     0.029 A 
ATOM     43  C   UNL A   1      41.991  27.879  28.617  1.00  0.00     0.049 A 
ATOM     44  H   UNL A   1      44.011  27.651  28.162  1.00  0.00     0.167 HD
ATOM     45  C   UNL A   1      48.215  27.068  27.099  1.00  0.00     0.031 A 
ATOM     46  C   UNL A   1      41.823  29.146  29.047  1.00  0.00     0.031 A 
ATOM     47  C   UNL A   1      48.123  28.447  27.502  1.00  0.00     0.049 A 
ATOM     48  C   UNL A   1      43.008  30.078  29.080  1.00  0.00     0.074 A 
ATOM     49  C   UNL A   1      49.123  29.403  27.539  1.00  0.00     0.029 A 
ATOM     50  N   UNL A   1      46.961  29.068  27.935  1.00  0.00    -0.354 N 
ATOM     51  N   UNL A   1      44.252  29.845  28.736  1.00  0.00    -0.248 NA
ATOM     52  C   UNL A   1      42.757  31.451  29.540  1.00  0.00     0.031 C 
ATOM     53  C   UNL A   1      48.574  30.592  28.034  1.00  0.00     0.029 A 
ATOM     54  C   UNL A   1      47.221  30.391  28.251  1.00  0.00     0.049 A 
ATOM     55  H   UNL A   1      46.081  28.633  28.008  1.00  0.00     0.167 HD
ATOM     56  C   UNL A   1      44.925  31.050  28.912  1.00  0.00     0.074 A 
ATOM     57  C   UNL A   1      43.946  32.013  29.372  1.00  0.00     0.031 C 
ATOM     58  C   UNL A   1      46.236  31.337  28.709  1.00  0.00     0.031 A 
BRANCH  45  59
ATOM     59  C   UNL A   1      49.550  26.546  26.638  1.00  0.00    -0.014 A 
ATOM     60  C   UNL A   1      50.444  25.951  27.547  1.00  0.00     0.010 A 
ATOM     61  C   UNL A   1      49.900  26.613  25.278  1.00  0.00     0.010 A 
ATOM     62  C   UNL A   1      51.678  25.461  27.109  1.00  0.00     0.020 A 
ATOM     63  C   UNL A   1      51.122  26.102  24.831  1.00  0.00     0.020 A 
ATOM     64  C   UNL A   1      52.010  25.543  25.753  1.00  0.00     0.054 A 
BRANCH  64  65
ATOM     65  S   UNL A   1      53.606  24.874  25.207  1.00  0.00     0.124 S 
ATOM     66  O   UNL A   1      54.475  25.218  26.330  1.00  0.00    -0.237 OA
ATOM     67  O   UNL A   1      53.320  23.451  25.048  1.00  0.00    -0.237 OA
ATOM     68  O   UNL A   1      53.878  25.595  23.966  1.00  0.00    -0.744 OA
ENDBRANCH  64  65
ENDBRANCH  45  59
BRANCH  46  69
ATOM     69  C   UNL A   1      40.484  29.610  29.502  1.00  0.00    -0.014 A 
ATOM     70  C   UNL A   1      39.509  30.027  28.578  1.00  0.00     0.010 A 
ATOM     71  C   UNL A   1      40.189  29.665  30.876  1.00  0.00     0.010 A 
ATOM     72  C   UNL A   1      38.279  30.522  29.022  1.00  0.00     0.020 A 
ATOM     73  C   UNL A   1      38.951  30.130  31.323  1.00  0.00     0.020 A 
ATOM     74  C   UNL A   1      38.009  30.575  30.392  1.00  0.00     0.054 A 
BRANCH  74  75
ATOM     75  S   UNL A   1      36.401  31.200  30.950  1.00  0.00     0.124 S 
ATOM     76  O   UNL A   1      36.749  32.524  31.456  1.00  0.00    -0.237 OA
ATOM     77  O   UNL A   1      35.609  31.179  29.723  1.00  0.00    -0.237 OA
ATOM     78  O   UNL A   1      35.990  30.230  31.963  1.00  0.00    -0.744 OA
ENDBRANCH  74  75
ENDBRANCH  46  69
BRANCH  58  79
ATOM     79  C   UNL A   1      46.674  32.759  28.944  1.00  0.00    -0.014 A 
ATOM     80  C   UNL A   1      47.153  33.181  30.196  1.00  0.00     0.010 A 
ATOM     81  C   UNL A   1      46.620  33.683  27.885  1.00  0.00     0.010 A 
ATOM     82  C   UNL A   1      47.518  34.516  30.401  1.00  0.00     0.020 A 
ATOM     83  C   UNL A   1      47.012  35.011  28.076  1.00  0.00     0.020 A 
ATOM     84  C   UNL A   1      47.438  35.423  29.339  1.00  0.00     0.054 A 
BRANCH  84  85
ATOM     85  S   UNL A   1      47.923  37.148  29.624  1.00  0.00     0.124 S 
ATOM     86  O   UNL A   1      48.117  37.173  31.071  1.00  0.00    -0.237 OA
ATOM     87  O   UNL A   1      49.139  37.278  28.824  1.00  0.00    -0.237 OA
ATOM     88  O   UNL A   1      46.780  37.914  29.134  1.00  0.00    -0.744 OA
ENDBRANCH  84  85
ENDBRANCH  58  79
ENDBRANCH  32  33
ENDBRANCH  25  27
ENDBRANCH  24  25
ENDBRANCH  23  24
ENDBRANCH   1  23
TORSDOF 19
ENDMDL
MODEL 3
REMARK VINA RESULT:     -10.5      7.211      8.772
REMARK SMILES COc1c(C(=O)OCCOCCOC(=O)c2ccc(-c3c4nc(c(-c5ccc(S(=O)(=O)[O-])cc5)c5ccc([nH]5)c(-c5ccc(S(=O)(=O)[O-])cc5)c5nc(c(-c6ccc(S(=O)(=O)[O-])cc6)c6ccc3[nH]6)C=C5)C=C4)cc2)cccc1-c1cccc(C)c1
REMARK SMILES IDX 11 1 10 2 9 3 8 4 7 5 5 6 6 7 4 8 3 9 79 10 76 11 78 12
REMARK SMILES IDX 77 13 2 14 1 15 80 16 81 17 86 18 82 19 84 20 83 21 85 22
REMARK SMILES IDX 12 23 13 24 14 25 15 26 16 27 17 28 75 29 18 30 74 31 19 32
REMARK SMILES IDX 20 33 21 34 68 35 22 36 73 37 67 38 69 39 23 40 72 41 66 42
REMARK SMILES IDX 65 43 24 45 54 46 35 47 53 48 36 49 39 50 52 51 70 52 37 53
REMARK SMILES IDX 38 54 51 56 71 57 40 58 25 59 26 60 34 61 27 62 33 63 28 64
REMARK SMILES IDX 29 65 30 66 31 67 32 68 55 69 56 70 64 71 57 72 63 73 58 74
REMARK SMILES IDX 59 75 60 76 61 77 62 78 41 79 42 80 50 81 43 82 49 83 44 84
REMARK SMILES IDX 45 85 46 86 47 87 48 88
REMARK H PARENT 69 44 39 55
REMARK Flexibility Score: inf
ROOT
ATOM      1  C   UNL A   1      44.330  22.371  23.938  1.00  0.00     0.202 C 
ENDROOT
BRANCH   1   2
ATOM      2  O   UNL A   1      44.302  20.952  24.084  1.00  0.00    -0.374 OA
BRANCH   2   3
ATOM      3  C   UNL A   1      44.247  20.434  25.417  1.00  0.00     0.202 C 
BRANCH   3   4
ATOM      4  C   UNL A   1      42.941  19.736  25.808  1.00  0.00     0.261 C 
BRANCH   4   5
ATOM      5  O   UNL A   1      41.842  20.655  25.691  1.00  0.00    -0.460 OA
BRANCH   5   6
ATOM      6  C   UNL A   1      40.941  20.624  26.700  1.00  0.00     0.342 C 
ATOM      7  O   UNL A   1      40.974  19.908  27.691  1.00  0.00    -0.246 OA
BRANCH   6   8
ATOM      8  C   UNL A   1      40.022  21.777  26.591  1.00  0.00     0.102 A 
ATOM      9  C   UNL A   1      40.259  23.021  27.197  1.00  0.00     0.141 A 
ATOM     10  C   UNL A   1      39.377  24.103  26.955  1.00  0.00     0.025 A 
ATOM     11  C   UNL A   1      38.860  21.568  25.835  1.00  0.00     0.019 A 
ATOM     12  C   UNL A   1      38.205  23.852  26.209  1.00  0.00     0.012 A 
ATOM     13  C   UNL A   1      37.940  22.595  25.666  1.00  0.00     0.002 A 
BRANCH   9  14
ATOM     14  O   UNL A   1      41.405  23.177  27.939  1.00  0.00    -0.495 OA
ATOM     15  C   UNL A   1      42.522  23.550  27.124  1.00  0.00     0.278 C 
ENDBRANCH   9  14
BRANCH  10  16
ATOM     16  C   UNL A   1      39.683  25.491  27.358  1.00  0.00    -0.014 A 
ATOM     17  C   UNL A   1      39.272  26.013  28.595  1.00  0.00     0.009 A 
ATOM     18  C   UNL A   1      40.389  26.340  26.487  1.00  0.00     0.012 A 
ATOM     19  C   UNL A   1      39.570  27.332  28.949  1.00  0.00     0.001 A 
ATOM     20  C   UNL A   1      40.713  27.656  26.840  1.00  0.00    -0.051 A 
ATOM     21  C   UNL A   1      40.289  28.148  28.076  1.00  0.00     0.003 A 
ATOM     22  C   UNL A   1      41.507  28.520  25.906  1.00  0.00     0.044 C 
ENDBRANCH  10  16
ENDBRANCH   6   8
ENDBRANCH   5   6
ENDBRANCH   4   5
ENDBRANCH   3   4
ENDBRANCH   2   3
ENDBRANCH   1   2
BRANCH   1  23
ATOM     23  C   UNL A   1      45.640  23.077  24.308  1.00  0.00     0.261 C 
BRANCH  23  24
ATOM     24  O   UNL A   1      45.433  24.217  25.159  1.00  0.00    -0.460 OA
BRANCH  24  25
ATOM     25  C   UNL A   1      46.465  24.480  25.996  1.00  0.00     0.338 C 
ATOM     26  O   UNL A   1      47.353  23.708  26.335  1.00  0.00    -0.246 OA
BRANCH  25  27
ATOM     27  C   UNL A   1      46.492  25.912  26.348  1.00  0.00     0.060 A 
ATOM     28  C   UNL A   1      46.920  26.244  27.639  1.00  0.00     0.016 A 
ATOM     29  C   UNL A   1      46.033  26.902  25.476  1.00  0.00     0.016 A 
ATOM     30  C   UNL A   1      46.834  27.560  28.085  1.00  0.00     0.010 A 
ATOM     31  C   UNL A   1      45.942  28.225  25.928  1.00  0.00     0.010 A 
ATOM     32  C   UNL A   1      46.305  28.552  27.247  1.00  0.00    -0.014 A 
BRANCH  32  33
ATOM     33  C   UNL A   1      46.003  29.888  27.819  1.00  0.00     0.031 A 
ATOM     34  C   UNL A   1      46.990  31.009  27.628  1.00  0.00     0.074 A 
ATOM     35  C   UNL A   1      44.831  30.119  28.438  1.00  0.00     0.049 A 
ATOM     36  N   UNL A   1      46.907  32.258  28.006  1.00  0.00    -0.248 NA
ATOM     37  C   UNL A   1      48.235  30.679  26.912  1.00  0.00     0.031 C 
ATOM     38  C   UNL A   1      43.778  29.126  28.655  1.00  0.00     0.029 A 
ATOM     39  N   UNL A   1      44.328  31.270  28.991  1.00  0.00    -0.354 N 
ATOM     40  C   UNL A   1      48.078  32.867  27.566  1.00  0.00     0.074 A 
ATOM     41  C   UNL A   1      48.875  31.839  26.932  1.00  0.00     0.031 C 
ATOM     42  C   UNL A   1      42.752  29.713  29.298  1.00  0.00     0.029 A 
ATOM     43  C   UNL A   1      43.085  31.112  29.555  1.00  0.00     0.049 A 
ATOM     44  H   UNL A   1      44.812  32.127  28.985  1.00  0.00     0.167 HD
ATOM     45  C   UNL A   1      48.451  34.165  27.664  1.00  0.00     0.031 A 
ATOM     46  C   UNL A   1      42.306  31.994  30.213  1.00  0.00     0.031 A 
ATOM     47  C   UNL A   1      47.670  35.186  28.312  1.00  0.00     0.049 A 
ATOM     48  C   UNL A   1      42.772  33.420  30.365  1.00  0.00     0.074 A 
ATOM     49  C   UNL A   1      47.971  36.526  28.481  1.00  0.00     0.029 A 
ATOM     50  N   UNL A   1      46.430  34.980  28.897  1.00  0.00    -0.354 N 
ATOM     51  N   UNL A   1      43.879  33.978  29.934  1.00  0.00    -0.248 NA
ATOM     52  C   UNL A   1      41.871  34.338  31.075  1.00  0.00     0.031 C 
ATOM     53  C   UNL A   1      46.931  37.121  29.205  1.00  0.00     0.029 A 
ATOM     54  C   UNL A   1      45.957  36.165  29.436  1.00  0.00     0.049 A 
ATOM     55  H   UNL A   1      45.955  34.118  28.926  1.00  0.00     0.167 HD
ATOM     56  C   UNL A   1      43.792  35.319  30.297  1.00  0.00     0.074 A 
ATOM     57  C   UNL A   1      42.518  35.491  30.963  1.00  0.00     0.031 C 
ATOM     58  C   UNL A   1      44.686  36.320  30.097  1.00  0.00     0.031 A 
BRANCH  45  59
ATOM     59  C   UNL A   1      49.776  34.554  27.063  1.00  0.00    -0.014 A 
ATOM     60  C   UNL A   1      49.861  34.988  25.727  1.00  0.00     0.010 A 
ATOM     61  C   UNL A   1      50.942  34.523  27.849  1.00  0.00     0.010 A 
ATOM     62  C   UNL A   1      51.094  35.355  25.180  1.00  0.00     0.020 A 
ATOM     63  C   UNL A   1      52.172  34.913  27.313  1.00  0.00     0.020 A 
ATOM     64  C   UNL A   1      52.243  35.313  25.976  1.00  0.00     0.054 A 
BRANCH  64  65
ATOM     65  S   UNL A   1      53.825  35.821  25.248  1.00  0.00     0.124 S 
ATOM     66  O   UNL A   1      54.691  34.698  25.597  1.00  0.00    -0.237 OA
ATOM     67  O   UNL A   1      53.500  35.945  23.830  1.00  0.00    -0.237 OA
ATOM     68  O   UNL A   1      54.131  37.077  25.926  1.00  0.00    -0.744 OA
ENDBRANCH  64  65
ENDBRANCH  45  59
BRANCH  46  69
ATOM     69  C   UNL A   1      41.009  31.557  30.798  1.00  0.00    -0.014 A 
ATOM     70  C   UNL A   1      40.929  31.109  32.128  1.00  0.00     0.010 A 
ATOM     71  C   UNL A   1      39.846  31.557  30.006  1.00  0.00     0.010 A 
ATOM     72  C   UNL A   1      39.717  30.638  32.645  1.00  0.00     0.020 A 
ATOM     73  C   UNL A   1      38.628  31.116  30.527  1.00  0.00     0.020 A 
ATOM     74  C   UNL A   1      38.575  30.641  31.839  1.00  0.00     0.054 A 
BRANCH  74  75
ATOM     75  S   UNL A   1      37.008  30.047  32.531  1.00  0.00     0.124 S 
ATOM     76  O   UNL A   1      36.565  31.198  33.311  1.00  0.00    -0.237 OA
ATOM     77  O   UNL A   1      36.223  29.753  31.335  1.00  0.00    -0.237 OA
ATOM     78  O   UNL A   1      37.402  28.875  33.311  1.00  0.00    -0.744 OA
ENDBRANCH  74  75
ENDBRANCH  46  69
BRANCH  58  79
ATOM     79  C   UNL A   1      44.295  37.697  30.566  1.00  0.00    -0.014 A 
ATOM     80  C   UNL A   1      44.604  38.145  31.862  1.00  0.00     0.010 A 
ATOM     81  C   UNL A   1      43.620  38.562  29.686  1.00  0.00     0.010 A 
ATOM     82  C   UNL A   1      44.197  39.413  32.288  1.00  0.00     0.020 A 
ATOM     83  C   UNL A   1      43.238  39.841  30.097  1.00  0.00     0.020 A 
ATOM     84  C   UNL A   1      43.509  40.250  31.403  1.00  0.00     0.054 A 
BRANCH  84  85
ATOM     85  S   UNL A   1      42.996  41.894  31.973  1.00  0.00     0.124 S 
ATOM     86  O   UNL A   1      43.503  42.756  30.908  1.00  0.00    -0.237 OA
ATOM     87  O   UNL A   1      41.542  41.772  32.043  1.00  0.00    -0.237 OA
ATOM     88  O   UNL A   1      43.665  42.038  33.264  1.00  0.00    -0.744 OA
ENDBRANCH  84  85
ENDBRANCH  58  79
ENDBRANCH  32  33
ENDBRANCH  25  27
ENDBRANCH  24  25
ENDBRANCH  23  24
ENDBRANCH   1  23
TORSDOF 19
ENDMDL
