MODEL 1
REMARK VINA RESULT:     -10.8      0.000      0.000
REMARK SMILES CCc1ccc2[nH]c(C(=O)c3cc(C)ccn3)c(CC(=O)OCCOCCOC(=O)c3ccc(-c4c5nc(c(-c6ccc(S(=O)(=O)[O-])cc6)c6ccc([nH]6)c(-c6ccc(S(=O)(=O)[O-])cc6)c6nc(c(-c7ccc(S(=O)(=O)[O-])cc7)c7ccc4[nH]7)C=C6)C=C5)cc3)c2c1
REMARK SMILES IDX 25 1 24 2 23 3 22 4 20 5 21 6 19 7 18 8 3 9 4 10 92 11 5 12
REMARK SMILES IDX 91 13 6 14 7 15 8 16 2 18 1 19 9 20 10 21 11 22 12 23 17 24
REMARK SMILES IDX 13 25 16 26 14 27 15 28 26 29 27 30 28 31 29 32 30 33 31 34
REMARK SMILES IDX 32 35 90 36 33 37 89 38 34 39 35 40 36 41 83 42 37 43 88 44
REMARK SMILES IDX 82 45 84 46 38 47 87 48 81 49 80 50 39 52 69 53 50 54 68 55
REMARK SMILES IDX 51 56 54 57 67 58 85 59 52 60 53 61 66 63 86 64 55 65 40 66
REMARK SMILES IDX 41 67 49 68 42 69 48 70 43 71 44 72 45 73 46 74 47 75 70 76
REMARK SMILES IDX 71 77 79 78 72 79 78 80 73 81 74 82 75 83 76 84 77 85 56 86
REMARK SMILES IDX 57 87 65 88 58 89 64 90 59 91 60 92 61 93 62 94 63 95
REMARK H PARENT 7 17 84 51 54 62
REMARK Flexibility Score: inf
ROOT
ATOM      1  O   UNL A   1      32.954  30.362  27.172  1.00  0.00    -0.374 OA
ENDROOT
BRANCH   1   2
ATOM      2  C   UNL A   1      32.017  29.328  27.469  1.00  0.00     0.202 C 
BRANCH   2   3
ATOM      3  C   UNL A   1      31.602  28.389  26.324  1.00  0.00     0.261 C 
BRANCH   3   4
ATOM      4  O   UNL A   1      31.014  27.145  26.761  1.00  0.00    -0.463 OA
BRANCH   4   5
ATOM      5  C   UNL A   1      31.790  26.041  26.578  1.00  0.00     0.310 C 
ATOM      6  O   UNL A   1      31.441  24.900  26.881  1.00  0.00    -0.252 OA
BRANCH   5   7
ATOM      7  C   UNL A   1      33.105  26.274  25.862  1.00  0.00     0.161 C 
BRANCH   7   8
ATOM      8  C   UNL A   1      33.456  25.398  24.690  1.00  0.00     0.000 A 
ATOM      9  C   UNL A   1      36.773  23.498  25.126  1.00  0.00    -0.048 A 
ATOM     10  C   UNL A   1      36.652  22.770  23.934  1.00  0.00     0.006 A 
ATOM     11  C   UNL A   1      35.785  24.447  25.442  1.00  0.00     0.014 A 
ATOM     12  C   UNL A   1      35.578  22.960  23.054  1.00  0.00     0.027 A 
ATOM     13  C   UNL A   1      34.666  24.626  24.596  1.00  0.00     0.004 A 
ATOM     14  C   UNL A   1      34.597  23.882  23.425  1.00  0.00     0.046 A 
ATOM     15  N   UNL A   1      33.430  24.239  22.792  1.00  0.00    -0.352 N 
ATOM     16  C   UNL A   1      32.639  25.017  23.614  1.00  0.00     0.093 A 
ATOM     17  H   UNL A   1      33.190  23.973  21.875  1.00  0.00     0.167 HD
BRANCH   9  18
ATOM     18  C   UNL A   1      37.936  23.173  26.040  1.00  0.00     0.032 C 
ATOM     19  C   UNL A   1      38.634  21.835  25.826  1.00  0.00     0.009 C 
ENDBRANCH   9  18
BRANCH  16  20
ATOM     20  C   UNL A   1      31.232  25.336  23.361  1.00  0.00     0.227 C 
ATOM     21  O   UNL A   1      30.337  24.493  23.362  1.00  0.00    -0.285 OA
BRANCH  20  22
ATOM     22  C   UNL A   1      30.830  26.755  23.112  1.00  0.00     0.113 A 
ATOM     23  C   UNL A   1      29.510  27.169  23.224  1.00  0.00     0.036 A 
ATOM     24  N   UNL A   1      31.844  27.585  22.761  1.00  0.00    -0.253 NA
ATOM     25  C   UNL A   1      29.216  28.506  22.925  1.00  0.00    -0.047 A 
ATOM     26  C   UNL A   1      31.536  28.857  22.454  1.00  0.00     0.112 A 
ATOM     27  C   UNL A   1      27.825  29.053  23.043  1.00  0.00     0.044 C 
ATOM     28  C   UNL A   1      30.249  29.357  22.518  1.00  0.00     0.023 A 
ENDBRANCH  20  22
ENDBRANCH  16  20
ENDBRANCH   7   8
ENDBRANCH   5   7
ENDBRANCH   4   5
ENDBRANCH   3   4
ENDBRANCH   2   3
ENDBRANCH   1   2
BRANCH   1  29
ATOM     29  C   UNL A   1      34.337  30.029  27.249  1.00  0.00     0.202 C 
BRANCH  29  30
ATOM     30  C   UNL A   1      35.212  30.862  28.189  1.00  0.00     0.261 C 
BRANCH  30  31
ATOM     31  O   UNL A   1      36.610  30.598  28.117  1.00  0.00    -0.460 OA
BRANCH  31  32
ATOM     32  C   UNL A   1      37.061  29.737  29.053  1.00  0.00     0.338 C 
ATOM     33  O   UNL A   1      36.497  29.347  30.064  1.00  0.00    -0.246 OA
BRANCH  32  34
ATOM     34  C   UNL A   1      38.373  29.250  28.629  1.00  0.00     0.060 A 
ATOM     35  C   UNL A   1      39.251  28.778  29.607  1.00  0.00     0.016 A 
ATOM     36  C   UNL A   1      38.756  29.353  27.289  1.00  0.00     0.016 A 
ATOM     37  C   UNL A   1      40.553  28.452  29.250  1.00  0.00     0.010 A 
ATOM     38  C   UNL A   1      40.062  29.022  26.934  1.00  0.00     0.010 A 
ATOM     39  C   UNL A   1      40.974  28.610  27.920  1.00  0.00    -0.014 A 
BRANCH  39  40
ATOM     40  C   UNL A   1      42.410  28.472  27.598  1.00  0.00     0.031 A 
ATOM     41  C   UNL A   1      43.324  29.641  27.835  1.00  0.00     0.074 A 
ATOM     42  C   UNL A   1      42.885  27.299  27.144  1.00  0.00     0.049 A 
ATOM     43  N   UNL A   1      44.617  29.725  27.665  1.00  0.00    -0.248 NA
ATOM     44  C   UNL A   1      42.699  30.880  28.330  1.00  0.00     0.031 C 
ATOM     45  C   UNL A   1      42.081  26.100  26.906  1.00  0.00     0.029 A 
ATOM     46  N   UNL A   1      44.159  26.924  26.813  1.00  0.00    -0.354 N 
ATOM     47  C   UNL A   1      44.961  31.021  28.032  1.00  0.00     0.074 A 
ATOM     48  C   UNL A   1      43.738  31.699  28.400  1.00  0.00     0.031 C 
ATOM     49  C   UNL A   1      42.887  25.116  26.473  1.00  0.00     0.029 A 
ATOM     50  C   UNL A   1      44.253  25.624  26.381  1.00  0.00     0.049 A 
ATOM     51  H   UNL A   1      44.934  27.528  26.878  1.00  0.00     0.167 HD
ATOM     52  C   UNL A   1      46.189  31.590  28.066  1.00  0.00     0.031 A 
ATOM     53  C   UNL A   1      45.324  24.928  25.953  1.00  0.00     0.031 A 
ATOM     54  C   UNL A   1      47.396  30.907  27.680  1.00  0.00     0.049 A 
ATOM     55  C   UNL A   1      46.672  25.598  25.951  1.00  0.00     0.074 A 
ATOM     56  C   UNL A   1      48.694  31.381  27.684  1.00  0.00     0.029 A 
ATOM     57  N   UNL A   1      47.446  29.601  27.213  1.00  0.00    -0.354 N 
ATOM     58  N   UNL A   1      46.986  26.814  26.331  1.00  0.00    -0.248 NA
ATOM     59  C   UNL A   1      47.808  24.799  25.475  1.00  0.00     0.031 C 
ATOM     60  C   UNL A   1      49.525  30.379  27.173  1.00  0.00     0.029 A 
ATOM     61  C   UNL A   1      48.751  29.260  26.903  1.00  0.00     0.049 A 
ATOM     62  H   UNL A   1      46.669  29.005  27.118  1.00  0.00     0.167 HD
ATOM     63  C   UNL A   1      48.361  26.920  26.160  1.00  0.00     0.074 A 
ATOM     64  C   UNL A   1      48.818  25.639  25.657  1.00  0.00     0.031 C 
ATOM     65  C   UNL A   1      49.176  27.979  26.399  1.00  0.00     0.031 A 
BRANCH  52  66
ATOM     66  C   UNL A   1      46.279  33.026  28.506  1.00  0.00    -0.014 A 
ATOM     67  C   UNL A   1      46.469  33.364  29.859  1.00  0.00     0.010 A 
ATOM     68  C   UNL A   1      46.193  34.056  27.551  1.00  0.00     0.010 A 
ATOM     69  C   UNL A   1      46.533  34.704  30.253  1.00  0.00     0.020 A 
ATOM     70  C   UNL A   1      46.281  35.396  27.937  1.00  0.00     0.020 A 
ATOM     71  C   UNL A   1      46.432  35.712  29.289  1.00  0.00     0.054 A 
BRANCH  71  72
ATOM     72  S   UNL A   1      46.530  37.444  29.824  1.00  0.00     0.124 S 
ATOM     73  O   UNL A   1      45.120  37.787  29.993  1.00  0.00    -0.237 OA
ATOM     74  O   UNL A   1      47.307  37.356  31.057  1.00  0.00    -0.237 OA
ATOM     75  O   UNL A   1      47.204  38.113  28.714  1.00  0.00    -0.744 OA
ENDBRANCH  71  72
ENDBRANCH  52  66
BRANCH  53  76
ATOM     76  C   UNL A   1      45.158  23.522  25.492  1.00  0.00    -0.014 A 
ATOM     77  C   UNL A   1      45.016  23.224  24.126  1.00  0.00     0.010 A 
ATOM     78  C   UNL A   1      45.165  22.469  26.425  1.00  0.00     0.010 A 
ATOM     79  C   UNL A   1      44.871  21.899  23.702  1.00  0.00     0.020 A 
ATOM     80  C   UNL A   1      45.045  21.142  26.003  1.00  0.00     0.020 A 
ATOM     81  C   UNL A   1      44.887  20.866  24.645  1.00  0.00     0.054 A 
BRANCH  81  82
ATOM     82  S   UNL A   1      44.753  19.151  24.069  1.00  0.00     0.124 S 
ATOM     83  O   UNL A   1      44.542  19.328  22.635  1.00  0.00    -0.237 OA
ATOM     84  O   UNL A   1      46.043  18.585  24.454  1.00  0.00    -0.237 OA
ATOM     85  O   UNL A   1      43.607  18.631  24.812  1.00  0.00    -0.744 OA
ENDBRANCH  81  82
ENDBRANCH  53  76
BRANCH  65  86
ATOM     86  C   UNL A   1      50.646  27.787  26.141  1.00  0.00    -0.014 A 
ATOM     87  C   UNL A   1      51.484  27.209  27.111  1.00  0.00     0.010 A 
ATOM     88  C   UNL A   1      51.182  28.140  24.889  1.00  0.00     0.010 A 
ATOM     89  C   UNL A   1      52.840  27.016  26.842  1.00  0.00     0.020 A 
ATOM     90  C   UNL A   1      52.532  27.924  24.609  1.00  0.00     0.020 A 
ATOM     91  C   UNL A   1      53.356  27.375  25.594  1.00  0.00     0.054 A 
BRANCH  91  92
ATOM     92  S   UNL A   1      55.112  27.074  25.253  1.00  0.00     0.124 S 
ATOM     93  O   UNL A   1      55.064  26.486  23.916  1.00  0.00    -0.237 OA
ATOM     94  O   UNL A   1      55.690  28.414  25.330  1.00  0.00    -0.237 OA
ATOM     95  O   UNL A   1      55.520  26.164  26.320  1.00  0.00    -0.744 OA
ENDBRANCH  91  92
ENDBRANCH  65  86
ENDBRANCH  39  40
ENDBRANCH  32  34
ENDBRANCH  31  32
ENDBRANCH  30  31
ENDBRANCH  29  30
ENDBRANCH   1  29
TORSDOF 21
ENDMDL
MODEL 2
REMARK VINA RESULT:     -10.5      7.026     13.532
REMARK SMILES CCc1ccc2[nH]c(C(=O)c3cc(C)ccn3)c(CC(=O)OCCOCCOC(=O)c3ccc(-c4c5nc(c(-c6ccc(S(=O)(=O)[O-])cc6)c6ccc([nH]6)c(-c6ccc(S(=O)(=O)[O-])cc6)c6nc(c(-c7ccc(S(=O)(=O)[O-])cc7)c7ccc4[nH]7)C=C6)C=C5)cc3)c2c1
REMARK SMILES IDX 25 1 24 2 23 3 22 4 20 5 21 6 19 7 18 8 3 9 4 10 92 11 5 12
REMARK SMILES IDX 91 13 6 14 7 15 8 16 2 18 1 19 9 20 10 21 11 22 12 23 17 24
REMARK SMILES IDX 13 25 16 26 14 27 15 28 26 29 27 30 28 31 29 32 30 33 31 34
REMARK SMILES IDX 32 35 90 36 33 37 89 38 34 39 35 40 36 41 83 42 37 43 88 44
REMARK SMILES IDX 82 45 84 46 38 47 87 48 81 49 80 50 39 52 69 53 50 54 68 55
REMARK SMILES IDX 51 56 54 57 67 58 85 59 52 60 53 61 66 63 86 64 55 65 40 66
REMARK SMILES IDX 41 67 49 68 42 69 48 70 43 71 44 72 45 73 46 74 47 75 70 76
REMARK SMILES IDX 71 77 79 78 72 79 78 80 73 81 74 82 75 83 76 84 77 85 56 86
REMARK SMILES IDX 57 87 65 88 58 89 64 90 59 91 60 92 61 93 62 94 63 95
REMARK H PARENT 7 17 84 51 54 62
REMARK Flexibility Score: inf
ROOT
ATOM      1  O   UNL A   1      45.085  27.509  24.818  1.00  0.00    -0.374 OA
ENDROOT
BRANCH   1   2
ATOM      2  C   UNL A   1      46.087  26.497  24.909  1.00  0.00     0.202 C 
BRANCH   2   3
ATOM      3  C   UNL A   1      45.636  25.074  25.279  1.00  0.00     0.261 C 
BRANCH   3   4
ATOM      4  O   UNL A   1      45.193  24.282  24.156  1.00  0.00    -0.463 OA
BRANCH   4   5
ATOM      5  C   UNL A   1      44.595  23.102  24.479  1.00  0.00     0.310 C 
ATOM      6  O   UNL A   1      45.109  21.999  24.295  1.00  0.00    -0.252 OA
BRANCH   5   7
ATOM      7  C   UNL A   1      43.266  23.215  25.200  1.00  0.00     0.161 C 
BRANCH   7   8
ATOM      8  C   UNL A   1      43.159  22.696  26.608  1.00  0.00     0.000 A 
ATOM      9  C   UNL A   1      44.095  25.297  29.285  1.00  0.00    -0.048 A 
ATOM     10  C   UNL A   1      43.762  24.476  30.371  1.00  0.00     0.006 A 
ATOM     11  C   UNL A   1      43.986  24.774  27.983  1.00  0.00     0.014 A 
ATOM     12  C   UNL A   1      43.323  23.157  30.197  1.00  0.00     0.027 A 
ATOM     13  C   UNL A   1      43.500  23.462  27.776  1.00  0.00     0.004 A 
ATOM     14  C   UNL A   1      43.187  22.689  28.888  1.00  0.00     0.046 A 
ATOM     15  N   UNL A   1      42.745  21.476  28.420  1.00  0.00    -0.352 N 
ATOM     16  C   UNL A   1      42.551  21.512  27.054  1.00  0.00     0.093 A 
ATOM     17  H   UNL A   1      42.587  20.685  28.985  1.00  0.00     0.167 HD
BRANCH   9  18
ATOM     18  C   UNL A   1      44.498  26.727  29.575  1.00  0.00     0.032 C 
ATOM     19  C   UNL A   1      45.668  26.939  30.527  1.00  0.00     0.009 C 
ENDBRANCH   9  18
BRANCH  16  20
ATOM     20  C   UNL A   1      41.835  20.491  26.284  1.00  0.00     0.227 C 
ATOM     21  O   UNL A   1      42.353  19.440  25.911  1.00  0.00    -0.285 OA
BRANCH  20  22
ATOM     22  C   UNL A   1      40.394  20.698  25.944  1.00  0.00     0.113 A 
ATOM     23  C   UNL A   1      39.769  21.924  26.128  1.00  0.00     0.036 A 
ATOM     24  N   UNL A   1      39.755  19.602  25.462  1.00  0.00    -0.253 NA
ATOM     25  C   UNL A   1      38.403  22.015  25.829  1.00  0.00    -0.047 A 
ATOM     26  C   UNL A   1      38.439  19.704  25.206  1.00  0.00     0.112 A 
ATOM     27  C   UNL A   1      37.650  23.303  25.970  1.00  0.00     0.044 C 
ATOM     28  C   UNL A   1      37.728  20.877  25.375  1.00  0.00     0.023 A 
ENDBRANCH  20  22
ENDBRANCH  16  20
ENDBRANCH   7   8
ENDBRANCH   5   7
ENDBRANCH   4   5
ENDBRANCH   3   4
ENDBRANCH   2   3
ENDBRANCH   1   2
BRANCH   1  29
ATOM     29  C   UNL A   1      43.934  27.359  25.643  1.00  0.00     0.202 C 
BRANCH  29  30
ATOM     30  C   UNL A   1      42.668  26.798  24.991  1.00  0.00     0.261 C 
BRANCH  30  31
ATOM     31  O   UNL A   1      41.440  27.332  25.480  1.00  0.00    -0.460 OA
BRANCH  31  32
ATOM     32  C   UNL A   1      40.795  26.532  26.353  1.00  0.00     0.338 C 
ATOM     33  O   UNL A   1      40.566  25.335  26.264  1.00  0.00    -0.246 OA
BRANCH  32  34
ATOM     34  C   UNL A   1      40.446  27.328  27.529  1.00  0.00     0.060 A 
ATOM     35  C   UNL A   1      40.901  28.647  27.593  1.00  0.00     0.016 A 
ATOM     36  C   UNL A   1      39.759  26.739  28.592  1.00  0.00     0.016 A 
ATOM     37  C   UNL A   1      40.713  29.374  28.761  1.00  0.00     0.010 A 
ATOM     38  C   UNL A   1      39.569  27.472  29.762  1.00  0.00     0.010 A 
ATOM     39  C   UNL A   1      40.081  28.776  29.862  1.00  0.00    -0.014 A 
BRANCH  39  40
ATOM     40  C   UNL A   1      40.083  29.478  31.163  1.00  0.00     0.031 A 
ATOM     41  C   UNL A   1      41.185  29.191  32.142  1.00  0.00     0.074 A 
ATOM     42  C   UNL A   1      39.134  30.391  31.433  1.00  0.00     0.049 A 
ATOM     43  N   UNL A   1      41.405  29.722  33.316  1.00  0.00    -0.248 NA
ATOM     44  C   UNL A   1      42.172  28.170  31.748  1.00  0.00     0.031 C 
ATOM     45  C   UNL A   1      38.037  30.757  30.537  1.00  0.00     0.029 A 
ATOM     46  N   UNL A   1      38.947  31.181  32.536  1.00  0.00    -0.354 N 
ATOM     47  C   UNL A   1      42.553  29.102  33.800  1.00  0.00     0.074 A 
ATOM     48  C   UNL A   1      42.963  28.132  32.810  1.00  0.00     0.031 C 
ATOM     49  C   UNL A   1      37.295  31.711  31.124  1.00  0.00     0.029 A 
ATOM     50  C   UNL A   1      37.849  32.000  32.444  1.00  0.00     0.049 A 
ATOM     51  H   UNL A   1      39.543  31.163  33.320  1.00  0.00     0.167 HD
ATOM     52  C   UNL A   1      43.208  29.332  34.963  1.00  0.00     0.031 A 
ATOM     53  C   UNL A   1      37.347  32.880  33.332  1.00  0.00     0.031 A 
ATOM     54  C   UNL A   1      42.777  30.290  35.946  1.00  0.00     0.049 A 
ATOM     55  C   UNL A   1      38.064  33.080  34.640  1.00  0.00     0.074 A 
ATOM     56  C   UNL A   1      43.368  30.611  37.154  1.00  0.00     0.029 A 
ATOM     57  N   UNL A   1      41.639  31.076  35.833  1.00  0.00    -0.354 N 
ATOM     58  N   UNL A   1      39.166  32.510  35.070  1.00  0.00    -0.248 NA
ATOM     59  C   UNL A   1      37.478  34.048  35.576  1.00  0.00     0.031 C 
ATOM     60  C   UNL A   1      42.561  31.557  37.795  1.00  0.00     0.029 A 
ATOM     61  C   UNL A   1      41.496  31.866  36.961  1.00  0.00     0.049 A 
ATOM     62  H   UNL A   1      41.025  31.073  35.065  1.00  0.00     0.167 HD
ATOM     63  C   UNL A   1      39.418  33.067  36.318  1.00  0.00     0.074 A 
ATOM     64  C   UNL A   1      38.361  34.028  36.566  1.00  0.00     0.031 C 
ATOM     65  C   UNL A   1      40.431  32.810  37.183  1.00  0.00     0.031 A 
BRANCH  52  66
ATOM     66  C   UNL A   1      44.437  28.510  35.241  1.00  0.00    -0.014 A 
ATOM     67  C   UNL A   1      45.717  28.963  34.872  1.00  0.00     0.010 A 
ATOM     68  C   UNL A   1      44.316  27.274  35.903  1.00  0.00     0.010 A 
ATOM     69  C   UNL A   1      46.847  28.179  35.123  1.00  0.00     0.020 A 
ATOM     70  C   UNL A   1      45.445  26.498  36.179  1.00  0.00     0.020 A 
ATOM     71  C   UNL A   1      46.703  26.948  35.771  1.00  0.00     0.054 A 
BRANCH  71  72
ATOM     72  S   UNL A   1      48.186  25.954  36.096  1.00  0.00     0.124 S 
ATOM     73  O   UNL A   1      49.077  26.381  35.020  1.00  0.00    -0.237 OA
ATOM     74  O   UNL A   1      48.572  26.383  37.438  1.00  0.00    -0.237 OA
ATOM     75  O   UNL A   1      47.710  24.577  35.999  1.00  0.00    -0.744 OA
ENDBRANCH  71  72
ENDBRANCH  52  66
BRANCH  53  76
ATOM     76  C   UNL A   1      36.103  33.630  33.009  1.00  0.00    -0.014 A 
ATOM     77  C   UNL A   1      34.840  33.036  33.175  1.00  0.00     0.010 A 
ATOM     78  C   UNL A   1      36.179  34.959  32.553  1.00  0.00     0.010 A 
ATOM     79  C   UNL A   1      33.677  33.753  32.878  1.00  0.00     0.020 A 
ATOM     80  C   UNL A   1      35.018  35.687  32.279  1.00  0.00     0.020 A 
ATOM     81  C   UNL A   1      33.774  35.076  32.433  1.00  0.00     0.054 A 
BRANCH  81  82
ATOM     82  S   UNL A   1      32.251  36.006  32.106  1.00  0.00     0.124 S 
ATOM     83  O   UNL A   1      31.241  35.170  32.747  1.00  0.00    -0.237 OA
ATOM     84  O   UNL A   1      32.516  37.288  32.755  1.00  0.00    -0.237 OA
ATOM     85  O   UNL A   1      32.189  36.057  30.647  1.00  0.00    -0.744 OA
ENDBRANCH  81  82
ENDBRANCH  53  76
BRANCH  65  86
ATOM     86  C   UNL A   1      40.457  33.598  38.464  1.00  0.00    -0.014 A 
ATOM     87  C   UNL A   1      41.243  34.757  38.589  1.00  0.00     0.010 A 
ATOM     88  C   UNL A   1      39.640  33.201  39.538  1.00  0.00     0.010 A 
ATOM     89  C   UNL A   1      41.234  35.488  39.778  1.00  0.00     0.020 A 
ATOM     90  C   UNL A   1      39.609  33.945  40.719  1.00  0.00     0.020 A 
ATOM     91  C   UNL A   1      40.418  35.077  40.836  1.00  0.00     0.054 A 
BRANCH  91  92
ATOM     92  S   UNL A   1      40.389  36.069  42.355  1.00  0.00     0.124 S 
ATOM     93  O   UNL A   1      38.960  36.123  42.653  1.00  0.00    -0.237 OA
ATOM     94  O   UNL A   1      41.193  35.269  43.277  1.00  0.00    -0.237 OA
ATOM     95  O   UNL A   1      40.991  37.337  41.952  1.00  0.00    -0.744 OA
ENDBRANCH  91  92
ENDBRANCH  65  86
ENDBRANCH  39  40
ENDBRANCH  32  34
ENDBRANCH  31  32
ENDBRANCH  30  31
ENDBRANCH  29  30
ENDBRANCH   1  29
TORSDOF 21
ENDMDL
MODEL 3
REMARK VINA RESULT:     -10.4      1.223      8.002
REMARK SMILES CCc1ccc2[nH]c(C(=O)c3cc(C)ccn3)c(CC(=O)OCCOCCOC(=O)c3ccc(-c4c5nc(c(-c6ccc(S(=O)(=O)[O-])cc6)c6ccc([nH]6)c(-c6ccc(S(=O)(=O)[O-])cc6)c6nc(c(-c7ccc(S(=O)(=O)[O-])cc7)c7ccc4[nH]7)C=C6)C=C5)cc3)c2c1
REMARK SMILES IDX 25 1 24 2 23 3 22 4 20 5 21 6 19 7 18 8 3 9 4 10 92 11 5 12
REMARK SMILES IDX 91 13 6 14 7 15 8 16 2 18 1 19 9 20 10 21 11 22 12 23 17 24
REMARK SMILES IDX 13 25 16 26 14 27 15 28 26 29 27 30 28 31 29 32 30 33 31 34
REMARK SMILES IDX 32 35 90 36 33 37 89 38 34 39 35 40 36 41 83 42 37 43 88 44
REMARK SMILES IDX 82 45 84 46 38 47 87 48 81 49 80 50 39 52 69 53 50 54 68 55
REMARK SMILES IDX 51 56 54 57 67 58 85 59 52 60 53 61 66 63 86 64 55 65 40 66
REMARK SMILES IDX 41 67 49 68 42 69 48 70 43 71 44 72 45 73 46 74 47 75 70 76
REMARK SMILES IDX 71 77 79 78 72 79 78 80 73 81 74 82 75 83 76 84 77 85 56 86
REMARK SMILES IDX 57 87 65 88 58 89 64 90 59 91 60 92 61 93 62 94 63 95
REMARK H PARENT 7 17 84 51 54 62
REMARK Flexibility Score: inf
ROOT
ATOM      1  O   UNL A   1      33.072  29.170  27.571  1.00  0.00    -0.374 OA
ENDROOT
BRANCH   1   2
ATOM      2  C   UNL A   1      31.722  28.717  27.474  1.00  0.00     0.202 C 
BRANCH   2   3
ATOM      3  C   UNL A   1      31.373  27.748  26.332  1.00  0.00     0.261 C 
BRANCH   3   4
ATOM      4  O   UNL A   1      30.926  26.449  26.773  1.00  0.00    -0.463 OA
BRANCH   4   5
ATOM      5  C   UNL A   1      31.822  25.438  26.603  1.00  0.00     0.310 C 
ATOM      6  O   UNL A   1      31.610  24.270  26.930  1.00  0.00    -0.252 OA
BRANCH   5   7
ATOM      7  C   UNL A   1      33.096  25.806  25.869  1.00  0.00     0.161 C 
BRANCH   7   8
ATOM      8  C   UNL A   1      33.577  24.912  24.758  1.00  0.00     0.000 A 
ATOM      9  C   UNL A   1      37.150  23.586  25.284  1.00  0.00    -0.048 A 
ATOM     10  C   UNL A   1      37.140  22.763  24.150  1.00  0.00     0.006 A 
ATOM     11  C   UNL A   1      36.027  24.392  25.545  1.00  0.00     0.014 A 
ATOM     12  C   UNL A   1      36.049  22.720  23.273  1.00  0.00     0.027 A 
ATOM     13  C   UNL A   1      34.892  24.333  24.703  1.00  0.00     0.004 A 
ATOM     14  C   UNL A   1      34.936  23.503  23.590  1.00  0.00     0.046 A 
ATOM     15  N   UNL A   1      33.727  23.627  22.949  1.00  0.00    -0.352 N 
ATOM     16  C   UNL A   1      32.827  24.332  23.724  1.00  0.00     0.093 A 
ATOM     17  H   UNL A   1      33.529  23.262  22.057  1.00  0.00     0.167 HD
BRANCH   9  18
ATOM     18  C   UNL A   1      38.352  23.513  26.203  1.00  0.00     0.032 C 
ATOM     19  C   UNL A   1      39.092  22.184  26.272  1.00  0.00     0.009 C 
ENDBRANCH   9  18
BRANCH  16  20
ATOM     20  C   UNL A   1      31.386  24.410  23.467  1.00  0.00     0.227 C 
ATOM     21  O   UNL A   1      30.656  23.422  23.409  1.00  0.00    -0.285 OA
BRANCH  20  22
ATOM     22  C   UNL A   1      30.739  25.746  23.291  1.00  0.00     0.113 A 
ATOM     23  C   UNL A   1      31.422  26.821  22.742  1.00  0.00     0.036 A 
ATOM     24  N   UNL A   1      29.453  25.821  23.720  1.00  0.00    -0.253 NA
ATOM     25  C   UNL A   1      30.753  28.050  22.660  1.00  0.00    -0.047 A 
ATOM     26  C   UNL A   1      28.839  27.015  23.656  1.00  0.00     0.112 A 
ATOM     27  C   UNL A   1      31.400  29.260  22.057  1.00  0.00     0.044 C 
ATOM     28  C   UNL A   1      29.443  28.146  23.142  1.00  0.00     0.023 A 
ENDBRANCH  20  22
ENDBRANCH  16  20
ENDBRANCH   7   8
ENDBRANCH   5   7
ENDBRANCH   4   5
ENDBRANCH   3   4
ENDBRANCH   2   3
ENDBRANCH   1   2
BRANCH   1  29
ATOM     29  C   UNL A   1      33.321  30.541  27.276  1.00  0.00     0.202 C 
BRANCH  29  30
ATOM     30  C   UNL A   1      34.486  31.218  28.003  1.00  0.00     0.261 C 
BRANCH  30  31
ATOM     31  O   UNL A   1      35.711  30.490  28.006  1.00  0.00    -0.460 OA
BRANCH  31  32
ATOM     32  C   UNL A   1      36.438  30.630  29.133  1.00  0.00     0.338 C 
ATOM     33  O   UNL A   1      36.107  31.137  30.194  1.00  0.00    -0.246 OA
BRANCH  32  34
ATOM     34  C   UNL A   1      37.734  29.987  28.922  1.00  0.00     0.060 A 
ATOM     35  C   UNL A   1      38.586  29.841  30.018  1.00  0.00     0.016 A 
ATOM     36  C   UNL A   1      38.131  29.623  27.633  1.00  0.00     0.016 A 
ATOM     37  C   UNL A   1      39.878  29.372  29.816  1.00  0.00     0.010 A 
ATOM     38  C   UNL A   1      39.426  29.151  27.434  1.00  0.00     0.010 A 
ATOM     39  C   UNL A   1      40.314  29.063  28.519  1.00  0.00    -0.014 A 
BRANCH  39  40
ATOM     40  C   UNL A   1      41.746  28.779  28.289  1.00  0.00     0.031 A 
ATOM     41  C   UNL A   1      42.161  27.379  27.934  1.00  0.00     0.074 A 
ATOM     42  C   UNL A   1      42.647  29.774  28.356  1.00  0.00     0.049 A 
ATOM     43  N   UNL A   1      43.351  26.918  27.649  1.00  0.00    -0.248 NA
ATOM     44  C   UNL A   1      41.095  26.362  27.892  1.00  0.00     0.031 C 
ATOM     45  C   UNL A   1      42.339  31.170  28.669  1.00  0.00     0.029 A 
ATOM     46  N   UNL A   1      44.001  29.764  28.155  1.00  0.00    -0.354 N 
ATOM     47  C   UNL A   1      43.178  25.562  27.394  1.00  0.00     0.074 A 
ATOM     48  C   UNL A   1      41.776  25.267  27.592  1.00  0.00     0.031 C 
ATOM     49  C   UNL A   1      43.475  31.885  28.630  1.00  0.00     0.029 A 
ATOM     50  C   UNL A   1      44.589  30.995  28.315  1.00  0.00     0.049 A 
ATOM     51  H   UNL A   1      44.506  28.952  27.918  1.00  0.00     0.167 HD
ATOM     52  C   UNL A   1      44.105  24.649  27.020  1.00  0.00     0.031 A 
ATOM     53  C   UNL A   1      45.883  31.356  28.224  1.00  0.00     0.031 A 
ATOM     54  C   UNL A   1      45.501  24.955  26.845  1.00  0.00     0.049 A 
ATOM     55  C   UNL A   1      46.904  30.313  27.857  1.00  0.00     0.074 A 
ATOM     56  C   UNL A   1      46.526  24.112  26.460  1.00  0.00     0.029 A 
ATOM     57  N   UNL A   1      46.064  26.206  27.052  1.00  0.00    -0.354 N 
ATOM     58  N   UNL A   1      46.720  29.041  27.588  1.00  0.00    -0.248 NA
ATOM     59  C   UNL A   1      48.301  30.754  27.771  1.00  0.00     0.031 C 
ATOM     60  C   UNL A   1      47.719  24.842  26.482  1.00  0.00     0.029 A 
ATOM     61  C   UNL A   1      47.429  26.153  26.825  1.00  0.00     0.049 A 
ATOM     62  H   UNL A   1      45.567  27.012  27.319  1.00  0.00     0.167 HD
ATOM     63  C   UNL A   1      47.977  28.535  27.279  1.00  0.00     0.074 A 
ATOM     64  C   UNL A   1      48.908  29.641  27.381  1.00  0.00     0.031 C 
ATOM     65  C   UNL A   1      48.332  27.270  26.940  1.00  0.00     0.031 A 
BRANCH  52  66
ATOM     66  C   UNL A   1      43.642  23.233  26.810  1.00  0.00    -0.014 A 
ATOM     67  C   UNL A   1      43.666  22.640  25.534  1.00  0.00     0.010 A 
ATOM     68  C   UNL A   1      43.194  22.474  27.907  1.00  0.00     0.010 A 
ATOM     69  C   UNL A   1      43.216  21.329  25.353  1.00  0.00     0.020 A 
ATOM     70  C   UNL A   1      42.767  21.154  27.735  1.00  0.00     0.020 A 
ATOM     71  C   UNL A   1      42.764  20.596  26.455  1.00  0.00     0.054 A 
BRANCH  71  72
ATOM     72  S   UNL A   1      42.195  18.892  26.196  1.00  0.00     0.124 S 
ATOM     73  O   UNL A   1      43.144  18.406  25.197  1.00  0.00    -0.237 OA
ATOM     74  O   UNL A   1      42.328  18.303  27.526  1.00  0.00    -0.237 OA
ATOM     75  O   UNL A   1      40.823  19.051  25.724  1.00  0.00    -0.744 OA
ENDBRANCH  71  72
ENDBRANCH  52  66
BRANCH  53  76
ATOM     76  C   UNL A   1      46.279  32.767  28.486  1.00  0.00    -0.014 A 
ATOM     77  C   UNL A   1      46.305  33.713  27.446  1.00  0.00     0.010 A 
ATOM     78  C   UNL A   1      46.610  33.176  29.791  1.00  0.00     0.010 A 
ATOM     79  C   UNL A   1      46.668  35.038  27.704  1.00  0.00     0.020 A 
ATOM     80  C   UNL A   1      46.949  34.505  30.057  1.00  0.00     0.020 A 
ATOM     81  C   UNL A   1      46.987  35.426  29.010  1.00  0.00     0.054 A 
BRANCH  81  82
ATOM     82  S   UNL A   1      47.402  37.163  29.332  1.00  0.00     0.124 S 
ATOM     83  O   UNL A   1      46.095  37.808  29.248  1.00  0.00    -0.237 OA
ATOM     84  O   UNL A   1      47.994  37.105  30.666  1.00  0.00    -0.237 OA
ATOM     85  O   UNL A   1      48.335  37.495  28.258  1.00  0.00    -0.744 OA
ENDBRANCH  81  82
ENDBRANCH  53  76
BRANCH  65  86
ATOM     86  C   UNL A   1      49.783  27.023  26.631  1.00  0.00    -0.014 A 
ATOM     87  C   UNL A   1      50.287  27.186  25.328  1.00  0.00     0.010 A 
ATOM     88  C   UNL A   1      50.664  26.676  27.671  1.00  0.00     0.010 A 
ATOM     89  C   UNL A   1      51.642  26.977  25.067  1.00  0.00     0.020 A 
ATOM     90  C   UNL A   1      52.025  26.493  27.417  1.00  0.00     0.020 A 
ATOM     91  C   UNL A   1      52.502  26.630  26.113  1.00  0.00     0.054 A 
BRANCH  91  92
ATOM     92  S   UNL A   1      54.267  26.407  25.757  1.00  0.00     0.124 S 
ATOM     93  O   UNL A   1      54.781  25.958  27.048  1.00  0.00    -0.237 OA
ATOM     94  O   UNL A   1      54.257  25.399  24.699  1.00  0.00    -0.237 OA
ATOM     95  O   UNL A   1      54.706  27.736  25.339  1.00  0.00    -0.744 OA
ENDBRANCH  91  92
ENDBRANCH  65  86
ENDBRANCH  39  40
ENDBRANCH  32  34
ENDBRANCH  31  32
ENDBRANCH  30  31
ENDBRANCH  29  30
ENDBRANCH   1  29
TORSDOF 21
ENDMDL
