MODEL 1
REMARK VINA RESULT:     -14.0      0.000      0.000
REMARK SMILES Cc1cc(C(=O)OCCOCCOC(=O)c2ccc(-c3c4nc(c(-c5ccc(S(=O)(=O)[O-])cc5)c5ccc([nH]5)c(-c5ccc(S(=O)(=O)[O-])cc5)c5nc(c(-c6ccc(S(=O)(=O)[O-])cc6)c6ccc3[nH]6)C=C5)C=C4)cc2)c(C)n1[C@@H]1C[N@H+]2CC[C@@H]1CC2
REMARK SMILES IDX 11 1 10 2 9 3 8 4 7 5 5 6 6 7 4 8 1 9 2 10 3 11 78 12 76 13
REMARK SMILES IDX 77 14 79 15 80 16 84 17 81 18 85 19 83 20 86 21 82 22 12 24
REMARK SMILES IDX 13 25 14 26 15 27 16 28 17 29 75 30 18 31 74 32 19 33 20 34
REMARK SMILES IDX 21 35 68 36 22 37 73 38 67 39 69 40 23 41 72 42 66 43 65 44
REMARK SMILES IDX 24 46 54 47 35 48 53 49 36 50 39 51 52 52 70 53 37 54 38 55
REMARK SMILES IDX 51 57 71 58 40 59 25 60 26 61 34 62 27 63 33 64 28 65 29 66
REMARK SMILES IDX 30 67 31 68 32 69 55 70 56 71 64 72 57 73 63 74 58 75 59 76
REMARK SMILES IDX 60 77 61 78 62 79 41 80 42 81 50 82 43 83 49 84 44 85 45 86
REMARK SMILES IDX 46 87 47 88 48 89
REMARK H PARENT 81 23 69 45 39 56
REMARK Flexibility Score: inf
ROOT
ATOM      1  C   UNL A   1      40.995  20.521  26.950  1.00  0.00     0.202 C 
ENDROOT
BRANCH   1   2
ATOM      2  O   UNL A   1      39.628  20.420  26.595  1.00  0.00    -0.374 OA
BRANCH   2   3
ATOM      3  C   UNL A   1      39.224  21.592  25.909  1.00  0.00     0.202 C 
BRANCH   3   4
ATOM      4  C   UNL A   1      37.884  21.683  25.145  1.00  0.00     0.261 C 
BRANCH   4   5
ATOM      5  O   UNL A   1      36.690  21.228  25.837  1.00  0.00    -0.460 OA
BRANCH   5   6
ATOM      6  C   UNL A   1      35.625  20.860  25.042  1.00  0.00     0.340 C 
ATOM      7  O   UNL A   1      35.280  19.699  24.864  1.00  0.00    -0.246 OA
BRANCH   6   8
ATOM      8  C   UNL A   1      34.772  22.002  24.677  1.00  0.00     0.081 A 
ATOM      9  C   UNL A   1      33.215  23.910  22.066  1.00  0.00     0.064 C 
ATOM     10  C   UNL A   1      33.665  23.423  23.378  1.00  0.00     0.016 A 
ATOM     11  C   UNL A   1      34.830  22.713  23.475  1.00  0.00     0.038 A 
ATOM     12  N   UNL A   1      33.064  23.476  24.635  1.00  0.00    -0.339 N 
ATOM     13  C   UNL A   1      33.808  22.642  25.474  1.00  0.00     0.030 A 
ATOM     14  C   UNL A   1      33.545  22.443  26.937  1.00  0.00     0.065 C 
BRANCH  12  15
ATOM     15  C   UNL A   1      31.803  24.137  25.028  1.00  0.00     0.145 C 
ATOM     16  C   UNL A   1      30.817  24.283  23.852  1.00  0.00     0.288 C 
ATOM     17  C   UNL A   1      31.962  25.497  25.756  1.00  0.00     0.029 C 
ATOM     18  N   UNL A   1      30.369  25.692  23.681  1.00  0.00    -0.333 N 
ATOM     19  C   UNL A   1      30.586  26.055  26.139  1.00  0.00     0.067 C 
ATOM     20  C   UNL A   1      32.503  26.536  24.785  1.00  0.00     0.067 C 
ATOM     21  C   UNL A   1      29.688  26.157  24.894  1.00  0.00     0.262 C 
ATOM     22  C   UNL A   1      31.546  26.573  23.514  1.00  0.00     0.262 C 
ATOM     23  H   UNL A   1      29.752  25.724  22.870  1.00  0.00     0.348 HD
ENDBRANCH  12  15
ENDBRANCH   6   8
ENDBRANCH   5   6
ENDBRANCH   4   5
ENDBRANCH   3   4
ENDBRANCH   2   3
ENDBRANCH   1   2
BRANCH   1  24
ATOM     24  C   UNL A   1      42.172  19.764  26.238  1.00  0.00     0.261 C 
BRANCH  24  25
ATOM     25  O   UNL A   1      43.010  20.355  24.989  1.00  0.00    -0.460 OA
BRANCH  25  26
ATOM     26  C   UNL A   1      43.770  21.581  24.867  1.00  0.00     0.338 C 
ATOM     27  O   UNL A   1      44.562  21.639  23.925  1.00  0.00    -0.246 OA
BRANCH  26  28
ATOM     28  C   UNL A   1      43.590  22.771  26.223  1.00  0.00     0.060 A 
ATOM     29  C   UNL A   1      43.726  23.007  27.596  1.00  0.00     0.016 A 
ATOM     30  C   UNL A   1      42.604  23.756  26.066  1.00  0.00     0.016 A 
ATOM     31  C   UNL A   1      42.809  24.296  28.485  1.00  0.00     0.010 A 
ATOM     32  C   UNL A   1      41.641  24.946  27.019  1.00  0.00     0.010 A 
ATOM     33  C   UNL A   1      41.556  25.609  28.385  1.00  0.00    -0.014 A 
BRANCH  33  34
ATOM     34  C   UNL A   1      40.587  27.075  29.580  1.00  0.00     0.031 A 
ATOM     35  C   UNL A   1      42.039  27.554  28.445  1.00  0.00     0.074 A 
ATOM     36  C   UNL A   1      39.522  27.925  30.780  1.00  0.00     0.049 A 
ATOM     37  N   UNL A   1      43.269  27.123  28.724  1.00  0.00    -0.248 NA
ATOM     38  C   UNL A   1      42.295  28.209  27.034  1.00  0.00     0.031 C 
ATOM     39  C   UNL A   1      38.168  27.935  32.205  1.00  0.00     0.029 A 
ATOM     40  N   UNL A   1      38.954  29.602  31.428  1.00  0.00    -0.354 N 
ATOM     41  C   UNL A   1      44.054  28.197  28.597  1.00  0.00     0.074 A 
ATOM     42  C   UNL A   1      43.500  28.792  27.338  1.00  0.00     0.031 C 
ATOM     43  C   UNL A   1      37.295  29.094  32.866  1.00  0.00     0.029 A 
ATOM     44  C   UNL A   1      37.601  30.396  32.330  1.00  0.00     0.049 A 
ATOM     45  H   UNL A   1      39.627  30.282  31.193  1.00  0.00     0.167 HD
ATOM     46  C   UNL A   1      44.030  28.463  29.933  1.00  0.00     0.031 A 
ATOM     47  C   UNL A   1      37.186  31.840  33.094  1.00  0.00     0.031 A 
ATOM     48  C   UNL A   1      42.912  29.338  30.114  1.00  0.00     0.049 A 
ATOM     49  C   UNL A   1      38.303  32.675  32.682  1.00  0.00     0.074 A 
ATOM     50  C   UNL A   1      41.960  29.907  29.254  1.00  0.00     0.029 A 
ATOM     51  N   UNL A   1      42.285  29.236  31.295  1.00  0.00    -0.354 N 
ATOM     52  N   UNL A   1      39.454  32.494  33.229  1.00  0.00    -0.248 NA
ATOM     53  C   UNL A   1      38.064  32.870  31.264  1.00  0.00     0.031 C 
ATOM     54  C   UNL A   1      40.934  30.320  29.984  1.00  0.00     0.029 A 
ATOM     55  C   UNL A   1      41.375  30.227  31.278  1.00  0.00     0.049 A 
ATOM     56  H   UNL A   1      42.452  28.582  32.012  1.00  0.00     0.167 HD
ATOM     57  C   UNL A   1      40.091  31.824  32.238  1.00  0.00     0.074 A 
ATOM     58  C   UNL A   1      39.168  32.194  30.925  1.00  0.00     0.031 C 
ATOM     59  C   UNL A   1      40.869  30.681  32.506  1.00  0.00     0.031 A 
BRANCH  46  60
ATOM     60  C   UNL A   1      44.247  26.984  30.796  1.00  0.00    -0.014 A 
ATOM     61  C   UNL A   1      44.278  27.218  32.166  1.00  0.00     0.010 A 
ATOM     62  C   UNL A   1      44.790  25.679  30.409  1.00  0.00     0.010 A 
ATOM     63  C   UNL A   1      44.561  26.214  33.102  1.00  0.00     0.020 A 
ATOM     64  C   UNL A   1      45.056  24.642  31.352  1.00  0.00     0.020 A 
ATOM     65  C   UNL A   1      44.837  24.909  32.696  1.00  0.00     0.054 A 
BRANCH  65  66
ATOM     66  S   UNL A   1      44.683  23.584  33.937  1.00  0.00     0.124 S 
ATOM     67  O   UNL A   1      44.893  24.294  35.197  1.00  0.00    -0.237 OA
ATOM     68  O   UNL A   1      43.316  23.124  33.707  1.00  0.00    -0.237 OA
ATOM     69  O   UNL A   1      45.736  22.637  33.581  1.00  0.00    -0.744 OA
ENDBRANCH  65  66
ENDBRANCH  46  60
BRANCH  47  70
ATOM     70  C   UNL A   1      35.895  33.175  33.364  1.00  0.00    -0.014 A 
ATOM     71  C   UNL A   1      35.750  34.602  33.991  1.00  0.00     0.010 A 
ATOM     72  C   UNL A   1      34.853  33.075  32.451  1.00  0.00     0.010 A 
ATOM     73  C   UNL A   1      34.702  35.665  33.602  1.00  0.00     0.020 A 
ATOM     74  C   UNL A   1      33.911  34.119  32.018  1.00  0.00     0.020 A 
ATOM     75  C   UNL A   1      33.842  35.412  32.542  1.00  0.00     0.054 A 
BRANCH  75  76
ATOM     76  S   UNL A   1      32.761  36.718  31.718  1.00  0.00     0.124 S 
ATOM     77  O   UNL A   1      31.411  36.394  32.169  1.00  0.00    -0.237 OA
ATOM     78  O   UNL A   1      33.300  37.977  32.229  1.00  0.00    -0.237 OA
ATOM     79  O   UNL A   1      32.993  36.503  30.288  1.00  0.00    -0.744 OA
ENDBRANCH  75  76
ENDBRANCH  47  70
BRANCH  59  80
ATOM     80  C   UNL A   1      40.985  29.597  33.864  1.00  0.00    -0.014 A 
ATOM     81  C   UNL A   1      40.945  29.679  35.346  1.00  0.00     0.010 A 
ATOM     82  C   UNL A   1      41.024  28.284  33.473  1.00  0.00     0.010 A 
ATOM     83  C   UNL A   1      41.503  28.769  36.251  1.00  0.00     0.020 A 
ATOM     84  C   UNL A   1      41.389  27.277  34.386  1.00  0.00     0.020 A 
ATOM     85  C   UNL A   1      41.690  27.526  35.737  1.00  0.00     0.054 A 
BRANCH  85  86
ATOM     86  S   UNL A   1      42.182  26.214  36.855  1.00  0.00     0.124 S 
ATOM     87  O   UNL A   1      41.203  26.344  37.933  1.00  0.00    -0.237 OA
ATOM     88  O   UNL A   1      42.040  25.014  36.036  1.00  0.00    -0.237 OA
ATOM     89  O   UNL A   1      43.547  26.600  37.197  1.00  0.00    -0.744 OA
ENDBRANCH  85  86
ENDBRANCH  59  80
ENDBRANCH  33  34
ENDBRANCH  26  28
ENDBRANCH  25  26
ENDBRANCH  24  25
ENDBRANCH   1  24
TORSDOF 18
ENDMDL
MODEL 2
REMARK VINA RESULT:     -13.6      4.397     11.224
REMARK SMILES Cc1cc(C(=O)OCCOCCOC(=O)c2ccc(-c3c4nc(c(-c5ccc(S(=O)(=O)[O-])cc5)c5ccc([nH]5)c(-c5ccc(S(=O)(=O)[O-])cc5)c5nc(c(-c6ccc(S(=O)(=O)[O-])cc6)c6ccc3[nH]6)C=C5)C=C4)cc2)c(C)n1[C@@H]1C[N@H+]2CC[C@@H]1CC2
REMARK SMILES IDX 11 1 10 2 9 3 8 4 7 5 5 6 6 7 4 8 1 9 2 10 3 11 78 12 76 13
REMARK SMILES IDX 77 14 79 15 80 16 84 17 81 18 85 19 83 20 86 21 82 22 12 24
REMARK SMILES IDX 13 25 14 26 15 27 16 28 17 29 75 30 18 31 74 32 19 33 20 34
REMARK SMILES IDX 21 35 68 36 22 37 73 38 67 39 69 40 23 41 72 42 66 43 65 44
REMARK SMILES IDX 24 46 54 47 35 48 53 49 36 50 39 51 52 52 70 53 37 54 38 55
REMARK SMILES IDX 51 57 71 58 40 59 25 60 26 61 34 62 27 63 33 64 28 65 29 66
REMARK SMILES IDX 30 67 31 68 32 69 55 70 56 71 64 72 57 73 63 74 58 75 59 76
REMARK SMILES IDX 60 77 61 78 62 79 41 80 42 81 50 82 43 83 49 84 44 85 45 86
REMARK SMILES IDX 46 87 47 88 48 89
REMARK H PARENT 81 23 69 45 39 56
REMARK Flexibility Score: inf
ROOT
ATOM      1  C   UNL A   1      34.085  32.885  28.448  1.00  0.00     0.202 C 
ENDROOT
BRANCH   1   2
ATOM      2  O   UNL A   1      33.821  32.292  27.190  1.00  0.00    -0.374 OA
BRANCH   2   3
ATOM      3  C   UNL A   1      33.193  31.036  27.377  1.00  0.00     0.202 C 
BRANCH   3   4
ATOM      4  C   UNL A   1      32.054  30.535  26.458  1.00  0.00     0.261 C 
BRANCH   4   5
ATOM      5  O   UNL A   1      31.806  29.104  26.423  1.00  0.00    -0.460 OA
BRANCH   5   6
ATOM      6  C   UNL A   1      31.408  28.582  25.210  1.00  0.00     0.340 C 
ATOM      7  O   UNL A   1      30.786  29.218  24.369  1.00  0.00    -0.246 OA
BRANCH   6   8
ATOM      8  C   UNL A   1      32.059  27.299  24.908  1.00  0.00     0.081 A 
ATOM      9  C   UNL A   1      34.753  25.029  25.599  1.00  0.00     0.064 C 
ATOM     10  C   UNL A   1      33.550  25.658  25.033  1.00  0.00     0.016 A 
ATOM     11  C   UNL A   1      33.420  27.019  25.057  1.00  0.00     0.038 A 
ATOM     12  N   UNL A   1      32.388  25.103  24.499  1.00  0.00    -0.339 N 
ATOM     13  C   UNL A   1      31.475  26.150  24.347  1.00  0.00     0.030 A 
ATOM     14  C   UNL A   1      30.105  26.014  23.751  1.00  0.00     0.065 C 
BRANCH  12  15
ATOM     15  C   UNL A   1      32.066  23.681  24.266  1.00  0.00     0.145 C 
ATOM     16  C   UNL A   1      32.665  22.752  25.340  1.00  0.00     0.288 C 
ATOM     17  C   UNL A   1      32.407  23.144  22.852  1.00  0.00     0.029 C 
ATOM     18  N   UNL A   1      33.479  21.663  24.734  1.00  0.00    -0.333 N 
ATOM     19  C   UNL A   1      31.992  21.673  22.731  1.00  0.00     0.067 C 
ATOM     20  C   UNL A   1      33.918  23.096  22.675  1.00  0.00     0.067 C 
ATOM     21  C   UNL A   1      32.645  20.842  23.848  1.00  0.00     0.262 C 
ATOM     22  C   UNL A   1      34.531  22.246  23.872  1.00  0.00     0.262 C 
ATOM     23  H   UNL A   1      33.873  21.111  25.495  1.00  0.00     0.348 HD
ENDBRANCH  12  15
ENDBRANCH   6   8
ENDBRANCH   5   6
ENDBRANCH   4   5
ENDBRANCH   3   4
ENDBRANCH   2   3
ENDBRANCH   1   2
BRANCH   1  24
ATOM     24  C   UNL A   1      33.401  34.190  28.992  1.00  0.00     0.261 C 
BRANCH  24  25
ATOM     25  O   UNL A   1      33.472  34.681  30.530  1.00  0.00    -0.460 OA
BRANCH  25  26
ATOM     26  C   UNL A   1      34.174  34.114  31.662  1.00  0.00     0.338 C 
ATOM     27  O   UNL A   1      33.620  34.224  32.757  1.00  0.00    -0.246 OA
BRANCH  26  28
ATOM     28  C   UNL A   1      35.848  33.498  31.338  1.00  0.00     0.060 A 
ATOM     29  C   UNL A   1      37.165  33.821  30.992  1.00  0.00     0.016 A 
ATOM     30  C   UNL A   1      35.950  32.190  30.843  1.00  0.00     0.016 A 
ATOM     31  C   UNL A   1      38.321  32.641  30.241  1.00  0.00     0.010 A 
ATOM     32  C   UNL A   1      37.104  31.094  29.995  1.00  0.00     0.010 A 
ATOM     33  C   UNL A   1      38.564  30.962  29.589  1.00  0.00    -0.014 A 
BRANCH  33  34
ATOM     34  C   UNL A   1      40.052  29.714  28.727  1.00  0.00     0.031 A 
ATOM     35  C   UNL A   1      39.613  29.565  30.573  1.00  0.00     0.074 A 
ATOM     36  C   UNL A   1      41.241  28.941  27.592  1.00  0.00     0.049 A 
ATOM     37  N   UNL A   1      39.926  30.553  31.411  1.00  0.00    -0.248 NA
ATOM     38  C   UNL A   1      38.754  28.657  31.535  1.00  0.00     0.031 C 
ATOM     39  C   UNL A   1      42.175  28.820  25.867  1.00  0.00     0.029 A 
ATOM     40  N   UNL A   1      42.442  27.508  27.353  1.00  0.00    -0.354 N 
ATOM     41  C   UNL A   1      40.482  29.954  32.468  1.00  0.00     0.074 A 
ATOM     42  C   UNL A   1      39.549  28.795  32.646  1.00  0.00     0.031 C 
ATOM     43  C   UNL A   1      43.083  27.692  25.201  1.00  0.00     0.029 A 
ATOM     44  C   UNL A   1      43.286  26.557  26.065  1.00  0.00     0.049 A 
ATOM     45  H   UNL A   1      42.700  27.154  28.235  1.00  0.00     0.167 HD
ATOM     46  C   UNL A   1      41.749  30.168  32.016  1.00  0.00     0.031 A 
ATOM     47  C   UNL A   1      44.514  25.425  25.843  1.00  0.00     0.031 A 
ATOM     48  C   UNL A   1      42.060  29.011  31.233  1.00  0.00     0.049 A 
ATOM     49  C   UNL A   1      44.788  25.075  27.228  1.00  0.00     0.074 A 
ATOM     50  C   UNL A   1      41.370  27.833  30.902  1.00  0.00     0.029 A 
ATOM     51  N   UNL A   1      42.892  29.218  30.203  1.00  0.00    -0.354 N 
ATOM     52  N   UNL A   1      45.429  25.909  27.970  1.00  0.00    -0.248 NA
ATOM     53  C   UNL A   1      43.604  24.334  27.622  1.00  0.00     0.031 C 
ATOM     54  C   UNL A   1      41.964  27.286  29.851  1.00  0.00     0.029 A 
ATOM     55  C   UNL A   1      43.132  27.988  29.713  1.00  0.00     0.049 A 
ATOM     56  H   UNL A   1      43.247  30.077  29.877  1.00  0.00     0.167 HD
ATOM     57  C   UNL A   1      44.409  26.414  28.704  1.00  0.00     0.074 A 
ATOM     58  C   UNL A   1      43.244  25.265  28.512  1.00  0.00     0.031 C 
ATOM     59  C   UNL A   1      44.286  27.798  28.937  1.00  0.00     0.031 A 
BRANCH  46  60
ATOM     60  C   UNL A   1      41.862  31.787  31.430  1.00  0.00    -0.014 A 
ATOM     61  C   UNL A   1      42.713  31.851  30.332  1.00  0.00     0.010 A 
ATOM     62  C   UNL A   1      41.605  33.089  32.053  1.00  0.00     0.010 A 
ATOM     63  C   UNL A   1      43.084  33.060  29.728  1.00  0.00     0.020 A 
ATOM     64  C   UNL A   1      41.955  34.325  31.432  1.00  0.00     0.020 A 
ATOM     65  C   UNL A   1      42.613  34.280  30.212  1.00  0.00     0.054 A 
BRANCH  65  66
ATOM     66  S   UNL A   1      42.704  35.723  29.103  1.00  0.00     0.124 S 
ATOM     67  O   UNL A   1      43.528  35.234  28.000  1.00  0.00    -0.237 OA
ATOM     68  O   UNL A   1      41.296  35.932  28.777  1.00  0.00    -0.237 OA
ATOM     69  O   UNL A   1      43.323  36.763  29.920  1.00  0.00    -0.744 OA
ENDBRANCH  65  66
ENDBRANCH  46  60
BRANCH  47  70
ATOM     70  C   UNL A   1      45.076  23.838  25.015  1.00  0.00    -0.014 A 
ATOM     71  C   UNL A   1      46.326  22.899  24.929  1.00  0.00     0.010 A 
ATOM     72  C   UNL A   1      43.998  23.037  24.655  1.00  0.00     0.010 A 
ATOM     73  C   UNL A   1      46.313  21.396  24.581  1.00  0.00     0.020 A 
ATOM     74  C   UNL A   1      43.977  21.586  24.411  1.00  0.00     0.020 A 
ATOM     75  C   UNL A   1      45.096  20.751  24.407  1.00  0.00     0.054 A 
BRANCH  75  76
ATOM     76  S   UNL A   1      44.889  18.880  24.334  1.00  0.00     0.124 S 
ATOM     77  O   UNL A   1      45.001  18.568  22.912  1.00  0.00    -0.237 OA
ATOM     78  O   UNL A   1      45.984  18.383  25.165  1.00  0.00    -0.237 OA
ATOM     79  O   UNL A   1      43.558  18.659  24.901  1.00  0.00    -0.744 OA
ENDBRANCH  75  76
ENDBRANCH  47  70
BRANCH  59  80
ATOM     80  C   UNL A   1      44.985  29.209  28.192  1.00  0.00    -0.014 A 
ATOM     81  C   UNL A   1      45.048  29.826  26.843  1.00  0.00     0.010 A 
ATOM     82  C   UNL A   1      45.554  30.049  29.113  1.00  0.00     0.010 A 
ATOM     83  C   UNL A   1      46.024  30.709  26.370  1.00  0.00     0.020 A 
ATOM     84  C   UNL A   1      46.402  31.094  28.700  1.00  0.00     0.020 A 
ATOM     85  C   UNL A   1      46.686  31.376  27.351  1.00  0.00     0.054 A 
BRANCH  85  86
ATOM     86  S   UNL A   1      47.798  32.698  26.873  1.00  0.00     0.124 S 
ATOM     87  O   UNL A   1      48.979  31.961  26.426  1.00  0.00    -0.237 OA
ATOM     88  O   UNL A   1      47.060  33.381  25.814  1.00  0.00    -0.237 OA
ATOM     89  O   UNL A   1      47.954  33.433  28.124  1.00  0.00    -0.744 OA
ENDBRANCH  85  86
ENDBRANCH  59  80
ENDBRANCH  33  34
ENDBRANCH  26  28
ENDBRANCH  25  26
ENDBRANCH  24  25
ENDBRANCH   1  24
TORSDOF 18
ENDMDL
MODEL 3
REMARK VINA RESULT:     -13.3      3.993      5.377
REMARK SMILES Cc1cc(C(=O)OCCOCCOC(=O)c2ccc(-c3c4nc(c(-c5ccc(S(=O)(=O)[O-])cc5)c5ccc([nH]5)c(-c5ccc(S(=O)(=O)[O-])cc5)c5nc(c(-c6ccc(S(=O)(=O)[O-])cc6)c6ccc3[nH]6)C=C5)C=C4)cc2)c(C)n1[C@@H]1C[N@H+]2CC[C@@H]1CC2
REMARK SMILES IDX 11 1 10 2 9 3 8 4 7 5 5 6 6 7 4 8 1 9 2 10 3 11 78 12 76 13
REMARK SMILES IDX 77 14 79 15 80 16 84 17 81 18 85 19 83 20 86 21 82 22 12 24
REMARK SMILES IDX 13 25 14 26 15 27 16 28 17 29 75 30 18 31 74 32 19 33 20 34
REMARK SMILES IDX 21 35 68 36 22 37 73 38 67 39 69 40 23 41 72 42 66 43 65 44
REMARK SMILES IDX 24 46 54 47 35 48 53 49 36 50 39 51 52 52 70 53 37 54 38 55
REMARK SMILES IDX 51 57 71 58 40 59 25 60 26 61 34 62 27 63 33 64 28 65 29 66
REMARK SMILES IDX 30 67 31 68 32 69 55 70 56 71 64 72 57 73 63 74 58 75 59 76
REMARK SMILES IDX 60 77 61 78 62 79 41 80 42 81 50 82 43 83 49 84 44 85 45 86
REMARK SMILES IDX 46 87 47 88 48 89
REMARK H PARENT 81 23 69 45 39 56
REMARK Flexibility Score: inf
ROOT
ATOM      1  C   UNL A   1      40.825  19.513  26.118  1.00  0.00     0.202 C 
ENDROOT
BRANCH   1   2
ATOM      2  O   UNL A   1      40.348  20.561  26.942  1.00  0.00    -0.374 OA
BRANCH   2   3
ATOM      3  C   UNL A   1      39.948  21.657  26.138  1.00  0.00     0.202 C 
BRANCH   3   4
ATOM      4  C   UNL A   1      38.480  22.138  26.066  1.00  0.00     0.261 C 
BRANCH   4   5
ATOM      5  O   UNL A   1      37.812  22.047  24.779  1.00  0.00    -0.460 OA
BRANCH   5   6
ATOM      6  C   UNL A   1      36.560  21.469  24.780  1.00  0.00     0.340 C 
ATOM      7  O   UNL A   1      36.326  20.357  25.235  1.00  0.00    -0.246 OA
BRANCH   6   8
ATOM      8  C   UNL A   1      35.494  22.431  24.461  1.00  0.00     0.081 A 
ATOM      9  C   UNL A   1      33.230  23.741  22.004  1.00  0.00     0.064 C 
ATOM     10  C   UNL A   1      33.973  23.503  23.250  1.00  0.00     0.016 A 
ATOM     11  C   UNL A   1      35.231  22.967  23.198  1.00  0.00     0.038 A 
ATOM     12  N   UNL A   1      33.603  23.657  24.585  1.00  0.00    -0.339 N 
ATOM     13  C   UNL A   1      34.601  23.049  25.352  1.00  0.00     0.030 A 
ATOM     14  C   UNL A   1      34.635  23.025  26.852  1.00  0.00     0.065 C 
BRANCH  12  15
ATOM     15  C   UNL A   1      32.347  24.201  25.138  1.00  0.00     0.145 C 
ATOM     16  C   UNL A   1      31.141  23.980  24.204  1.00  0.00     0.288 C 
ATOM     17  C   UNL A   1      32.404  25.684  25.586  1.00  0.00     0.029 C 
ATOM     18  N   UNL A   1      30.428  25.254  23.914  1.00  0.00    -0.333 N 
ATOM     19  C   UNL A   1      31.052  26.111  26.171  1.00  0.00     0.067 C 
ATOM     20  C   UNL A   1      32.555  26.580  24.366  1.00  0.00     0.067 C 
ATOM     21  C   UNL A   1      29.926  25.847  25.158  1.00  0.00     0.262 C 
ATOM     22  C   UNL A   1      31.377  26.240  23.351  1.00  0.00     0.262 C 
ATOM     23  H   UNL A   1      29.669  25.044  23.266  1.00  0.00     0.348 HD
ENDBRANCH  12  15
ENDBRANCH   6   8
ENDBRANCH   5   6
ENDBRANCH   4   5
ENDBRANCH   3   4
ENDBRANCH   2   3
ENDBRANCH   1   2
BRANCH   1  24
ATOM     24  C   UNL A   1      42.339  19.182  25.863  1.00  0.00     0.261 C 
BRANCH  24  25
ATOM     25  O   UNL A   1      43.329  20.088  24.963  1.00  0.00    -0.460 OA
BRANCH  25  26
ATOM     26  C   UNL A   1      44.237  21.148  25.347  1.00  0.00     0.338 C 
ATOM     27  O   UNL A   1      45.271  21.246  24.684  1.00  0.00    -0.246 OA
BRANCH  26  28
ATOM     28  C   UNL A   1      43.816  22.050  26.863  1.00  0.00     0.060 A 
ATOM     29  C   UNL A   1      43.061  22.066  28.041  1.00  0.00     0.016 A 
ATOM     30  C   UNL A   1      43.917  23.447  26.809  1.00  0.00     0.016 A 
ATOM     31  C   UNL A   1      42.632  23.586  28.934  1.00  0.00     0.010 A 
ATOM     32  C   UNL A   1      43.369  24.931  27.676  1.00  0.00     0.010 A 
ATOM     33  C   UNL A   1      42.722  25.401  28.969  1.00  0.00    -0.014 A 
BRANCH  33  34
ATOM     34  C   UNL A   1      42.145  27.070  30.152  1.00  0.00     0.031 A 
ATOM     35  C   UNL A   1      41.036  26.460  28.730  1.00  0.00     0.074 A 
ATOM     36  C   UNL A   1      42.111  28.430  31.356  1.00  0.00     0.049 A 
ATOM     37  N   UNL A   1      41.439  26.601  27.467  1.00  0.00    -0.248 NA
ATOM     38  C   UNL A   1      39.742  25.589  28.505  1.00  0.00     0.031 C 
ATOM     39  C   UNL A   1      42.936  29.541  32.751  1.00  0.00     0.029 A 
ATOM     40  N   UNL A   1      41.043  29.767  32.146  1.00  0.00    -0.354 N 
ATOM     41  C   UNL A   1      40.383  27.096  26.815  1.00  0.00     0.074 A 
ATOM     42  C   UNL A   1      39.287  26.251  27.392  1.00  0.00     0.031 C 
ATOM     43  C   UNL A   1      42.347  30.605  33.781  1.00  0.00     0.029 A 
ATOM     44  C   UNL A   1      40.931  30.815  33.618  1.00  0.00     0.049 A 
ATOM     45  H   UNL A   1      40.281  29.963  31.553  1.00  0.00     0.167 HD
ATOM     46  C   UNL A   1      40.827  28.379  26.919  1.00  0.00     0.031 A 
ATOM     47  C   UNL A   1      40.110  32.151  34.233  1.00  0.00     0.031 A 
ATOM     48  C   UNL A   1      40.264  28.866  28.141  1.00  0.00     0.049 A 
ATOM     49  C   UNL A   1      39.086  32.312  33.212  1.00  0.00     0.074 A 
ATOM     50  C   UNL A   1      39.425  28.316  29.124  1.00  0.00     0.029 A 
ATOM     51  N   UNL A   1      40.999  29.778  28.793  1.00  0.00    -0.354 N 
ATOM     52  N   UNL A   1      39.416  32.800  32.068  1.00  0.00    -0.248 NA
ATOM     53  C   UNL A   1      38.227  31.161  33.422  1.00  0.00     0.031 C 
ATOM     54  C   UNL A   1      39.526  29.058  30.218  1.00  0.00     0.029 A 
ATOM     55  C   UNL A   1      40.218  30.170  29.816  1.00  0.00     0.049 A 
ATOM     56  H   UNL A   1      41.907  30.089  28.573  1.00  0.00     0.167 HD
ATOM     57  C   UNL A   1      39.438  31.672  31.319  1.00  0.00     0.074 A 
ATOM     58  C   UNL A   1      38.542  30.635  32.232  1.00  0.00     0.031 C 
ATOM     59  C   UNL A   1      40.488  31.409  30.417  1.00  0.00     0.031 A 
BRANCH  46  60
ATOM     60  C   UNL A   1      42.514  28.413  26.554  1.00  0.00    -0.014 A 
ATOM     61  C   UNL A   1      42.793  27.601  25.461  1.00  0.00     0.010 A 
ATOM     62  C   UNL A   1      43.695  28.755  27.352  1.00  0.00     0.010 A 
ATOM     63  C   UNL A   1      44.098  27.346  25.019  1.00  0.00     0.020 A 
ATOM     64  C   UNL A   1      45.028  28.523  26.897  1.00  0.00     0.020 A 
ATOM     65  C   UNL A   1      45.200  27.898  25.670  1.00  0.00     0.054 A 
BRANCH  65  66
ATOM     66  S   UNL A   1      46.780  27.955  24.765  1.00  0.00     0.124 S 
ATOM     67  O   UNL A   1      47.763  28.100  25.836  1.00  0.00    -0.237 OA
ATOM     68  O   UNL A   1      46.782  26.658  24.095  1.00  0.00    -0.237 OA
ATOM     69  O   UNL A   1      46.648  29.117  23.890  1.00  0.00    -0.744 OA
ENDBRANCH  65  66
ENDBRANCH  46  60
BRANCH  47  70
ATOM     70  C   UNL A   1      39.210  32.927  35.685  1.00  0.00    -0.014 A 
ATOM     71  C   UNL A   1      37.756  33.217  36.188  1.00  0.00     0.010 A 
ATOM     72  C   UNL A   1      39.995  32.935  36.832  1.00  0.00     0.010 A 
ATOM     73  C   UNL A   1      37.319  33.398  37.656  1.00  0.00     0.020 A 
ATOM     74  C   UNL A   1      39.566  33.020  38.236  1.00  0.00     0.020 A 
ATOM     75  C   UNL A   1      38.251  33.209  38.668  1.00  0.00     0.054 A 
BRANCH  75  76
ATOM     76  S   UNL A   1      37.814  33.042  40.494  1.00  0.00     0.124 S 
ATOM     77  O   UNL A   1      36.355  33.095  40.514  1.00  0.00    -0.237 OA
ATOM     78  O   UNL A   1      38.392  31.753  40.866  1.00  0.00    -0.237 OA
ATOM     79  O   UNL A   1      38.473  34.195  41.111  1.00  0.00    -0.744 OA
ENDBRANCH  75  76
ENDBRANCH  47  70
BRANCH  59  80
ATOM     80  C   UNL A   1      42.093  32.056  30.218  1.00  0.00    -0.014 A 
ATOM     81  C   UNL A   1      43.241  31.891  29.291  1.00  0.00     0.010 A 
ATOM     82  C   UNL A   1      42.348  33.079  31.094  1.00  0.00     0.010 A 
ATOM     83  C   UNL A   1      44.585  32.166  29.564  1.00  0.00     0.020 A 
ATOM     84  C   UNL A   1      43.661  33.549  31.282  1.00  0.00     0.020 A 
ATOM     85  C   UNL A   1      44.772  33.051  30.577  1.00  0.00     0.054 A 
BRANCH  85  86
ATOM     86  S   UNL A   1      46.432  33.658  30.874  1.00  0.00     0.124 S 
ATOM     87  O   UNL A   1      46.838  32.884  32.046  1.00  0.00    -0.237 OA
ATOM     88  O   UNL A   1      47.132  33.317  29.639  1.00  0.00    -0.237 OA
ATOM     89  O   UNL A   1      46.200  35.079  31.109  1.00  0.00    -0.744 OA
ENDBRANCH  85  86
ENDBRANCH  59  80
ENDBRANCH  33  34
ENDBRANCH  26  28
ENDBRANCH  25  26
ENDBRANCH  24  25
ENDBRANCH   1  24
TORSDOF 18
ENDMDL
