MODEL 1
REMARK VINA RESULT:     -10.2      0.000      0.000
REMARK SMILES CC[NH2+][C@@]1(C(=O)OCCOCCOC(=O)c2ccc(-c3c4nc(c(-c5ccc(S(=O)(=O)[O-])cc5)c5ccc([nH]5)c(-c5ccc(S(=O)(=O)[O-])cc5)c5nc(c(-c6ccc(S(=O)(=O)[O-])cc6)c6ccc3[nH]6)C=C5)C=C4)cc2)CC[C@H]([NH+]2CCC(C(C)(C)C)CC2)C1
REMARK SMILES IDX 11 1 10 2 9 3 8 4 7 5 5 6 6 7 4 8 76 9 89 10 77 11 78 12
REMARK SMILES IDX 3 13 2 16 1 17 79 18 80 19 88 20 81 22 87 23 82 24 83 25
REMARK SMILES IDX 84 26 85 27 86 28 12 29 13 30 14 31 15 32 16 33 17 34 75 35
REMARK SMILES IDX 18 36 74 37 19 38 20 39 21 40 68 41 22 42 73 43 67 44 69 45
REMARK SMILES IDX 23 46 72 47 66 48 65 49 24 51 54 52 35 53 53 54 36 55 39 56
REMARK SMILES IDX 52 57 70 58 37 59 38 60 51 62 71 63 40 64 25 65 26 66 34 67
REMARK SMILES IDX 27 68 33 69 28 70 29 71 30 72 31 73 32 74 55 75 56 76 64 77
REMARK SMILES IDX 57 78 63 79 58 80 59 81 60 82 61 83 62 84 41 85 42 86 50 87
REMARK SMILES IDX 43 88 49 89 44 90 45 91 46 92 47 93 48 94
REMARK H PARENT 3 14 3 15 79 21 69 50 39 61
REMARK Flexibility Score: inf
ROOT
ATOM      1  C   UNL A   1      38.570  22.490  25.939  1.00  0.00     0.202 C 
ENDROOT
BRANCH   1   2
ATOM      2  O   UNL A   1      37.347  21.778  25.761  1.00  0.00    -0.374 OA
BRANCH   2   3
ATOM      3  C   UNL A   1      36.218  22.543  25.331  1.00  0.00     0.202 C 
BRANCH   3   4
ATOM      4  C   UNL A   1      35.071  22.626  26.335  1.00  0.00     0.261 C 
BRANCH   4   5
ATOM      5  O   UNL A   1      34.138  23.632  25.892  1.00  0.00    -0.459 OA
BRANCH   5   6
ATOM      6  C   UNL A   1      32.862  23.238  25.683  1.00  0.00     0.368 C 
ATOM      7  O   UNL A   1      32.101  22.997  26.615  1.00  0.00    -0.245 OA
BRANCH   6   8
ATOM      8  C   UNL A   1      32.465  23.159  24.145  1.00  0.00     0.200 C 
ATOM      9  C   UNL A   1      33.125  24.268  23.318  1.00  0.00     0.087 C 
ATOM     10  C   UNL A   1      30.951  23.335  23.821  1.00  0.00     0.146 C 
ATOM     11  C   UNL A   1      32.085  25.341  23.040  1.00  0.00     0.072 C 
ATOM     12  C   UNL A   1      30.699  24.789  23.344  1.00  0.00     0.191 C 
BRANCH   8  13
ATOM     13  N   UNL A   1      32.918  21.808  23.657  1.00  0.00    -0.332 N 
ATOM     14  H   UNL A   1      32.625  21.704  22.685  1.00  0.00     0.347 HD
ATOM     15  H   UNL A   1      33.931  21.779  23.769  1.00  0.00     0.347 HD
BRANCH  13  16
ATOM     16  C   UNL A   1      32.372  20.676  24.428  1.00  0.00     0.257 C 
ATOM     17  C   UNL A   1      33.463  19.653  24.695  1.00  0.00     0.071 C 
ENDBRANCH  13  16
ENDBRANCH   8  13
BRANCH  12  18
ATOM     18  N   UNL A   1      29.757  25.638  24.100  1.00  0.00    -0.332 N 
ATOM     19  C   UNL A   1      29.618  27.035  23.663  1.00  0.00     0.262 C 
ATOM     20  C   UNL A   1      29.820  25.631  25.551  1.00  0.00     0.262 C 
ATOM     21  H   UNL A   1      28.925  25.113  23.830  1.00  0.00     0.348 HD
ATOM     22  C   UNL A   1      30.686  28.025  24.174  1.00  0.00     0.066 C 
ATOM     23  C   UNL A   1      31.047  26.342  26.090  1.00  0.00     0.066 C 
ATOM     24  C   UNL A   1      31.202  27.795  25.622  1.00  0.00     0.005 C 
BRANCH  24  25
ATOM     25  C   UNL A   1      32.666  28.343  25.913  1.00  0.00    -0.035 C 
ATOM     26  C   UNL A   1      32.697  29.043  27.282  1.00  0.00     0.011 C 
ATOM     27  C   UNL A   1      33.691  27.182  25.941  1.00  0.00     0.011 C 
ATOM     28  C   UNL A   1      33.193  29.352  24.869  1.00  0.00     0.011 C 
ENDBRANCH  24  25
ENDBRANCH  12  18
ENDBRANCH   6   8
ENDBRANCH   5   6
ENDBRANCH   4   5
ENDBRANCH   3   4
ENDBRANCH   2   3
ENDBRANCH   1   2
BRANCH   1  29
ATOM     29  C   UNL A   1      38.445  23.997  26.210  1.00  0.00     0.261 C 
BRANCH  29  30
ATOM     30  O   UNL A   1      39.323  24.479  27.245  1.00  0.00    -0.460 OA
BRANCH  30  31
ATOM     31  C   UNL A   1      39.969  25.636  26.964  1.00  0.00     0.338 C 
ATOM     32  O   UNL A   1      40.448  25.965  25.887  1.00  0.00    -0.246 OA
BRANCH  31  33
ATOM     33  C   UNL A   1      39.869  26.571  28.105  1.00  0.00     0.060 A 
ATOM     34  C   UNL A   1      40.610  27.758  28.046  1.00  0.00     0.016 A 
ATOM     35  C   UNL A   1      39.108  26.275  29.238  1.00  0.00     0.016 A 
ATOM     36  C   UNL A   1      40.613  28.641  29.127  1.00  0.00     0.010 A 
ATOM     37  C   UNL A   1      39.115  27.163  30.324  1.00  0.00     0.010 A 
ATOM     38  C   UNL A   1      39.886  28.341  30.288  1.00  0.00    -0.014 A 
BRANCH  38  39
ATOM     39  C   UNL A   1      40.005  29.209  31.491  1.00  0.00     0.031 A 
ATOM     40  C   UNL A   1      41.136  28.986  32.462  1.00  0.00     0.074 A 
ATOM     41  C   UNL A   1      39.126  30.206  31.716  1.00  0.00     0.049 A 
ATOM     42  N   UNL A   1      41.392  29.603  33.588  1.00  0.00    -0.248 NA
ATOM     43  C   UNL A   1      42.109  27.937  32.116  1.00  0.00     0.031 C 
ATOM     44  C   UNL A   1      38.024  30.576  30.829  1.00  0.00     0.029 A 
ATOM     45  N   UNL A   1      39.019  31.089  32.764  1.00  0.00    -0.354 N 
ATOM     46  C   UNL A   1      42.544  29.011  34.092  1.00  0.00     0.074 A 
ATOM     47  C   UNL A   1      42.926  27.971  33.160  1.00  0.00     0.031 C 
ATOM     48  C   UNL A   1      37.347  31.599  31.375  1.00  0.00     0.029 A 
ATOM     49  C   UNL A   1      37.937  31.933  32.669  1.00  0.00     0.049 A 
ATOM     50  H   UNL A   1      39.659  31.115  33.513  1.00  0.00     0.167 HD
ATOM     51  C   UNL A   1      43.224  29.307  35.226  1.00  0.00     0.031 A 
ATOM     52  C   UNL A   1      37.458  32.853  33.532  1.00  0.00     0.031 A 
ATOM     53  C   UNL A   1      42.846  30.342  36.153  1.00  0.00     0.049 A 
ATOM     54  C   UNL A   1      38.179  33.092  34.835  1.00  0.00     0.074 A 
ATOM     55  C   UNL A   1      43.502  30.738  37.308  1.00  0.00     0.029 A 
ATOM     56  N   UNL A   1      41.714  31.134  36.049  1.00  0.00    -0.354 N 
ATOM     57  N   UNL A   1      39.295  32.558  35.270  1.00  0.00    -0.248 NA
ATOM     58  C   UNL A   1      37.578  34.064  35.761  1.00  0.00     0.031 C 
ATOM     59  C   UNL A   1      42.727  31.714  37.940  1.00  0.00     0.029 A 
ATOM     60  C   UNL A   1      41.626  31.979  37.144  1.00  0.00     0.049 A 
ATOM     61  H   UNL A   1      41.068  31.100  35.306  1.00  0.00     0.167 HD
ATOM     62  C   UNL A   1      39.542  33.148  36.506  1.00  0.00     0.074 A 
ATOM     63  C   UNL A   1      38.473  34.097  36.738  1.00  0.00     0.031 C 
ATOM     64  C   UNL A   1      40.560  32.921  37.372  1.00  0.00     0.031 A 
BRANCH  51  65
ATOM     65  C   UNL A   1      44.438  28.482  35.560  1.00  0.00    -0.014 A 
ATOM     66  C   UNL A   1      44.336  27.293  36.305  1.00  0.00     0.010 A 
ATOM     67  C   UNL A   1      45.690  28.856  35.037  1.00  0.00     0.010 A 
ATOM     68  C   UNL A   1      45.466  26.503  36.532  1.00  0.00     0.020 A 
ATOM     69  C   UNL A   1      46.817  28.055  35.240  1.00  0.00     0.020 A 
ATOM     70  C   UNL A   1      46.699  26.886  35.993  1.00  0.00     0.054 A 
BRANCH  70  71
ATOM     71  S   UNL A   1      48.135  25.808  36.253  1.00  0.00     0.124 S 
ATOM     72  O   UNL A   1      49.210  26.587  35.644  1.00  0.00    -0.237 OA
ATOM     73  O   UNL A   1      48.188  25.695  37.708  1.00  0.00    -0.237 OA
ATOM     74  O   UNL A   1      47.781  24.579  35.548  1.00  0.00    -0.744 OA
ENDBRANCH  70  71
ENDBRANCH  51  65
BRANCH  52  75
ATOM     75  C   UNL A   1      36.203  33.597  33.223  1.00  0.00    -0.014 A 
ATOM     76  C   UNL A   1      34.946  32.983  33.372  1.00  0.00     0.010 A 
ATOM     77  C   UNL A   1      36.263  34.913  32.728  1.00  0.00     0.010 A 
ATOM     78  C   UNL A   1      33.778  33.659  33.003  1.00  0.00     0.020 A 
ATOM     79  C   UNL A   1      35.097  35.604  32.391  1.00  0.00     0.020 A 
ATOM     80  C   UNL A   1      33.862  34.966  32.513  1.00  0.00     0.054 A 
BRANCH  80  81
ATOM     81  S   UNL A   1      32.332  35.829  32.058  1.00  0.00     0.124 S 
ATOM     82  O   UNL A   1      32.321  35.684  30.606  1.00  0.00    -0.237 OA
ATOM     83  O   UNL A   1      31.315  35.067  32.780  1.00  0.00    -0.237 OA
ATOM     84  O   UNL A   1      32.549  37.188  32.552  1.00  0.00    -0.744 OA
ENDBRANCH  80  81
ENDBRANCH  52  75
BRANCH  64  85
ATOM     85  C   UNL A   1      40.587  33.724  38.648  1.00  0.00    -0.014 A 
ATOM     86  C   UNL A   1      41.221  34.978  38.705  1.00  0.00     0.010 A 
ATOM     87  C   UNL A   1      39.917  33.245  39.789  1.00  0.00     0.010 A 
ATOM     88  C   UNL A   1      41.209  35.724  39.887  1.00  0.00     0.020 A 
ATOM     89  C   UNL A   1      39.875  34.003  40.963  1.00  0.00     0.020 A 
ATOM     90  C   UNL A   1      40.533  35.234  41.008  1.00  0.00     0.054 A 
BRANCH  90  91
ATOM     91  S   UNL A   1      40.490  36.247  42.512  1.00  0.00     0.124 S 
ATOM     92  O   UNL A   1      41.877  36.694  42.619  1.00  0.00    -0.237 OA
ATOM     93  O   UNL A   1      39.520  37.285  42.170  1.00  0.00    -0.237 OA
ATOM     94  O   UNL A   1      40.056  35.314  43.549  1.00  0.00    -0.744 OA
ENDBRANCH  90  91
ENDBRANCH  64  85
ENDBRANCH  38  39
ENDBRANCH  31  33
ENDBRANCH  30  31
ENDBRANCH  29  30
ENDBRANCH   1  29
TORSDOF 21
ENDMDL
MODEL 2
REMARK VINA RESULT:      -9.9      6.548     12.218
REMARK SMILES CC[NH2+][C@@]1(C(=O)OCCOCCOC(=O)c2ccc(-c3c4nc(c(-c5ccc(S(=O)(=O)[O-])cc5)c5ccc([nH]5)c(-c5ccc(S(=O)(=O)[O-])cc5)c5nc(c(-c6ccc(S(=O)(=O)[O-])cc6)c6ccc3[nH]6)C=C5)C=C4)cc2)CC[C@H]([NH+]2CCC(C(C)(C)C)CC2)C1
REMARK SMILES IDX 11 1 10 2 9 3 8 4 7 5 5 6 6 7 4 8 76 9 89 10 77 11 78 12
REMARK SMILES IDX 3 13 2 16 1 17 79 18 80 19 88 20 81 22 87 23 82 24 83 25
REMARK SMILES IDX 84 26 85 27 86 28 12 29 13 30 14 31 15 32 16 33 17 34 75 35
REMARK SMILES IDX 18 36 74 37 19 38 20 39 21 40 68 41 22 42 73 43 67 44 69 45
REMARK SMILES IDX 23 46 72 47 66 48 65 49 24 51 54 52 35 53 53 54 36 55 39 56
REMARK SMILES IDX 52 57 70 58 37 59 38 60 51 62 71 63 40 64 25 65 26 66 34 67
REMARK SMILES IDX 27 68 33 69 28 70 29 71 30 72 31 73 32 74 55 75 56 76 64 77
REMARK SMILES IDX 57 78 63 79 58 80 59 81 60 82 61 83 62 84 41 85 42 86 50 87
REMARK SMILES IDX 43 88 49 89 44 90 45 91 46 92 47 93 48 94
REMARK H PARENT 3 14 3 15 79 21 69 50 39 61
REMARK Flexibility Score: inf
ROOT
ATOM      1  C   UNL A   1      34.417  31.985  27.691  1.00  0.00     0.202 C 
ENDROOT
BRANCH   1   2
ATOM      2  O   UNL A   1      33.181  31.282  27.571  1.00  0.00    -0.374 OA
BRANCH   2   3
ATOM      3  C   UNL A   1      33.215  30.050  26.846  1.00  0.00     0.202 C 
BRANCH   3   4
ATOM      4  C   UNL A   1      32.216  28.994  27.315  1.00  0.00     0.261 C 
BRANCH   4   5
ATOM      5  O   UNL A   1      32.647  27.704  26.838  1.00  0.00    -0.459 OA
BRANCH   5   6
ATOM      6  C   UNL A   1      31.694  26.884  26.339  1.00  0.00     0.368 C 
ATOM      7  O   UNL A   1      30.668  26.632  26.964  1.00  0.00    -0.245 OA
BRANCH   6   8
ATOM      8  C   UNL A   1      32.028  26.333  24.885  1.00  0.00     0.200 C 
ATOM      9  C   UNL A   1      30.805  25.701  24.209  1.00  0.00     0.087 C 
ATOM     10  C   UNL A   1      33.092  25.197  24.813  1.00  0.00     0.146 C 
ATOM     11  C   UNL A   1      30.939  24.189  24.294  1.00  0.00     0.072 C 
ATOM     12  C   UNL A   1      32.370  23.832  24.671  1.00  0.00     0.191 C 
BRANCH   8  13
ATOM     13  N   UNL A   1      32.513  27.512  24.084  1.00  0.00    -0.332 N 
ATOM     14  H   UNL A   1      31.699  27.999  23.706  1.00  0.00     0.347 HD
ATOM     15  H   UNL A   1      33.061  28.093  24.718  1.00  0.00     0.347 HD
BRANCH  13  16
ATOM     16  C   UNL A   1      33.400  27.153  22.962  1.00  0.00     0.257 C 
ATOM     17  C   UNL A   1      34.011  28.406  22.359  1.00  0.00     0.071 C 
ENDBRANCH  13  16
ENDBRANCH   8  13
BRANCH  12  18
ATOM     18  N   UNL A   1      32.585  22.796  25.701  1.00  0.00    -0.332 N 
ATOM     19  C   UNL A   1      33.470  23.143  26.823  1.00  0.00     0.262 C 
ATOM     20  C   UNL A   1      32.916  21.447  25.277  1.00  0.00     0.262 C 
ATOM     21  H   UNL A   1      31.617  22.785  26.023  1.00  0.00     0.348 HD
ATOM     22  C   UNL A   1      34.987  22.999  26.574  1.00  0.00     0.066 C 
ATOM     23  C   UNL A   1      34.325  21.331  24.726  1.00  0.00     0.066 C 
ATOM     24  C   UNL A   1      35.427  21.804  25.682  1.00  0.00     0.005 C 
BRANCH  24  25
ATOM     25  C   UNL A   1      36.808  22.003  24.919  1.00  0.00    -0.035 C 
ATOM     26  C   UNL A   1      36.554  22.649  23.547  1.00  0.00     0.011 C 
ATOM     27  C   UNL A   1      37.751  22.932  25.724  1.00  0.00     0.011 C 
ATOM     28  C   UNL A   1      37.599  20.699  24.674  1.00  0.00     0.011 C 
ENDBRANCH  24  25
ENDBRANCH  12  18
ENDBRANCH   6   8
ENDBRANCH   5   6
ENDBRANCH   4   5
ENDBRANCH   3   4
ENDBRANCH   2   3
ENDBRANCH   1   2
BRANCH   1  29
ATOM     29  C   UNL A   1      34.949  32.184  29.118  1.00  0.00     0.261 C 
BRANCH  29  30
ATOM     30  O   UNL A   1      35.632  31.033  29.651  1.00  0.00    -0.460 OA
BRANCH  30  31
ATOM     31  C   UNL A   1      36.646  31.306  30.509  1.00  0.00     0.338 C 
ATOM     32  O   UNL A   1      36.557  31.865  31.594  1.00  0.00    -0.246 OA
BRANCH  31  33
ATOM     33  C   UNL A   1      37.895  30.667  30.047  1.00  0.00     0.060 A 
ATOM     34  C   UNL A   1      38.888  30.406  31.000  1.00  0.00     0.016 A 
ATOM     35  C   UNL A   1      38.122  30.375  28.701  1.00  0.00     0.016 A 
ATOM     36  C   UNL A   1      40.118  29.874  30.608  1.00  0.00     0.010 A 
ATOM     37  C   UNL A   1      39.360  29.843  28.310  1.00  0.00     0.010 A 
ATOM     38  C   UNL A   1      40.377  29.611  29.256  1.00  0.00    -0.014 A 
BRANCH  38  39
ATOM     39  C   UNL A   1      41.735  29.181  28.823  1.00  0.00     0.031 A 
ATOM     40  C   UNL A   1      42.847  30.195  28.744  1.00  0.00     0.074 A 
ATOM     41  C   UNL A   1      41.990  27.893  28.520  1.00  0.00     0.049 A 
ATOM     42  N   UNL A   1      44.085  30.034  28.351  1.00  0.00    -0.248 NA
ATOM     43  C   UNL A   1      42.524  31.567  29.169  1.00  0.00     0.031 C 
ATOM     44  C   UNL A   1      41.028  26.797  28.614  1.00  0.00     0.029 A 
ATOM     45  N   UNL A   1      43.138  27.289  28.065  1.00  0.00    -0.354 N 
ATOM     46  C   UNL A   1      44.686  31.282  28.467  1.00  0.00     0.074 A 
ATOM     47  C   UNL A   1      43.671  32.196  28.947  1.00  0.00     0.031 C 
ATOM     48  C   UNL A   1      41.621  25.658  28.219  1.00  0.00     0.029 A 
ATOM     49  C   UNL A   1      42.991  25.947  27.802  1.00  0.00     0.049 A 
ATOM     50  H   UNL A   1      43.988  27.772  27.939  1.00  0.00     0.167 HD
ATOM     51  C   UNL A   1      45.967  31.635  28.201  1.00  0.00     0.031 A 
ATOM     52  C   UNL A   1      43.849  25.054  27.265  1.00  0.00     0.031 A 
ATOM     53  C   UNL A   1      46.979  30.728  27.725  1.00  0.00     0.049 A 
ATOM     54  C   UNL A   1      45.238  25.499  26.884  1.00  0.00     0.074 A 
ATOM     55  C   UNL A   1      48.314  30.993  27.470  1.00  0.00     0.029 A 
ATOM     56  N   UNL A   1      46.773  29.393  27.419  1.00  0.00    -0.354 N 
ATOM     57  N   UNL A   1      45.803  26.670  27.050  1.00  0.00    -0.248 NA
ATOM     58  C   UNL A   1      46.109  24.497  26.250  1.00  0.00     0.031 C 
ATOM     59  C   UNL A   1      48.896  29.840  26.936  1.00  0.00     0.029 A 
ATOM     60  C   UNL A   1      47.944  28.835  26.928  1.00  0.00     0.049 A 
ATOM     61  H   UNL A   1      45.921  28.912  27.534  1.00  0.00     0.167 HD
ATOM     62  C   UNL A   1      47.101  26.538  26.564  1.00  0.00     0.074 A 
ATOM     63  C   UNL A   1      47.245  25.167  26.123  1.00  0.00     0.031 C 
ATOM     64  C   UNL A   1      48.083  27.470  26.488  1.00  0.00     0.031 A 
BRANCH  51  65
ATOM     65  C   UNL A   1      46.356  33.079  28.384  1.00  0.00    -0.014 A 
ATOM     66  C   UNL A   1      46.405  33.969  27.297  1.00  0.00     0.010 A 
ATOM     67  C   UNL A   1      46.585  33.571  29.683  1.00  0.00     0.010 A 
ATOM     68  C   UNL A   1      46.691  35.322  27.504  1.00  0.00     0.020 A 
ATOM     69  C   UNL A   1      46.844  34.927  29.897  1.00  0.00     0.020 A 
ATOM     70  C   UNL A   1      46.902  35.794  28.804  1.00  0.00     0.054 A 
BRANCH  70  71
ATOM     71  S   UNL A   1      47.209  37.565  29.048  1.00  0.00     0.124 S 
ATOM     72  O   UNL A   1      46.131  37.934  29.962  1.00  0.00    -0.237 OA
ATOM     73  O   UNL A   1      48.552  37.579  29.623  1.00  0.00    -0.237 OA
ATOM     74  O   UNL A   1      47.104  38.126  27.704  1.00  0.00    -0.744 OA
ENDBRANCH  70  71
ENDBRANCH  51  65
BRANCH  52  75
ATOM     75  C   UNL A   1      43.414  23.650  27.009  1.00  0.00    -0.014 A 
ATOM     76  C   UNL A   1      42.964  23.255  25.736  1.00  0.00     0.010 A 
ATOM     77  C   UNL A   1      43.404  22.710  28.057  1.00  0.00     0.010 A 
ATOM     78  C   UNL A   1      42.482  21.959  25.524  1.00  0.00     0.020 A 
ATOM     79  C   UNL A   1      42.956  21.404  27.841  1.00  0.00     0.020 A 
ATOM     80  C   UNL A   1      42.480  21.042  26.579  1.00  0.00     0.054 A 
BRANCH  80  81
ATOM     81  S   UNL A   1      41.868  19.361  26.276  1.00  0.00     0.124 S 
ATOM     82  O   UNL A   1      42.613  18.978  25.081  1.00  0.00    -0.237 OA
ATOM     83  O   UNL A   1      42.240  18.665  27.506  1.00  0.00    -0.237 OA
ATOM     84  O   UNL A   1      40.432  19.550  26.086  1.00  0.00    -0.744 OA
ENDBRANCH  80  81
ENDBRANCH  52  75
BRANCH  64  85
ATOM     85  C   UNL A   1      49.413  27.042  25.924  1.00  0.00    -0.014 A 
ATOM     86  C   UNL A   1      49.734  27.258  24.572  1.00  0.00     0.010 A 
ATOM     87  C   UNL A   1      50.381  26.470  26.772  1.00  0.00     0.010 A 
ATOM     88  C   UNL A   1      50.985  26.885  24.073  1.00  0.00     0.020 A 
ATOM     89  C   UNL A   1      51.645  26.126  26.284  1.00  0.00     0.020 A 
ATOM     90  C   UNL A   1      51.935  26.324  24.933  1.00  0.00     0.054 A 
BRANCH  90  91
ATOM     91  S   UNL A   1      53.568  25.898  24.269  1.00  0.00     0.124 S 
ATOM     92  O   UNL A   1      54.424  26.903  24.895  1.00  0.00    -0.237 OA
ATOM     93  O   UNL A   1      53.757  24.529  24.742  1.00  0.00    -0.237 OA
ATOM     94  O   UNL A   1      53.403  26.035  22.824  1.00  0.00    -0.744 OA
ENDBRANCH  90  91
ENDBRANCH  64  85
ENDBRANCH  38  39
ENDBRANCH  31  33
ENDBRANCH  30  31
ENDBRANCH  29  30
ENDBRANCH   1  29
TORSDOF 21
ENDMDL
MODEL 3
REMARK VINA RESULT:      -9.6      2.275      7.825
REMARK SMILES CC[NH2+][C@@]1(C(=O)OCCOCCOC(=O)c2ccc(-c3c4nc(c(-c5ccc(S(=O)(=O)[O-])cc5)c5ccc([nH]5)c(-c5ccc(S(=O)(=O)[O-])cc5)c5nc(c(-c6ccc(S(=O)(=O)[O-])cc6)c6ccc3[nH]6)C=C5)C=C4)cc2)CC[C@H]([NH+]2CCC(C(C)(C)C)CC2)C1
REMARK SMILES IDX 11 1 10 2 9 3 8 4 7 5 5 6 6 7 4 8 76 9 89 10 77 11 78 12
REMARK SMILES IDX 3 13 2 16 1 17 79 18 80 19 88 20 81 22 87 23 82 24 83 25
REMARK SMILES IDX 84 26 85 27 86 28 12 29 13 30 14 31 15 32 16 33 17 34 75 35
REMARK SMILES IDX 18 36 74 37 19 38 20 39 21 40 68 41 22 42 73 43 67 44 69 45
REMARK SMILES IDX 23 46 72 47 66 48 65 49 24 51 54 52 35 53 53 54 36 55 39 56
REMARK SMILES IDX 52 57 70 58 37 59 38 60 51 62 71 63 40 64 25 65 26 66 34 67
REMARK SMILES IDX 27 68 33 69 28 70 29 71 30 72 31 73 32 74 55 75 56 76 64 77
REMARK SMILES IDX 57 78 63 79 58 80 59 81 60 82 61 83 62 84 41 85 42 86 50 87
REMARK SMILES IDX 43 88 49 89 44 90 45 91 46 92 47 93 48 94
REMARK H PARENT 3 14 3 15 79 21 69 50 39 61
REMARK Flexibility Score: inf
ROOT
ATOM      1  C   UNL A   1      33.299  31.867  27.640  1.00  0.00     0.202 C 
ENDROOT
BRANCH   1   2
ATOM      2  O   UNL A   1      32.402  30.982  26.971  1.00  0.00    -0.374 OA
BRANCH   2   3
ATOM      3  C   UNL A   1      32.767  29.599  26.948  1.00  0.00     0.202 C 
BRANCH   3   4
ATOM      4  C   UNL A   1      31.719  28.663  26.349  1.00  0.00     0.261 C 
BRANCH   4   5
ATOM      5  O   UNL A   1      32.393  27.554  25.721  1.00  0.00    -0.459 OA
BRANCH   5   6
ATOM      6  C   UNL A   1      31.730  26.377  25.677  1.00  0.00     0.368 C 
ATOM      7  O   UNL A   1      31.046  25.986  26.619  1.00  0.00    -0.245 OA
BRANCH   6   8
ATOM      8  C   UNL A   1      31.903  25.600  24.300  1.00  0.00     0.200 C 
ATOM      9  C   UNL A   1      30.625  24.861  23.887  1.00  0.00     0.087 C 
ATOM     10  C   UNL A   1      32.980  24.474  24.282  1.00  0.00     0.146 C 
ATOM     11  C   UNL A   1      30.807  23.383  24.194  1.00  0.00     0.072 C 
ATOM     12  C   UNL A   1      32.281  23.100  24.447  1.00  0.00     0.191 C 
BRANCH   8  13
ATOM     13  N   UNL A   1      32.259  26.638  23.269  1.00  0.00    -0.332 N 
ATOM     14  H   UNL A   1      32.485  27.507  23.754  1.00  0.00     0.347 HD
ATOM     15  H   UNL A   1      33.047  26.267  22.738  1.00  0.00     0.347 HD
BRANCH  13  16
ATOM     16  C   UNL A   1      31.185  26.915  22.297  1.00  0.00     0.257 C 
ATOM     17  C   UNL A   1      30.559  28.269  22.585  1.00  0.00     0.071 C 
ENDBRANCH  13  16
ENDBRANCH   8  13
BRANCH  12  18
ATOM     18  N   UNL A   1      32.644  22.245  25.595  1.00  0.00    -0.332 N 
ATOM     19  C   UNL A   1      33.295  22.901  26.738  1.00  0.00     0.262 C 
ATOM     20  C   UNL A   1      33.343  20.997  25.344  1.00  0.00     0.262 C 
ATOM     21  H   UNL A   1      31.682  22.010  25.841  1.00  0.00     0.348 HD
ATOM     22  C   UNL A   1      34.817  23.134  26.622  1.00  0.00     0.066 C 
ATOM     23  C   UNL A   1      34.784  21.205  24.917  1.00  0.00     0.066 C 
ATOM     24  C   UNL A   1      35.630  22.025  25.899  1.00  0.00     0.005 C 
BRANCH  24  25
ATOM     25  C   UNL A   1      36.987  22.510  25.227  1.00  0.00    -0.035 C 
ATOM     26  C   UNL A   1      36.740  22.854  23.749  1.00  0.00     0.011 C 
ATOM     27  C   UNL A   1      37.527  23.778  25.935  1.00  0.00     0.011 C 
ATOM     28  C   UNL A   1      38.132  21.475  25.273  1.00  0.00     0.011 C 
ENDBRANCH  24  25
ENDBRANCH  12  18
ENDBRANCH   6   8
ENDBRANCH   5   6
ENDBRANCH   4   5
ENDBRANCH   3   4
ENDBRANCH   2   3
ENDBRANCH   1   2
BRANCH   1  29
ATOM     29  C   UNL A   1      33.108  33.365  27.360  1.00  0.00     0.261 C 
BRANCH  29  30
ATOM     30  O   UNL A   1      32.583  34.105  28.479  1.00  0.00    -0.460 OA
BRANCH  30  31
ATOM     31  C   UNL A   1      33.435  35.004  29.030  1.00  0.00     0.338 C 
ATOM     32  O   UNL A   1      33.238  36.202  29.184  1.00  0.00    -0.246 OA
BRANCH  31  33
ATOM     33  C   UNL A   1      34.606  34.313  29.610  1.00  0.00     0.060 A 
ATOM     34  C   UNL A   1      34.393  33.486  30.720  1.00  0.00     0.016 A 
ATOM     35  C   UNL A   1      35.898  34.507  29.117  1.00  0.00     0.016 A 
ATOM     36  C   UNL A   1      35.473  32.869  31.355  1.00  0.00     0.010 A 
ATOM     37  C   UNL A   1      36.981  33.888  29.759  1.00  0.00     0.010 A 
ATOM     38  C   UNL A   1      36.780  33.084  30.898  1.00  0.00    -0.014 A 
BRANCH  38  39
ATOM     39  C   UNL A   1      37.939  32.544  31.661  1.00  0.00     0.031 A 
ATOM     40  C   UNL A   1      38.770  31.435  31.068  1.00  0.00     0.074 A 
ATOM     41  C   UNL A   1      38.269  33.047  32.867  1.00  0.00     0.049 A 
ATOM     42  N   UNL A   1      39.790  30.800  31.586  1.00  0.00    -0.248 NA
ATOM     43  C   UNL A   1      38.408  30.988  29.713  1.00  0.00     0.031 C 
ATOM     44  C   UNL A   1      37.595  34.161  33.531  1.00  0.00     0.029 A 
ATOM     45  N   UNL A   1      39.256  32.681  33.752  1.00  0.00    -0.354 N 
ATOM     46  C   UNL A   1      40.185  29.871  30.630  1.00  0.00     0.074 A 
ATOM     47  C   UNL A   1      39.281  30.010  29.509  1.00  0.00     0.031 C 
ATOM     48  C   UNL A   1      38.179  34.380  34.721  1.00  0.00     0.029 A 
ATOM     49  C   UNL A   1      39.240  33.397  34.926  1.00  0.00     0.049 A 
ATOM     50  H   UNL A   1      39.913  31.972  33.563  1.00  0.00     0.167 HD
ATOM     51  C   UNL A   1      41.209  28.985  30.680  1.00  0.00     0.031 A 
ATOM     52  C   UNL A   1      39.975  33.266  36.050  1.00  0.00     0.031 A 
ATOM     53  C   UNL A   1      42.110  28.846  31.794  1.00  0.00     0.049 A 
ATOM     54  C   UNL A   1      41.043  32.202  36.115  1.00  0.00     0.074 A 
ATOM     55  C   UNL A   1      43.202  28.001  31.912  1.00  0.00     0.029 A 
ATOM     56  N   UNL A   1      42.024  29.550  32.984  1.00  0.00    -0.354 N 
ATOM     57  N   UNL A   1      41.434  31.369  35.183  1.00  0.00    -0.248 NA
ATOM     58  C   UNL A   1      41.773  32.068  37.386  1.00  0.00     0.031 C 
ATOM     59  C   UNL A   1      43.727  28.139  33.199  1.00  0.00     0.029 A 
ATOM     60  C   UNL A   1      43.010  29.122  33.859  1.00  0.00     0.049 A 
ATOM     61  H   UNL A   1      41.360  30.251  33.178  1.00  0.00     0.167 HD
ATOM     62  C   UNL A   1      42.472  30.630  35.744  1.00  0.00     0.074 A 
ATOM     63  C   UNL A   1      42.663  31.132  37.089  1.00  0.00     0.031 C 
ATOM     64  C   UNL A   1      43.197  29.624  35.197  1.00  0.00     0.031 A 
BRANCH  51  65
ATOM     65  C   UNL A   1      41.402  28.059  29.508  1.00  0.00    -0.014 A 
ATOM     66  C   UNL A   1      42.417  28.277  28.560  1.00  0.00     0.010 A 
ATOM     67  C   UNL A   1      40.611  26.899  29.409  1.00  0.00     0.010 A 
ATOM     68  C   UNL A   1      42.628  27.359  27.526  1.00  0.00     0.020 A 
ATOM     69  C   UNL A   1      40.835  25.966  28.393  1.00  0.00     0.020 A 
ATOM     70  C   UNL A   1      41.839  26.206  27.453  1.00  0.00     0.054 A 
BRANCH  70  71
ATOM     71  S   UNL A   1      42.176  25.003  26.138  1.00  0.00     0.124 S 
ATOM     72  O   UNL A   1      43.523  24.554  26.479  1.00  0.00    -0.237 OA
ATOM     73  O   UNL A   1      41.117  24.015  26.332  1.00  0.00    -0.237 OA
ATOM     74  O   UNL A   1      42.074  25.790  24.911  1.00  0.00    -0.744 OA
ENDBRANCH  70  71
ENDBRANCH  51  65
BRANCH  52  75
ATOM     75  C   UNL A   1      39.708  34.134  37.233  1.00  0.00    -0.014 A 
ATOM     76  C   UNL A   1      40.365  35.369  37.384  1.00  0.00     0.010 A 
ATOM     77  C   UNL A   1      38.827  33.704  38.243  1.00  0.00     0.010 A 
ATOM     78  C   UNL A   1      40.171  36.140  38.534  1.00  0.00     0.020 A 
ATOM     79  C   UNL A   1      38.604  34.487  39.378  1.00  0.00     0.020 A 
ATOM     80  C   UNL A   1      39.292  35.693  39.526  1.00  0.00     0.054 A 
BRANCH  80  81
ATOM     81  S   UNL A   1      39.041  36.719  41.001  1.00  0.00     0.124 S 
ATOM     82  O   UNL A   1      40.404  36.875  41.498  1.00  0.00    -0.237 OA
ATOM     83  O   UNL A   1      38.427  37.923  40.445  1.00  0.00    -0.237 OA
ATOM     84  O   UNL A   1      38.158  35.906  41.835  1.00  0.00    -0.744 OA
ENDBRANCH  80  81
ENDBRANCH  52  75
BRANCH  64  85
ATOM     85  C   UNL A   1      44.283  29.004  36.039  1.00  0.00    -0.014 A 
ATOM     86  C   UNL A   1      44.028  27.878  36.842  1.00  0.00     0.010 A 
ATOM     87  C   UNL A   1      45.592  29.518  35.979  1.00  0.00     0.010 A 
ATOM     88  C   UNL A   1      45.055  27.295  37.590  1.00  0.00     0.020 A 
ATOM     89  C   UNL A   1      46.628  28.919  36.701  1.00  0.00     0.020 A 
ATOM     90  C   UNL A   1      46.350  27.817  37.513  1.00  0.00     0.054 A 
BRANCH  90  91
ATOM     91  S   UNL A   1      47.673  27.009  38.455  1.00  0.00     0.124 S 
ATOM     92  O   UNL A   1      47.487  25.604  38.099  1.00  0.00    -0.237 OA
ATOM     93  O   UNL A   1      48.877  27.639  37.918  1.00  0.00    -0.237 OA
ATOM     94  O   UNL A   1      47.367  27.345  39.843  1.00  0.00    -0.744 OA
ENDBRANCH  90  91
ENDBRANCH  64  85
ENDBRANCH  38  39
ENDBRANCH  31  33
ENDBRANCH  30  31
ENDBRANCH  29  30
ENDBRANCH   1  29
TORSDOF 21
ENDMDL
