MODEL 1
REMARK VINA RESULT:     -10.5      0.000      0.000
REMARK SMILES C[C@@H](Nc1cccc(C(=O)OCCOCCOC(=O)c2ccc(-c3c4nc(c(-c5ccc(S(=O)(=O)[O-])cc5)c5ccc([nH]5)c(-c5ccc(S(=O)(=O)[O-])cc5)c5nc(c(-c6ccc(S(=O)(=O)[O-])cc6)c6ccc3[nH]6)C=C5)C=C4)cc2)c1)C1CC[NH+](C)CC1
REMARK SMILES IDX 14 1 13 2 12 3 11 4 9 5 10 6 8 7 4 8 5 9 80 10 6 11 7 12
REMARK SMILES IDX 3 13 2 15 1 16 81 17 82 18 87 19 83 20 86 21 84 22 85 23
REMARK SMILES IDX 15 25 16 26 17 27 18 28 19 29 20 30 21 31 79 32 22 33 78 34
REMARK SMILES IDX 23 35 24 36 25 37 72 38 26 39 77 40 71 41 73 42 27 43 76 44
REMARK SMILES IDX 70 45 69 46 28 48 58 49 39 50 57 51 40 52 43 53 56 54 74 55
REMARK SMILES IDX 41 56 42 57 55 59 75 60 44 61 29 62 30 63 38 64 31 65 37 66
REMARK SMILES IDX 32 67 33 68 34 69 35 70 36 71 59 72 60 73 68 74 61 75 67 76
REMARK SMILES IDX 62 77 63 78 64 79 65 80 66 81 45 82 46 83 54 84 47 85 53 86
REMARK SMILES IDX 48 87 49 88 50 89 51 90 52 91
REMARK H PARENT 3 14 84 24 73 47 43 58
REMARK Flexibility Score: inf
ROOT
ATOM      1  O   UNL A   1      34.817  32.021  27.639  1.00  0.00    -0.374 OA
ENDROOT
BRANCH   1   2
ATOM      2  C   UNL A   1      34.049  30.821  27.627  1.00  0.00     0.202 C 
BRANCH   2   3
ATOM      3  C   UNL A   1      32.627  30.871  27.072  1.00  0.00     0.261 C 
BRANCH   3   4
ATOM      4  O   UNL A   1      32.151  29.568  26.722  1.00  0.00    -0.460 OA
BRANCH   4   5
ATOM      5  C   UNL A   1      31.698  29.477  25.454  1.00  0.00     0.338 C 
ATOM      6  O   UNL A   1      30.831  30.158  24.927  1.00  0.00    -0.246 OA
BRANCH   5   7
ATOM      7  C   UNL A   1      32.378  28.399  24.734  1.00  0.00     0.062 A 
ATOM      8  C   UNL A   1      32.544  25.444  23.632  1.00  0.00     0.035 A 
ATOM      9  C   UNL A   1      33.501  26.043  22.201  1.00  0.00     0.026 A 
ATOM     10  C   UNL A   1      32.100  26.586  24.988  1.00  0.00     0.041 A 
ATOM     11  C   UNL A   1      33.883  27.810  22.035  1.00  0.00     0.003 A 
ATOM     12  C   UNL A   1      33.256  28.988  23.261  1.00  0.00     0.016 A 
BRANCH   8  13
ATOM     13  N   UNL A   1      31.788  24.278  23.452  1.00  0.00    -0.382 N 
ATOM     14  H   UNL A   1      30.876  24.328  23.084  1.00  0.00     0.160 HD
BRANCH  13  15
ATOM     15  C   UNL A   1      32.381  22.962  23.825  1.00  0.00     0.079 C 
ATOM     16  C   UNL A   1      32.135  21.938  22.708  1.00  0.00     0.031 C 
BRANCH  15  17
ATOM     17  C   UNL A   1      32.160  22.282  25.217  1.00  0.00     0.022 C 
ATOM     18  C   UNL A   1      32.568  22.995  26.501  1.00  0.00     0.067 C 
ATOM     19  C   UNL A   1      32.668  20.879  25.381  1.00  0.00     0.067 C 
ATOM     20  C   UNL A   1      34.059  22.929  26.861  1.00  0.00     0.262 C 
ATOM     21  C   UNL A   1      34.171  20.830  25.655  1.00  0.00     0.262 C 
ATOM     22  N   UNL A   1      35.010  22.264  25.808  1.00  0.00    -0.337 N 
ATOM     23  C   UNL A   1      36.719  22.946  24.825  1.00  0.00     0.332 C 
ATOM     24  H   UNL A   1      35.912  22.601  25.472  1.00  0.00     0.347 HD
ENDBRANCH  15  17
ENDBRANCH  13  15
ENDBRANCH   8  13
ENDBRANCH   5   7
ENDBRANCH   4   5
ENDBRANCH   3   4
ENDBRANCH   2   3
ENDBRANCH   1   2
BRANCH   1  25
ATOM     25  C   UNL A   1      34.652  32.950  28.707  1.00  0.00     0.202 C 
BRANCH  25  26
ATOM     26  C   UNL A   1      35.425  32.748  30.016  1.00  0.00     0.261 C 
BRANCH  26  27
ATOM     27  O   UNL A   1      36.707  32.123  29.856  1.00  0.00    -0.460 OA
BRANCH  27  28
ATOM     28  C   UNL A   1      36.861  30.995  30.593  1.00  0.00     0.338 C 
ATOM     29  O   UNL A   1      36.141  30.602  31.495  1.00  0.00    -0.246 OA
BRANCH  28  30
ATOM     30  C   UNL A   1      37.946  30.165  30.043  1.00  0.00     0.060 A 
ATOM     31  C   UNL A   1      38.813  29.548  30.954  1.00  0.00     0.016 A 
ATOM     32  C   UNL A   1      38.192  30.112  28.670  1.00  0.00     0.016 A 
ATOM     33  C   UNL A   1      39.969  28.924  30.499  1.00  0.00     0.010 A 
ATOM     34  C   UNL A   1      39.363  29.499  28.217  1.00  0.00     0.010 A 
ATOM     35  C   UNL A   1      40.276  28.946  29.133  1.00  0.00    -0.014 A 
BRANCH  35  36
ATOM     36  C   UNL A   1      41.636  28.559  28.696  1.00  0.00     0.031 A 
ATOM     37  C   UNL A   1      42.716  29.607  28.680  1.00  0.00     0.074 A 
ATOM     38  C   UNL A   1      41.915  27.286  28.367  1.00  0.00     0.049 A 
ATOM     39  N   UNL A   1      43.966  29.503  28.312  1.00  0.00    -0.248 NA
ATOM     40  C   UNL A   1      42.333  30.952  29.142  1.00  0.00     0.031 C 
ATOM     41  C   UNL A   1      40.966  26.175  28.409  1.00  0.00     0.029 A 
ATOM     42  N   UNL A   1      43.084  26.717  27.931  1.00  0.00    -0.354 N 
ATOM     43  C   UNL A   1      44.516  30.769  28.484  1.00  0.00     0.074 A 
ATOM     44  C   UNL A   1      43.457  31.631  28.963  1.00  0.00     0.031 C 
ATOM     45  C   UNL A   1      41.591  25.055  28.010  1.00  0.00     0.029 A 
ATOM     46  C   UNL A   1      42.969  25.379  27.647  1.00  0.00     0.049 A 
ATOM     47  H   UNL A   1      43.925  27.220  27.831  1.00  0.00     0.167 HD
ATOM     48  C   UNL A   1      45.790  31.176  28.265  1.00  0.00     0.031 A 
ATOM     49  C   UNL A   1      43.869  24.518  27.132  1.00  0.00     0.031 A 
ATOM     50  C   UNL A   1      46.832  30.316  27.771  1.00  0.00     0.049 A 
ATOM     51  C   UNL A   1      45.256  25.012  26.813  1.00  0.00     0.074 A 
ATOM     52  C   UNL A   1      48.156  30.623  27.519  1.00  0.00     0.029 A 
ATOM     53  N   UNL A   1      46.663  28.977  27.447  1.00  0.00    -0.354 N 
ATOM     54  N   UNL A   1      45.765  26.209  26.986  1.00  0.00    -0.248 NA
ATOM     55  C   UNL A   1      46.190  24.036  26.236  1.00  0.00     0.031 C 
ATOM     56  C   UNL A   1      48.773  29.487  26.983  1.00  0.00     0.029 A 
ATOM     57  C   UNL A   1      47.851  28.452  26.968  1.00  0.00     0.049 A 
ATOM     58  H   UNL A   1      45.822  28.474  27.543  1.00  0.00     0.167 HD
ATOM     59  C   UNL A   1      47.088  26.123  26.567  1.00  0.00     0.074 A 
ATOM     60  C   UNL A   1      47.301  24.754  26.142  1.00  0.00     0.031 C 
ATOM     61  C   UNL A   1      48.043  27.087  26.542  1.00  0.00     0.031 A 
BRANCH  48  62
ATOM     62  C   UNL A   1      46.105  32.629  28.510  1.00  0.00    -0.014 A 
ATOM     63  C   UNL A   1      45.953  33.595  27.498  1.00  0.00     0.010 A 
ATOM     64  C   UNL A   1      46.550  33.037  29.780  1.00  0.00     0.010 A 
ATOM     65  C   UNL A   1      46.289  34.931  27.738  1.00  0.00     0.020 A 
ATOM     66  C   UNL A   1      46.860  34.376  30.033  1.00  0.00     0.020 A 
ATOM     67  C   UNL A   1      46.748  35.312  29.002  1.00  0.00     0.054 A 
BRANCH  67  68
ATOM     68  S   UNL A   1      47.178  37.051  29.287  1.00  0.00     0.124 S 
ATOM     69  O   UNL A   1      47.220  37.115  30.746  1.00  0.00    -0.237 OA
ATOM     70  O   UNL A   1      48.470  37.176  28.616  1.00  0.00    -0.237 OA
ATOM     71  O   UNL A   1      46.081  37.787  28.664  1.00  0.00    -0.744 OA
ENDBRANCH  67  68
ENDBRANCH  48  62
BRANCH  49  72
ATOM     72  C   UNL A   1      43.475  23.108  26.874  1.00  0.00    -0.014 A 
ATOM     73  C   UNL A   1      43.665  22.529  25.607  1.00  0.00     0.010 A 
ATOM     74  C   UNL A   1      42.928  22.324  27.908  1.00  0.00     0.010 A 
ATOM     75  C   UNL A   1      43.315  21.195  25.378  1.00  0.00     0.020 A 
ATOM     76  C   UNL A   1      42.602  20.983  27.691  1.00  0.00     0.020 A 
ATOM     77  C   UNL A   1      42.792  20.428  26.425  1.00  0.00     0.054 A 
BRANCH  77  78
ATOM     78  S   UNL A   1      42.413  18.680  26.124  1.00  0.00     0.124 S 
ATOM     79  O   UNL A   1      43.362  18.341  25.068  1.00  0.00    -0.237 OA
ATOM     80  O   UNL A   1      42.673  18.074  27.428  1.00  0.00    -0.237 OA
ATOM     81  O   UNL A   1      41.008  18.698  25.723  1.00  0.00    -0.744 OA
ENDBRANCH  77  78
ENDBRANCH  49  72
BRANCH  61  82
ATOM     82  C   UNL A   1      49.419  26.690  26.073  1.00  0.00    -0.014 A 
ATOM     83  C   UNL A   1      49.836  26.921  24.750  1.00  0.00     0.010 A 
ATOM     84  C   UNL A   1      50.326  26.130  26.991  1.00  0.00     0.010 A 
ATOM     85  C   UNL A   1      51.127  26.568  24.347  1.00  0.00     0.020 A 
ATOM     86  C   UNL A   1      51.627  25.805  26.599  1.00  0.00     0.020 A 
ATOM     87  C   UNL A   1      52.015  26.013  25.275  1.00  0.00     0.054 A 
BRANCH  87  88
ATOM     88  S   UNL A   1      53.699  25.606  24.737  1.00  0.00     0.124 S 
ATOM     89  O   UNL A   1      53.719  24.153  24.874  1.00  0.00    -0.237 OA
ATOM     90  O   UNL A   1      53.726  26.108  23.364  1.00  0.00    -0.237 OA
ATOM     91  O   UNL A   1      54.549  26.334  25.677  1.00  0.00    -0.744 OA
ENDBRANCH  87  88
ENDBRANCH  61  82
ENDBRANCH  35  36
ENDBRANCH  28  30
ENDBRANCH  27  28
ENDBRANCH  26  27
ENDBRANCH  25  26
ENDBRANCH   1  25
TORSDOF 20
ENDMDL
MODEL 2
REMARK VINA RESULT:     -10.3      5.825     12.009
REMARK SMILES C[C@@H](Nc1cccc(C(=O)OCCOCCOC(=O)c2ccc(-c3c4nc(c(-c5ccc(S(=O)(=O)[O-])cc5)c5ccc([nH]5)c(-c5ccc(S(=O)(=O)[O-])cc5)c5nc(c(-c6ccc(S(=O)(=O)[O-])cc6)c6ccc3[nH]6)C=C5)C=C4)cc2)c1)C1CC[NH+](C)CC1
REMARK SMILES IDX 14 1 13 2 12 3 11 4 9 5 10 6 8 7 4 8 5 9 80 10 6 11 7 12
REMARK SMILES IDX 3 13 2 15 1 16 81 17 82 18 87 19 83 20 86 21 84 22 85 23
REMARK SMILES IDX 15 25 16 26 17 27 18 28 19 29 20 30 21 31 79 32 22 33 78 34
REMARK SMILES IDX 23 35 24 36 25 37 72 38 26 39 77 40 71 41 73 42 27 43 76 44
REMARK SMILES IDX 70 45 69 46 28 48 58 49 39 50 57 51 40 52 43 53 56 54 74 55
REMARK SMILES IDX 41 56 42 57 55 59 75 60 44 61 29 62 30 63 38 64 31 65 37 66
REMARK SMILES IDX 32 67 33 68 34 69 35 70 36 71 59 72 60 73 68 74 61 75 67 76
REMARK SMILES IDX 62 77 63 78 64 79 65 80 66 81 45 82 46 83 54 84 47 85 53 86
REMARK SMILES IDX 48 87 49 88 50 89 51 90 52 91
REMARK H PARENT 3 14 84 24 73 47 43 58
REMARK Flexibility Score: inf
ROOT
ATOM      1  O   UNL A   1      39.976  21.434  27.251  1.00  0.00    -0.374 OA
ENDROOT
BRANCH   1   2
ATOM      2  C   UNL A   1      39.484  22.287  26.221  1.00  0.00     0.202 C 
BRANCH   2   3
ATOM      3  C   UNL A   1      37.977  22.351  25.984  1.00  0.00     0.261 C 
BRANCH   3   4
ATOM      4  O   UNL A   1      37.609  21.721  24.753  1.00  0.00    -0.460 OA
BRANCH   4   5
ATOM      5  C   UNL A   1      37.242  20.429  24.892  1.00  0.00     0.338 C 
ATOM      6  O   UNL A   1      37.975  19.459  25.015  1.00  0.00    -0.246 OA
BRANCH   5   7
ATOM      7  C   UNL A   1      35.784  20.297  24.860  1.00  0.00     0.062 A 
ATOM      8  C   UNL A   1      32.904  21.301  24.040  1.00  0.00     0.035 A 
ATOM      9  C   UNL A   1      32.354  19.570  23.893  1.00  0.00     0.026 A 
ATOM     10  C   UNL A   1      34.576  21.687  24.668  1.00  0.00     0.041 A 
ATOM     11  C   UNL A   1      33.517  18.212  24.217  1.00  0.00     0.003 A 
ATOM     12  C   UNL A   1      35.244  18.582  24.625  1.00  0.00     0.016 A 
BRANCH   8  13
ATOM     13  N   UNL A   1      32.237  22.252  23.256  1.00  0.00    -0.382 N 
ATOM     14  H   UNL A   1      32.095  22.094  22.295  1.00  0.00     0.160 HD
BRANCH  13  15
ATOM     15  C   UNL A   1      31.745  23.506  23.896  1.00  0.00     0.079 C 
ATOM     16  C   UNL A   1      31.049  23.182  25.225  1.00  0.00     0.031 C 
BRANCH  15  17
ATOM     17  C   UNL A   1      30.928  24.599  23.129  1.00  0.00     0.022 C 
ATOM     18  C   UNL A   1      31.634  25.601  22.223  1.00  0.00     0.067 C 
ATOM     19  C   UNL A   1      29.965  25.422  23.934  1.00  0.00     0.067 C 
ATOM     20  C   UNL A   1      32.298  26.791  22.929  1.00  0.00     0.262 C 
ATOM     21  C   UNL A   1      30.658  26.551  24.697  1.00  0.00     0.262 C 
ATOM     22  N   UNL A   1      32.300  26.771  24.496  1.00  0.00    -0.337 N 
ATOM     23  C   UNL A   1      33.835  26.885  25.904  1.00  0.00     0.332 C 
ATOM     24  H   UNL A   1      33.074  26.974  25.128  1.00  0.00     0.347 HD
ENDBRANCH  15  17
ENDBRANCH  13  15
ENDBRANCH   8  13
ENDBRANCH   5   7
ENDBRANCH   4   5
ENDBRANCH   3   4
ENDBRANCH   2   3
ENDBRANCH   1   2
BRANCH   1  25
ATOM     25  C   UNL A   1      41.381  21.249  27.398  1.00  0.00     0.202 C 
BRANCH  25  26
ATOM     26  C   UNL A   1      42.347  22.005  26.478  1.00  0.00     0.261 C 
BRANCH  26  27
ATOM     27  O   UNL A   1      42.912  23.189  27.058  1.00  0.00    -0.460 OA
BRANCH  27  28
ATOM     28  C   UNL A   1      42.715  24.308  26.317  1.00  0.00     0.338 C 
ATOM     29  O   UNL A   1      42.861  24.428  25.112  1.00  0.00    -0.246 OA
BRANCH  28  30
ATOM     30  C   UNL A   1      42.107  25.369  27.138  1.00  0.00     0.060 A 
ATOM     31  C   UNL A   1      42.739  26.619  27.149  1.00  0.00     0.016 A 
ATOM     32  C   UNL A   1      41.032  25.101  27.985  1.00  0.00     0.016 A 
ATOM     33  C   UNL A   1      42.335  27.593  28.056  1.00  0.00     0.010 A 
ATOM     34  C   UNL A   1      40.639  26.075  28.907  1.00  0.00     0.010 A 
ATOM     35  C   UNL A   1      41.320  27.304  28.976  1.00  0.00    -0.014 A 
BRANCH  35  36
ATOM     36  C   UNL A   1      41.108  28.216  30.123  1.00  0.00     0.031 A 
ATOM     37  C   UNL A   1      42.010  28.093  31.321  1.00  0.00     0.074 A 
ATOM     38  C   UNL A   1      40.161  29.168  30.076  1.00  0.00     0.049 A 
ATOM     39  N   UNL A   1      41.993  28.763  32.443  1.00  0.00    -0.248 NA
ATOM     40  C   UNL A   1      43.074  27.077  31.240  1.00  0.00     0.031 C 
ATOM     41  C   UNL A   1      39.275  29.423  28.942  1.00  0.00     0.029 A 
ATOM     42  N   UNL A   1      39.790  30.099  31.012  1.00  0.00    -0.354 N 
ATOM     43  C   UNL A   1      43.032  28.244  33.208  1.00  0.00     0.074 A 
ATOM     44  C   UNL A   1      43.641  27.184  32.434  1.00  0.00     0.031 C 
ATOM     45  C   UNL A   1      38.456  30.443  29.251  1.00  0.00     0.029 A 
ATOM     46  C   UNL A   1      38.736  30.884  30.616  1.00  0.00     0.049 A 
ATOM     47  H   UNL A   1      40.237  30.194  31.885  1.00  0.00     0.167 HD
ATOM     48  C   UNL A   1      43.443  28.617  34.443  1.00  0.00     0.031 A 
ATOM     49  C   UNL A   1      38.059  31.836  31.288  1.00  0.00     0.031 A 
ATOM     50  C   UNL A   1      42.820  29.660  35.213  1.00  0.00     0.049 A 
ATOM     51  C   UNL A   1      38.477  32.177  32.695  1.00  0.00     0.074 A 
ATOM     52  C   UNL A   1      43.159  30.124  36.472  1.00  0.00     0.029 A 
ATOM     53  N   UNL A   1      41.720  30.399  34.798  1.00  0.00    -0.354 N 
ATOM     54  N   UNL A   1      39.465  31.683  33.404  1.00  0.00    -0.248 NA
ATOM     55  C   UNL A   1      37.693  33.208  33.388  1.00  0.00     0.031 C 
ATOM     56  C   UNL A   1      42.226  31.099  36.843  1.00  0.00     0.029 A 
ATOM     57  C   UNL A   1      41.349  31.293  35.788  1.00  0.00     0.049 A 
ATOM     58  H   UNL A   1      41.271  30.301  33.928  1.00  0.00     0.167 HD
ATOM     59  C   UNL A   1      39.439  32.364  34.617  1.00  0.00     0.074 A 
ATOM     60  C   UNL A   1      38.345  33.311  34.538  1.00  0.00     0.031 C 
ATOM     61  C   UNL A   1      40.252  32.224  35.695  1.00  0.00     0.031 A 
BRANCH  48  62
ATOM     62  C   UNL A   1      44.589  27.853  35.053  1.00  0.00    -0.014 A 
ATOM     63  C   UNL A   1      45.923  28.269  34.884  1.00  0.00     0.010 A 
ATOM     64  C   UNL A   1      44.326  26.702  35.819  1.00  0.00     0.010 A 
ATOM     65  C   UNL A   1      46.973  27.520  35.426  1.00  0.00     0.020 A 
ATOM     66  C   UNL A   1      45.371  25.967  36.387  1.00  0.00     0.020 A 
ATOM     67  C   UNL A   1      46.690  26.371  36.169  1.00  0.00     0.054 A 
BRANCH  67  68
ATOM     68  S   UNL A   1      48.069  25.417  36.861  1.00  0.00     0.124 S 
ATOM     69  O   UNL A   1      48.385  26.178  38.067  1.00  0.00    -0.237 OA
ATOM     70  O   UNL A   1      47.471  24.104  37.087  1.00  0.00    -0.237 OA
ATOM     71  O   UNL A   1      49.085  25.464  35.812  1.00  0.00    -0.744 OA
ENDBRANCH  67  68
ENDBRANCH  48  62
BRANCH  49  72
ATOM     72  C   UNL A   1      36.909  32.519  30.640  1.00  0.00    -0.014 A 
ATOM     73  C   UNL A   1      35.587  32.188  30.987  1.00  0.00     0.010 A 
ATOM     74  C   UNL A   1      37.130  33.529  29.684  1.00  0.00     0.010 A 
ATOM     75  C   UNL A   1      34.511  32.850  30.391  1.00  0.00     0.020 A 
ATOM     76  C   UNL A   1      36.058  34.213  29.106  1.00  0.00     0.020 A 
ATOM     77  C   UNL A   1      34.754  33.864  29.459  1.00  0.00     0.054 A 
BRANCH  77  78
ATOM     78  S   UNL A   1      33.343  34.760  28.753  1.00  0.00     0.124 S 
ATOM     79  O   UNL A   1      32.521  35.009  29.933  1.00  0.00    -0.237 OA
ATOM     80  O   UNL A   1      33.981  35.936  28.166  1.00  0.00    -0.237 OA
ATOM     81  O   UNL A   1      32.786  33.816  27.787  1.00  0.00    -0.744 OA
ENDBRANCH  77  78
ENDBRANCH  49  72
BRANCH  61  82
ATOM     82  C   UNL A   1      40.013  33.141  36.867  1.00  0.00    -0.014 A 
ATOM     83  C   UNL A   1      39.045  32.845  37.842  1.00  0.00     0.010 A 
ATOM     84  C   UNL A   1      40.815  34.286  37.022  1.00  0.00     0.010 A 
ATOM     85  C   UNL A   1      38.862  33.697  38.935  1.00  0.00     0.020 A 
ATOM     86  C   UNL A   1      40.656  35.124  38.129  1.00  0.00     0.020 A 
ATOM     87  C   UNL A   1      39.670  34.830  39.072  1.00  0.00     0.054 A 
BRANCH  87  88
ATOM     88  S   UNL A   1      39.443  35.896  40.523  1.00  0.00     0.124 S 
ATOM     89  O   UNL A   1      38.877  34.966  41.496  1.00  0.00    -0.237 OA
ATOM     90  O   UNL A   1      40.803  36.349  40.803  1.00  0.00    -0.237 OA
ATOM     91  O   UNL A   1      38.531  36.935  40.050  1.00  0.00    -0.744 OA
ENDBRANCH  87  88
ENDBRANCH  61  82
ENDBRANCH  35  36
ENDBRANCH  28  30
ENDBRANCH  27  28
ENDBRANCH  26  27
ENDBRANCH  25  26
ENDBRANCH   1  25
TORSDOF 20
ENDMDL
MODEL 3
REMARK VINA RESULT:     -10.2      2.068      2.979
REMARK SMILES C[C@@H](Nc1cccc(C(=O)OCCOCCOC(=O)c2ccc(-c3c4nc(c(-c5ccc(S(=O)(=O)[O-])cc5)c5ccc([nH]5)c(-c5ccc(S(=O)(=O)[O-])cc5)c5nc(c(-c6ccc(S(=O)(=O)[O-])cc6)c6ccc3[nH]6)C=C5)C=C4)cc2)c1)C1CC[NH+](C)CC1
REMARK SMILES IDX 14 1 13 2 12 3 11 4 9 5 10 6 8 7 4 8 5 9 80 10 6 11 7 12
REMARK SMILES IDX 3 13 2 15 1 16 81 17 82 18 87 19 83 20 86 21 84 22 85 23
REMARK SMILES IDX 15 25 16 26 17 27 18 28 19 29 20 30 21 31 79 32 22 33 78 34
REMARK SMILES IDX 23 35 24 36 25 37 72 38 26 39 77 40 71 41 73 42 27 43 76 44
REMARK SMILES IDX 70 45 69 46 28 48 58 49 39 50 57 51 40 52 43 53 56 54 74 55
REMARK SMILES IDX 41 56 42 57 55 59 75 60 44 61 29 62 30 63 38 64 31 65 37 66
REMARK SMILES IDX 32 67 33 68 34 69 35 70 36 71 59 72 60 73 68 74 61 75 67 76
REMARK SMILES IDX 62 77 63 78 64 79 65 80 66 81 45 82 46 83 54 84 47 85 53 86
REMARK SMILES IDX 48 87 49 88 50 89 51 90 52 91
REMARK H PARENT 3 14 84 24 73 47 43 58
REMARK Flexibility Score: inf
ROOT
ATOM      1  O   UNL A   1      33.012  32.764  27.772  1.00  0.00    -0.374 OA
ENDROOT
BRANCH   1   2
ATOM      2  C   UNL A   1      31.814  32.781  27.001  1.00  0.00     0.202 C 
BRANCH   2   3
ATOM      3  C   UNL A   1      31.380  31.496  26.299  1.00  0.00     0.261 C 
BRANCH   3   4
ATOM      4  O   UNL A   1      32.442  30.538  26.246  1.00  0.00    -0.460 OA
BRANCH   4   5
ATOM      5  C   UNL A   1      32.036  29.266  26.447  1.00  0.00     0.338 C 
ATOM      6  O   UNL A   1      31.560  28.793  27.467  1.00  0.00    -0.246 OA
BRANCH   5   7
ATOM      7  C   UNL A   1      32.259  28.455  25.248  1.00  0.00     0.062 A 
ATOM      8  C   UNL A   1      33.556  26.008  23.732  1.00  0.00     0.035 A 
ATOM      9  C   UNL A   1      32.081  25.899  22.667  1.00  0.00     0.026 A 
ATOM     10  C   UNL A   1      33.729  27.375  24.932  1.00  0.00     0.041 A 
ATOM     11  C   UNL A   1      30.700  27.055  22.901  1.00  0.00     0.003 A 
ATOM     12  C   UNL A   1      30.763  28.277  24.238  1.00  0.00     0.016 A 
BRANCH   8  13
ATOM     13  N   UNL A   1      34.283  24.827  23.939  1.00  0.00    -0.382 N 
ATOM     14  H   UNL A   1      35.053  24.609  23.364  1.00  0.00     0.160 HD
BRANCH  13  15
ATOM     15  C   UNL A   1      33.877  23.906  25.039  1.00  0.00     0.079 C 
ATOM     16  C   UNL A   1      32.544  24.364  25.645  1.00  0.00     0.031 C 
BRANCH  15  17
ATOM     17  C   UNL A   1      34.846  23.453  26.182  1.00  0.00     0.022 C 
ATOM     18  C   UNL A   1      36.072  22.603  25.869  1.00  0.00     0.067 C 
ATOM     19  C   UNL A   1      34.225  22.802  27.384  1.00  0.00     0.067 C 
ATOM     20  C   UNL A   1      35.816  21.101  25.680  1.00  0.00     0.262 C 
ATOM     21  C   UNL A   1      33.901  21.327  27.148  1.00  0.00     0.262 C 
ATOM     22  N   UNL A   1      34.321  20.633  25.689  1.00  0.00    -0.337 N 
ATOM     23  C   UNL A   1      33.169  19.571  24.312  1.00  0.00     0.332 C 
ATOM     24  H   UNL A   1      33.856  19.992  25.045  1.00  0.00     0.347 HD
ENDBRANCH  15  17
ENDBRANCH  13  15
ENDBRANCH   8  13
ENDBRANCH   5   7
ENDBRANCH   4   5
ENDBRANCH   3   4
ENDBRANCH   2   3
ENDBRANCH   1   2
BRANCH   1  25
ATOM     25  C   UNL A   1      33.631  33.995  28.135  1.00  0.00     0.202 C 
BRANCH  25  26
ATOM     26  C   UNL A   1      33.810  34.346  29.617  1.00  0.00     0.261 C 
BRANCH  26  27
ATOM     27  O   UNL A   1      35.084  33.974  30.164  1.00  0.00    -0.460 OA
BRANCH  27  28
ATOM     28  C   UNL A   1      35.061  32.809  30.858  1.00  0.00     0.338 C 
ATOM     29  O   UNL A   1      34.164  32.397  31.574  1.00  0.00    -0.246 OA
BRANCH  28  30
ATOM     30  C   UNL A   1      36.219  31.973  30.499  1.00  0.00     0.060 A 
ATOM     31  C   UNL A   1      36.991  31.454  31.547  1.00  0.00     0.016 A 
ATOM     32  C   UNL A   1      36.620  31.824  29.171  1.00  0.00     0.016 A 
ATOM     33  C   UNL A   1      38.204  30.833  31.274  1.00  0.00     0.010 A 
ATOM     34  C   UNL A   1      37.847  31.214  28.901  1.00  0.00     0.010 A 
ATOM     35  C   UNL A   1      38.663  30.760  29.953  1.00  0.00    -0.014 A 
BRANCH  35  36
ATOM     36  C   UNL A   1      40.072  30.382  29.702  1.00  0.00     0.031 A 
ATOM     37  C   UNL A   1      41.146  31.415  29.913  1.00  0.00     0.074 A 
ATOM     38  C   UNL A   1      40.392  29.129  29.339  1.00  0.00     0.049 A 
ATOM     39  N   UNL A   1      42.437  31.318  29.731  1.00  0.00    -0.248 NA
ATOM     40  C   UNL A   1      40.703  32.735  30.396  1.00  0.00     0.031 C 
ATOM     41  C   UNL A   1      39.443  28.030  29.169  1.00  0.00     0.029 A 
ATOM     42  N   UNL A   1      41.611  28.572  29.048  1.00  0.00    -0.354 N 
ATOM     43  C   UNL A   1      42.960  32.563  30.063  1.00  0.00     0.074 A 
ATOM     44  C   UNL A   1      41.844  33.408  30.430  1.00  0.00     0.031 C 
ATOM     45  C   UNL A   1      40.117  26.928  28.799  1.00  0.00     0.029 A 
ATOM     46  C   UNL A   1      41.535  27.255  28.668  1.00  0.00     0.049 A 
ATOM     47  H   UNL A   1      42.459  29.069  29.107  1.00  0.00     0.167 HD
ATOM     48  C   UNL A   1      44.253  32.966  30.063  1.00  0.00     0.031 A 
ATOM     49  C   UNL A   1      42.498  26.416  28.241  1.00  0.00     0.031 A 
ATOM     50  C   UNL A   1      45.354  32.123  29.678  1.00  0.00     0.049 A 
ATOM     51  C   UNL A   1      43.919  26.909  28.165  1.00  0.00     0.074 A 
ATOM     52  C   UNL A   1      46.703  32.427  29.648  1.00  0.00     0.029 A 
ATOM     53  N   UNL A   1      45.230  30.809  29.249  1.00  0.00    -0.354 N 
ATOM     54  N   UNL A   1      44.401  28.087  28.487  1.00  0.00    -0.248 NA
ATOM     55  C   UNL A   1      44.926  25.958  27.675  1.00  0.00     0.031 C 
ATOM     56  C   UNL A   1      47.389  31.318  29.140  1.00  0.00     0.029 A 
ATOM     57  C   UNL A   1      46.476  30.299  28.922  1.00  0.00     0.049 A 
ATOM     58  H   UNL A   1      44.383  30.313  29.186  1.00  0.00     0.167 HD
ATOM     59  C   UNL A   1      45.772  28.009  28.267  1.00  0.00     0.074 A 
ATOM     60  C   UNL A   1      46.042  26.666  27.794  1.00  0.00     0.031 C 
ATOM     61  C   UNL A   1      46.724  28.960  28.446  1.00  0.00     0.031 A 
BRANCH  48  62
ATOM     62  C   UNL A   1      44.533  34.396  30.443  1.00  0.00    -0.014 A 
ATOM     63  C   UNL A   1      44.546  35.423  29.481  1.00  0.00     0.010 A 
ATOM     64  C   UNL A   1      44.778  34.721  31.790  1.00  0.00     0.010 A 
ATOM     65  C   UNL A   1      44.848  36.737  29.852  1.00  0.00     0.020 A 
ATOM     66  C   UNL A   1      45.051  36.038  32.169  1.00  0.00     0.020 A 
ATOM     67  C   UNL A   1      45.105  37.035  31.193  1.00  0.00     0.054 A 
BRANCH  67  68
ATOM     68  S   UNL A   1      45.495  38.748  31.647  1.00  0.00     0.124 S 
ATOM     69  O   UNL A   1      46.571  39.069  30.714  1.00  0.00    -0.237 OA
ATOM     70  O   UNL A   1      44.230  39.439  31.408  1.00  0.00    -0.237 OA
ATOM     71  O   UNL A   1      45.894  38.653  33.049  1.00  0.00    -0.744 OA
ENDBRANCH  67  68
ENDBRANCH  48  62
BRANCH  49  72
ATOM     72  C   UNL A   1      42.142  25.029  27.839  1.00  0.00    -0.014 A 
ATOM     73  C   UNL A   1      42.208  23.973  28.765  1.00  0.00     0.010 A 
ATOM     74  C   UNL A   1      41.707  24.760  26.527  1.00  0.00     0.010 A 
ATOM     75  C   UNL A   1      41.848  22.676  28.387  1.00  0.00     0.020 A 
ATOM     76  C   UNL A   1      41.320  23.471  26.153  1.00  0.00     0.020 A 
ATOM     77  C   UNL A   1      41.400  22.435  27.084  1.00  0.00     0.054 A 
BRANCH  77  78
ATOM     78  S   UNL A   1      40.870  20.759  26.638  1.00  0.00     0.124 S 
ATOM     79  O   UNL A   1      40.875  20.084  27.932  1.00  0.00    -0.237 OA
ATOM     80  O   UNL A   1      39.552  20.992  26.051  1.00  0.00    -0.237 OA
ATOM     81  O   UNL A   1      41.894  20.315  25.695  1.00  0.00    -0.744 OA
ENDBRANCH  77  78
ENDBRANCH  49  72
BRANCH  61  82
ATOM     82  C   UNL A   1      48.153  28.574  28.164  1.00  0.00    -0.014 A 
ATOM     83  C   UNL A   1      48.771  28.894  26.942  1.00  0.00     0.010 A 
ATOM     84  C   UNL A   1      48.905  27.932  29.165  1.00  0.00     0.010 A 
ATOM     85  C   UNL A   1      50.106  28.550  26.716  1.00  0.00     0.020 A 
ATOM     86  C   UNL A   1      50.249  27.613  28.953  1.00  0.00     0.020 A 
ATOM     87  C   UNL A   1      50.837  27.912  27.724  1.00  0.00     0.054 A 
BRANCH  87  88
ATOM     88  S   UNL A   1      52.581  27.515  27.421  1.00  0.00     0.124 S 
ATOM     89  O   UNL A   1      53.175  28.842  27.284  1.00  0.00    -0.237 OA
ATOM     90  O   UNL A   1      52.956  26.780  28.627  1.00  0.00    -0.237 OA
ATOM     91  O   UNL A   1      52.548  26.717  26.198  1.00  0.00    -0.744 OA
ENDBRANCH  87  88
ENDBRANCH  61  82
ENDBRANCH  35  36
ENDBRANCH  28  30
ENDBRANCH  27  28
ENDBRANCH  26  27
ENDBRANCH  25  26
ENDBRANCH   1  25
TORSDOF 20
ENDMDL
