MODEL 1
REMARK VINA RESULT:     -10.2      0.000      0.000
REMARK SMILES O=C(NCc1ccc(C(=O)OCCOCCOC(=O)c2ccc(-c3c4nc(c(-c5ccc(S(=O)(=O)[O-])cc5)c5ccc([nH]5)c(-c5ccc(S(=O)(=O)[O-])cc5)c5nc(c(-c6ccc(S(=O)(=O)[O-])cc6)c6ccc3[nH]6)C=C5)C=C4)cc2)cc1)c1cccc(NC(=O)C2CC2)c1
REMARK SMILES IDX 13 1 12 2 11 3 9 4 10 5 8 6 5 7 6 8 81 9 7 10 80 11 4 12
REMARK SMILES IDX 3 13 1 14 2 15 82 17 83 18 93 19 84 20 86 21 85 22 87 23
REMARK SMILES IDX 88 24 89 26 90 27 91 28 92 29 14 30 15 31 16 32 17 33 18 34
REMARK SMILES IDX 19 35 20 36 21 37 79 38 22 39 78 40 23 41 24 42 25 43 72 44
REMARK SMILES IDX 26 45 77 46 71 47 73 48 27 49 76 50 70 51 69 52 28 54 58 55
REMARK SMILES IDX 39 56 57 57 40 58 43 59 56 60 74 61 41 62 42 63 55 65 75 66
REMARK SMILES IDX 44 67 29 68 30 69 38 70 31 71 37 72 32 73 33 74 34 75 35 76
REMARK SMILES IDX 36 77 59 78 60 79 68 80 61 81 67 82 62 83 63 84 64 85 65 86
REMARK SMILES IDX 66 87 45 88 46 89 54 90 47 91 53 92 48 93 49 94 50 95 51 96
REMARK SMILES IDX 52 97
REMARK H PARENT 3 16 87 25 73 53 43 64
REMARK Flexibility Score: inf
ROOT
ATOM      1  C   UNL A   1      35.336  32.661  28.240  1.00  0.00     0.202 C 
ENDROOT
BRANCH   1   2
ATOM      2  C   UNL A   1      34.480  31.404  28.432  1.00  0.00     0.261 C 
BRANCH   2   3
ATOM      3  O   UNL A   1      34.349  30.658  27.215  1.00  0.00    -0.460 OA
BRANCH   3   4
ATOM      4  C   UNL A   1      33.076  30.328  26.896  1.00  0.00     0.338 C 
ATOM      5  O   UNL A   1      32.148  31.095  26.688  1.00  0.00    -0.246 OA
BRANCH   4   6
ATOM      6  C   UNL A   1      32.969  28.874  26.645  1.00  0.00     0.060 A 
ATOM      7  C   UNL A   1      32.642  26.104  26.348  1.00  0.00    -0.029 A 
ATOM      8  C   UNL A   1      31.571  26.905  26.772  1.00  0.00     0.006 A 
ATOM      9  C   UNL A   1      33.865  26.715  26.025  1.00  0.00     0.006 A 
ATOM     10  C   UNL A   1      31.734  28.277  26.922  1.00  0.00     0.016 A 
ATOM     11  C   UNL A   1      34.027  28.099  26.159  1.00  0.00     0.016 A 
BRANCH   7  12
ATOM     12  C   UNL A   1      32.486  24.608  26.441  1.00  0.00     0.152 C 
BRANCH  12  13
ATOM     13  N   UNL A   1      33.729  23.886  26.604  1.00  0.00    -0.348 N 
ATOM     14  O   UNL A   1      35.270  22.288  26.215  1.00  0.00    -0.269 OA
ATOM     15  C   UNL A   1      34.242  22.856  25.859  1.00  0.00     0.251 C 
ATOM     16  H   UNL A   1      34.288  24.178  27.360  1.00  0.00     0.164 HD
BRANCH  15  17
ATOM     17  C   UNL A   1      33.544  22.395  24.640  1.00  0.00     0.041 A 
ATOM     18  C   UNL A   1      32.849  21.184  24.619  1.00  0.00     0.014 A 
ATOM     19  C   UNL A   1      33.561  23.218  23.506  1.00  0.00     0.040 A 
ATOM     20  C   UNL A   1      32.251  20.759  23.439  1.00  0.00     0.003 A 
ATOM     21  C   UNL A   1      32.953  22.801  22.314  1.00  0.00     0.041 A 
ATOM     22  C   UNL A   1      32.306  21.564  22.296  1.00  0.00     0.026 A 
BRANCH  21  23
ATOM     23  N   UNL A   1      33.005  23.694  21.230  1.00  0.00    -0.326 N 
ATOM     24  C   UNL A   1      32.623  25.005  21.072  1.00  0.00     0.227 C 
ATOM     25  H   UNL A   1      33.395  23.300  20.416  1.00  0.00     0.169 HD
ATOM     26  O   UNL A   1      32.950  25.609  20.054  1.00  0.00    -0.274 OA
BRANCH  24  27
ATOM     27  C   UNL A   1      31.788  25.678  22.100  1.00  0.00     0.079 C 
ATOM     28  C   UNL A   1      32.379  26.813  22.911  1.00  0.00     0.014 C 
ATOM     29  C   UNL A   1      31.305  27.100  21.907  1.00  0.00     0.014 C 
ENDBRANCH  24  27
ENDBRANCH  21  23
ENDBRANCH  15  17
ENDBRANCH  12  13
ENDBRANCH   7  12
ENDBRANCH   4   6
ENDBRANCH   3   4
ENDBRANCH   2   3
ENDBRANCH   1   2
BRANCH   1  30
ATOM     30  O   UNL A   1      34.766  33.742  27.504  1.00  0.00    -0.374 OA
BRANCH  30  31
ATOM     31  C   UNL A   1      34.420  34.922  28.230  1.00  0.00     0.202 C 
BRANCH  31  32
ATOM     32  C   UNL A   1      33.179  34.870  29.133  1.00  0.00     0.261 C 
BRANCH  32  33
ATOM     33  O   UNL A   1      33.273  35.757  30.261  1.00  0.00    -0.460 OA
BRANCH  33  34
ATOM     34  C   UNL A   1      33.167  35.159  31.472  1.00  0.00     0.338 C 
ATOM     35  O   UNL A   1      32.156  35.028  32.147  1.00  0.00    -0.246 OA
BRANCH  34  36
ATOM     36  C   UNL A   1      34.439  34.490  31.797  1.00  0.00     0.060 A 
ATOM     37  C   UNL A   1      34.400  33.138  32.160  1.00  0.00     0.016 A 
ATOM     38  C   UNL A   1      35.649  35.186  31.777  1.00  0.00     0.016 A 
ATOM     39  C   UNL A   1      35.574  32.475  32.514  1.00  0.00     0.010 A 
ATOM     40  C   UNL A   1      36.822  34.524  32.145  1.00  0.00     0.010 A 
ATOM     41  C   UNL A   1      36.790  33.170  32.529  1.00  0.00    -0.014 A 
BRANCH  41  42
ATOM     42  C   UNL A   1      38.027  32.512  33.011  1.00  0.00     0.031 A 
ATOM     43  C   UNL A   1      38.503  32.769  34.412  1.00  0.00     0.074 A 
ATOM     44  C   UNL A   1      38.729  31.710  32.192  1.00  0.00     0.049 A 
ATOM     45  N   UNL A   1      39.603  32.374  34.997  1.00  0.00    -0.248 NA
ATOM     46  C   UNL A   1      37.620  33.581  35.265  1.00  0.00     0.031 C 
ATOM     47  C   UNL A   1      38.340  31.340  30.831  1.00  0.00     0.029 A 
ATOM     48  N   UNL A   1      39.928  31.070  32.385  1.00  0.00    -0.354 N 
ATOM     49  C   UNL A   1      39.555  32.895  36.284  1.00  0.00     0.074 A 
ATOM     50  C   UNL A   1      38.328  33.658  36.384  1.00  0.00     0.031 C 
ATOM     51  C   UNL A   1      39.288  30.545  30.308  1.00  0.00     0.029 A 
ATOM     52  C   UNL A   1      40.371  30.390  31.277  1.00  0.00     0.049 A 
ATOM     53  H   UNL A   1      40.422  31.095  33.236  1.00  0.00     0.167 HD
ATOM     54  C   UNL A   1      40.451  32.750  37.290  1.00  0.00     0.031 A 
ATOM     55  C   UNL A   1      41.533  29.743  31.055  1.00  0.00     0.031 A 
ATOM     56  C   UNL A   1      41.683  32.016  37.170  1.00  0.00     0.049 A 
ATOM     57  C   UNL A   1      42.568  29.695  32.147  1.00  0.00     0.074 A 
ATOM     58  C   UNL A   1      42.655  31.801  38.133  1.00  0.00     0.029 A 
ATOM     59  N   UNL A   1      42.125  31.393  36.012  1.00  0.00    -0.354 N 
ATOM     60  N   UNL A   1      42.500  30.171  33.368  1.00  0.00    -0.248 NA
ATOM     61  C   UNL A   1      43.839  29.028  31.829  1.00  0.00     0.031 C 
ATOM     62  C   UNL A   1      43.714  31.109  37.536  1.00  0.00     0.029 A 
ATOM     63  C   UNL A   1      43.373  30.831  36.222  1.00  0.00     0.049 A 
ATOM     64  H   UNL A   1      41.624  31.356  35.165  1.00  0.00     0.167 HD
ATOM     65  C   UNL A   1      43.710  29.842  33.970  1.00  0.00     0.074 A 
ATOM     66  C   UNL A   1      44.484  29.115  32.985  1.00  0.00     0.031 C 
ATOM     67  C   UNL A   1      44.140  30.118  35.228  1.00  0.00     0.031 A 
BRANCH  54  68
ATOM     68  C   UNL A   1      40.147  33.445  38.593  1.00  0.00    -0.014 A 
ATOM     69  C   UNL A   1      40.636  34.737  38.865  1.00  0.00     0.010 A 
ATOM     70  C   UNL A   1      39.351  32.801  39.558  1.00  0.00     0.010 A 
ATOM     71  C   UNL A   1      40.380  35.346  40.097  1.00  0.00     0.020 A 
ATOM     72  C   UNL A   1      39.067  33.419  40.778  1.00  0.00     0.020 A 
ATOM     73  C   UNL A   1      39.602  34.679  41.049  1.00  0.00     0.054 A 
BRANCH  73  74
ATOM     74  S   UNL A   1      39.297  35.488  42.643  1.00  0.00     0.124 S 
ATOM     75  O   UNL A   1      39.945  36.783  42.452  1.00  0.00    -0.237 OA
ATOM     76  O   UNL A   1      37.838  35.521  42.711  1.00  0.00    -0.237 OA
ATOM     77  O   UNL A   1      39.944  34.607  43.612  1.00  0.00    -0.744 OA
ENDBRANCH  73  74
ENDBRANCH  54  68
BRANCH  55  78
ATOM     78  C   UNL A   1      41.781  29.103  29.734  1.00  0.00    -0.014 A 
ATOM     79  C   UNL A   1      41.477  27.747  29.534  1.00  0.00     0.010 A 
ATOM     80  C   UNL A   1      42.296  29.855  28.661  1.00  0.00     0.010 A 
ATOM     81  C   UNL A   1      41.679  27.153  28.284  1.00  0.00     0.020 A 
ATOM     82  C   UNL A   1      42.473  29.272  27.403  1.00  0.00     0.020 A 
ATOM     83  C   UNL A   1      42.166  27.922  27.224  1.00  0.00     0.054 A 
BRANCH  83  84
ATOM     84  S   UNL A   1      42.340  27.147  25.594  1.00  0.00     0.124 S 
ATOM     85  O   UNL A   1      42.334  28.304  24.704  1.00  0.00    -0.237 OA
ATOM     86  O   UNL A   1      43.617  26.448  25.715  1.00  0.00    -0.237 OA
ATOM     87  O   UNL A   1      41.170  26.277  25.501  1.00  0.00    -0.744 OA
ENDBRANCH  83  84
ENDBRANCH  55  78
BRANCH  67  88
ATOM     88  C   UNL A   1      45.506  29.622  35.623  1.00  0.00    -0.014 A 
ATOM     89  C   UNL A   1      46.647  30.428  35.458  1.00  0.00     0.010 A 
ATOM     90  C   UNL A   1      45.640  28.365  36.242  1.00  0.00     0.010 A 
ATOM     91  C   UNL A   1      47.898  29.980  35.892  1.00  0.00     0.020 A 
ATOM     92  C   UNL A   1      46.885  27.926  36.703  1.00  0.00     0.020 A 
ATOM     93  C   UNL A   1      48.008  28.733  36.519  1.00  0.00     0.054 A 
BRANCH  93  94
ATOM     94  S   UNL A   1      49.630  28.211  37.139  1.00  0.00     0.124 S 
ATOM     95  O   UNL A   1      50.483  29.329  36.744  1.00  0.00    -0.237 OA
ATOM     96  O   UNL A   1      49.394  28.078  38.576  1.00  0.00    -0.237 OA
ATOM     97  O   UNL A   1      49.884  26.956  36.437  1.00  0.00    -0.744 OA
ENDBRANCH  93  94
ENDBRANCH  67  88
ENDBRANCH  41  42
ENDBRANCH  34  36
ENDBRANCH  33  34
ENDBRANCH  32  33
ENDBRANCH  31  32
ENDBRANCH  30  31
ENDBRANCH   1  30
TORSDOF 22
ENDMDL
MODEL 2
REMARK VINA RESULT:      -9.6      1.544      8.222
REMARK SMILES O=C(NCc1ccc(C(=O)OCCOCCOC(=O)c2ccc(-c3c4nc(c(-c5ccc(S(=O)(=O)[O-])cc5)c5ccc([nH]5)c(-c5ccc(S(=O)(=O)[O-])cc5)c5nc(c(-c6ccc(S(=O)(=O)[O-])cc6)c6ccc3[nH]6)C=C5)C=C4)cc2)cc1)c1cccc(NC(=O)C2CC2)c1
REMARK SMILES IDX 13 1 12 2 11 3 9 4 10 5 8 6 5 7 6 8 81 9 7 10 80 11 4 12
REMARK SMILES IDX 3 13 1 14 2 15 82 17 83 18 93 19 84 20 86 21 85 22 87 23
REMARK SMILES IDX 88 24 89 26 90 27 91 28 92 29 14 30 15 31 16 32 17 33 18 34
REMARK SMILES IDX 19 35 20 36 21 37 79 38 22 39 78 40 23 41 24 42 25 43 72 44
REMARK SMILES IDX 26 45 77 46 71 47 73 48 27 49 76 50 70 51 69 52 28 54 58 55
REMARK SMILES IDX 39 56 57 57 40 58 43 59 56 60 74 61 41 62 42 63 55 65 75 66
REMARK SMILES IDX 44 67 29 68 30 69 38 70 31 71 37 72 32 73 33 74 34 75 35 76
REMARK SMILES IDX 36 77 59 78 60 79 68 80 61 81 67 82 62 83 63 84 64 85 65 86
REMARK SMILES IDX 66 87 45 88 46 89 54 90 47 91 53 92 48 93 49 94 50 95 51 96
REMARK SMILES IDX 52 97
REMARK H PARENT 3 16 87 25 73 53 43 64
REMARK Flexibility Score: inf
ROOT
ATOM      1  C   UNL A   1      35.270  32.717  28.048  1.00  0.00     0.202 C 
ENDROOT
BRANCH   1   2
ATOM      2  C   UNL A   1      34.348  31.521  28.309  1.00  0.00     0.261 C 
BRANCH   2   3
ATOM      3  O   UNL A   1      33.961  30.871  27.092  1.00  0.00    -0.460 OA
BRANCH   3   4
ATOM      4  C   UNL A   1      32.629  30.872  26.856  1.00  0.00     0.338 C 
ATOM      5  O   UNL A   1      31.871  31.827  26.927  1.00  0.00    -0.246 OA
BRANCH   4   6
ATOM      6  C   UNL A   1      32.202  29.565  26.310  1.00  0.00     0.060 A 
ATOM      7  C   UNL A   1      31.531  26.991  25.417  1.00  0.00    -0.029 A 
ATOM      8  C   UNL A   1      31.747  27.236  26.782  1.00  0.00     0.006 A 
ATOM      9  C   UNL A   1      31.604  28.064  24.512  1.00  0.00     0.006 A 
ATOM     10  C   UNL A   1      32.083  28.511  27.224  1.00  0.00     0.016 A 
ATOM     11  C   UNL A   1      31.925  29.351  24.957  1.00  0.00     0.016 A 
BRANCH   7  12
ATOM     12  C   UNL A   1      31.417  25.558  24.966  1.00  0.00     0.152 C 
BRANCH  12  13
ATOM     13  N   UNL A   1      32.234  25.226  23.820  1.00  0.00    -0.348 N 
ATOM     14  O   UNL A   1      33.909  24.240  22.678  1.00  0.00    -0.269 OA
ATOM     15  C   UNL A   1      33.247  24.309  23.709  1.00  0.00     0.251 C 
ATOM     16  H   UNL A   1      32.033  25.732  23.000  1.00  0.00     0.164 HD
BRANCH  15  17
ATOM     17  C   UNL A   1      33.576  23.417  24.842  1.00  0.00     0.041 A 
ATOM     18  C   UNL A   1      33.291  23.786  26.159  1.00  0.00     0.014 A 
ATOM     19  C   UNL A   1      34.151  22.169  24.568  1.00  0.00     0.040 A 
ATOM     20  C   UNL A   1      33.664  22.946  27.200  1.00  0.00     0.003 A 
ATOM     21  C   UNL A   1      34.521  21.311  25.612  1.00  0.00     0.041 A 
ATOM     22  C   UNL A   1      34.276  21.718  26.925  1.00  0.00     0.026 A 
BRANCH  21  23
ATOM     23  N   UNL A   1      35.078  20.073  25.248  1.00  0.00    -0.326 N 
ATOM     24  C   UNL A   1      34.546  18.924  24.712  1.00  0.00     0.227 C 
ATOM     25  H   UNL A   1      36.047  20.016  25.410  1.00  0.00     0.169 HD
ATOM     26  O   UNL A   1      35.300  18.038  24.321  1.00  0.00    -0.274 OA
BRANCH  24  27
ATOM     27  C   UNL A   1      33.075  18.734  24.642  1.00  0.00     0.079 C 
ATOM     28  C   UNL A   1      32.430  18.413  23.309  1.00  0.00     0.014 C 
ATOM     29  C   UNL A   1      32.475  17.368  24.381  1.00  0.00     0.014 C 
ENDBRANCH  24  27
ENDBRANCH  21  23
ENDBRANCH  15  17
ENDBRANCH  12  13
ENDBRANCH   7  12
ENDBRANCH   4   6
ENDBRANCH   3   4
ENDBRANCH   2   3
ENDBRANCH   1   2
BRANCH   1  30
ATOM     30  O   UNL A   1      34.694  33.876  27.446  1.00  0.00    -0.374 OA
BRANCH  30  31
ATOM     31  C   UNL A   1      34.332  34.954  28.309  1.00  0.00     0.202 C 
BRANCH  31  32
ATOM     32  C   UNL A   1      33.215  34.709  29.333  1.00  0.00     0.261 C 
BRANCH  32  33
ATOM     33  O   UNL A   1      33.258  35.630  30.436  1.00  0.00    -0.460 OA
BRANCH  33  34
ATOM     34  C   UNL A   1      33.176  35.061  31.663  1.00  0.00     0.338 C 
ATOM     35  O   UNL A   1      32.175  34.932  32.354  1.00  0.00    -0.246 OA
BRANCH  34  36
ATOM     36  C   UNL A   1      34.462  34.421  31.990  1.00  0.00     0.060 A 
ATOM     37  C   UNL A   1      34.435  33.187  32.655  1.00  0.00     0.016 A 
ATOM     38  C   UNL A   1      35.676  35.033  31.676  1.00  0.00     0.016 A 
ATOM     39  C   UNL A   1      35.627  32.563  33.018  1.00  0.00     0.010 A 
ATOM     40  C   UNL A   1      36.870  34.413  32.054  1.00  0.00     0.010 A 
ATOM     41  C   UNL A   1      36.852  33.183  32.739  1.00  0.00    -0.014 A 
BRANCH  41  42
ATOM     42  C   UNL A   1      38.122  32.589  33.218  1.00  0.00     0.031 A 
ATOM     43  C   UNL A   1      38.756  31.473  32.440  1.00  0.00     0.074 A 
ATOM     44  C   UNL A   1      38.689  33.032  34.354  1.00  0.00     0.049 A 
ATOM     45  N   UNL A   1      39.807  30.752  32.733  1.00  0.00    -0.248 NA
ATOM     46  C   UNL A   1      38.118  31.121  31.161  1.00  0.00     0.031 C 
ATOM     47  C   UNL A   1      38.198  34.145  35.166  1.00  0.00     0.029 A 
ATOM     48  N   UNL A   1      39.799  32.587  35.027  1.00  0.00    -0.354 N 
ATOM     49  C   UNL A   1      39.954  29.854  31.683  1.00  0.00     0.074 A 
ATOM     50  C   UNL A   1      38.867  30.103  30.760  1.00  0.00     0.031 C 
ATOM     51  C   UNL A   1      39.000  34.290  36.234  1.00  0.00     0.029 A 
ATOM     52  C   UNL A   1      40.028  33.251  36.207  1.00  0.00     0.049 A 
ATOM     53  H   UNL A   1      40.376  31.861  34.697  1.00  0.00     0.167 HD
ATOM     54  C   UNL A   1      40.909  28.909  31.505  1.00  0.00     0.031 A 
ATOM     55  C   UNL A   1      40.942  33.028  37.173  1.00  0.00     0.031 A 
ATOM     56  C   UNL A   1      41.967  28.648  32.446  1.00  0.00     0.049 A 
ATOM     57  C   UNL A   1      41.920  31.895  37.012  1.00  0.00     0.074 A 
ATOM     58  C   UNL A   1      42.990  27.720  32.356  1.00  0.00     0.029 A 
ATOM     59  N   UNL A   1      42.129  29.302  33.659  1.00  0.00    -0.354 N 
ATOM     60  N   UNL A   1      42.065  31.069  36.004  1.00  0.00    -0.248 NA
ATOM     61  C   UNL A   1      42.854  31.662  38.123  1.00  0.00     0.031 C 
ATOM     62  C   UNL A   1      43.727  27.765  33.543  1.00  0.00     0.029 A 
ATOM     63  C   UNL A   1      43.207  28.770  34.345  1.00  0.00     0.049 A 
ATOM     64  H   UNL A   1      41.560  30.038  33.983  1.00  0.00     0.167 HD
ATOM     65  C   UNL A   1      43.120  30.231  36.350  1.00  0.00     0.074 A 
ATOM     66  C   UNL A   1      43.585  30.660  37.652  1.00  0.00     0.031 C 
ATOM     67  C   UNL A   1      43.655  29.199  35.649  1.00  0.00     0.031 A 
BRANCH  54  68
ATOM     68  C   UNL A   1      40.816  28.055  30.266  1.00  0.00    -0.014 A 
ATOM     69  C   UNL A   1      39.777  27.121  30.097  1.00  0.00     0.010 A 
ATOM     70  C   UNL A   1      41.778  28.197  29.249  1.00  0.00     0.010 A 
ATOM     71  C   UNL A   1      39.734  26.308  28.960  1.00  0.00     0.020 A 
ATOM     72  C   UNL A   1      41.721  27.408  28.097  1.00  0.00     0.020 A 
ATOM     73  C   UNL A   1      40.712  26.452  27.971  1.00  0.00     0.054 A 
BRANCH  73  74
ATOM     74  S   UNL A   1      40.638  25.376  26.513  1.00  0.00     0.124 S 
ATOM     75  O   UNL A   1      41.613  24.342  26.852  1.00  0.00    -0.237 OA
ATOM     76  O   UNL A   1      39.242  24.943  26.506  1.00  0.00    -0.237 OA
ATOM     77  O   UNL A   1      41.021  26.254  25.411  1.00  0.00    -0.744 OA
ENDBRANCH  73  74
ENDBRANCH  54  68
BRANCH  55  78
ATOM     78  C   UNL A   1      40.959  33.891  38.386  1.00  0.00    -0.014 A 
ATOM     79  C   UNL A   1      41.712  35.077  38.403  1.00  0.00     0.010 A 
ATOM     80  C   UNL A   1      40.200  33.545  39.520  1.00  0.00     0.010 A 
ATOM     81  C   UNL A   1      41.703  35.905  39.530  1.00  0.00     0.020 A 
ATOM     82  C   UNL A   1      40.166  34.385  40.638  1.00  0.00     0.020 A 
ATOM     83  C   UNL A   1      40.922  35.558  40.636  1.00  0.00     0.054 A 
BRANCH  83  84
ATOM     84  S   UNL A   1      40.865  36.692  42.051  1.00  0.00     0.124 S 
ATOM     85  O   UNL A   1      41.714  36.009  43.023  1.00  0.00    -0.237 OA
ATOM     86  O   UNL A   1      41.412  37.923  41.486  1.00  0.00    -0.237 OA
ATOM     87  O   UNL A   1      39.444  36.747  42.388  1.00  0.00    -0.744 OA
ENDBRANCH  83  84
ENDBRANCH  55  78
BRANCH  67  88
ATOM     88  C   UNL A   1      44.816  28.464  36.266  1.00  0.00    -0.014 A 
ATOM     89  C   UNL A   1      46.138  28.907  36.081  1.00  0.00     0.010 A 
ATOM     90  C   UNL A   1      44.575  27.361  37.107  1.00  0.00     0.010 A 
ATOM     91  C   UNL A   1      47.198  28.253  36.715  1.00  0.00     0.020 A 
ATOM     92  C   UNL A   1      45.631  26.723  37.766  1.00  0.00     0.020 A 
ATOM     93  C   UNL A   1      46.937  27.169  37.560  1.00  0.00     0.054 A 
BRANCH  93  94
ATOM     94  S   UNL A   1      48.324  26.388  38.428  1.00  0.00     0.124 S 
ATOM     95  O   UNL A   1      49.477  27.031  37.803  1.00  0.00    -0.237 OA
ATOM     96  O   UNL A   1      48.078  26.757  39.821  1.00  0.00    -0.237 OA
ATOM     97  O   UNL A   1      48.166  24.967  38.130  1.00  0.00    -0.744 OA
ENDBRANCH  93  94
ENDBRANCH  67  88
ENDBRANCH  41  42
ENDBRANCH  34  36
ENDBRANCH  33  34
ENDBRANCH  32  33
ENDBRANCH  31  32
ENDBRANCH  30  31
ENDBRANCH   1  30
TORSDOF 22
ENDMDL
MODEL 3
REMARK VINA RESULT:      -9.0      2.265      3.417
REMARK SMILES O=C(NCc1ccc(C(=O)OCCOCCOC(=O)c2ccc(-c3c4nc(c(-c5ccc(S(=O)(=O)[O-])cc5)c5ccc([nH]5)c(-c5ccc(S(=O)(=O)[O-])cc5)c5nc(c(-c6ccc(S(=O)(=O)[O-])cc6)c6ccc3[nH]6)C=C5)C=C4)cc2)cc1)c1cccc(NC(=O)C2CC2)c1
REMARK SMILES IDX 13 1 12 2 11 3 9 4 10 5 8 6 5 7 6 8 81 9 7 10 80 11 4 12
REMARK SMILES IDX 3 13 1 14 2 15 82 17 83 18 93 19 84 20 86 21 85 22 87 23
REMARK SMILES IDX 88 24 89 26 90 27 91 28 92 29 14 30 15 31 16 32 17 33 18 34
REMARK SMILES IDX 19 35 20 36 21 37 79 38 22 39 78 40 23 41 24 42 25 43 72 44
REMARK SMILES IDX 26 45 77 46 71 47 73 48 27 49 76 50 70 51 69 52 28 54 58 55
REMARK SMILES IDX 39 56 57 57 40 58 43 59 56 60 74 61 41 62 42 63 55 65 75 66
REMARK SMILES IDX 44 67 29 68 30 69 38 70 31 71 37 72 32 73 33 74 34 75 35 76
REMARK SMILES IDX 36 77 59 78 60 79 68 80 61 81 67 82 62 83 63 84 64 85 65 86
REMARK SMILES IDX 66 87 45 88 46 89 54 90 47 91 53 92 48 93 49 94 50 95 51 96
REMARK SMILES IDX 52 97
REMARK H PARENT 3 16 87 25 73 53 43 64
REMARK Flexibility Score: inf
ROOT
ATOM      1  C   UNL A   1      35.379  32.996  28.198  1.00  0.00     0.202 C 
ENDROOT
BRANCH   1   2
ATOM      2  C   UNL A   1      34.440  31.816  28.471  1.00  0.00     0.261 C 
BRANCH   2   3
ATOM      3  O   UNL A   1      34.042  31.162  27.259  1.00  0.00    -0.460 OA
BRANCH   3   4
ATOM      4  C   UNL A   1      32.730  31.295  26.956  1.00  0.00     0.338 C 
ATOM      5  O   UNL A   1      32.090  32.335  26.903  1.00  0.00    -0.246 OA
BRANCH   4   6
ATOM      6  C   UNL A   1      32.171  30.000  26.508  1.00  0.00     0.060 A 
ATOM      7  C   UNL A   1      31.233  27.449  25.815  1.00  0.00    -0.029 A 
ATOM      8  C   UNL A   1      31.435  27.790  27.161  1.00  0.00     0.006 A 
ATOM      9  C   UNL A   1      31.458  28.420  24.824  1.00  0.00     0.006 A 
ATOM     10  C   UNL A   1      31.903  29.054  27.504  1.00  0.00     0.016 A 
ATOM     11  C   UNL A   1      31.913  29.698  25.169  1.00  0.00     0.016 A 
BRANCH   7  12
ATOM     12  C   UNL A   1      30.967  26.003  25.484  1.00  0.00     0.152 C 
BRANCH  12  13
ATOM     13  N   UNL A   1      31.576  25.549  24.254  1.00  0.00    -0.348 N 
ATOM     14  O   UNL A   1      33.041  24.443  22.945  1.00  0.00    -0.269 OA
ATOM     15  C   UNL A   1      32.568  24.622  24.063  1.00  0.00     0.251 C 
ATOM     16  H   UNL A   1      31.228  25.968  23.433  1.00  0.00     0.164 HD
BRANCH  15  17
ATOM     17  C   UNL A   1      33.102  23.853  25.208  1.00  0.00     0.041 A 
ATOM     18  C   UNL A   1      32.253  23.158  26.072  1.00  0.00     0.014 A 
ATOM     19  C   UNL A   1      34.491  23.804  25.391  1.00  0.00     0.040 A 
ATOM     20  C   UNL A   1      32.789  22.492  27.167  1.00  0.00     0.003 A 
ATOM     21  C   UNL A   1      35.040  23.126  26.488  1.00  0.00     0.041 A 
ATOM     22  C   UNL A   1      34.173  22.480  27.371  1.00  0.00     0.026 A 
BRANCH  21  23
ATOM     23  N   UNL A   1      36.442  23.113  26.589  1.00  0.00    -0.326 N 
ATOM     24  C   UNL A   1      37.435  22.562  25.815  1.00  0.00     0.227 C 
ATOM     25  H   UNL A   1      36.783  23.599  27.375  1.00  0.00     0.169 HD
ATOM     26  O   UNL A   1      38.606  22.858  26.039  1.00  0.00    -0.274 OA
BRANCH  24  27
ATOM     27  C   UNL A   1      37.106  21.587  24.745  1.00  0.00     0.079 C 
ATOM     28  C   UNL A   1      37.645  20.174  24.835  1.00  0.00     0.014 C 
ATOM     29  C   UNL A   1      36.178  20.420  25.009  1.00  0.00     0.014 C 
ENDBRANCH  24  27
ENDBRANCH  21  23
ENDBRANCH  15  17
ENDBRANCH  12  13
ENDBRANCH   7  12
ENDBRANCH   4   6
ENDBRANCH   3   4
ENDBRANCH   2   3
ENDBRANCH   1   2
BRANCH   1  30
ATOM     30  O   UNL A   1      34.813  34.168  27.612  1.00  0.00    -0.374 OA
BRANCH  30  31
ATOM     31  C   UNL A   1      34.254  35.142  28.495  1.00  0.00     0.202 C 
BRANCH  31  32
ATOM     32  C   UNL A   1      33.208  34.669  29.515  1.00  0.00     0.261 C 
BRANCH  32  33
ATOM     33  O   UNL A   1      32.917  35.659  30.515  1.00  0.00    -0.460 OA
BRANCH  33  34
ATOM     34  C   UNL A   1      32.861  35.193  31.786  1.00  0.00     0.338 C 
ATOM     35  O   UNL A   1      31.858  34.980  32.453  1.00  0.00    -0.246 OA
BRANCH  34  36
ATOM     36  C   UNL A   1      34.208  34.775  32.212  1.00  0.00     0.060 A 
ATOM     37  C   UNL A   1      34.454  33.405  32.374  1.00  0.00     0.016 A 
ATOM     38  C   UNL A   1      35.206  35.713  32.477  1.00  0.00     0.016 A 
ATOM     39  C   UNL A   1      35.702  32.967  32.814  1.00  0.00     0.010 A 
ATOM     40  C   UNL A   1      36.452  35.272  32.931  1.00  0.00     0.010 A 
ATOM     41  C   UNL A   1      36.702  33.900  33.114  1.00  0.00    -0.014 A 
BRANCH  41  42
ATOM     42  C   UNL A   1      37.994  33.458  33.689  1.00  0.00     0.031 A 
ATOM     43  C   UNL A   1      38.160  33.406  35.180  1.00  0.00     0.074 A 
ATOM     44  C   UNL A   1      39.017  33.128  32.881  1.00  0.00     0.049 A 
ATOM     45  N   UNL A   1      39.230  33.143  35.885  1.00  0.00    -0.248 NA
ATOM     46  C   UNL A   1      36.960  33.690  35.984  1.00  0.00     0.031 C 
ATOM     47  C   UNL A   1      38.960  33.086  31.419  1.00  0.00     0.029 A 
ATOM     48  N   UNL A   1      40.310  32.777  33.178  1.00  0.00    -0.354 N 
ATOM     49  C   UNL A   1      38.839  33.239  37.215  1.00  0.00     0.074 A 
ATOM     50  C   UNL A   1      37.440  33.612  37.218  1.00  0.00     0.031 C 
ATOM     51  C   UNL A   1      40.168  32.737  30.947  1.00  0.00     0.029 A 
ATOM     52  C   UNL A   1      41.094  32.581  32.067  1.00  0.00     0.049 A 
ATOM     53  H   UNL A   1      40.644  32.676  34.099  1.00  0.00     0.167 HD
ATOM     54  C   UNL A   1      39.580  33.035  38.332  1.00  0.00     0.031 A 
ATOM     55  C   UNL A   1      42.416  32.335  31.963  1.00  0.00     0.031 A 
ATOM     56  C   UNL A   1      40.979  32.696  38.318  1.00  0.00     0.049 A 
ATOM     57  C   UNL A   1      43.245  32.230  33.215  1.00  0.00     0.074 A 
ATOM     58  C   UNL A   1      41.818  32.458  39.394  1.00  0.00     0.029 A 
ATOM     59  N   UNL A   1      41.752  32.566  37.174  1.00  0.00    -0.354 N 
ATOM     60  N   UNL A   1      42.859  32.298  34.467  1.00  0.00    -0.248 NA
ATOM     61  C   UNL A   1      44.689  32.020  33.039  1.00  0.00     0.031 C 
ATOM     62  C   UNL A   1      43.110  32.254  38.901  1.00  0.00     0.029 A 
ATOM     63  C   UNL A   1      43.066  32.295  37.517  1.00  0.00     0.049 A 
ATOM     64  H   UNL A   1      41.415  32.654  36.252  1.00  0.00     0.167 HD
ATOM     65  C   UNL A   1      44.010  32.119  35.228  1.00  0.00     0.074 A 
ATOM     66  C   UNL A   1      45.102  31.924  34.296  1.00  0.00     0.031 C 
ATOM     67  C   UNL A   1      44.148  32.114  36.578  1.00  0.00     0.031 A 
BRANCH  54  68
ATOM     68  C   UNL A   1      38.894  33.223  39.661  1.00  0.00    -0.014 A 
ATOM     69  C   UNL A   1      39.089  34.388  40.427  1.00  0.00     0.010 A 
ATOM     70  C   UNL A   1      38.031  32.224  40.148  1.00  0.00     0.010 A 
ATOM     71  C   UNL A   1      38.479  34.524  41.678  1.00  0.00     0.020 A 
ATOM     72  C   UNL A   1      37.395  32.370  41.384  1.00  0.00     0.020 A 
ATOM     73  C   UNL A   1      37.641  33.509  42.151  1.00  0.00     0.054 A 
BRANCH  73  74
ATOM     74  S   UNL A   1      36.873  33.708  43.781  1.00  0.00     0.124 S 
ATOM     75  O   UNL A   1      37.985  33.401  44.678  1.00  0.00    -0.237 OA
ATOM     76  O   UNL A   1      36.446  35.105  43.767  1.00  0.00    -0.237 OA
ATOM     77  O   UNL A   1      35.789  32.728  43.778  1.00  0.00    -0.744 OA
ENDBRANCH  73  74
ENDBRANCH  54  68
BRANCH  55  78
ATOM     78  C   UNL A   1      43.035  32.189  30.618  1.00  0.00    -0.014 A 
ATOM     79  C   UNL A   1      43.148  30.922  30.021  1.00  0.00     0.010 A 
ATOM     80  C   UNL A   1      43.489  33.320  29.913  1.00  0.00     0.010 A 
ATOM     81  C   UNL A   1      43.700  30.787  28.744  1.00  0.00     0.020 A 
ATOM     82  C   UNL A   1      44.015  33.193  28.624  1.00  0.00     0.020 A 
ATOM     83  C   UNL A   1      44.120  31.924  28.050  1.00  0.00     0.054 A 
BRANCH  83  84
ATOM     84  S   UNL A   1      44.755  31.729  26.362  1.00  0.00     0.124 S 
ATOM     85  O   UNL A   1      44.794  30.277  26.217  1.00  0.00    -0.237 OA
ATOM     86  O   UNL A   1      43.742  32.418  25.566  1.00  0.00    -0.237 OA
ATOM     87  O   UNL A   1      46.057  32.390  26.406  1.00  0.00    -0.744 OA
ENDBRANCH  83  84
ENDBRANCH  55  78
BRANCH  67  88
ATOM     88  C   UNL A   1      45.526  31.880  37.138  1.00  0.00    -0.014 A 
ATOM     89  C   UNL A   1      46.004  30.578  37.373  1.00  0.00     0.010 A 
ATOM     90  C   UNL A   1      46.385  32.973  37.358  1.00  0.00     0.010 A 
ATOM     91  C   UNL A   1      47.309  30.375  37.829  1.00  0.00     0.020 A 
ATOM     92  C   UNL A   1      47.701  32.772  37.787  1.00  0.00     0.020 A 
ATOM     93  C   UNL A   1      48.152  31.474  38.027  1.00  0.00     0.054 A 
BRANCH  93  94
ATOM     94  S   UNL A   1      49.864  31.176  38.547  1.00  0.00     0.124 S 
ATOM     95  O   UNL A   1      49.977  32.028  39.728  1.00  0.00    -0.237 OA
ATOM     96  O   UNL A   1      49.873  29.738  38.807  1.00  0.00    -0.237 OA
ATOM     97  O   UNL A   1      50.657  31.600  37.396  1.00  0.00    -0.744 OA
ENDBRANCH  93  94
ENDBRANCH  67  88
ENDBRANCH  41  42
ENDBRANCH  34  36
ENDBRANCH  33  34
ENDBRANCH  32  33
ENDBRANCH  31  32
ENDBRANCH  30  31
ENDBRANCH   1  30
TORSDOF 22
ENDMDL
