MODEL 1
REMARK VINA RESULT:     -10.9      0.000      0.000
REMARK SMILES COc1ccc(-c2noc(CC(=O)OCCOCCOC(=O)c3ccc(-c4c5nc(c(-c6ccc(S(=O)(=O)[O-])cc6)c6ccc([nH]6)c(-c6ccc(S(=O)(=O)[O-])cc6)c6nc(c(-c7ccc(S(=O)(=O)[O-])cc7)c7ccc4[nH]7)C=C6)C=C5)cc3)c2-c2ccc(OC)cc2)cc1
REMARK SMILES IDX 17 1 16 2 15 3 14 4 12 5 13 6 11 7 10 8 7 9 8 10 83 11 9 12
REMARK SMILES IDX 6 13 3 14 4 15 93 16 5 17 92 18 2 19 1 20 84 21 85 22 91 23
REMARK SMILES IDX 86 24 90 25 87 26 88 27 89 28 18 29 19 30 20 31 21 32 22 33
REMARK SMILES IDX 23 34 24 35 82 36 25 37 81 38 26 39 27 40 28 41 75 42 29 43
REMARK SMILES IDX 80 44 74 45 76 46 30 47 79 48 73 49 72 50 31 52 61 53 42 54
REMARK SMILES IDX 60 55 43 56 46 57 59 58 77 59 44 60 45 61 58 63 78 64 47 65
REMARK SMILES IDX 32 66 33 67 41 68 34 69 40 70 35 71 36 72 37 73 38 74 39 75
REMARK SMILES IDX 62 76 63 77 71 78 64 79 70 80 65 81 66 82 67 83 68 84 69 85
REMARK SMILES IDX 48 86 49 87 57 88 50 89 56 90 51 91 52 92 53 93 54 94 55 95
REMARK H PARENT 76 51 46 62
REMARK Flexibility Score: inf
ROOT
ATOM      1  O   UNL A   1      31.935  29.559  24.226  1.00  0.00    -0.374 OA
ENDROOT
BRANCH   1   2
ATOM      2  C   UNL A   1      30.815  28.678  24.132  1.00  0.00     0.202 C 
BRANCH   2   3
ATOM      3  C   UNL A   1      30.945  27.512  23.147  1.00  0.00     0.261 C 
BRANCH   3   4
ATOM      4  O   UNL A   1      32.121  27.633  22.325  1.00  0.00    -0.463 OA
BRANCH   4   5
ATOM      5  C   UNL A   1      32.994  26.598  22.396  1.00  0.00     0.313 C 
ATOM      6  O   UNL A   1      33.849  26.349  21.547  1.00  0.00    -0.252 OA
BRANCH   5   7
ATOM      7  C   UNL A   1      32.907  25.767  23.648  1.00  0.00     0.201 C 
BRANCH   7   8
ATOM      8  C   UNL A   1      32.617  24.320  23.485  1.00  0.00     0.156 A 
ATOM      9  C   UNL A   1      32.335  22.115  23.542  1.00  0.00     0.122 A 
ATOM     10  N   UNL A   1      31.205  22.632  23.035  1.00  0.00    -0.079 NA
ATOM     11  C   UNL A   1      33.277  23.155  23.812  1.00  0.00     0.053 A 
ATOM     12  O   UNL A   1      31.376  24.000  23.028  1.00  0.00    -0.359 OA
BRANCH   9  13
ATOM     13  C   UNL A   1      32.465  20.687  23.811  1.00  0.00     0.005 A 
ATOM     14  C   UNL A   1      32.774  17.941  24.343  1.00  0.00     0.118 A 
ATOM     15  C   UNL A   1      32.455  18.384  23.057  1.00  0.00     0.047 A 
ATOM     16  C   UNL A   1      32.939  18.873  25.366  1.00  0.00     0.047 A 
ATOM     17  C   UNL A   1      32.287  19.747  22.792  1.00  0.00     0.014 A 
ATOM     18  C   UNL A   1      32.784  20.238  25.100  1.00  0.00     0.014 A 
BRANCH  14  19
ATOM     19  O   UNL A   1      32.927  16.587  24.470  1.00  0.00    -0.497 OA
ATOM     20  C   UNL A   1      32.489  16.011  25.694  1.00  0.00     0.278 C 
ENDBRANCH  14  19
ENDBRANCH   9  13
BRANCH  11  21
ATOM     21  C   UNL A   1      34.612  23.095  24.363  1.00  0.00    -0.012 A 
ATOM     22  C   UNL A   1      35.674  22.642  23.576  1.00  0.00     0.013 A 
ATOM     23  C   UNL A   1      34.850  23.474  25.689  1.00  0.00     0.013 A 
ATOM     24  C   UNL A   1      36.965  22.598  24.109  1.00  0.00     0.047 A 
ATOM     25  C   UNL A   1      36.145  23.443  26.212  1.00  0.00     0.047 A 
ATOM     26  C   UNL A   1      37.210  23.014  25.419  1.00  0.00     0.118 A 
BRANCH  26  27
ATOM     27  O   UNL A   1      38.515  22.939  25.816  1.00  0.00    -0.497 OA
ATOM     28  C   UNL A   1      38.947  23.911  26.759  1.00  0.00     0.278 C 
ENDBRANCH  26  27
ENDBRANCH  11  21
ENDBRANCH   7   8
ENDBRANCH   5   7
ENDBRANCH   4   5
ENDBRANCH   3   4
ENDBRANCH   2   3
ENDBRANCH   1   2
BRANCH   1  29
ATOM     29  C   UNL A   1      32.774  29.429  25.375  1.00  0.00     0.202 C 
BRANCH  29  30
ATOM     30  C   UNL A   1      32.566  30.445  26.505  1.00  0.00     0.261 C 
BRANCH  30  31
ATOM     31  O   UNL A   1      33.508  30.276  27.578  1.00  0.00    -0.460 OA
BRANCH  31  32
ATOM     32  C   UNL A   1      34.310  31.343  27.794  1.00  0.00     0.338 C 
ATOM     33  O   UNL A   1      33.971  32.520  27.856  1.00  0.00    -0.246 OA
BRANCH  32  34
ATOM     34  C   UNL A   1      35.675  30.911  28.144  1.00  0.00     0.060 A 
ATOM     35  C   UNL A   1      35.855  29.554  28.433  1.00  0.00     0.016 A 
ATOM     36  C   UNL A   1      36.732  31.814  28.290  1.00  0.00     0.016 A 
ATOM     37  C   UNL A   1      37.072  29.105  28.936  1.00  0.00     0.010 A 
ATOM     38  C   UNL A   1      37.956  31.359  28.802  1.00  0.00     0.010 A 
ATOM     39  C   UNL A   1      38.118  30.011  29.168  1.00  0.00    -0.014 A 
BRANCH  39  40
ATOM     40  C   UNL A   1      39.309  29.536  29.917  1.00  0.00     0.031 A 
ATOM     41  C   UNL A   1      39.517  29.986  31.340  1.00  0.00     0.074 A 
ATOM     42  C   UNL A   1      40.143  28.632  29.372  1.00  0.00     0.049 A 
ATOM     43  N   UNL A   1      40.413  29.593  32.209  1.00  0.00    -0.248 NA
ATOM     44  C   UNL A   1      38.590  31.008  31.852  1.00  0.00     0.031 C 
ATOM     45  C   UNL A   1      40.035  28.093  28.015  1.00  0.00     0.029 A 
ATOM     46  N   UNL A   1      41.234  27.991  29.903  1.00  0.00    -0.354 N 
ATOM     47  C   UNL A   1      40.155  30.310  33.372  1.00  0.00     0.074 A 
ATOM     48  C   UNL A   1      39.042  31.190  33.085  1.00  0.00     0.031 C 
ATOM     49  C   UNL A   1      41.013  27.190  27.826  1.00  0.00     0.029 A 
ATOM     50  C   UNL A   1      41.824  27.099  29.039  1.00  0.00     0.049 A 
ATOM     51  H   UNL A   1      41.564  28.155  30.816  1.00  0.00     0.167 HD
ATOM     52  C   UNL A   1      40.777  30.237  34.573  1.00  0.00     0.031 A 
ATOM     53  C   UNL A   1      42.893  26.297  29.206  1.00  0.00     0.031 A 
ATOM     54  C   UNL A   1      41.894  29.374  34.859  1.00  0.00     0.049 A 
ATOM     55  C   UNL A   1      43.601  26.269  30.535  1.00  0.00     0.074 A 
ATOM     56  C   UNL A   1      42.580  29.219  36.051  1.00  0.00     0.029 A 
ATOM     57  N   UNL A   1      42.495  28.528  33.940  1.00  0.00    -0.354 N 
ATOM     58  N   UNL A   1      43.318  26.927  31.633  1.00  0.00    -0.248 NA
ATOM     59  C   UNL A   1      44.762  25.376  30.648  1.00  0.00     0.031 C 
ATOM     60  C   UNL A   1      43.629  28.316  35.839  1.00  0.00     0.029 A 
ATOM     61  C   UNL A   1      43.561  27.868  34.530  1.00  0.00     0.049 A 
ATOM     62  H   UNL A   1      42.207  28.412  33.006  1.00  0.00     0.167 HD
ATOM     63  C   UNL A   1      44.256  26.514  32.574  1.00  0.00     0.074 A 
ATOM     64  C   UNL A   1      45.099  25.535  31.921  1.00  0.00     0.031 C 
ATOM     65  C   UNL A   1      44.406  26.910  33.863  1.00  0.00     0.031 A 
BRANCH  52  66
ATOM     66  C   UNL A   1      40.275  31.140  35.669  1.00  0.00    -0.014 A 
ATOM     67  C   UNL A   1      41.091  32.152  36.208  1.00  0.00     0.010 A 
ATOM     68  C   UNL A   1      38.959  30.996  36.143  1.00  0.00     0.010 A 
ATOM     69  C   UNL A   1      40.610  32.979  37.227  1.00  0.00     0.020 A 
ATOM     70  C   UNL A   1      38.468  31.837  37.145  1.00  0.00     0.020 A 
ATOM     71  C   UNL A   1      39.302  32.812  37.693  1.00  0.00     0.054 A 
BRANCH  71  72
ATOM     72  S   UNL A   1      38.696  33.911  39.004  1.00  0.00     0.124 S 
ATOM     73  O   UNL A   1      38.907  35.230  38.413  1.00  0.00    -0.237 OA
ATOM     74  O   UNL A   1      37.300  33.502  39.146  1.00  0.00    -0.237 OA
ATOM     75  O   UNL A   1      39.552  33.594  40.144  1.00  0.00    -0.744 OA
ENDBRANCH  71  72
ENDBRANCH  52  66
BRANCH  53  76
ATOM     76  C   UNL A   1      43.364  25.448  28.078  1.00  0.00    -0.014 A 
ATOM     77  C   UNL A   1      42.831  24.164  27.869  1.00  0.00     0.010 A 
ATOM     78  C   UNL A   1      44.353  25.930  27.202  1.00  0.00     0.010 A 
ATOM     79  C   UNL A   1      43.288  23.373  26.810  1.00  0.00     0.020 A 
ATOM     80  C   UNL A   1      44.794  25.153  26.128  1.00  0.00     0.020 A 
ATOM     81  C   UNL A   1      44.266  23.874  25.945  1.00  0.00     0.054 A 
BRANCH  81  82
ATOM     82  S   UNL A   1      44.803  22.857  24.541  1.00  0.00     0.124 S 
ATOM     83  O   UNL A   1      45.777  23.726  23.891  1.00  0.00    -0.237 OA
ATOM     84  O   UNL A   1      45.350  21.672  25.199  1.00  0.00    -0.237 OA
ATOM     85  O   UNL A   1      43.567  22.629  23.795  1.00  0.00    -0.744 OA
ENDBRANCH  81  82
ENDBRANCH  53  76
BRANCH  65  86
ATOM     86  C   UNL A   1      45.517  26.269  34.653  1.00  0.00    -0.014 A 
ATOM     87  C   UNL A   1      46.799  26.845  34.704  1.00  0.00     0.010 A 
ATOM     88  C   UNL A   1      45.271  25.082  35.367  1.00  0.00     0.010 A 
ATOM     89  C   UNL A   1      47.829  26.220  35.413  1.00  0.00     0.020 A 
ATOM     90  C   UNL A   1      46.291  24.468  36.099  1.00  0.00     0.020 A 
ATOM     91  C   UNL A   1      47.570  25.029  36.099  1.00  0.00     0.054 A 
BRANCH  91  92
ATOM     92  S   UNL A   1      48.918  24.235  37.017  1.00  0.00     0.124 S 
ATOM     93  O   UNL A   1      48.652  22.819  36.781  1.00  0.00    -0.237 OA
ATOM     94  O   UNL A   1      50.112  24.766  36.364  1.00  0.00    -0.237 OA
ATOM     95  O   UNL A   1      48.714  24.688  38.391  1.00  0.00    -0.744 OA
ENDBRANCH  91  92
ENDBRANCH  65  86
ENDBRANCH  39  40
ENDBRANCH  32  34
ENDBRANCH  31  32
ENDBRANCH  30  31
ENDBRANCH  29  30
ENDBRANCH   1  29
TORSDOF 22
ENDMDL
MODEL 2
REMARK VINA RESULT:     -10.3      1.394      3.216
REMARK SMILES COc1ccc(-c2noc(CC(=O)OCCOCCOC(=O)c3ccc(-c4c5nc(c(-c6ccc(S(=O)(=O)[O-])cc6)c6ccc([nH]6)c(-c6ccc(S(=O)(=O)[O-])cc6)c6nc(c(-c7ccc(S(=O)(=O)[O-])cc7)c7ccc4[nH]7)C=C6)C=C5)cc3)c2-c2ccc(OC)cc2)cc1
REMARK SMILES IDX 17 1 16 2 15 3 14 4 12 5 13 6 11 7 10 8 7 9 8 10 83 11 9 12
REMARK SMILES IDX 6 13 3 14 4 15 93 16 5 17 92 18 2 19 1 20 84 21 85 22 91 23
REMARK SMILES IDX 86 24 90 25 87 26 88 27 89 28 18 29 19 30 20 31 21 32 22 33
REMARK SMILES IDX 23 34 24 35 82 36 25 37 81 38 26 39 27 40 28 41 75 42 29 43
REMARK SMILES IDX 80 44 74 45 76 46 30 47 79 48 73 49 72 50 31 52 61 53 42 54
REMARK SMILES IDX 60 55 43 56 46 57 59 58 77 59 44 60 45 61 58 63 78 64 47 65
REMARK SMILES IDX 32 66 33 67 41 68 34 69 40 70 35 71 36 72 37 73 38 74 39 75
REMARK SMILES IDX 62 76 63 77 71 78 64 79 70 80 65 81 66 82 67 83 68 84 69 85
REMARK SMILES IDX 48 86 49 87 57 88 50 89 56 90 51 91 52 92 53 93 54 94 55 95
REMARK H PARENT 76 51 46 62
REMARK Flexibility Score: inf
ROOT
ATOM      1  O   UNL A   1      31.802  29.161  24.519  1.00  0.00    -0.374 OA
ENDROOT
BRANCH   1   2
ATOM      2  C   UNL A   1      30.719  29.538  23.667  1.00  0.00     0.202 C 
BRANCH   2   3
ATOM      3  C   UNL A   1      29.681  28.452  23.364  1.00  0.00     0.261 C 
BRANCH   3   4
ATOM      4  O   UNL A   1      30.140  27.146  23.761  1.00  0.00    -0.463 OA
BRANCH   4   5
ATOM      5  C   UNL A   1      30.707  26.402  22.781  1.00  0.00     0.313 C 
ATOM      6  O   UNL A   1      30.961  26.815  21.650  1.00  0.00    -0.252 OA
BRANCH   5   7
ATOM      7  C   UNL A   1      31.091  25.001  23.178  1.00  0.00     0.201 C 
BRANCH   7   8
ATOM      8  C   UNL A   1      32.417  24.815  23.818  1.00  0.00     0.156 A 
ATOM      9  C   UNL A   1      34.459  24.304  24.536  1.00  0.00     0.122 A 
ATOM     10  N   UNL A   1      34.336  25.635  24.650  1.00  0.00    -0.079 NA
ATOM     11  C   UNL A   1      33.246  23.736  24.040  1.00  0.00     0.053 A 
ATOM     12  O   UNL A   1      33.078  25.948  24.179  1.00  0.00    -0.359 OA
BRANCH   9  13
ATOM     13  C   UNL A   1      35.717  23.628  24.832  1.00  0.00     0.005 A 
ATOM     14  C   UNL A   1      38.115  22.271  25.412  1.00  0.00     0.118 A 
ATOM     15  C   UNL A   1      37.667  23.309  26.234  1.00  0.00     0.047 A 
ATOM     16  C   UNL A   1      37.361  21.911  24.296  1.00  0.00     0.047 A 
ATOM     17  C   UNL A   1      36.484  23.995  25.941  1.00  0.00     0.014 A 
ATOM     18  C   UNL A   1      36.170  22.587  24.009  1.00  0.00     0.014 A 
BRANCH  14  19
ATOM     19  O   UNL A   1      39.276  21.670  25.814  1.00  0.00    -0.497 OA
ATOM     20  C   UNL A   1      40.018  22.340  26.825  1.00  0.00     0.278 C 
ENDBRANCH  14  19
ENDBRANCH   9  13
BRANCH  11  21
ATOM     21  C   UNL A   1      32.901  22.362  23.746  1.00  0.00    -0.012 A 
ATOM     22  C   UNL A   1      33.024  21.383  24.735  1.00  0.00     0.013 A 
ATOM     23  C   UNL A   1      32.456  22.000  22.470  1.00  0.00     0.013 A 
ATOM     24  C   UNL A   1      32.677  20.060  24.451  1.00  0.00     0.047 A 
ATOM     25  C   UNL A   1      32.096  20.679  22.195  1.00  0.00     0.047 A 
ATOM     26  C   UNL A   1      32.196  19.705  23.189  1.00  0.00     0.118 A 
BRANCH  26  27
ATOM     27  O   UNL A   1      31.875  18.385  23.041  1.00  0.00    -0.497 OA
ATOM     28  C   UNL A   1      32.926  17.451  23.253  1.00  0.00     0.278 C 
ENDBRANCH  26  27
ENDBRANCH  11  21
ENDBRANCH   7   8
ENDBRANCH   5   7
ENDBRANCH   4   5
ENDBRANCH   3   4
ENDBRANCH   2   3
ENDBRANCH   1   2
BRANCH   1  29
ATOM     29  C   UNL A   1      31.613  29.322  25.926  1.00  0.00     0.202 C 
BRANCH  29  30
ATOM     30  C   UNL A   1      32.417  30.433  26.612  1.00  0.00     0.261 C 
BRANCH  30  31
ATOM     31  O   UNL A   1      33.790  30.065  26.829  1.00  0.00    -0.460 OA
BRANCH  31  32
ATOM     32  C   UNL A   1      34.440  30.830  27.735  1.00  0.00     0.338 C 
ATOM     33  O   UNL A   1      34.005  31.823  28.310  1.00  0.00    -0.246 OA
BRANCH  32  34
ATOM     34  C   UNL A   1      35.724  30.216  28.116  1.00  0.00     0.060 A 
ATOM     35  C   UNL A   1      35.817  29.694  29.411  1.00  0.00     0.016 A 
ATOM     36  C   UNL A   1      36.843  30.238  27.278  1.00  0.00     0.016 A 
ATOM     37  C   UNL A   1      37.045  29.255  29.898  1.00  0.00     0.010 A 
ATOM     38  C   UNL A   1      38.079  29.799  27.773  1.00  0.00     0.010 A 
ATOM     39  C   UNL A   1      38.195  29.346  29.100  1.00  0.00    -0.014 A 
BRANCH  39  40
ATOM     40  C   UNL A   1      39.514  29.088  29.732  1.00  0.00     0.031 A 
ATOM     41  C   UNL A   1      39.900  29.846  30.975  1.00  0.00     0.074 A 
ATOM     42  C   UNL A   1      40.316  28.115  29.264  1.00  0.00     0.049 A 
ATOM     43  N   UNL A   1      40.940  29.684  31.753  1.00  0.00    -0.248 NA
ATOM     44  C   UNL A   1      38.993  30.924  31.401  1.00  0.00     0.031 C 
ATOM     45  C   UNL A   1      40.044  27.288  28.088  1.00  0.00     0.029 A 
ATOM     46  N   UNL A   1      41.515  27.643  29.738  1.00  0.00    -0.354 N 
ATOM     47  C   UNL A   1      40.811  30.630  32.764  1.00  0.00     0.074 A 
ATOM     48  C   UNL A   1      39.611  31.387  32.479  1.00  0.00     0.031 C 
ATOM     49  C   UNL A   1      41.041  26.399  27.940  1.00  0.00     0.029 A 
ATOM     50  C   UNL A   1      42.028  26.603  28.999  1.00  0.00     0.049 A 
ATOM     51  H   UNL A   1      41.965  28.015  30.530  1.00  0.00     0.167 HD
ATOM     52  C   UNL A   1      41.608  30.843  33.838  1.00  0.00     0.031 A 
ATOM     53  C   UNL A   1      43.162  25.894  29.158  1.00  0.00     0.031 A 
ATOM     54  C   UNL A   1      42.811  30.102  34.117  1.00  0.00     0.049 A 
ATOM     55  C   UNL A   1      44.060  26.182  30.332  1.00  0.00     0.074 A 
ATOM     56  C   UNL A   1      43.676  30.236  35.189  1.00  0.00     0.029 A 
ATOM     57  N   UNL A   1      43.324  29.096  33.314  1.00  0.00    -0.354 N 
ATOM     58  N   UNL A   1      43.900  27.056  31.297  1.00  0.00    -0.248 NA
ATOM     59  C   UNL A   1      45.283  25.375  30.444  1.00  0.00     0.031 C 
ATOM     60  C   UNL A   1      44.741  29.344  35.008  1.00  0.00     0.029 A 
ATOM     61  C   UNL A   1      44.509  28.618  33.852  1.00  0.00     0.049 A 
ATOM     62  H   UNL A   1      42.908  28.768  32.484  1.00  0.00     0.167 HD
ATOM     63  C   UNL A   1      44.994  26.891  32.141  1.00  0.00     0.074 A 
ATOM     64  C   UNL A   1      45.795  25.821  31.584  1.00  0.00     0.031 C 
ATOM     65  C   UNL A   1      45.307  27.565  33.276  1.00  0.00     0.031 A 
BRANCH  52  66
ATOM     66  C   UNL A   1      41.216  31.947  34.784  1.00  0.00    -0.014 A 
ATOM     67  C   UNL A   1      40.409  31.689  35.908  1.00  0.00     0.010 A 
ATOM     68  C   UNL A   1      41.687  33.254  34.564  1.00  0.00     0.010 A 
ATOM     69  C   UNL A   1      40.052  32.727  36.774  1.00  0.00     0.020 A 
ATOM     70  C   UNL A   1      41.351  34.288  35.442  1.00  0.00     0.020 A 
ATOM     71  C   UNL A   1      40.522  34.021  36.532  1.00  0.00     0.054 A 
BRANCH  71  72
ATOM     72  S   UNL A   1      40.058  35.347  37.682  1.00  0.00     0.124 S 
ATOM     73  O   UNL A   1      38.789  34.856  38.212  1.00  0.00    -0.237 OA
ATOM     74  O   UNL A   1      41.172  35.357  38.627  1.00  0.00    -0.237 OA
ATOM     75  O   UNL A   1      39.962  36.528  36.827  1.00  0.00    -0.744 OA
ENDBRANCH  71  72
ENDBRANCH  52  66
BRANCH  53  76
ATOM     76  C   UNL A   1      43.516  24.834  28.175  1.00  0.00    -0.014 A 
ATOM     77  C   UNL A   1      43.205  23.486  28.423  1.00  0.00     0.010 A 
ATOM     78  C   UNL A   1      44.167  25.178  26.977  1.00  0.00     0.010 A 
ATOM     79  C   UNL A   1      43.550  22.499  27.495  1.00  0.00     0.020 A 
ATOM     80  C   UNL A   1      44.491  24.197  26.035  1.00  0.00     0.020 A 
ATOM     81  C   UNL A   1      44.190  22.861  26.305  1.00  0.00     0.054 A 
BRANCH  81  82
ATOM     82  S   UNL A   1      44.575  21.574  25.086  1.00  0.00     0.124 S 
ATOM     83  O   UNL A   1      45.920  21.172  25.485  1.00  0.00    -0.237 OA
ATOM     84  O   UNL A   1      43.523  20.588  25.322  1.00  0.00    -0.237 OA
ATOM     85  O   UNL A   1      44.482  22.277  23.809  1.00  0.00    -0.744 OA
ENDBRANCH  81  82
ENDBRANCH  53  76
BRANCH  65  86
ATOM     86  C   UNL A   1      46.564  27.151  33.996  1.00  0.00    -0.014 A 
ATOM     87  C   UNL A   1      47.802  27.749  33.698  1.00  0.00     0.010 A 
ATOM     88  C   UNL A   1      46.504  26.161  34.993  1.00  0.00     0.010 A 
ATOM     89  C   UNL A   1      48.966  27.329  34.350  1.00  0.00     0.020 A 
ATOM     90  C   UNL A   1      47.661  25.757  35.666  1.00  0.00     0.020 A 
ATOM     91  C   UNL A   1      48.888  26.329  35.324  1.00  0.00     0.054 A 
BRANCH  91  92
ATOM     92  S   UNL A   1      50.408  25.801  36.162  1.00  0.00     0.124 S 
ATOM     93  O   UNL A   1      51.435  26.500  35.394  1.00  0.00    -0.237 OA
ATOM     94  O   UNL A   1      50.209  26.282  37.527  1.00  0.00    -0.237 OA
ATOM     95  O   UNL A   1      50.398  24.348  36.013  1.00  0.00    -0.744 OA
ENDBRANCH  91  92
ENDBRANCH  65  86
ENDBRANCH  39  40
ENDBRANCH  32  34
ENDBRANCH  31  32
ENDBRANCH  30  31
ENDBRANCH  29  30
ENDBRANCH   1  29
TORSDOF 22
ENDMDL
MODEL 3
REMARK VINA RESULT:     -10.3      4.560     10.434
REMARK SMILES COc1ccc(-c2noc(CC(=O)OCCOCCOC(=O)c3ccc(-c4c5nc(c(-c6ccc(S(=O)(=O)[O-])cc6)c6ccc([nH]6)c(-c6ccc(S(=O)(=O)[O-])cc6)c6nc(c(-c7ccc(S(=O)(=O)[O-])cc7)c7ccc4[nH]7)C=C6)C=C5)cc3)c2-c2ccc(OC)cc2)cc1
REMARK SMILES IDX 17 1 16 2 15 3 14 4 12 5 13 6 11 7 10 8 7 9 8 10 83 11 9 12
REMARK SMILES IDX 6 13 3 14 4 15 93 16 5 17 92 18 2 19 1 20 84 21 85 22 91 23
REMARK SMILES IDX 86 24 90 25 87 26 88 27 89 28 18 29 19 30 20 31 21 32 22 33
REMARK SMILES IDX 23 34 24 35 82 36 25 37 81 38 26 39 27 40 28 41 75 42 29 43
REMARK SMILES IDX 80 44 74 45 76 46 30 47 79 48 73 49 72 50 31 52 61 53 42 54
REMARK SMILES IDX 60 55 43 56 46 57 59 58 77 59 44 60 45 61 58 63 78 64 47 65
REMARK SMILES IDX 32 66 33 67 41 68 34 69 40 70 35 71 36 72 37 73 38 74 39 75
REMARK SMILES IDX 62 76 63 77 71 78 64 79 70 80 65 81 66 82 67 83 68 84 69 85
REMARK SMILES IDX 48 86 49 87 57 88 50 89 56 90 51 91 52 92 53 93 54 94 55 95
REMARK H PARENT 76 51 46 62
REMARK Flexibility Score: inf
ROOT
ATOM      1  O   UNL A   1      35.976  20.683  25.379  1.00  0.00    -0.374 OA
ENDROOT
BRANCH   1   2
ATOM      2  C   UNL A   1      34.858  20.083  24.723  1.00  0.00     0.202 C 
BRANCH   2   3
ATOM      3  C   UNL A   1      33.539  20.861  24.774  1.00  0.00     0.261 C 
BRANCH   3   4
ATOM      4  O   UNL A   1      33.635  22.024  25.616  1.00  0.00    -0.463 OA
BRANCH   4   5
ATOM      5  C   UNL A   1      33.470  23.215  24.991  1.00  0.00     0.313 C 
ATOM      6  O   UNL A   1      33.766  23.433  23.817  1.00  0.00    -0.252 OA
BRANCH   5   7
ATOM      7  C   UNL A   1      32.816  24.291  25.818  1.00  0.00     0.201 C 
BRANCH   7   8
ATOM      8  C   UNL A   1      31.696  25.040  25.196  1.00  0.00     0.156 A 
ATOM      9  C   UNL A   1      30.252  26.397  24.188  1.00  0.00     0.122 A 
ATOM     10  N   UNL A   1      29.917  25.149  23.828  1.00  0.00    -0.079 NA
ATOM     11  C   UNL A   1      31.361  26.373  25.088  1.00  0.00     0.053 A 
ATOM     12  O   UNL A   1      30.833  24.315  24.435  1.00  0.00    -0.359 OA
BRANCH   9  13
ATOM     13  C   UNL A   1      29.566  27.559  23.632  1.00  0.00     0.005 A 
ATOM     14  C   UNL A   1      28.222  29.766  22.515  1.00  0.00     0.118 A 
ATOM     15  C   UNL A   1      29.617  29.750  22.599  1.00  0.00     0.047 A 
ATOM     16  C   UNL A   1      27.497  28.675  22.991  1.00  0.00     0.047 A 
ATOM     17  C   UNL A   1      30.288  28.662  23.166  1.00  0.00     0.014 A 
ATOM     18  C   UNL A   1      28.166  27.580  23.547  1.00  0.00     0.014 A 
BRANCH  14  19
ATOM     19  O   UNL A   1      27.689  30.879  21.926  1.00  0.00    -0.497 OA
ATOM     20  C   UNL A   1      28.051  31.115  20.572  1.00  0.00     0.278 C 
ENDBRANCH  14  19
ENDBRANCH   9  13
BRANCH  11  21
ATOM     21  C   UNL A   1      32.074  27.453  25.733  1.00  0.00    -0.012 A 
ATOM     22  C   UNL A   1      31.512  28.103  26.835  1.00  0.00     0.013 A 
ATOM     23  C   UNL A   1      33.321  27.867  25.252  1.00  0.00     0.013 A 
ATOM     24  C   UNL A   1      32.211  29.137  27.463  1.00  0.00     0.047 A 
ATOM     25  C   UNL A   1      34.022  28.891  25.893  1.00  0.00     0.047 A 
ATOM     26  C   UNL A   1      33.473  29.524  27.008  1.00  0.00     0.118 A 
BRANCH  26  27
ATOM     27  O   UNL A   1      34.059  30.534  27.717  1.00  0.00    -0.497 OA
ATOM     28  C   UNL A   1      35.480  30.529  27.770  1.00  0.00     0.278 C 
ENDBRANCH  26  27
ENDBRANCH  11  21
ENDBRANCH   7   8
ENDBRANCH   5   7
ENDBRANCH   4   5
ENDBRANCH   3   4
ENDBRANCH   2   3
ENDBRANCH   1   2
BRANCH   1  29
ATOM     29  C   UNL A   1      37.278  20.258  24.972  1.00  0.00     0.202 C 
BRANCH  29  30
ATOM     30  C   UNL A   1      38.425  21.257  25.162  1.00  0.00     0.261 C 
BRANCH  30  31
ATOM     31  O   UNL A   1      38.216  22.129  26.286  1.00  0.00    -0.460 OA
BRANCH  31  32
ATOM     32  C   UNL A   1      37.928  23.409  25.958  1.00  0.00     0.338 C 
ATOM     33  O   UNL A   1      36.909  23.819  25.413  1.00  0.00    -0.246 OA
BRANCH  32  34
ATOM     34  C   UNL A   1      38.934  24.331  26.513  1.00  0.00     0.060 A 
ATOM     35  C   UNL A   1      38.871  24.587  27.887  1.00  0.00     0.016 A 
ATOM     36  C   UNL A   1      39.851  25.012  25.707  1.00  0.00     0.016 A 
ATOM     37  C   UNL A   1      39.674  25.574  28.450  1.00  0.00     0.010 A 
ATOM     38  C   UNL A   1      40.656  26.009  26.276  1.00  0.00     0.010 A 
ATOM     39  C   UNL A   1      40.540  26.324  27.642  1.00  0.00    -0.014 A 
BRANCH  39  40
ATOM     40  C   UNL A   1      41.203  27.514  28.235  1.00  0.00     0.031 A 
ATOM     41  C   UNL A   1      42.701  27.648  28.146  1.00  0.00     0.074 A 
ATOM     42  C   UNL A   1      40.471  28.515  28.756  1.00  0.00     0.049 A 
ATOM     43  N   UNL A   1      43.462  28.659  28.480  1.00  0.00    -0.248 NA
ATOM     44  C   UNL A   1      43.437  26.495  27.603  1.00  0.00     0.031 C 
ATOM     45  C   UNL A   1      39.012  28.523  28.873  1.00  0.00     0.029 A 
ATOM     46  N   UNL A   1      40.856  29.732  29.263  1.00  0.00    -0.354 N 
ATOM     47  C   UNL A   1      44.764  28.270  28.182  1.00  0.00     0.074 A 
ATOM     48  C   UNL A   1      44.692  26.916  27.675  1.00  0.00     0.031 C 
ATOM     49  C   UNL A   1      38.624  29.694  29.405  1.00  0.00     0.029 A 
ATOM     50  C   UNL A   1      39.804  30.512  29.680  1.00  0.00     0.049 A 
ATOM     51  H   UNL A   1      41.796  30.017  29.324  1.00  0.00     0.167 HD
ATOM     52  C   UNL A   1      45.913  28.976  28.306  1.00  0.00     0.031 A 
ATOM     53  C   UNL A   1      39.791  31.747  30.218  1.00  0.00     0.031 A 
ATOM     54  C   UNL A   1      45.991  30.318  28.823  1.00  0.00     0.049 A 
ATOM     55  C   UNL A   1      41.087  32.494  30.394  1.00  0.00     0.074 A 
ATOM     56  C   UNL A   1      47.109  31.120  28.973  1.00  0.00     0.029 A 
ATOM     57  N   UNL A   1      44.909  31.051  29.286  1.00  0.00    -0.354 N 
ATOM     58  N   UNL A   1      42.303  32.123  30.071  1.00  0.00    -0.248 NA
ATOM     59  C   UNL A   1      41.003  33.833  30.992  1.00  0.00     0.031 C 
ATOM     60  C   UNL A   1      46.710  32.321  29.573  1.00  0.00     0.029 A 
ATOM     61  C   UNL A   1      45.336  32.287  29.747  1.00  0.00     0.049 A 
ATOM     62  H   UNL A   1      43.975  30.741  29.287  1.00  0.00     0.167 HD
ATOM     63  C   UNL A   1      43.127  33.191  30.411  1.00  0.00     0.074 A 
ATOM     64  C   UNL A   1      42.268  34.228  30.943  1.00  0.00     0.031 C 
ATOM     65  C   UNL A   1      44.474  33.303  30.293  1.00  0.00     0.031 A 
BRANCH  52  66
ATOM     66  C   UNL A   1      47.192  28.295  27.895  1.00  0.00    -0.014 A 
ATOM     67  C   UNL A   1      47.717  28.454  26.599  1.00  0.00     0.010 A 
ATOM     68  C   UNL A   1      47.896  27.514  28.828  1.00  0.00     0.010 A 
ATOM     69  C   UNL A   1      48.904  27.813  26.235  1.00  0.00     0.020 A 
ATOM     70  C   UNL A   1      49.096  26.891  28.474  1.00  0.00     0.020 A 
ATOM     71  C   UNL A   1      49.584  27.030  27.173  1.00  0.00     0.054 A 
BRANCH  71  72
ATOM     72  S   UNL A   1      51.132  26.222  26.680  1.00  0.00     0.124 S 
ATOM     73  O   UNL A   1      52.131  27.057  27.343  1.00  0.00    -0.237 OA
ATOM     74  O   UNL A   1      50.979  24.875  27.223  1.00  0.00    -0.237 OA
ATOM     75  O   UNL A   1      51.117  26.307  25.222  1.00  0.00    -0.744 OA
ENDBRANCH  71  72
ENDBRANCH  52  66
BRANCH  53  76
ATOM     76  C   UNL A   1      38.500  32.359  30.635  1.00  0.00    -0.014 A 
ATOM     77  C   UNL A   1      37.731  33.108  29.727  1.00  0.00     0.010 A 
ATOM     78  C   UNL A   1      38.034  32.188  31.951  1.00  0.00     0.010 A 
ATOM     79  C   UNL A   1      36.523  33.685  30.133  1.00  0.00     0.020 A 
ATOM     80  C   UNL A   1      36.816  32.742  32.353  1.00  0.00     0.020 A 
ATOM     81  C   UNL A   1      36.073  33.496  31.444  1.00  0.00     0.054 A 
BRANCH  81  82
ATOM     82  S   UNL A   1      34.475  34.202  31.934  1.00  0.00     0.124 S 
ATOM     83  O   UNL A   1      33.812  34.378  30.646  1.00  0.00    -0.237 OA
ATOM     84  O   UNL A   1      33.919  33.160  32.795  1.00  0.00    -0.237 OA
ATOM     85  O   UNL A   1      34.845  35.435  32.624  1.00  0.00    -0.744 OA
ENDBRANCH  81  82
ENDBRANCH  53  76
BRANCH  65  86
ATOM     86  C   UNL A   1      45.096  34.602  30.736  1.00  0.00    -0.014 A 
ATOM     87  C   UNL A   1      45.554  34.776  32.055  1.00  0.00     0.010 A 
ATOM     88  C   UNL A   1      45.238  35.657  29.817  1.00  0.00     0.010 A 
ATOM     89  C   UNL A   1      46.097  35.999  32.460  1.00  0.00     0.020 A 
ATOM     90  C   UNL A   1      45.805  36.872  30.211  1.00  0.00     0.020 A 
ATOM     91  C   UNL A   1      46.211  37.043  31.537  1.00  0.00     0.054 A 
BRANCH  91  92
ATOM     92  S   UNL A   1      46.923  38.620  32.080  1.00  0.00     0.124 S 
ATOM     93  O   UNL A   1      46.783  39.444  30.882  1.00  0.00    -0.237 OA
ATOM     94  O   UNL A   1      46.065  38.994  33.202  1.00  0.00    -0.237 OA
ATOM     95  O   UNL A   1      48.295  38.273  32.442  1.00  0.00    -0.744 OA
ENDBRANCH  91  92
ENDBRANCH  65  86
ENDBRANCH  39  40
ENDBRANCH  32  34
ENDBRANCH  31  32
ENDBRANCH  30  31
ENDBRANCH  29  30
ENDBRANCH   1  29
TORSDOF 22
ENDMDL
