MODEL 1
REMARK VINA RESULT:      -9.4      0.000      0.000
REMARK SMILES CCOc1ccc(-c2ccc(=O)n(CC(=O)OCCOCCOC(=O)c3ccc(-c4c5nc(c(-c6ccc(S(=O)(=O)[O-])cc6)c6ccc([nH]6)c(-c6ccc(S(=O)(=O)[O-])cc6)c6nc(c(-c7ccc(S(=O)(=O)[O-])cc7)c7ccc4[nH]7)C=C6)C=C5)cc3)n2)cc1
REMARK SMILES IDX 19 1 18 2 17 3 15 4 16 5 14 6 13 7 8 8 9 9 86 10 10 11 11 12
REMARK SMILES IDX 12 13 7 14 4 15 5 16 88 17 6 18 87 19 3 20 2 21 1 22 20 23
REMARK SMILES IDX 21 24 22 25 23 26 24 27 25 28 26 29 27 30 85 31 28 32 84 33
REMARK SMILES IDX 29 34 30 35 31 36 78 37 32 38 83 39 77 40 79 41 33 42 82 43
REMARK SMILES IDX 76 44 75 45 34 47 64 48 45 49 63 50 46 51 49 52 62 53 80 54
REMARK SMILES IDX 47 55 48 56 61 58 81 59 50 60 35 61 36 62 44 63 37 64 43 65
REMARK SMILES IDX 38 66 39 67 40 68 41 69 42 70 65 71 66 72 74 73 67 74 73 75
REMARK SMILES IDX 68 76 69 77 70 78 71 79 72 80 51 81 52 82 60 83 53 84 59 85
REMARK SMILES IDX 54 86 55 87 56 88 57 89 58 90
REMARK H PARENT 79 46 49 57
REMARK Flexibility Score: inf
ROOT
ATOM      1  C   UNL A   1      33.352  28.789  25.434  1.00  0.00     0.202 C 
ENDROOT
BRANCH   1   2
ATOM      2  C   UNL A   1      33.620  27.528  24.603  1.00  0.00     0.261 C 
BRANCH   2   3
ATOM      3  O   UNL A   1      32.936  27.570  23.335  1.00  0.00    -0.462 OA
BRANCH   3   4
ATOM      4  C   UNL A   1      33.044  26.450  22.573  1.00  0.00     0.328 C 
ATOM      5  O   UNL A   1      33.867  26.302  21.670  1.00  0.00    -0.250 OA
BRANCH   4   6
ATOM      6  C   UNL A   1      32.060  25.344  22.930  1.00  0.00     0.270 C 
BRANCH   6   7
ATOM      7  N   UNL A   1      32.337  24.518  24.103  1.00  0.00    -0.218 N 
ATOM      8  C   UNL A   1      33.893  23.241  25.185  1.00  0.00     0.091 A 
ATOM      9  C   UNL A   1      33.012  23.009  26.343  1.00  0.00     0.036 A 
ATOM     10  N   UNL A   1      33.568  23.906  24.122  1.00  0.00    -0.169 NA
ATOM     11  C   UNL A   1      31.866  23.692  26.344  1.00  0.00     0.075 A 
ATOM     12  C   UNL A   1      31.509  24.580  25.215  1.00  0.00     0.267 A 
ATOM     13  O   UNL A   1      30.523  25.304  25.323  1.00  0.00    -0.268 OA
BRANCH   8  14
ATOM     14  C   UNL A   1      35.289  22.793  25.336  1.00  0.00     0.002 A 
ATOM     15  C   UNL A   1      37.877  21.803  25.487  1.00  0.00     0.119 A 
ATOM     16  C   UNL A   1      37.576  23.051  26.041  1.00  0.00     0.047 A 
ATOM     17  C   UNL A   1      36.879  21.031  24.898  1.00  0.00     0.047 A 
ATOM     18  C   UNL A   1      36.275  23.560  25.957  1.00  0.00     0.014 A 
ATOM     19  C   UNL A   1      35.586  21.530  24.812  1.00  0.00     0.014 A 
BRANCH  15  20
ATOM     20  O   UNL A   1      39.138  21.300  25.646  1.00  0.00    -0.494 OA
BRANCH  20  21
ATOM     21  C   UNL A   1      40.000  22.166  26.394  1.00  0.00     0.226 C 
ATOM     22  C   UNL A   1      41.463  21.989  26.015  1.00  0.00     0.049 C 
ENDBRANCH  20  21
ENDBRANCH  15  20
ENDBRANCH   8  14
ENDBRANCH   6   7
ENDBRANCH   4   6
ENDBRANCH   3   4
ENDBRANCH   2   3
ENDBRANCH   1   2
BRANCH   1  23
ATOM     23  O   UNL A   1      34.243  29.030  26.523  1.00  0.00    -0.374 OA
BRANCH  23  24
ATOM     24  C   UNL A   1      34.134  30.299  27.170  1.00  0.00     0.202 C 
BRANCH  24  25
ATOM     25  C   UNL A   1      35.387  30.799  27.900  1.00  0.00     0.261 C 
BRANCH  25  26
ATOM     26  O   UNL A   1      36.264  29.725  28.294  1.00  0.00    -0.460 OA
BRANCH  26  27
ATOM     27  C   UNL A   1      37.271  30.098  29.121  1.00  0.00     0.338 C 
ATOM     28  O   UNL A   1      37.166  30.702  30.183  1.00  0.00    -0.246 OA
BRANCH  27  29
ATOM     29  C   UNL A   1      38.557  29.534  28.672  1.00  0.00     0.060 A 
ATOM     30  C   UNL A   1      39.487  29.194  29.664  1.00  0.00     0.016 A 
ATOM     31  C   UNL A   1      38.896  29.430  27.321  1.00  0.00     0.016 A 
ATOM     32  C   UNL A   1      40.777  28.806  29.311  1.00  0.00     0.010 A 
ATOM     33  C   UNL A   1      40.197  29.045  26.968  1.00  0.00     0.010 A 
ATOM     34  C   UNL A   1      41.154  28.771  27.963  1.00  0.00    -0.014 A 
BRANCH  34  35
ATOM     35  C   UNL A   1      42.589  28.598  27.618  1.00  0.00     0.031 A 
ATOM     36  C   UNL A   1      43.537  29.748  27.835  1.00  0.00     0.074 A 
ATOM     37  C   UNL A   1      43.055  27.417  27.175  1.00  0.00     0.049 A 
ATOM     38  N   UNL A   1      44.830  29.807  27.636  1.00  0.00    -0.248 NA
ATOM     39  C   UNL A   1      42.950  30.996  28.349  1.00  0.00     0.031 C 
ATOM     40  C   UNL A   1      42.251  26.212  26.978  1.00  0.00     0.029 A 
ATOM     41  N   UNL A   1      44.325  27.035  26.825  1.00  0.00    -0.354 N 
ATOM     42  C   UNL A   1      45.211  31.094  27.999  1.00  0.00     0.074 A 
ATOM     43  C   UNL A   1      44.007  31.794  28.394  1.00  0.00     0.031 C 
ATOM     44  C   UNL A   1      43.051  25.219  26.554  1.00  0.00     0.029 A 
ATOM     45  C   UNL A   1      44.416  25.725  26.420  1.00  0.00     0.049 A 
ATOM     46  H   UNL A   1      45.100  27.643  26.860  1.00  0.00     0.167 HD
ATOM     47  C   UNL A   1      46.449  31.644  28.011  1.00  0.00     0.031 A 
ATOM     48  C   UNL A   1      45.476  25.017  25.984  1.00  0.00     0.031 A 
ATOM     49  C   UNL A   1      47.643  30.955  27.597  1.00  0.00     0.049 A 
ATOM     50  C   UNL A   1      46.829  25.676  25.915  1.00  0.00     0.074 A 
ATOM     51  C   UNL A   1      48.945  31.423  27.574  1.00  0.00     0.029 A 
ATOM     52  N   UNL A   1      47.679  29.651  27.124  1.00  0.00    -0.354 N 
ATOM     53  N   UNL A   1      47.174  26.890  26.275  1.00  0.00    -0.248 NA
ATOM     54  C   UNL A   1      47.935  24.867  25.386  1.00  0.00     0.031 C 
ATOM     55  C   UNL A   1      49.760  30.421  27.036  1.00  0.00     0.029 A 
ATOM     56  C   UNL A   1      48.976  29.309  26.778  1.00  0.00     0.049 A 
ATOM     57  H   UNL A   1      46.898  29.057  27.046  1.00  0.00     0.167 HD
ATOM     58  C   UNL A   1      48.543  26.980  26.041  1.00  0.00     0.074 A 
ATOM     59  C   UNL A   1      48.963  25.695  25.518  1.00  0.00     0.031 C 
ATOM     60  C   UNL A   1      49.378  28.028  26.250  1.00  0.00     0.031 A 
BRANCH  47  61
ATOM     61  C   UNL A   1      46.557  33.082  28.449  1.00  0.00    -0.014 A 
ATOM     62  C   UNL A   1      46.429  34.137  27.527  1.00  0.00     0.010 A 
ATOM     63  C   UNL A   1      46.797  33.380  29.802  1.00  0.00     0.010 A 
ATOM     64  C   UNL A   1      46.599  35.462  27.941  1.00  0.00     0.020 A 
ATOM     65  C   UNL A   1      46.940  34.706  30.225  1.00  0.00     0.020 A 
ATOM     66  C   UNL A   1      46.866  35.736  29.286  1.00  0.00     0.054 A 
BRANCH  66  67
ATOM     67  S   UNL A   1      47.107  37.460  29.795  1.00  0.00     0.124 S 
ATOM     68  O   UNL A   1      48.177  37.890  28.897  1.00  0.00    -0.237 OA
ATOM     69  O   UNL A   1      45.799  38.058  29.543  1.00  0.00    -0.237 OA
ATOM     70  O   UNL A   1      47.481  37.357  31.203  1.00  0.00    -0.744 OA
ENDBRANCH  66  67
ENDBRANCH  47  61
BRANCH  48  71
ATOM     71  C   UNL A   1      45.304  23.594  25.583  1.00  0.00    -0.014 A 
ATOM     72  C   UNL A   1      44.867  23.265  24.289  1.00  0.00     0.010 A 
ATOM     73  C   UNL A   1      45.591  22.558  26.491  1.00  0.00     0.010 A 
ATOM     74  C   UNL A   1      44.713  21.928  23.911  1.00  0.00     0.020 A 
ATOM     75  C   UNL A   1      45.462  21.220  26.110  1.00  0.00     0.020 A 
ATOM     76  C   UNL A   1      45.016  20.913  24.824  1.00  0.00     0.054 A 
BRANCH  76  77
ATOM     77  S   UNL A   1      44.869  19.184  24.290  1.00  0.00     0.124 S 
ATOM     78  O   UNL A   1      45.472  18.469  25.409  1.00  0.00    -0.237 OA
ATOM     79  O   UNL A   1      43.426  19.023  24.138  1.00  0.00    -0.237 OA
ATOM     80  O   UNL A   1      45.627  19.148  23.041  1.00  0.00    -0.744 OA
ENDBRANCH  76  77
ENDBRANCH  48  71
BRANCH  60  81
ATOM     81  C   UNL A   1      50.838  27.825  25.941  1.00  0.00    -0.014 A 
ATOM     82  C   UNL A   1      51.694  27.182  26.853  1.00  0.00     0.010 A 
ATOM     83  C   UNL A   1      51.348  28.237  24.696  1.00  0.00     0.010 A 
ATOM     84  C   UNL A   1      53.041  26.981  26.536  1.00  0.00     0.020 A 
ATOM     85  C   UNL A   1      52.687  28.015  24.366  1.00  0.00     0.020 A 
ATOM     86  C   UNL A   1      53.530  27.401  25.295  1.00  0.00     0.054 A 
BRANCH  86  87
ATOM     87  S   UNL A   1      55.271  27.091  24.889  1.00  0.00     0.124 S 
ATOM     88  O   UNL A   1      55.800  28.446  24.764  1.00  0.00    -0.237 OA
ATOM     89  O   UNL A   1      55.741  26.336  26.048  1.00  0.00    -0.237 OA
ATOM     90  O   UNL A   1      55.205  26.329  23.643  1.00  0.00    -0.744 OA
ENDBRANCH  86  87
ENDBRANCH  60  81
ENDBRANCH  34  35
ENDBRANCH  27  29
ENDBRANCH  26  27
ENDBRANCH  25  26
ENDBRANCH  24  25
ENDBRANCH  23  24
ENDBRANCH   1  23
TORSDOF 21
ENDMDL
MODEL 2
REMARK VINA RESULT:      -9.3      4.767     11.301
REMARK SMILES CCOc1ccc(-c2ccc(=O)n(CC(=O)OCCOCCOC(=O)c3ccc(-c4c5nc(c(-c6ccc(S(=O)(=O)[O-])cc6)c6ccc([nH]6)c(-c6ccc(S(=O)(=O)[O-])cc6)c6nc(c(-c7ccc(S(=O)(=O)[O-])cc7)c7ccc4[nH]7)C=C6)C=C5)cc3)n2)cc1
REMARK SMILES IDX 19 1 18 2 17 3 15 4 16 5 14 6 13 7 8 8 9 9 86 10 10 11 11 12
REMARK SMILES IDX 12 13 7 14 4 15 5 16 88 17 6 18 87 19 3 20 2 21 1 22 20 23
REMARK SMILES IDX 21 24 22 25 23 26 24 27 25 28 26 29 27 30 85 31 28 32 84 33
REMARK SMILES IDX 29 34 30 35 31 36 78 37 32 38 83 39 77 40 79 41 33 42 82 43
REMARK SMILES IDX 76 44 75 45 34 47 64 48 45 49 63 50 46 51 49 52 62 53 80 54
REMARK SMILES IDX 47 55 48 56 61 58 81 59 50 60 35 61 36 62 44 63 37 64 43 65
REMARK SMILES IDX 38 66 39 67 40 68 41 69 42 70 65 71 66 72 74 73 67 74 73 75
REMARK SMILES IDX 68 76 69 77 70 78 71 79 72 80 51 81 52 82 60 83 53 84 59 85
REMARK SMILES IDX 54 86 55 87 56 88 57 89 58 90
REMARK H PARENT 79 46 49 57
REMARK Flexibility Score: inf
ROOT
ATOM      1  C   UNL A   1      43.543  23.452  27.633  1.00  0.00     0.202 C 
ENDROOT
BRANCH   1   2
ATOM      2  C   UNL A   1      45.039  23.302  27.931  1.00  0.00     0.261 C 
BRANCH   2   3
ATOM      3  O   UNL A   1      45.678  24.583  28.108  1.00  0.00    -0.462 OA
BRANCH   3   4
ATOM      4  C   UNL A   1      46.755  24.816  27.312  1.00  0.00     0.328 C 
ATOM      5  O   UNL A   1      47.554  23.952  26.956  1.00  0.00    -0.250 OA
BRANCH   4   6
ATOM      6  C   UNL A   1      46.904  26.263  26.860  1.00  0.00     0.270 C 
BRANCH   6   7
ATOM      7  N   UNL A   1      45.700  27.080  26.733  1.00  0.00    -0.218 N 
ATOM      8  C   UNL A   1      44.650  29.003  27.379  1.00  0.00     0.091 A 
ATOM      9  C   UNL A   1      43.499  28.767  26.490  1.00  0.00     0.036 A 
ATOM     10  N   UNL A   1      45.654  28.200  27.528  1.00  0.00    -0.169 NA
ATOM     11  C   UNL A   1      43.614  27.729  25.660  1.00  0.00     0.075 A 
ATOM     12  C   UNL A   1      44.811  26.859  25.690  1.00  0.00     0.267 A 
ATOM     13  O   UNL A   1      44.946  26.011  24.812  1.00  0.00    -0.268 OA
BRANCH   8  14
ATOM     14  C   UNL A   1      44.702  30.325  28.029  1.00  0.00     0.002 A 
ATOM     15  C   UNL A   1      45.003  32.798  29.250  1.00  0.00     0.119 A 
ATOM     16  C   UNL A   1      43.757  32.421  28.742  1.00  0.00     0.047 A 
ATOM     17  C   UNL A   1      46.086  31.927  29.189  1.00  0.00     0.047 A 
ATOM     18  C   UNL A   1      43.602  31.179  28.114  1.00  0.00     0.014 A 
ATOM     19  C   UNL A   1      45.940  30.693  28.569  1.00  0.00     0.014 A 
BRANCH  15  20
ATOM     20  O   UNL A   1      45.107  33.986  29.920  1.00  0.00    -0.494 OA
BRANCH  20  21
ATOM     21  C   UNL A   1      45.197  35.119  29.047  1.00  0.00     0.226 C 
ATOM     22  C   UNL A   1      44.367  36.294  29.543  1.00  0.00     0.049 C 
ENDBRANCH  20  21
ENDBRANCH  15  20
ENDBRANCH   8  14
ENDBRANCH   6   7
ENDBRANCH   4   6
ENDBRANCH   3   4
ENDBRANCH   2   3
ENDBRANCH   1   2
BRANCH   1  23
ATOM     23  O   UNL A   1      42.972  22.481  26.755  1.00  0.00    -0.374 OA
BRANCH  23  24
ATOM     24  C   UNL A   1      42.189  21.453  27.361  1.00  0.00     0.202 C 
BRANCH  24  25
ATOM     25  C   UNL A   1      40.707  21.405  26.963  1.00  0.00     0.261 C 
BRANCH  25  26
ATOM     26  O   UNL A   1      40.368  22.392  25.970  1.00  0.00    -0.460 OA
BRANCH  26  27
ATOM     27  C   UNL A   1      39.181  23.011  26.177  1.00  0.00     0.338 C 
ATOM     28  O   UNL A   1      38.064  22.556  25.955  1.00  0.00    -0.246 OA
BRANCH  27  29
ATOM     29  C   UNL A   1      39.371  24.290  26.887  1.00  0.00     0.060 A 
ATOM     30  C   UNL A   1      40.162  25.260  26.257  1.00  0.00     0.016 A 
ATOM     31  C   UNL A   1      38.878  24.508  28.176  1.00  0.00     0.016 A 
ATOM     32  C   UNL A   1      40.513  26.425  26.934  1.00  0.00     0.010 A 
ATOM     33  C   UNL A   1      39.238  25.679  28.857  1.00  0.00     0.010 A 
ATOM     34  C   UNL A   1      40.091  26.623  28.254  1.00  0.00    -0.014 A 
BRANCH  34  35
ATOM     35  C   UNL A   1      40.673  27.740  29.040  1.00  0.00     0.031 A 
ATOM     36  C   UNL A   1      39.847  28.977  29.277  1.00  0.00     0.074 A 
ATOM     37  C   UNL A   1      41.896  27.634  29.590  1.00  0.00     0.049 A 
ATOM     38  N   UNL A   1      40.141  30.054  29.961  1.00  0.00    -0.248 NA
ATOM     39  C   UNL A   1      38.508  29.000  28.664  1.00  0.00     0.031 C 
ATOM     40  C   UNL A   1      42.771  26.468  29.483  1.00  0.00     0.029 A 
ATOM     41  N   UNL A   1      42.607  28.519  30.360  1.00  0.00    -0.354 N 
ATOM     42  C   UNL A   1      39.028  30.882  29.861  1.00  0.00     0.074 A 
ATOM     43  C   UNL A   1      38.069  30.198  29.020  1.00  0.00     0.031 C 
ATOM     44  C   UNL A   1      43.898  26.705  30.176  1.00  0.00     0.029 A 
ATOM     45  C   UNL A   1      43.838  28.049  30.748  1.00  0.00     0.049 A 
ATOM     46  H   UNL A   1      42.266  29.409  30.612  1.00  0.00     0.167 HD
ATOM     47  C   UNL A   1      38.818  32.096  30.423  1.00  0.00     0.031 A 
ATOM     48  C   UNL A   1      44.809  28.636  31.475  1.00  0.00     0.031 A 
ATOM     49  C   UNL A   1      39.781  32.786  31.241  1.00  0.00     0.049 A 
ATOM     50  C   UNL A   1      44.592  30.027  32.012  1.00  0.00     0.074 A 
ATOM     51  C   UNL A   1      39.663  34.019  31.859  1.00  0.00     0.029 A 
ATOM     52  N   UNL A   1      41.045  32.304  31.549  1.00  0.00    -0.354 N 
ATOM     53  N   UNL A   1      43.529  30.791  31.920  1.00  0.00    -0.248 NA
ATOM     54  C   UNL A   1      45.706  30.632  32.755  1.00  0.00     0.031 C 
ATOM     55  C   UNL A   1      40.875  34.307  32.494  1.00  0.00     0.029 A 
ATOM     56  C   UNL A   1      41.728  33.229  32.322  1.00  0.00     0.049 A 
ATOM     57  H   UNL A   1      41.403  31.435  31.260  1.00  0.00     0.167 HD
ATOM     58  C   UNL A   1      43.836  31.954  32.617  1.00  0.00     0.074 A 
ATOM     59  C   UNL A   1      45.181  31.790  33.132  1.00  0.00     0.031 C 
ATOM     60  C   UNL A   1      43.070  33.056  32.820  1.00  0.00     0.031 A 
BRANCH  47  61
ATOM     61  C   UNL A   1      37.503  32.772  30.127  1.00  0.00    -0.014 A 
ATOM     62  C   UNL A   1      36.345  32.472  30.868  1.00  0.00     0.010 A 
ATOM     63  C   UNL A   1      37.426  33.716  29.088  1.00  0.00     0.010 A 
ATOM     64  C   UNL A   1      35.121  33.059  30.535  1.00  0.00     0.020 A 
ATOM     65  C   UNL A   1      36.208  34.327  28.771  1.00  0.00     0.020 A 
ATOM     66  C   UNL A   1      35.059  33.974  29.480  1.00  0.00     0.054 A 
BRANCH  66  67
ATOM     67  S   UNL A   1      33.455  34.705  29.051  1.00  0.00     0.124 S 
ATOM     68  O   UNL A   1      33.859  35.945  28.389  1.00  0.00    -0.237 OA
ATOM     69  O   UNL A   1      32.861  33.694  28.180  1.00  0.00    -0.237 OA
ATOM     70  O   UNL A   1      32.795  34.876  30.343  1.00  0.00    -0.744 OA
ENDBRANCH  66  67
ENDBRANCH  47  61
BRANCH  48  71
ATOM     71  C   UNL A   1      46.078  27.907  31.746  1.00  0.00    -0.014 A 
ATOM     72  C   UNL A   1      46.232  27.156  32.924  1.00  0.00     0.010 A 
ATOM     73  C   UNL A   1      47.135  27.949  30.819  1.00  0.00     0.010 A 
ATOM     74  C   UNL A   1      47.422  26.466  33.173  1.00  0.00     0.020 A 
ATOM     75  C   UNL A   1      48.316  27.240  31.052  1.00  0.00     0.020 A 
ATOM     76  C   UNL A   1      48.456  26.510  32.233  1.00  0.00     0.054 A 
BRANCH  76  77
ATOM     77  S   UNL A   1      49.967  25.554  32.548  1.00  0.00     0.124 S 
ATOM     78  O   UNL A   1      50.472  25.330  31.199  1.00  0.00    -0.237 OA
ATOM     79  O   UNL A   1      50.750  26.468  33.375  1.00  0.00    -0.237 OA
ATOM     80  O   UNL A   1      49.478  24.364  33.241  1.00  0.00    -0.744 OA
ENDBRANCH  76  77
ENDBRANCH  48  71
BRANCH  60  81
ATOM     81  C   UNL A   1      43.654  34.161  33.660  1.00  0.00    -0.014 A 
ATOM     82  C   UNL A   1      43.543  34.149  35.062  1.00  0.00     0.010 A 
ATOM     83  C   UNL A   1      44.371  35.201  33.038  1.00  0.00     0.010 A 
ATOM     84  C   UNL A   1      44.114  35.173  35.824  1.00  0.00     0.020 A 
ATOM     85  C   UNL A   1      44.964  36.212  33.799  1.00  0.00     0.020 A 
ATOM     86  C   UNL A   1      44.819  36.200  35.188  1.00  0.00     0.054 A 
BRANCH  86  87
ATOM     87  S   UNL A   1      45.588  37.494  36.201  1.00  0.00     0.124 S 
ATOM     88  O   UNL A   1      46.976  37.445  35.753  1.00  0.00    -0.237 OA
ATOM     89  O   UNL A   1      44.843  38.690  35.814  1.00  0.00    -0.237 OA
ATOM     90  O   UNL A   1      45.358  37.041  37.572  1.00  0.00    -0.744 OA
ENDBRANCH  86  87
ENDBRANCH  60  81
ENDBRANCH  34  35
ENDBRANCH  27  29
ENDBRANCH  26  27
ENDBRANCH  25  26
ENDBRANCH  24  25
ENDBRANCH  23  24
ENDBRANCH   1  23
TORSDOF 21
ENDMDL
MODEL 3
REMARK VINA RESULT:      -9.2      3.057      8.970
REMARK SMILES CCOc1ccc(-c2ccc(=O)n(CC(=O)OCCOCCOC(=O)c3ccc(-c4c5nc(c(-c6ccc(S(=O)(=O)[O-])cc6)c6ccc([nH]6)c(-c6ccc(S(=O)(=O)[O-])cc6)c6nc(c(-c7ccc(S(=O)(=O)[O-])cc7)c7ccc4[nH]7)C=C6)C=C5)cc3)n2)cc1
REMARK SMILES IDX 19 1 18 2 17 3 15 4 16 5 14 6 13 7 8 8 9 9 86 10 10 11 11 12
REMARK SMILES IDX 12 13 7 14 4 15 5 16 88 17 6 18 87 19 3 20 2 21 1 22 20 23
REMARK SMILES IDX 21 24 22 25 23 26 24 27 25 28 26 29 27 30 85 31 28 32 84 33
REMARK SMILES IDX 29 34 30 35 31 36 78 37 32 38 83 39 77 40 79 41 33 42 82 43
REMARK SMILES IDX 76 44 75 45 34 47 64 48 45 49 63 50 46 51 49 52 62 53 80 54
REMARK SMILES IDX 47 55 48 56 61 58 81 59 50 60 35 61 36 62 44 63 37 64 43 65
REMARK SMILES IDX 38 66 39 67 40 68 41 69 42 70 65 71 66 72 74 73 67 74 73 75
REMARK SMILES IDX 68 76 69 77 70 78 71 79 72 80 51 81 52 82 60 83 53 84 59 85
REMARK SMILES IDX 54 86 55 87 56 88 57 89 58 90
REMARK H PARENT 79 46 49 57
REMARK Flexibility Score: inf
ROOT
ATOM      1  C   UNL A   1      33.706  28.548  24.484  1.00  0.00     0.202 C 
ENDROOT
BRANCH   1   2
ATOM      2  C   UNL A   1      34.091  28.380  23.010  1.00  0.00     0.261 C 
BRANCH   2   3
ATOM      3  O   UNL A   1      32.949  28.050  22.194  1.00  0.00    -0.462 OA
BRANCH   3   4
ATOM      4  C   UNL A   1      32.759  26.725  21.957  1.00  0.00     0.328 C 
ATOM      5  O   UNL A   1      33.648  25.949  21.611  1.00  0.00    -0.250 OA
BRANCH   4   6
ATOM      6  C   UNL A   1      31.331  26.243  22.171  1.00  0.00     0.270 C 
BRANCH   6   7
ATOM      7  N   UNL A   1      31.028  25.483  23.381  1.00  0.00    -0.218 N 
ATOM      8  C   UNL A   1      31.294  23.495  24.476  1.00  0.00     0.091 A 
ATOM      9  C   UNL A   1      30.598  23.976  25.683  1.00  0.00     0.036 A 
ATOM     10  N   UNL A   1      31.457  24.177  23.387  1.00  0.00    -0.169 NA
ATOM     11  C   UNL A   1      30.280  25.272  25.688  1.00  0.00     0.075 A 
ATOM     12  C   UNL A   1      30.574  26.132  24.521  1.00  0.00     0.267 A 
ATOM     13  O   UNL A   1      30.405  27.345  24.625  1.00  0.00    -0.268 OA
BRANCH   8  14
ATOM     14  C   UNL A   1      31.966  22.189  24.597  1.00  0.00     0.002 A 
ATOM     15  C   UNL A   1      33.221  19.715  24.622  1.00  0.00     0.119 A 
ATOM     16  C   UNL A   1      33.216  20.503  25.776  1.00  0.00     0.047 A 
ATOM     17  C   UNL A   1      32.564  20.139  23.471  1.00  0.00     0.047 A 
ATOM     18  C   UNL A   1      32.594  21.757  25.765  1.00  0.00     0.014 A 
ATOM     19  C   UNL A   1      31.944  21.382  23.454  1.00  0.00     0.014 A 
BRANCH  15  20
ATOM     20  O   UNL A   1      33.774  18.465  24.683  1.00  0.00    -0.494 OA
BRANCH  20  21
ATOM     21  C   UNL A   1      33.242  17.566  23.702  1.00  0.00     0.226 C 
ATOM     22  C   UNL A   1      34.264  16.529  23.259  1.00  0.00     0.049 C 
ENDBRANCH  20  21
ENDBRANCH  15  20
ENDBRANCH   8  14
ENDBRANCH   6   7
ENDBRANCH   4   6
ENDBRANCH   3   4
ENDBRANCH   2   3
ENDBRANCH   1   2
BRANCH   1  23
ATOM     23  O   UNL A   1      32.789  29.603  24.782  1.00  0.00    -0.374 OA
BRANCH  23  24
ATOM     24  C   UNL A   1      32.349  29.703  26.136  1.00  0.00     0.202 C 
BRANCH  24  25
ATOM     25  C   UNL A   1      33.432  29.561  27.214  1.00  0.00     0.261 C 
BRANCH  25  26
ATOM     26  O   UNL A   1      34.414  30.614  27.155  1.00  0.00    -0.460 OA
BRANCH  26  27
ATOM     27  C   UNL A   1      34.981  30.919  28.347  1.00  0.00     0.338 C 
ATOM     28  O   UNL A   1      34.458  31.518  29.280  1.00  0.00    -0.246 OA
BRANCH  27  29
ATOM     29  C   UNL A   1      36.305  30.282  28.479  1.00  0.00     0.060 A 
ATOM     30  C   UNL A   1      36.728  29.947  29.772  1.00  0.00     0.016 A 
ATOM     31  C   UNL A   1      37.160  30.106  27.388  1.00  0.00     0.016 A 
ATOM     32  C   UNL A   1      38.025  29.490  29.988  1.00  0.00     0.010 A 
ATOM     33  C   UNL A   1      38.468  29.652  27.609  1.00  0.00     0.010 A 
ATOM     34  C   UNL A   1      38.918  29.382  28.915  1.00  0.00    -0.014 A 
BRANCH  34  35
ATOM     35  C   UNL A   1      40.356  29.135  29.192  1.00  0.00     0.031 A 
ATOM     36  C   UNL A   1      40.947  27.792  28.852  1.00  0.00     0.074 A 
ATOM     37  C   UNL A   1      41.142  30.110  29.683  1.00  0.00     0.049 A 
ATOM     38  N   UNL A   1      42.181  27.373  28.976  1.00  0.00    -0.248 NA
ATOM     39  C   UNL A   1      40.024  26.790  28.293  1.00  0.00     0.031 C 
ATOM     40  C   UNL A   1      40.704  31.469  29.999  1.00  0.00     0.029 A 
ATOM     41  N   UNL A   1      42.480  30.108  29.986  1.00  0.00    -0.354 N 
ATOM     42  C   UNL A   1      42.184  26.061  28.512  1.00  0.00     0.074 A 
ATOM     43  C   UNL A   1      40.822  25.744  28.140  1.00  0.00     0.031 C 
ATOM     44  C   UNL A   1      41.759  32.174  30.440  1.00  0.00     0.029 A 
ATOM     45  C   UNL A   1      42.939  31.310  30.468  1.00  0.00     0.049 A 
ATOM     46  H   UNL A   1      43.058  29.318  29.871  1.00  0.00     0.167 HD
ATOM     47  C   UNL A   1      43.224  25.201  28.398  1.00  0.00     0.031 A 
ATOM     48  C   UNL A   1      44.166  31.673  30.889  1.00  0.00     0.031 A 
ATOM     49  C   UNL A   1      44.574  25.509  28.789  1.00  0.00     0.049 A 
ATOM     50  C   UNL A   1      45.289  30.670  30.842  1.00  0.00     0.074 A 
ATOM     51  C   UNL A   1      45.700  24.708  28.711  1.00  0.00     0.029 A 
ATOM     52  N   UNL A   1      44.981  26.716  29.340  1.00  0.00    -0.354 N 
ATOM     53  N   UNL A   1      45.278  29.438  30.389  1.00  0.00    -0.248 NA
ATOM     54  C   UNL A   1      46.593  31.109  31.361  1.00  0.00     0.031 C 
ATOM     55  C   UNL A   1      46.776  25.409  29.266  1.00  0.00     0.029 A 
ATOM     56  C   UNL A   1      46.334  26.669  29.636  1.00  0.00     0.049 A 
ATOM     57  H   UNL A   1      44.395  27.490  29.498  1.00  0.00     0.167 HD
ATOM     58  C   UNL A   1      46.578  28.966  30.541  1.00  0.00     0.074 A 
ATOM     59  C   UNL A   1      47.350  30.047  31.121  1.00  0.00     0.031 C 
ATOM     60  C   UNL A   1      47.088  27.750  30.222  1.00  0.00     0.031 A 
BRANCH  47  61
ATOM     61  C   UNL A   1      42.921  23.824  27.865  1.00  0.00    -0.014 A 
ATOM     62  C   UNL A   1      43.022  23.534  26.492  1.00  0.00     0.010 A 
ATOM     63  C   UNL A   1      42.524  22.808  28.752  1.00  0.00     0.010 A 
ATOM     64  C   UNL A   1      42.673  22.269  26.009  1.00  0.00     0.020 A 
ATOM     65  C   UNL A   1      42.201  21.533  28.276  1.00  0.00     0.020 A 
ATOM     66  C   UNL A   1      42.252  21.281  26.904  1.00  0.00     0.054 A 
BRANCH  66  67
ATOM     67  S   UNL A   1      41.781  19.655  26.252  1.00  0.00     0.124 S 
ATOM     68  O   UNL A   1      42.612  19.562  25.052  1.00  0.00    -0.237 OA
ATOM     69  O   UNL A   1      42.147  18.751  27.339  1.00  0.00    -0.237 OA
ATOM     70  O   UNL A   1      40.347  19.781  26.007  1.00  0.00    -0.744 OA
ENDBRANCH  66  67
ENDBRANCH  47  61
BRANCH  48  71
ATOM     71  C   UNL A   1      44.403  33.055  31.388  1.00  0.00    -0.014 A 
ATOM     72  C   UNL A   1      44.794  34.075  30.504  1.00  0.00     0.010 A 
ATOM     73  C   UNL A   1      44.224  33.361  32.749  1.00  0.00     0.010 A 
ATOM     74  C   UNL A   1      45.008  35.375  30.973  1.00  0.00     0.020 A 
ATOM     75  C   UNL A   1      44.413  34.664  33.218  1.00  0.00     0.020 A 
ATOM     76  C   UNL A   1      44.812  35.661  32.327  1.00  0.00     0.054 A 
BRANCH  76  77
ATOM     77  S   UNL A   1      45.034  37.369  32.901  1.00  0.00     0.124 S 
ATOM     78  O   UNL A   1      46.361  37.692  32.388  1.00  0.00    -0.237 OA
ATOM     79  O   UNL A   1      43.921  38.064  32.261  1.00  0.00    -0.237 OA
ATOM     80  O   UNL A   1      44.934  37.256  34.355  1.00  0.00    -0.744 OA
ENDBRANCH  76  77
ENDBRANCH  48  71
BRANCH  60  81
ATOM     81  C   UNL A   1      48.558  27.529  30.463  1.00  0.00    -0.014 A 
ATOM     82  C   UNL A   1      49.020  26.924  31.644  1.00  0.00     0.010 A 
ATOM     83  C   UNL A   1      49.486  27.887  29.467  1.00  0.00     0.010 A 
ATOM     84  C   UNL A   1      50.388  26.706  31.838  1.00  0.00     0.020 A 
ATOM     85  C   UNL A   1      50.851  27.647  29.647  1.00  0.00     0.020 A 
ATOM     86  C   UNL A   1      51.295  27.071  30.838  1.00  0.00     0.054 A 
BRANCH  86  87
ATOM     87  S   UNL A   1      53.061  26.738  31.094  1.00  0.00     0.124 S 
ATOM     88  O   UNL A   1      53.567  28.057  31.463  1.00  0.00    -0.237 OA
ATOM     89  O   UNL A   1      53.049  25.746  32.166  1.00  0.00    -0.237 OA
ATOM     90  O   UNL A   1      53.510  26.238  29.796  1.00  0.00    -0.744 OA
ENDBRANCH  86  87
ENDBRANCH  60  81
ENDBRANCH  34  35
ENDBRANCH  27  29
ENDBRANCH  26  27
ENDBRANCH  25  26
ENDBRANCH  24  25
ENDBRANCH  23  24
ENDBRANCH   1  23
TORSDOF 21
ENDMDL
