MODEL 1
REMARK VINA RESULT:      -8.8      0.000      0.000
REMARK SMILES C[C@@H]1[C@H](C)CC[C@@H]1NC(=O)N1CCO[C@H](CC(=O)OCCOCCOC(=O)c2ccc(-c3c4nc(c(-c5ccc(S(=O)(=O)[O-])cc5)c5ccc([nH]5)c(-c5ccc(S(=O)(=O)[O-])cc5)c5nc(c(-c6ccc(S(=O)(=O)[O-])cc6)c6ccc3[nH]6)C=C5)C=C4)cc2)C1
REMARK SMILES IDX 22 1 21 2 20 3 19 4 17 5 18 6 16 7 15 8 11 9 12 10 88 11
REMARK SMILES IDX 13 12 14 13 9 14 8 15 10 17 7 18 1 19 2 20 3 21 4 22 5 23
REMARK SMILES IDX 6 24 23 25 24 26 25 27 26 28 27 29 28 30 29 31 87 32 30 33
REMARK SMILES IDX 86 34 31 35 32 36 33 37 80 38 34 39 85 40 79 41 81 42 35 43
REMARK SMILES IDX 84 44 78 45 77 46 36 48 66 49 47 50 65 51 48 52 51 53 64 54
REMARK SMILES IDX 82 55 49 56 50 57 63 59 83 60 52 61 37 62 38 63 46 64 39 65
REMARK SMILES IDX 45 66 40 67 41 68 42 69 43 70 44 71 67 72 68 73 76 74 69 75
REMARK SMILES IDX 75 76 70 77 71 78 72 79 73 80 74 81 53 82 54 83 62 84 55 85
REMARK SMILES IDX 61 86 56 87 57 88 58 89 59 90 60 91
REMARK H PARENT 8 16 81 47 51 58
REMARK Flexibility Score: inf
ROOT
ATOM      1  O   UNL A   1      34.358  35.592  28.864  1.00  0.00    -0.374 OA
ENDROOT
BRANCH   1   2
ATOM      2  C   UNL A   1      33.240  35.429  29.745  1.00  0.00     0.202 C 
BRANCH   2   3
ATOM      3  C   UNL A   1      33.575  35.386  31.240  1.00  0.00     0.261 C 
BRANCH   3   4
ATOM      4  O   UNL A   1      34.554  34.356  31.469  1.00  0.00    -0.463 OA
BRANCH   4   5
ATOM      5  C   UNL A   1      34.312  33.477  32.463  1.00  0.00     0.308 C 
ATOM      6  O   UNL A   1      33.301  33.473  33.157  1.00  0.00    -0.252 OA
BRANCH   5   7
ATOM      7  C   UNL A   1      35.432  32.479  32.660  1.00  0.00     0.156 C 
BRANCH   7   8
ATOM      8  C   UNL A   1      36.891  32.852  32.309  1.00  0.00     0.149 C 
ATOM      9  N   UNL A   1      38.053  31.787  34.226  1.00  0.00    -0.320 N 
ATOM     10  C   UNL A   1      38.384  33.127  34.716  1.00  0.00     0.150 C 
ATOM     11  C   UNL A   1      37.887  31.777  32.777  1.00  0.00     0.154 C 
ATOM     12  C   UNL A   1      37.574  34.274  34.107  1.00  0.00     0.182 C 
ATOM     13  O   UNL A   1      37.358  34.144  32.709  1.00  0.00    -0.374 OA
BRANCH   9  14
ATOM     14  C   UNL A   1      38.561  30.644  34.791  1.00  0.00     0.317 C 
ATOM     15  N   UNL A   1      39.523  29.885  34.212  1.00  0.00    -0.335 N 
ATOM     16  H   UNL A   1      39.369  28.926  34.367  1.00  0.00     0.165 HD
ATOM     17  O   UNL A   1      38.162  30.252  35.893  1.00  0.00    -0.249 OA
BRANCH  15  18
ATOM     18  C   UNL A   1      40.745  30.118  33.403  1.00  0.00     0.087 C 
ATOM     19  C   UNL A   1      41.325  27.869  32.402  1.00  0.00     0.010 C 
ATOM     20  C   UNL A   1      41.747  28.988  33.324  1.00  0.00     0.011 C 
ATOM     21  C   UNL A   1      42.355  28.951  34.763  1.00  0.00    -0.009 C 
ATOM     22  C   UNL A   1      41.572  28.820  36.098  1.00  0.00     0.008 C 
ATOM     23  C   UNL A   1      42.806  30.429  34.786  1.00  0.00     0.006 C 
ATOM     24  C   UNL A   1      41.674  31.194  34.042  1.00  0.00     0.025 C 
ENDBRANCH  15  18
ENDBRANCH   9  14
ENDBRANCH   7   8
ENDBRANCH   5   7
ENDBRANCH   4   5
ENDBRANCH   3   4
ENDBRANCH   2   3
ENDBRANCH   1   2
BRANCH   1  25
ATOM     25  C   UNL A   1      34.682  34.477  28.038  1.00  0.00     0.202 C 
BRANCH  25  26
ATOM     26  C   UNL A   1      33.902  33.177  28.270  1.00  0.00     0.261 C 
BRANCH  26  27
ATOM     27  O   UNL A   1      34.696  32.170  28.917  1.00  0.00    -0.460 OA
BRANCH  27  28
ATOM     28  C   UNL A   1      34.553  30.941  28.382  1.00  0.00     0.338 C 
ATOM     29  O   UNL A   1      33.566  30.513  27.789  1.00  0.00    -0.246 OA
BRANCH  28  30
ATOM     30  C   UNL A   1      35.817  30.183  28.427  1.00  0.00     0.060 A 
ATOM     31  C   UNL A   1      36.228  29.743  29.691  1.00  0.00     0.016 A 
ATOM     32  C   UNL A   1      36.641  30.005  27.313  1.00  0.00     0.016 A 
ATOM     33  C   UNL A   1      37.509  29.236  29.873  1.00  0.00     0.010 A 
ATOM     34  C   UNL A   1      37.934  29.493  27.498  1.00  0.00     0.010 A 
ATOM     35  C   UNL A   1      38.395  29.176  28.791  1.00  0.00    -0.014 A 
BRANCH  35  36
ATOM     36  C   UNL A   1      39.843  29.010  29.080  1.00  0.00     0.031 A 
ATOM     37  C   UNL A   1      40.507  27.704  28.721  1.00  0.00     0.074 A 
ATOM     38  C   UNL A   1      40.584  30.034  29.541  1.00  0.00     0.049 A 
ATOM     39  N   UNL A   1      41.762  27.351  28.837  1.00  0.00    -0.248 NA
ATOM     40  C   UNL A   1      39.642  26.658  28.149  1.00  0.00     0.031 C 
ATOM     41  C   UNL A   1      40.079  31.372  29.852  1.00  0.00     0.029 A 
ATOM     42  N   UNL A   1      41.928  30.110  29.809  1.00  0.00    -0.354 N 
ATOM     43  C   UNL A   1      41.833  26.045  28.363  1.00  0.00     0.074 A 
ATOM     44  C   UNL A   1      40.492  25.653  27.996  1.00  0.00     0.031 C 
ATOM     45  C   UNL A   1      41.105  32.139  30.261  1.00  0.00     0.029 A 
ATOM     46  C   UNL A   1      42.330  31.339  30.276  1.00  0.00     0.049 A 
ATOM     47  H   UNL A   1      42.547  29.356  29.679  1.00  0.00     0.167 HD
ATOM     48  C   UNL A   1      42.919  25.243  28.233  1.00  0.00     0.031 A 
ATOM     49  C   UNL A   1      43.541  31.768  30.681  1.00  0.00     0.031 A 
ATOM     50  C   UNL A   1      44.254  25.629  28.602  1.00  0.00     0.049 A 
ATOM     51  C   UNL A   1      44.719  30.829  30.613  1.00  0.00     0.074 A 
ATOM     52  C   UNL A   1      45.420  24.889  28.509  1.00  0.00     0.029 A 
ATOM     53  N   UNL A   1      44.604  26.861  29.135  1.00  0.00    -0.354 N 
ATOM     54  N   UNL A   1      44.769  29.597  30.166  1.00  0.00    -0.248 NA
ATOM     55  C   UNL A   1      46.008  31.346  31.096  1.00  0.00     0.031 C 
ATOM     56  C   UNL A   1      46.464  25.649  29.046  1.00  0.00     0.029 A 
ATOM     57  C   UNL A   1      45.964  26.891  29.402  1.00  0.00     0.049 A 
ATOM     58  H   UNL A   1      43.980  27.603  29.300  1.00  0.00     0.167 HD
ATOM     59  C   UNL A   1      46.101  29.206  30.275  1.00  0.00     0.074 A 
ATOM     60  C   UNL A   1      46.822  30.336  30.824  1.00  0.00     0.031 C 
ATOM     61  C   UNL A   1      46.674  28.023  29.944  1.00  0.00     0.031 A 
BRANCH  48  62
ATOM     62  C   UNL A   1      42.695  23.849  27.706  1.00  0.00    -0.014 A 
ATOM     63  C   UNL A   1      42.963  23.518  26.364  1.00  0.00     0.010 A 
ATOM     64  C   UNL A   1      42.236  22.843  28.577  1.00  0.00     0.010 A 
ATOM     65  C   UNL A   1      42.733  22.220  25.895  1.00  0.00     0.020 A 
ATOM     66  C   UNL A   1      42.036  21.538  28.120  1.00  0.00     0.020 A 
ATOM     67  C   UNL A   1      42.268  21.239  26.777  1.00  0.00     0.054 A 
BRANCH  67  68
ATOM     68  S   UNL A   1      41.992  19.562  26.145  1.00  0.00     0.124 S 
ATOM     69  O   UNL A   1      42.490  18.740  27.246  1.00  0.00    -0.237 OA
ATOM     70  O   UNL A   1      40.546  19.529  25.941  1.00  0.00    -0.237 OA
ATOM     71  O   UNL A   1      42.793  19.514  24.924  1.00  0.00    -0.744 OA
ENDBRANCH  67  68
ENDBRANCH  48  62
BRANCH  49  72
ATOM     72  C   UNL A   1      43.704  33.153  31.203  1.00  0.00    -0.014 A 
ATOM     73  C   UNL A   1      43.622  33.420  32.582  1.00  0.00     0.010 A 
ATOM     74  C   UNL A   1      43.937  34.219  30.314  1.00  0.00     0.010 A 
ATOM     75  C   UNL A   1      43.753  34.728  33.058  1.00  0.00     0.020 A 
ATOM     76  C   UNL A   1      44.098  35.523  30.790  1.00  0.00     0.020 A 
ATOM     77  C   UNL A   1      43.995  35.771  32.159  1.00  0.00     0.054 A 
BRANCH  77  78
ATOM     78  S   UNL A   1      44.212  37.453  32.805  1.00  0.00     0.124 S 
ATOM     79  O   UNL A   1      45.566  37.397  33.345  1.00  0.00    -0.237 OA
ATOM     80  O   UNL A   1      44.040  38.272  31.607  1.00  0.00    -0.237 OA
ATOM     81  O   UNL A   1      43.146  37.578  33.795  1.00  0.00    -0.744 OA
ENDBRANCH  77  78
ENDBRANCH  49  72
BRANCH  61  82
ATOM     82  C   UNL A   1      48.168  27.897  30.108  1.00  0.00    -0.014 A 
ATOM     83  C   UNL A   1      48.748  27.516  31.332  1.00  0.00     0.010 A 
ATOM     84  C   UNL A   1      49.004  28.115  28.996  1.00  0.00     0.010 A 
ATOM     85  C   UNL A   1      50.136  27.393  31.448  1.00  0.00     0.020 A 
ATOM     86  C   UNL A   1      50.388  27.960  29.099  1.00  0.00     0.020 A 
ATOM     87  C   UNL A   1      50.947  27.615  30.330  1.00  0.00     0.054 A 
BRANCH  87  88
ATOM     88  S   UNL A   1      52.742  27.412  30.499  1.00  0.00     0.124 S 
ATOM     89  O   UNL A   1      52.853  26.018  30.920  1.00  0.00    -0.237 OA
ATOM     90  O   UNL A   1      53.224  27.701  29.150  1.00  0.00    -0.237 OA
ATOM     91  O   UNL A   1      53.109  28.400  31.511  1.00  0.00    -0.744 OA
ENDBRANCH  87  88
ENDBRANCH  61  82
ENDBRANCH  35  36
ENDBRANCH  28  30
ENDBRANCH  27  28
ENDBRANCH  26  27
ENDBRANCH  25  26
ENDBRANCH   1  25
TORSDOF 20
ENDMDL
MODEL 2
REMARK VINA RESULT:      -8.8      3.860     10.606
REMARK SMILES C[C@@H]1[C@H](C)CC[C@@H]1NC(=O)N1CCO[C@H](CC(=O)OCCOCCOC(=O)c2ccc(-c3c4nc(c(-c5ccc(S(=O)(=O)[O-])cc5)c5ccc([nH]5)c(-c5ccc(S(=O)(=O)[O-])cc5)c5nc(c(-c6ccc(S(=O)(=O)[O-])cc6)c6ccc3[nH]6)C=C5)C=C4)cc2)C1
REMARK SMILES IDX 22 1 21 2 20 3 19 4 17 5 18 6 16 7 15 8 11 9 12 10 88 11
REMARK SMILES IDX 13 12 14 13 9 14 8 15 10 17 7 18 1 19 2 20 3 21 4 22 5 23
REMARK SMILES IDX 6 24 23 25 24 26 25 27 26 28 27 29 28 30 29 31 87 32 30 33
REMARK SMILES IDX 86 34 31 35 32 36 33 37 80 38 34 39 85 40 79 41 81 42 35 43
REMARK SMILES IDX 84 44 78 45 77 46 36 48 66 49 47 50 65 51 48 52 51 53 64 54
REMARK SMILES IDX 82 55 49 56 50 57 63 59 83 60 52 61 37 62 38 63 46 64 39 65
REMARK SMILES IDX 45 66 40 67 41 68 42 69 43 70 44 71 67 72 68 73 76 74 69 75
REMARK SMILES IDX 75 76 70 77 71 78 72 79 73 80 74 81 53 82 54 83 62 84 55 85
REMARK SMILES IDX 61 86 56 87 57 88 58 89 59 90 60 91
REMARK H PARENT 8 16 81 47 51 58
REMARK Flexibility Score: inf
ROOT
ATOM      1  O   UNL A   1      32.420  28.059  25.883  1.00  0.00    -0.374 OA
ENDROOT
BRANCH   1   2
ATOM      2  C   UNL A   1      33.105  27.949  24.630  1.00  0.00     0.202 C 
BRANCH   2   3
ATOM      3  C   UNL A   1      33.660  26.559  24.298  1.00  0.00     0.261 C 
BRANCH   3   4
ATOM      4  O   UNL A   1      32.725  25.875  23.444  1.00  0.00    -0.463 OA
BRANCH   4   5
ATOM      5  C   UNL A   1      33.229  25.152  22.423  1.00  0.00     0.308 C 
ATOM      6  O   UNL A   1      33.598  25.623  21.353  1.00  0.00    -0.252 OA
BRANCH   5   7
ATOM      7  C   UNL A   1      33.289  23.669  22.718  1.00  0.00     0.156 C 
BRANCH   7   8
ATOM      8  C   UNL A   1      32.228  23.002  23.623  1.00  0.00     0.149 C 
ATOM      9  N   UNL A   1      33.710  21.538  24.972  1.00  0.00    -0.320 N 
ATOM     10  C   UNL A   1      33.105  20.383  24.308  1.00  0.00     0.150 C 
ATOM     11  C   UNL A   1      32.790  22.669  25.017  1.00  0.00     0.154 C 
ATOM     12  C   UNL A   1      32.327  20.689  23.025  1.00  0.00     0.182 C 
ATOM     13  O   UNL A   1      31.534  21.865  23.103  1.00  0.00    -0.374 OA
BRANCH   9  14
ATOM     14  C   UNL A   1      34.579  21.416  26.028  1.00  0.00     0.317 C 
ATOM     15  N   UNL A   1      35.892  21.107  25.887  1.00  0.00    -0.335 N 
ATOM     16  H   UNL A   1      36.204  20.517  26.609  1.00  0.00     0.165 HD
ATOM     17  O   UNL A   1      34.195  21.600  27.187  1.00  0.00    -0.249 OA
BRANCH  15  18
ATOM     18  C   UNL A   1      36.981  21.423  24.930  1.00  0.00     0.087 C 
ATOM     19  C   UNL A   1      39.026  21.845  26.359  1.00  0.00     0.010 C 
ATOM     20  C   UNL A   1      38.028  22.417  25.380  1.00  0.00     0.011 C 
ATOM     21  C   UNL A   1      37.251  23.772  25.388  1.00  0.00    -0.009 C 
ATOM     22  C   UNL A   1      35.928  24.078  26.143  1.00  0.00     0.008 C 
ATOM     23  C   UNL A   1      36.784  23.700  23.917  1.00  0.00     0.006 C 
ATOM     24  C   UNL A   1      36.460  22.198  23.682  1.00  0.00     0.025 C 
ENDBRANCH  15  18
ENDBRANCH   9  14
ENDBRANCH   7   8
ENDBRANCH   5   7
ENDBRANCH   4   5
ENDBRANCH   3   4
ENDBRANCH   2   3
ENDBRANCH   1   2
BRANCH   1  25
ATOM     25  C   UNL A   1      32.242  29.378  26.393  1.00  0.00     0.202 C 
BRANCH  25  26
ATOM     26  C   UNL A   1      33.051  29.769  27.636  1.00  0.00     0.261 C 
BRANCH  26  27
ATOM     27  O   UNL A   1      33.911  30.894  27.398  1.00  0.00    -0.460 OA
BRANCH  27  28
ATOM     28  C   UNL A   1      34.757  31.155  28.414  1.00  0.00     0.338 C 
ATOM     29  O   UNL A   1      34.554  31.919  29.356  1.00  0.00    -0.246 OA
BRANCH  28  30
ATOM     30  C   UNL A   1      35.932  30.265  28.380  1.00  0.00     0.060 A 
ATOM     31  C   UNL A   1      36.320  29.708  29.606  1.00  0.00     0.016 A 
ATOM     32  C   UNL A   1      36.708  30.066  27.236  1.00  0.00     0.016 A 
ATOM     33  C   UNL A   1      37.541  29.058  29.723  1.00  0.00     0.010 A 
ATOM     34  C   UNL A   1      37.941  29.408  27.356  1.00  0.00     0.010 A 
ATOM     35  C   UNL A   1      38.392  28.968  28.616  1.00  0.00    -0.014 A 
BRANCH  35  36
ATOM     36  C   UNL A   1      39.819  28.630  28.855  1.00  0.00     0.031 A 
ATOM     37  C   UNL A   1      40.693  29.639  29.561  1.00  0.00     0.074 A 
ATOM     38  C   UNL A   1      40.306  27.411  28.562  1.00  0.00     0.049 A 
ATOM     39  N   UNL A   1      41.948  29.544  29.916  1.00  0.00    -0.248 NA
ATOM     40  C   UNL A   1      40.065  30.922  29.917  1.00  0.00     0.031 C 
ATOM     41  C   UNL A   1      39.545  26.320  27.953  1.00  0.00     0.029 A 
ATOM     42  N   UNL A   1      41.557  26.881  28.758  1.00  0.00    -0.354 N 
ATOM     43  C   UNL A   1      42.261  30.755  30.527  1.00  0.00     0.074 A 
ATOM     44  C   UNL A   1      41.078  31.581  30.459  1.00  0.00     0.031 C 
ATOM     45  C   UNL A   1      40.345  25.246  27.833  1.00  0.00     0.029 A 
ATOM     46  C   UNL A   1      41.682  25.583  28.322  1.00  0.00     0.049 A 
ATOM     47  H   UNL A   1      42.296  27.383  29.173  1.00  0.00     0.167 HD
ATOM     48  C   UNL A   1      43.424  31.142  31.105  1.00  0.00     0.031 A 
ATOM     49  C   UNL A   1      42.753  24.765  28.307  1.00  0.00     0.031 A 
ATOM     50  C   UNL A   1      44.604  30.323  31.170  1.00  0.00     0.049 A 
ATOM     51  C   UNL A   1      44.063  25.250  28.873  1.00  0.00     0.074 A 
ATOM     52  C   UNL A   1      45.832  30.626  31.733  1.00  0.00     0.029 A 
ATOM     53  N   UNL A   1      44.707  29.039  30.654  1.00  0.00    -0.354 N 
ATOM     54  N   UNL A   1      44.342  26.397  29.444  1.00  0.00    -0.248 NA
ATOM     55  C   UNL A   1      45.201  24.322  28.801  1.00  0.00     0.031 C 
ATOM     56  C   UNL A   1      46.696  29.551  31.501  1.00  0.00     0.029 A 
ATOM     57  C   UNL A   1      45.985  28.547  30.862  1.00  0.00     0.049 A 
ATOM     58  H   UNL A   1      43.980  28.550  30.206  1.00  0.00     0.167 HD
ATOM     59  C   UNL A   1      45.675  26.313  29.836  1.00  0.00     0.074 A 
ATOM     60  C   UNL A   1      46.142  25.000  29.442  1.00  0.00     0.031 C 
ATOM     61  C   UNL A   1      46.440  27.236  30.471  1.00  0.00     0.031 A 
BRANCH  48  62
ATOM     62  C   UNL A   1      43.487  32.536  31.676  1.00  0.00    -0.014 A 
ATOM     63  C   UNL A   1      43.942  33.625  30.910  1.00  0.00     0.010 A 
ATOM     64  C   UNL A   1      43.055  32.765  32.996  1.00  0.00     0.010 A 
ATOM     65  C   UNL A   1      44.005  34.906  31.468  1.00  0.00     0.020 A 
ATOM     66  C   UNL A   1      43.086  34.048  33.546  1.00  0.00     0.020 A 
ATOM     67  C   UNL A   1      43.579  35.109  32.785  1.00  0.00     0.054 A 
BRANCH  67  68
ATOM     68  S   UNL A   1      43.658  36.783  33.477  1.00  0.00     0.124 S 
ATOM     69  O   UNL A   1      44.870  36.715  34.290  1.00  0.00    -0.237 OA
ATOM     70  O   UNL A   1      43.747  37.619  32.284  1.00  0.00    -0.237 OA
ATOM     71  O   UNL A   1      42.412  36.907  34.231  1.00  0.00    -0.744 OA
ENDBRANCH  67  68
ENDBRANCH  48  62
BRANCH  49  72
ATOM     72  C   UNL A   1      42.638  23.401  27.721  1.00  0.00    -0.014 A 
ATOM     73  C   UNL A   1      42.304  22.295  28.523  1.00  0.00     0.010 A 
ATOM     74  C   UNL A   1      42.870  23.202  26.346  1.00  0.00     0.010 A 
ATOM     75  C   UNL A   1      42.222  21.015  27.965  1.00  0.00     0.020 A 
ATOM     76  C   UNL A   1      42.759  21.929  25.781  1.00  0.00     0.020 A 
ATOM     77  C   UNL A   1      42.446  20.841  26.596  1.00  0.00     0.054 A 
BRANCH  77  78
ATOM     78  S   UNL A   1      42.284  19.180  25.886  1.00  0.00     0.124 S 
ATOM     79  O   UNL A   1      40.851  19.100  25.623  1.00  0.00    -0.237 OA
ATOM     80  O   UNL A   1      43.142  19.259  24.706  1.00  0.00    -0.237 OA
ATOM     81  O   UNL A   1      42.776  18.305  26.948  1.00  0.00    -0.744 OA
ENDBRANCH  77  78
ENDBRANCH  49  72
BRANCH  61  82
ATOM     82  C   UNL A   1      47.850  26.847  30.837  1.00  0.00    -0.014 A 
ATOM     83  C   UNL A   1      48.937  27.121  29.988  1.00  0.00     0.010 A 
ATOM     84  C   UNL A   1      48.095  26.239  32.084  1.00  0.00     0.010 A 
ATOM     85  C   UNL A   1      50.236  26.762  30.363  1.00  0.00     0.020 A 
ATOM     86  C   UNL A   1      49.394  25.909  32.477  1.00  0.00     0.020 A 
ATOM     87  C   UNL A   1      50.455  26.159  31.606  1.00  0.00     0.054 A 
BRANCH  87  88
ATOM     88  S   UNL A   1      52.154  25.736  32.084  1.00  0.00     0.124 S 
ATOM     89  O   UNL A   1      52.408  26.679  33.169  1.00  0.00    -0.237 OA
ATOM     90  O   UNL A   1      52.034  24.336  32.483  1.00  0.00    -0.237 OA
ATOM     91  O   UNL A   1      52.925  25.966  30.865  1.00  0.00    -0.744 OA
ENDBRANCH  87  88
ENDBRANCH  61  82
ENDBRANCH  35  36
ENDBRANCH  28  30
ENDBRANCH  27  28
ENDBRANCH  26  27
ENDBRANCH  25  26
ENDBRANCH   1  25
TORSDOF 20
ENDMDL
MODEL 3
REMARK VINA RESULT:      -8.4      5.069     11.852
REMARK SMILES C[C@@H]1[C@H](C)CC[C@@H]1NC(=O)N1CCO[C@H](CC(=O)OCCOCCOC(=O)c2ccc(-c3c4nc(c(-c5ccc(S(=O)(=O)[O-])cc5)c5ccc([nH]5)c(-c5ccc(S(=O)(=O)[O-])cc5)c5nc(c(-c6ccc(S(=O)(=O)[O-])cc6)c6ccc3[nH]6)C=C5)C=C4)cc2)C1
REMARK SMILES IDX 22 1 21 2 20 3 19 4 17 5 18 6 16 7 15 8 11 9 12 10 88 11
REMARK SMILES IDX 13 12 14 13 9 14 8 15 10 17 7 18 1 19 2 20 3 21 4 22 5 23
REMARK SMILES IDX 6 24 23 25 24 26 25 27 26 28 27 29 28 30 29 31 87 32 30 33
REMARK SMILES IDX 86 34 31 35 32 36 33 37 80 38 34 39 85 40 79 41 81 42 35 43
REMARK SMILES IDX 84 44 78 45 77 46 36 48 66 49 47 50 65 51 48 52 51 53 64 54
REMARK SMILES IDX 82 55 49 56 50 57 63 59 83 60 52 61 37 62 38 63 46 64 39 65
REMARK SMILES IDX 45 66 40 67 41 68 42 69 43 70 44 71 67 72 68 73 76 74 69 75
REMARK SMILES IDX 75 76 70 77 71 78 72 79 73 80 74 81 53 82 54 83 62 84 55 85
REMARK SMILES IDX 61 86 56 87 57 88 58 89 59 90 60 91
REMARK H PARENT 8 16 81 47 51 58
REMARK Flexibility Score: inf
ROOT
ATOM      1  O   UNL A   1      40.280  21.825  27.471  1.00  0.00    -0.374 OA
ENDROOT
BRANCH   1   2
ATOM      2  C   UNL A   1      39.700  21.870  26.162  1.00  0.00     0.202 C 
BRANCH   2   3
ATOM      3  C   UNL A   1      38.281  22.445  26.086  1.00  0.00     0.261 C 
BRANCH   3   4
ATOM      4  O   UNL A   1      37.649  21.969  24.883  1.00  0.00    -0.463 OA
BRANCH   4   5
ATOM      5  C   UNL A   1      36.608  21.122  25.020  1.00  0.00     0.308 C 
ATOM      6  O   UNL A   1      36.695  19.900  24.970  1.00  0.00    -0.252 OA
BRANCH   5   7
ATOM      7  C   UNL A   1      35.289  21.832  25.233  1.00  0.00     0.156 C 
BRANCH   7   8
ATOM      8  C   UNL A   1      34.260  21.946  24.085  1.00  0.00     0.149 C 
ATOM      9  N   UNL A   1      32.635  23.489  25.152  1.00  0.00    -0.320 N 
ATOM     10  C   UNL A   1      31.676  22.384  25.194  1.00  0.00     0.150 C 
ATOM     11  C   UNL A   1      33.584  23.329  24.056  1.00  0.00     0.154 C 
ATOM     12  C   UNL A   1      32.268  20.986  24.995  1.00  0.00     0.182 C 
ATOM     13  O   UNL A   1      33.265  20.925  23.984  1.00  0.00    -0.374 OA
BRANCH   9  14
ATOM     14  C   UNL A   1      32.296  24.778  25.482  1.00  0.00     0.317 C 
ATOM     15  N   UNL A   1      31.743  25.655  24.609  1.00  0.00    -0.335 N 
ATOM     16  H   UNL A   1      32.083  26.567  24.749  1.00  0.00     0.165 HD
ATOM     17  O   UNL A   1      32.473  25.204  26.628  1.00  0.00    -0.249 OA
BRANCH  15  18
ATOM     18  C   UNL A   1      30.761  25.603  23.498  1.00  0.00     0.087 C 
ATOM     19  C   UNL A   1      32.122  25.897  21.386  1.00  0.00     0.010 C 
ATOM     20  C   UNL A   1      31.045  26.459  22.284  1.00  0.00     0.011 C 
ATOM     21  C   UNL A   1      30.809  27.911  22.810  1.00  0.00    -0.009 C 
ATOM     22  C   UNL A   1      31.482  28.571  24.044  1.00  0.00     0.008 C 
ATOM     23  C   UNL A   1      29.366  27.670  23.308  1.00  0.00     0.006 C 
ATOM     24  C   UNL A   1      29.390  26.230  23.897  1.00  0.00     0.025 C 
ENDBRANCH  15  18
ENDBRANCH   9  14
ENDBRANCH   7   8
ENDBRANCH   5   7
ENDBRANCH   4   5
ENDBRANCH   3   4
ENDBRANCH   2   3
ENDBRANCH   1   2
BRANCH   1  25
ATOM     25  C   UNL A   1      41.642  21.415  27.546  1.00  0.00     0.202 C 
BRANCH  25  26
ATOM     26  C   UNL A   1      42.662  22.198  26.711  1.00  0.00     0.261 C 
BRANCH  26  27
ATOM     27  O   UNL A   1      42.998  23.464  27.302  1.00  0.00    -0.460 OA
BRANCH  27  28
ATOM     28  C   UNL A   1      42.706  24.522  26.521  1.00  0.00     0.338 C 
ATOM     29  O   UNL A   1      42.854  24.594  25.303  1.00  0.00    -0.246 OA
BRANCH  28  30
ATOM     30  C   UNL A   1      41.996  25.571  27.276  1.00  0.00     0.060 A 
ATOM     31  C   UNL A   1      42.639  26.812  27.361  1.00  0.00     0.016 A 
ATOM     32  C   UNL A   1      40.813  25.338  27.981  1.00  0.00     0.016 A 
ATOM     33  C   UNL A   1      42.175  27.781  28.241  1.00  0.00     0.010 A 
ATOM     34  C   UNL A   1      40.345  26.317  28.869  1.00  0.00     0.010 A 
ATOM     35  C   UNL A   1      41.069  27.512  29.054  1.00  0.00    -0.014 A 
BRANCH  35  36
ATOM     36  C   UNL A   1      40.839  28.383  30.235  1.00  0.00     0.031 A 
ATOM     37  C   UNL A   1      41.760  28.248  31.424  1.00  0.00     0.074 A 
ATOM     38  C   UNL A   1      39.911  29.357  30.215  1.00  0.00     0.049 A 
ATOM     39  N   UNL A   1      41.779  28.930  32.540  1.00  0.00    -0.248 NA
ATOM     40  C   UNL A   1      42.800  27.210  31.339  1.00  0.00     0.031 C 
ATOM     41  C   UNL A   1      39.011  29.644  29.097  1.00  0.00     0.029 A 
ATOM     42  N   UNL A   1      39.586  30.298  31.160  1.00  0.00    -0.354 N 
ATOM     43  C   UNL A   1      42.823  28.398  33.291  1.00  0.00     0.074 A 
ATOM     44  C   UNL A   1      43.387  27.312  32.522  1.00  0.00     0.031 C 
ATOM     45  C   UNL A   1      38.241  30.699  29.419  1.00  0.00     0.029 A 
ATOM     46  C   UNL A   1      38.567  31.137  30.776  1.00  0.00     0.049 A 
ATOM     47  H   UNL A   1      40.040  30.366  32.030  1.00  0.00     0.167 HD
ATOM     48  C   UNL A   1      43.281  28.784  34.507  1.00  0.00     0.031 A 
ATOM     49  C   UNL A   1      37.957  32.135  31.445  1.00  0.00     0.031 A 
ATOM     50  C   UNL A   1      42.719  29.861  35.276  1.00  0.00     0.049 A 
ATOM     51  C   UNL A   1      38.424  32.488  32.835  1.00  0.00     0.074 A 
ATOM     52  C   UNL A   1      43.112  30.328  36.518  1.00  0.00     0.029 A 
ATOM     53  N   UNL A   1      41.643  30.641  34.878  1.00  0.00    -0.354 N 
ATOM     54  N   UNL A   1      39.410  31.973  33.531  1.00  0.00    -0.248 NA
ATOM     55  C   UNL A   1      37.701  33.566  33.524  1.00  0.00     0.031 C 
ATOM     56  C   UNL A   1      42.233  31.347  36.900  1.00  0.00     0.029 A 
ATOM     57  C   UNL A   1      41.340  31.567  35.863  1.00  0.00     0.049 A 
ATOM     58  H   UNL A   1      41.163  30.549  34.023  1.00  0.00     0.167 HD
ATOM     59  C   UNL A   1      39.450  32.692  34.722  1.00  0.00     0.074 A 
ATOM     60  C   UNL A   1      38.395  33.681  34.648  1.00  0.00     0.031 C 
ATOM     61  C   UNL A   1      40.290  32.551  35.778  1.00  0.00     0.031 A 
BRANCH  48  62
ATOM     62  C   UNL A   1      44.426  28.002  35.099  1.00  0.00    -0.014 A 
ATOM     63  C   UNL A   1      44.218  26.775  35.754  1.00  0.00     0.010 A 
ATOM     64  C   UNL A   1      45.740  28.492  34.971  1.00  0.00     0.010 A 
ATOM     65  C   UNL A   1      45.296  26.076  36.309  1.00  0.00     0.020 A 
ATOM     66  C   UNL A   1      46.822  27.781  35.495  1.00  0.00     0.020 A 
ATOM     67  C   UNL A   1      46.591  26.586  36.178  1.00  0.00     0.054 A 
BRANCH  67  68
ATOM     68  S   UNL A   1      47.971  25.652  36.893  1.00  0.00     0.124 S 
ATOM     69  O   UNL A   1      47.579  25.565  38.298  1.00  0.00    -0.237 OA
ATOM     70  O   UNL A   1      47.927  24.396  36.150  1.00  0.00    -0.237 OA
ATOM     71  O   UNL A   1      49.136  26.492  36.625  1.00  0.00    -0.744 OA
ENDBRANCH  67  68
ENDBRANCH  48  62
BRANCH  49  72
ATOM     72  C   UNL A   1      36.823  32.868  30.817  1.00  0.00    -0.014 A 
ATOM     73  C   UNL A   1      37.052  33.851  29.838  1.00  0.00     0.010 A 
ATOM     74  C   UNL A   1      35.499  32.585  31.204  1.00  0.00     0.010 A 
ATOM     75  C   UNL A   1      35.981  34.549  29.272  1.00  0.00     0.020 A 
ATOM     76  C   UNL A   1      34.425  33.259  30.619  1.00  0.00     0.020 A 
ATOM     77  C   UNL A   1      34.673  34.246  29.664  1.00  0.00     0.054 A 
BRANCH  77  78
ATOM     78  S   UNL A   1      33.296  35.128  28.878  1.00  0.00     0.124 S 
ATOM     79  O   UNL A   1      33.988  36.194  28.161  1.00  0.00    -0.237 OA
ATOM     80  O   UNL A   1      32.694  34.090  28.045  1.00  0.00    -0.237 OA
ATOM     81  O   UNL A   1      32.478  35.561  30.009  1.00  0.00    -0.744 OA
ENDBRANCH  77  78
ENDBRANCH  49  72
BRANCH  61  82
ATOM     82  C   UNL A   1      40.148  33.524  36.922  1.00  0.00    -0.014 A 
ATOM     83  C   UNL A   1      39.332  33.243  38.033  1.00  0.00     0.010 A 
ATOM     84  C   UNL A   1      40.891  34.719  36.906  1.00  0.00     0.010 A 
ATOM     85  C   UNL A   1      39.233  34.159  39.086  1.00  0.00     0.020 A 
ATOM     86  C   UNL A   1      40.821  35.620  37.971  1.00  0.00     0.020 A 
ATOM     87  C   UNL A   1      39.980  35.341  39.048  1.00  0.00     0.054 A 
BRANCH  87  88
ATOM     88  S   UNL A   1      39.862  36.494  40.444  1.00  0.00     0.124 S 
ATOM     89  O   UNL A   1      40.880  35.976  41.353  1.00  0.00    -0.237 OA
ATOM     90  O   UNL A   1      40.169  37.780  39.823  1.00  0.00    -0.237 OA
ATOM     91  O   UNL A   1      38.483  36.343  40.903  1.00  0.00    -0.744 OA
ENDBRANCH  87  88
ENDBRANCH  61  82
ENDBRANCH  35  36
ENDBRANCH  28  30
ENDBRANCH  27  28
ENDBRANCH  26  27
ENDBRANCH  25  26
ENDBRANCH   1  25
TORSDOF 20
ENDMDL
