MODEL 1
REMARK VINA RESULT:      -9.8      0.000      0.000
REMARK SMILES O=C(CNC(=O)c1ccco1)Nc1cccc(C(=O)OCCOCCOC(=O)c2ccc(-c3c4nc(c(-c5ccc(S(=O)(=O)[O-])cc5)c5ccc([nH]5)c(-c5ccc(S(=O)(=O)[O-])cc5)c5nc(c(-c6ccc(S(=O)(=O)[O-])cc6)c6ccc3[nH]6)C=C5)C=C4)cc2)c1
REMARK SMILES IDX 22 1 21 2 20 3 18 4 19 5 17 6 13 7 14 8 89 9 15 10 16 11
REMARK SMILES IDX 12 12 1 13 2 14 3 16 4 17 5 18 6 20 7 21 8 22 11 23 9 24
REMARK SMILES IDX 10 25 23 26 24 27 25 28 26 29 27 30 28 31 29 32 30 33 88 34
REMARK SMILES IDX 31 35 87 36 32 37 33 38 34 39 81 40 35 41 86 42 80 43 82 44
REMARK SMILES IDX 36 45 85 46 79 47 78 48 37 50 67 51 48 52 66 53 49 54 52 55
REMARK SMILES IDX 65 56 83 57 50 58 51 59 64 61 84 62 53 63 38 64 39 65 47 66
REMARK SMILES IDX 40 67 46 68 41 69 42 70 43 71 44 72 45 73 68 74 69 75 77 76
REMARK SMILES IDX 70 77 76 78 71 79 72 80 73 81 74 82 75 83 54 84 55 85 63 86
REMARK SMILES IDX 56 87 62 88 57 89 58 90 59 91 60 92 61 93
REMARK H PARENT 12 15 4 19 82 49 52 60
REMARK Flexibility Score: inf
ROOT
ATOM      1  C   UNL A   1      33.277  29.263  27.178  1.00  0.00     0.202 C 
ENDROOT
BRANCH   1   2
ATOM      2  C   UNL A   1      34.034  28.170  26.415  1.00  0.00     0.261 C 
BRANCH   2   3
ATOM      3  O   UNL A   1      33.474  27.959  25.110  1.00  0.00    -0.460 OA
BRANCH   3   4
ATOM      4  C   UNL A   1      32.130  27.791  25.063  1.00  0.00     0.338 C 
ATOM      5  O   UNL A   1      31.304  28.585  24.637  1.00  0.00    -0.246 OA
BRANCH   4   6
ATOM      6  C   UNL A   1      31.795  26.395  25.426  1.00  0.00     0.062 A 
ATOM      7  C   UNL A   1      32.351  24.037  25.567  1.00  0.00     0.042 A 
ATOM      8  C   UNL A   1      31.061  23.782  26.052  1.00  0.00     0.026 A 
ATOM      9  C   UNL A   1      32.697  25.346  25.219  1.00  0.00     0.041 A 
ATOM     10  C   UNL A   1      30.156  24.829  26.253  1.00  0.00     0.003 A 
ATOM     11  C   UNL A   1      30.528  26.138  25.957  1.00  0.00     0.016 A 
BRANCH   7  12
ATOM     12  N   UNL A   1      33.244  22.949  25.459  1.00  0.00    -0.325 N 
ATOM     13  O   UNL A   1      34.063  22.844  27.637  1.00  0.00    -0.273 OA
ATOM     14  C   UNL A   1      34.032  22.436  26.480  1.00  0.00     0.243 C 
ATOM     15  H   UNL A   1      33.316  22.515  24.578  1.00  0.00     0.169 HD
BRANCH  14  16
ATOM     16  C   UNL A   1      35.039  21.385  26.015  1.00  0.00     0.216 C 
BRANCH  16  17
ATOM     17  N   UNL A   1      35.543  21.639  24.673  1.00  0.00    -0.340 N 
ATOM     18  C   UNL A   1      36.715  22.236  24.275  1.00  0.00     0.287 C 
ATOM     19  H   UNL A   1      34.957  21.338  23.941  1.00  0.00     0.164 HD
ATOM     20  O   UNL A   1      36.841  22.467  23.073  1.00  0.00    -0.266 OA
BRANCH  18  21
ATOM     21  C   UNL A   1      37.700  22.600  25.270  1.00  0.00     0.191 A 
ATOM     22  C   UNL A   1      37.906  23.734  26.035  1.00  0.00     0.056 A 
ATOM     23  O   UNL A   1      38.663  21.675  25.576  1.00  0.00    -0.459 OA
ATOM     24  C   UNL A   1      39.079  23.511  26.795  1.00  0.00     0.043 A 
ATOM     25  C   UNL A   1      39.496  22.240  26.486  1.00  0.00     0.196 A 
ENDBRANCH  18  21
ENDBRANCH  16  17
ENDBRANCH  14  16
ENDBRANCH   7  12
ENDBRANCH   4   6
ENDBRANCH   3   4
ENDBRANCH   2   3
ENDBRANCH   1   2
BRANCH   1  26
ATOM     26  O   UNL A   1      33.505  30.609  26.760  1.00  0.00    -0.374 OA
BRANCH  26  27
ATOM     27  C   UNL A   1      34.456  31.368  27.507  1.00  0.00     0.202 C 
BRANCH  27  28
ATOM     28  C   UNL A   1      35.086  30.687  28.728  1.00  0.00     0.261 C 
BRANCH  28  29
ATOM     29  O   UNL A   1      36.327  30.036  28.415  1.00  0.00    -0.460 OA
BRANCH  29  30
ATOM     30  C   UNL A   1      36.964  29.481  29.474  1.00  0.00     0.338 C 
ATOM     31  O   UNL A   1      36.484  29.204  30.564  1.00  0.00    -0.246 OA
BRANCH  30  32
ATOM     32  C   UNL A   1      38.325  29.080  29.073  1.00  0.00     0.060 A 
ATOM     33  C   UNL A   1      39.143  28.472  30.033  1.00  0.00     0.016 A 
ATOM     34  C   UNL A   1      38.807  29.344  27.790  1.00  0.00     0.016 A 
ATOM     35  C   UNL A   1      40.465  28.155  29.724  1.00  0.00     0.010 A 
ATOM     36  C   UNL A   1      40.134  29.033  27.485  1.00  0.00     0.010 A 
ATOM     37  C   UNL A   1      40.977  28.463  28.457  1.00  0.00    -0.014 A 
BRANCH  37  38
ATOM     38  C   UNL A   1      42.422  28.315  28.168  1.00  0.00     0.031 A 
ATOM     39  C   UNL A   1      43.340  29.475  28.438  1.00  0.00     0.074 A 
ATOM     40  C   UNL A   1      42.908  27.173  27.650  1.00  0.00     0.049 A 
ATOM     41  N   UNL A   1      44.610  29.612  28.155  1.00  0.00    -0.248 NA
ATOM     42  C   UNL A   1      42.742  30.639  29.111  1.00  0.00     0.031 C 
ATOM     43  C   UNL A   1      42.131  25.959  27.400  1.00  0.00     0.029 A 
ATOM     44  N   UNL A   1      44.175  26.855  27.230  1.00  0.00    -0.354 N 
ATOM     45  C   UNL A   1      44.960  30.881  28.601  1.00  0.00     0.074 A 
ATOM     46  C   UNL A   1      43.760  31.485  29.141  1.00  0.00     0.031 C 
ATOM     47  C   UNL A   1      42.940  25.028  26.865  1.00  0.00     0.029 A 
ATOM     48  C   UNL A   1      44.275  25.596  26.690  1.00  0.00     0.049 A 
ATOM     49  H   UNL A   1      44.938  27.471  27.308  1.00  0.00     0.167 HD
ATOM     50  C   UNL A   1      46.171  31.488  28.566  1.00  0.00     0.031 A 
ATOM     51  C   UNL A   1      45.319  24.982  26.100  1.00  0.00     0.031 A 
ATOM     52  C   UNL A   1      47.352  30.891  28.002  1.00  0.00     0.049 A 
ATOM     53  C   UNL A   1      46.629  25.714  25.973  1.00  0.00     0.074 A 
ATOM     54  C   UNL A   1      48.628  31.420  27.913  1.00  0.00     0.029 A 
ATOM     55  N   UNL A   1      47.402  29.631  27.422  1.00  0.00    -0.354 N 
ATOM     56  N   UNL A   1      46.949  26.915  26.397  1.00  0.00    -0.248 NA
ATOM     57  C   UNL A   1      47.721  25.008  25.289  1.00  0.00     0.031 C 
ATOM     58  C   UNL A   1      49.433  30.506  27.225  1.00  0.00     0.029 A 
ATOM     59  C   UNL A   1      48.678  29.376  26.949  1.00  0.00     0.049 A 
ATOM     60  H   UNL A   1      46.641  29.009  27.357  1.00  0.00     0.167 HD
ATOM     61  C   UNL A   1      48.290  27.090  26.068  1.00  0.00     0.074 A 
ATOM     62  C   UNL A   1      48.719  25.872  25.411  1.00  0.00     0.031 C 
ATOM     63  C   UNL A   1      49.094  28.157  26.299  1.00  0.00     0.031 A 
BRANCH  50  64
ATOM     64  C   UNL A   1      46.256  32.891  29.113  1.00  0.00    -0.014 A 
ATOM     65  C   UNL A   1      46.054  34.011  28.287  1.00  0.00     0.010 A 
ATOM     66  C   UNL A   1      46.542  33.091  30.475  1.00  0.00     0.010 A 
ATOM     67  C   UNL A   1      46.198  35.304  28.798  1.00  0.00     0.020 A 
ATOM     68  C   UNL A   1      46.654  34.382  30.999  1.00  0.00     0.020 A 
ATOM     69  C   UNL A   1      46.507  35.480  30.151  1.00  0.00     0.054 A 
BRANCH  69  70
ATOM     70  S   UNL A   1      46.705  37.168  30.785  1.00  0.00     0.124 S 
ATOM     71  O   UNL A   1      47.563  37.771  29.768  1.00  0.00    -0.237 OA
ATOM     72  O   UNL A   1      45.330  37.661  30.820  1.00  0.00    -0.237 OA
ATOM     73  O   UNL A   1      47.329  36.977  32.092  1.00  0.00    -0.744 OA
ENDBRANCH  69  70
ENDBRANCH  50  64
BRANCH  51  74
ATOM     74  C   UNL A   1      45.168  23.594  25.582  1.00  0.00    -0.014 A 
ATOM     75  C   UNL A   1      45.286  22.496  26.453  1.00  0.00     0.010 A 
ATOM     76  C   UNL A   1      44.895  23.360  24.222  1.00  0.00     0.010 A 
ATOM     77  C   UNL A   1      45.144  21.191  25.972  1.00  0.00     0.020 A 
ATOM     78  C   UNL A   1      44.724  22.059  23.743  1.00  0.00     0.020 A 
ATOM     79  C   UNL A   1      44.857  20.981  24.620  1.00  0.00     0.054 A 
BRANCH  79  80
ATOM     80  S   UNL A   1      44.620  19.282  24.034  1.00  0.00     0.124 S 
ATOM     81  O   UNL A   1      44.468  19.474  22.596  1.00  0.00    -0.237 OA
ATOM     82  O   UNL A   1      45.855  18.628  24.460  1.00  0.00    -0.237 OA
ATOM     83  O   UNL A   1      43.416  18.843  24.737  1.00  0.00    -0.744 OA
ENDBRANCH  79  80
ENDBRANCH  51  74
BRANCH  63  84
ATOM     84  C   UNL A   1      50.540  28.044  25.887  1.00  0.00    -0.014 A 
ATOM     85  C   UNL A   1      51.535  27.636  26.793  1.00  0.00     0.010 A 
ATOM     86  C   UNL A   1      50.894  28.290  24.546  1.00  0.00     0.010 A 
ATOM     87  C   UNL A   1      52.861  27.501  26.371  1.00  0.00     0.020 A 
ATOM     88  C   UNL A   1      52.212  28.126  24.114  1.00  0.00     0.020 A 
ATOM     89  C   UNL A   1      53.191  27.744  25.033  1.00  0.00     0.054 A 
BRANCH  89  90
ATOM     90  S   UNL A   1      54.909  27.507  24.500  1.00  0.00     0.124 S 
ATOM     91  O   UNL A   1      55.497  26.838  25.657  1.00  0.00    -0.237 OA
ATOM     92  O   UNL A   1      54.760  26.680  23.304  1.00  0.00    -0.237 OA
ATOM     93  O   UNL A   1      55.387  28.866  24.256  1.00  0.00    -0.744 OA
ENDBRANCH  89  90
ENDBRANCH  63  84
ENDBRANCH  37  38
ENDBRANCH  30  32
ENDBRANCH  29  30
ENDBRANCH  28  29
ENDBRANCH  27  28
ENDBRANCH  26  27
ENDBRANCH   1  26
TORSDOF 21
ENDMDL
MODEL 2
REMARK VINA RESULT:      -9.2      4.510     12.169
REMARK SMILES O=C(CNC(=O)c1ccco1)Nc1cccc(C(=O)OCCOCCOC(=O)c2ccc(-c3c4nc(c(-c5ccc(S(=O)(=O)[O-])cc5)c5ccc([nH]5)c(-c5ccc(S(=O)(=O)[O-])cc5)c5nc(c(-c6ccc(S(=O)(=O)[O-])cc6)c6ccc3[nH]6)C=C5)C=C4)cc2)c1
REMARK SMILES IDX 22 1 21 2 20 3 18 4 19 5 17 6 13 7 14 8 89 9 15 10 16 11
REMARK SMILES IDX 12 12 1 13 2 14 3 16 4 17 5 18 6 20 7 21 8 22 11 23 9 24
REMARK SMILES IDX 10 25 23 26 24 27 25 28 26 29 27 30 28 31 29 32 30 33 88 34
REMARK SMILES IDX 31 35 87 36 32 37 33 38 34 39 81 40 35 41 86 42 80 43 82 44
REMARK SMILES IDX 36 45 85 46 79 47 78 48 37 50 67 51 48 52 66 53 49 54 52 55
REMARK SMILES IDX 65 56 83 57 50 58 51 59 64 61 84 62 53 63 38 64 39 65 47 66
REMARK SMILES IDX 40 67 46 68 41 69 42 70 43 71 44 72 45 73 68 74 69 75 77 76
REMARK SMILES IDX 70 77 76 78 71 79 72 80 73 81 74 82 75 83 54 84 55 85 63 86
REMARK SMILES IDX 56 87 62 88 57 89 58 90 59 91 60 92 61 93
REMARK H PARENT 12 15 4 19 82 49 52 60
REMARK Flexibility Score: inf
ROOT
ATOM      1  C   UNL A   1      44.262  21.871  25.958  1.00  0.00     0.202 C 
ENDROOT
BRANCH   1   2
ATOM      2  C   UNL A   1      44.887  22.926  25.038  1.00  0.00     0.261 C 
BRANCH   2   3
ATOM      3  O   UNL A   1      46.207  23.285  25.474  1.00  0.00    -0.460 OA
BRANCH   3   4
ATOM      4  C   UNL A   1      46.271  24.131  26.530  1.00  0.00     0.338 C 
ATOM      5  O   UNL A   1      46.314  23.829  27.714  1.00  0.00    -0.246 OA
BRANCH   4   6
ATOM      6  C   UNL A   1      46.487  25.512  26.042  1.00  0.00     0.062 A 
ATOM      7  C   UNL A   1      46.017  27.893  26.103  1.00  0.00     0.042 A 
ATOM      8  C   UNL A   1      46.879  28.070  25.011  1.00  0.00     0.026 A 
ATOM      9  C   UNL A   1      45.797  26.600  26.588  1.00  0.00     0.041 A 
ATOM     10  C   UNL A   1      47.563  26.983  24.460  1.00  0.00     0.003 A 
ATOM     11  C   UNL A   1      47.381  25.706  24.986  1.00  0.00     0.016 A 
BRANCH   7  12
ATOM     12  N   UNL A   1      45.416  29.040  26.664  1.00  0.00    -0.325 N 
ATOM     13  O   UNL A   1      43.247  28.840  25.836  1.00  0.00    -0.273 OA
ATOM     14  C   UNL A   1      44.096  29.435  26.494  1.00  0.00     0.243 C 
ATOM     15  H   UNL A   1      45.984  29.613  27.227  1.00  0.00     0.169 HD
BRANCH  14  16
ATOM     16  C   UNL A   1      43.787  30.819  27.061  1.00  0.00     0.216 C 
BRANCH  16  17
ATOM     17  N   UNL A   1      44.850  31.331  27.915  1.00  0.00    -0.340 N 
ATOM     18  C   UNL A   1      45.124  32.624  28.291  1.00  0.00     0.287 C 
ATOM     19  H   UNL A   1      45.463  30.650  28.275  1.00  0.00     0.164 HD
ATOM     20  O   UNL A   1      46.176  32.812  28.904  1.00  0.00    -0.266 OA
BRANCH  18  21
ATOM     21  C   UNL A   1      44.212  33.682  27.919  1.00  0.00     0.191 A 
ATOM     22  C   UNL A   1      43.378  34.519  28.640  1.00  0.00     0.056 A 
ATOM     23  O   UNL A   1      44.096  33.980  26.586  1.00  0.00    -0.459 OA
ATOM     24  C   UNL A   1      42.684  35.318  27.702  1.00  0.00     0.043 A 
ATOM     25  C   UNL A   1      43.164  34.958  26.467  1.00  0.00     0.196 A 
ENDBRANCH  18  21
ENDBRANCH  16  17
ENDBRANCH  14  16
ENDBRANCH   7  12
ENDBRANCH   4   6
ENDBRANCH   3   4
ENDBRANCH   2   3
ENDBRANCH   1   2
BRANCH   1  26
ATOM     26  O   UNL A   1      43.245  21.046  25.387  1.00  0.00    -0.374 OA
BRANCH  26  27
ATOM     27  C   UNL A   1      41.898  21.505  25.500  1.00  0.00     0.202 C 
BRANCH  27  28
ATOM     28  C   UNL A   1      41.479  22.111  26.845  1.00  0.00     0.261 C 
BRANCH  28  29
ATOM     29  O   UNL A   1      40.082  21.924  27.121  1.00  0.00    -0.460 OA
BRANCH  29  30
ATOM     30  C   UNL A   1      39.257  22.804  26.506  1.00  0.00     0.338 C 
ATOM     31  O   UNL A   1      38.357  22.549  25.716  1.00  0.00    -0.246 OA
BRANCH  30  32
ATOM     32  C   UNL A   1      39.477  24.153  27.060  1.00  0.00     0.060 A 
ATOM     33  C   UNL A   1      40.091  25.110  26.241  1.00  0.00     0.016 A 
ATOM     34  C   UNL A   1      39.133  24.458  28.377  1.00  0.00     0.016 A 
ATOM     35  C   UNL A   1      40.397  26.371  26.751  1.00  0.00     0.010 A 
ATOM     36  C   UNL A   1      39.447  25.718  28.888  1.00  0.00     0.010 A 
ATOM     37  C   UNL A   1      40.104  26.671  28.088  1.00  0.00    -0.014 A 
BRANCH  37  38
ATOM     38  C   UNL A   1      40.591  27.927  28.705  1.00  0.00     0.031 A 
ATOM     39  C   UNL A   1      42.011  27.994  29.195  1.00  0.00     0.074 A 
ATOM     40  C   UNL A   1      39.774  28.985  28.849  1.00  0.00     0.049 A 
ATOM     41  N   UNL A   1      42.613  28.940  29.867  1.00  0.00    -0.248 NA
ATOM     42  C   UNL A   1      42.862  26.832  28.891  1.00  0.00     0.031 C 
ATOM     43  C   UNL A   1      38.397  29.064  28.363  1.00  0.00     0.029 A 
ATOM     44  N   UNL A   1      39.986  30.195  29.462  1.00  0.00    -0.354 N 
ATOM     45  C   UNL A   1      43.909  28.484  30.081  1.00  0.00     0.074 A 
ATOM     46  C   UNL A   1      43.994  27.163  29.496  1.00  0.00     0.031 C 
ATOM     47  C   UNL A   1      37.886  30.261  28.699  1.00  0.00     0.029 A 
ATOM     48  C   UNL A   1      38.880  31.009  29.466  1.00  0.00     0.049 A 
ATOM     49  H   UNL A   1      40.848  30.453  29.861  1.00  0.00     0.167 HD
ATOM     50  C   UNL A   1      44.936  29.109  30.705  1.00  0.00     0.031 A 
ATOM     51  C   UNL A   1      38.684  32.210  30.046  1.00  0.00     0.031 A 
ATOM     52  C   UNL A   1      44.836  30.412  31.308  1.00  0.00     0.049 A 
ATOM     53  C   UNL A   1      39.806  32.842  30.828  1.00  0.00     0.074 A 
ATOM     54  C   UNL A   1      45.814  31.135  31.967  1.00  0.00     0.029 A 
ATOM     55  N   UNL A   1      43.684  31.185  31.332  1.00  0.00    -0.354 N 
ATOM     56  N   UNL A   1      41.027  32.401  31.025  1.00  0.00    -0.248 NA
ATOM     57  C   UNL A   1      39.523  34.135  31.466  1.00  0.00     0.031 C 
ATOM     58  C   UNL A   1      45.238  32.317  32.443  1.00  0.00     0.029 A 
ATOM     59  C   UNL A   1      43.919  32.365  32.018  1.00  0.00     0.049 A 
ATOM     60  H   UNL A   1      42.825  30.933  30.922  1.00  0.00     0.167 HD
ATOM     61  C   UNL A   1      41.669  33.382  31.773  1.00  0.00     0.074 A 
ATOM     62  C   UNL A   1      40.702  34.439  31.993  1.00  0.00     0.031 C 
ATOM     63  C   UNL A   1      42.947  33.411  32.228  1.00  0.00     0.031 A 
BRANCH  50  64
ATOM     64  C   UNL A   1      46.242  28.361  30.805  1.00  0.00    -0.014 A 
ATOM     65  C   UNL A   1      46.410  27.303  31.717  1.00  0.00     0.010 A 
ATOM     66  C   UNL A   1      47.317  28.722  29.974  1.00  0.00     0.010 A 
ATOM     67  C   UNL A   1      47.646  26.662  31.838  1.00  0.00     0.020 A 
ATOM     68  C   UNL A   1      48.546  28.062  30.068  1.00  0.00     0.020 A 
ATOM     69  C   UNL A   1      48.709  27.053  31.018  1.00  0.00     0.054 A 
BRANCH  69  70
ATOM     70  S   UNL A   1      50.308  26.217  31.208  1.00  0.00     0.124 S 
ATOM     71  O   UNL A   1      50.217  25.704  32.573  1.00  0.00    -0.237 OA
ATOM     72  O   UNL A   1      50.269  25.206  30.154  1.00  0.00    -0.237 OA
ATOM     73  O   UNL A   1      51.284  27.285  31.009  1.00  0.00    -0.744 OA
ENDBRANCH  69  70
ENDBRANCH  50  64
BRANCH  51  74
ATOM     74  C   UNL A   1      37.371  32.897  29.906  1.00  0.00    -0.014 A 
ATOM     75  C   UNL A   1      37.034  33.547  28.706  1.00  0.00     0.010 A 
ATOM     76  C   UNL A   1      36.444  32.896  30.965  1.00  0.00     0.010 A 
ATOM     77  C   UNL A   1      35.802  34.192  28.570  1.00  0.00     0.020 A 
ATOM     78  C   UNL A   1      35.199  33.515  30.823  1.00  0.00     0.020 A 
ATOM     79  C   UNL A   1      34.889  34.166  29.628  1.00  0.00     0.054 A 
BRANCH  79  80
ATOM     80  S   UNL A   1      33.273  34.960  29.405  1.00  0.00     0.124 S 
ATOM     81  O   UNL A   1      32.779  35.035  30.776  1.00  0.00    -0.237 OA
ATOM     82  O   UNL A   1      33.634  36.235  28.790  1.00  0.00    -0.237 OA
ATOM     83  O   UNL A   1      32.556  34.034  28.530  1.00  0.00    -0.744 OA
ENDBRANCH  79  80
ENDBRANCH  51  74
BRANCH  63  84
ATOM     84  C   UNL A   1      43.398  34.646  32.966  1.00  0.00    -0.014 A 
ATOM     85  C   UNL A   1      43.417  34.700  34.370  1.00  0.00     0.010 A 
ATOM     86  C   UNL A   1      43.875  35.749  32.231  1.00  0.00     0.010 A 
ATOM     87  C   UNL A   1      43.879  35.844  35.026  1.00  0.00     0.020 A 
ATOM     88  C   UNL A   1      44.367  36.882  32.884  1.00  0.00     0.020 A 
ATOM     89  C   UNL A   1      44.354  36.928  34.279  1.00  0.00     0.054 A 
BRANCH  89  90
ATOM     90  S   UNL A   1      45.000  38.378  35.156  1.00  0.00     0.124 S 
ATOM     91  O   UNL A   1      45.563  37.779  36.363  1.00  0.00    -0.237 OA
ATOM     92  O   UNL A   1      45.974  38.917  34.208  1.00  0.00    -0.237 OA
ATOM     93  O   UNL A   1      43.819  39.212  35.367  1.00  0.00    -0.744 OA
ENDBRANCH  89  90
ENDBRANCH  63  84
ENDBRANCH  37  38
ENDBRANCH  30  32
ENDBRANCH  29  30
ENDBRANCH  28  29
ENDBRANCH  27  28
ENDBRANCH  26  27
ENDBRANCH   1  26
TORSDOF 21
ENDMDL
MODEL 3
REMARK VINA RESULT:      -8.8      1.692      2.371
REMARK SMILES O=C(CNC(=O)c1ccco1)Nc1cccc(C(=O)OCCOCCOC(=O)c2ccc(-c3c4nc(c(-c5ccc(S(=O)(=O)[O-])cc5)c5ccc([nH]5)c(-c5ccc(S(=O)(=O)[O-])cc5)c5nc(c(-c6ccc(S(=O)(=O)[O-])cc6)c6ccc3[nH]6)C=C5)C=C4)cc2)c1
REMARK SMILES IDX 22 1 21 2 20 3 18 4 19 5 17 6 13 7 14 8 89 9 15 10 16 11
REMARK SMILES IDX 12 12 1 13 2 14 3 16 4 17 5 18 6 20 7 21 8 22 11 23 9 24
REMARK SMILES IDX 10 25 23 26 24 27 25 28 26 29 27 30 28 31 29 32 30 33 88 34
REMARK SMILES IDX 31 35 87 36 32 37 33 38 34 39 81 40 35 41 86 42 80 43 82 44
REMARK SMILES IDX 36 45 85 46 79 47 78 48 37 50 67 51 48 52 66 53 49 54 52 55
REMARK SMILES IDX 65 56 83 57 50 58 51 59 64 61 84 62 53 63 38 64 39 65 47 66
REMARK SMILES IDX 40 67 46 68 41 69 42 70 43 71 44 72 45 73 68 74 69 75 77 76
REMARK SMILES IDX 70 77 76 78 71 79 72 80 73 81 74 82 75 83 54 84 55 85 63 86
REMARK SMILES IDX 56 87 62 88 57 89 58 90 59 91 60 92 61 93
REMARK H PARENT 12 15 4 19 82 49 52 60
REMARK Flexibility Score: inf
ROOT
ATOM      1  C   UNL A   1      33.005  28.162  26.650  1.00  0.00     0.202 C 
ENDROOT
BRANCH   1   2
ATOM      2  C   UNL A   1      33.534  27.001  25.801  1.00  0.00     0.261 C 
BRANCH   2   3
ATOM      3  O   UNL A   1      32.859  26.926  24.536  1.00  0.00    -0.460 OA
BRANCH   3   4
ATOM      4  C   UNL A   1      31.508  26.851  24.591  1.00  0.00     0.338 C 
ATOM      5  O   UNL A   1      30.706  27.641  24.114  1.00  0.00    -0.246 OA
BRANCH   4   6
ATOM      6  C   UNL A   1      31.110  25.540  25.154  1.00  0.00     0.062 A 
ATOM      7  C   UNL A   1      31.138  23.113  25.131  1.00  0.00     0.042 A 
ATOM      8  C   UNL A   1      30.249  23.113  26.215  1.00  0.00     0.026 A 
ATOM      9  C   UNL A   1      31.533  24.336  24.581  1.00  0.00     0.041 A 
ATOM     10  C   UNL A   1      29.819  24.316  26.785  1.00  0.00     0.003 A 
ATOM     11  C   UNL A   1      30.264  25.529  26.266  1.00  0.00     0.016 A 
BRANCH   7  12
ATOM     12  N   UNL A   1      31.595  21.867  24.650  1.00  0.00    -0.325 N 
ATOM     13  O   UNL A   1      33.520  21.589  25.933  1.00  0.00    -0.273 OA
ATOM     14  C   UNL A   1      32.737  21.201  25.070  1.00  0.00     0.243 C 
ATOM     15  H   UNL A   1      31.055  21.432  23.952  1.00  0.00     0.169 HD
BRANCH  14  16
ATOM     16  C   UNL A   1      33.078  19.970  24.232  1.00  0.00     0.216 C 
BRANCH  16  17
ATOM     17  N   UNL A   1      34.474  19.572  24.352  1.00  0.00    -0.340 N 
ATOM     18  C   UNL A   1      35.013  18.342  24.641  1.00  0.00     0.287 C 
ATOM     19  H   UNL A   1      35.129  20.292  24.204  1.00  0.00     0.164 HD
ATOM     20  O   UNL A   1      36.228  18.299  24.832  1.00  0.00    -0.266 OA
BRANCH  18  21
ATOM     21  C   UNL A   1      34.141  17.193  24.752  1.00  0.00     0.191 A 
ATOM     22  C   UNL A   1      33.524  16.373  23.823  1.00  0.00     0.056 A 
ATOM     23  O   UNL A   1      33.816  16.763  26.011  1.00  0.00    -0.459 OA
ATOM     24  C   UNL A   1      32.743  15.443  24.549  1.00  0.00     0.043 A 
ATOM     25  C   UNL A   1      32.963  15.716  25.877  1.00  0.00     0.196 A 
ENDBRANCH  18  21
ENDBRANCH  16  17
ENDBRANCH  14  16
ENDBRANCH   7  12
ENDBRANCH   4   6
ENDBRANCH   3   4
ENDBRANCH   2   3
ENDBRANCH   1   2
BRANCH   1  26
ATOM     26  O   UNL A   1      33.248  29.479  26.155  1.00  0.00    -0.374 OA
BRANCH  26  27
ATOM     27  C   UNL A   1      34.022  30.350  26.980  1.00  0.00     0.202 C 
BRANCH  27  28
ATOM     28  C   UNL A   1      34.756  29.714  28.167  1.00  0.00     0.261 C 
BRANCH  28  29
ATOM     29  O   UNL A   1      36.170  29.604  27.944  1.00  0.00    -0.460 OA
BRANCH  29  30
ATOM     30  C   UNL A   1      36.915  29.450  29.065  1.00  0.00     0.338 C 
ATOM     31  O   UNL A   1      36.525  29.484  30.224  1.00  0.00    -0.246 OA
BRANCH  30  32
ATOM     32  C   UNL A   1      38.285  29.053  28.693  1.00  0.00     0.060 A 
ATOM     33  C   UNL A   1      39.057  28.377  29.646  1.00  0.00     0.016 A 
ATOM     34  C   UNL A   1      38.820  29.384  27.447  1.00  0.00     0.016 A 
ATOM     35  C   UNL A   1      40.386  28.058  29.369  1.00  0.00     0.010 A 
ATOM     36  C   UNL A   1      40.153  29.070  27.175  1.00  0.00     0.010 A 
ATOM     37  C   UNL A   1      40.950  28.432  28.143  1.00  0.00    -0.014 A 
BRANCH  37  38
ATOM     38  C   UNL A   1      42.404  28.278  27.901  1.00  0.00     0.031 A 
ATOM     39  C   UNL A   1      43.315  29.440  28.186  1.00  0.00     0.074 A 
ATOM     40  C   UNL A   1      42.903  27.130  27.411  1.00  0.00     0.049 A 
ATOM     41  N   UNL A   1      44.593  29.572  27.941  1.00  0.00    -0.248 NA
ATOM     42  C   UNL A   1      42.698  30.612  28.827  1.00  0.00     0.031 C 
ATOM     43  C   UNL A   1      42.133  25.915  27.150  1.00  0.00     0.029 A 
ATOM     44  N   UNL A   1      44.182  26.806  27.034  1.00  0.00    -0.354 N 
ATOM     45  C   UNL A   1      44.931  30.846  28.383  1.00  0.00     0.074 A 
ATOM     46  C   UNL A   1      43.716  31.457  28.880  1.00  0.00     0.031 C 
ATOM     47  C   UNL A   1      42.957  24.976  26.652  1.00  0.00     0.029 A 
ATOM     48  C   UNL A   1      44.298  25.541  26.512  1.00  0.00     0.049 A 
ATOM     49  H   UNL A   1      44.944  27.422  27.128  1.00  0.00     0.167 HD
ATOM     50  C   UNL A   1      46.143  31.451  28.380  1.00  0.00     0.031 A 
ATOM     51  C   UNL A   1      45.358  24.919  25.961  1.00  0.00     0.031 A 
ATOM     52  C   UNL A   1      47.341  30.846  27.859  1.00  0.00     0.049 A 
ATOM     53  C   UNL A   1      46.673  25.648  25.867  1.00  0.00     0.074 A 
ATOM     54  C   UNL A   1      48.619  31.373  27.804  1.00  0.00     0.029 A 
ATOM     55  N   UNL A   1      47.406  29.580  27.295  1.00  0.00    -0.354 N 
ATOM     56  N   UNL A   1      46.982  26.853  26.287  1.00  0.00    -0.248 NA
ATOM     57  C   UNL A   1      47.785  24.932  25.225  1.00  0.00     0.031 C 
ATOM     58  C   UNL A   1      49.444  30.450  27.152  1.00  0.00     0.029 A 
ATOM     59  C   UNL A   1      48.696  29.318  26.865  1.00  0.00     0.049 A 
ATOM     60  H   UNL A   1      46.647  28.958  27.213  1.00  0.00     0.167 HD
ATOM     61  C   UNL A   1      48.332  27.023  25.998  1.00  0.00     0.074 A 
ATOM     62  C   UNL A   1      48.780  25.797  25.368  1.00  0.00     0.031 C 
ATOM     63  C   UNL A   1      49.130  28.092  26.242  1.00  0.00     0.031 A 
BRANCH  50  64
ATOM     64  C   UNL A   1      46.213  32.860  28.913  1.00  0.00    -0.014 A 
ATOM     65  C   UNL A   1      46.482  33.115  30.270  1.00  0.00     0.010 A 
ATOM     66  C   UNL A   1      46.007  33.945  28.043  1.00  0.00     0.010 A 
ATOM     67  C   UNL A   1      46.482  34.425  30.758  1.00  0.00     0.020 A 
ATOM     68  C   UNL A   1      46.040  35.259  28.519  1.00  0.00     0.020 A 
ATOM     69  C   UNL A   1      46.251  35.488  29.879  1.00  0.00     0.054 A 
BRANCH  69  70
ATOM     70  S   UNL A   1      46.240  37.177  30.542  1.00  0.00     0.124 S 
ATOM     71  O   UNL A   1      47.576  37.648  30.184  1.00  0.00    -0.237 OA
ATOM     72  O   UNL A   1      45.139  37.801  29.811  1.00  0.00    -0.237 OA
ATOM     73  O   UNL A   1      46.009  36.988  31.971  1.00  0.00    -0.744 OA
ENDBRANCH  69  70
ENDBRANCH  50  64
BRANCH  51  74
ATOM     74  C   UNL A   1      45.222  23.525  25.455  1.00  0.00    -0.014 A 
ATOM     75  C   UNL A   1      45.546  22.436  26.282  1.00  0.00     0.010 A 
ATOM     76  C   UNL A   1      44.756  23.278  24.150  1.00  0.00     0.010 A 
ATOM     77  C   UNL A   1      45.418  21.126  25.812  1.00  0.00     0.020 A 
ATOM     78  C   UNL A   1      44.599  21.969  23.686  1.00  0.00     0.020 A 
ATOM     79  C   UNL A   1      44.939  20.900  24.518  1.00  0.00     0.054 A 
BRANCH  79  80
ATOM     80  S   UNL A   1      44.726  19.190  23.953  1.00  0.00     0.124 S 
ATOM     81  O   UNL A   1      44.601  19.360  22.509  1.00  0.00    -0.237 OA
ATOM     82  O   UNL A   1      45.958  18.554  24.412  1.00  0.00    -0.237 OA
ATOM     83  O   UNL A   1      43.513  18.752  24.640  1.00  0.00    -0.744 OA
ENDBRANCH  79  80
ENDBRANCH  51  74
BRANCH  63  84
ATOM     84  C   UNL A   1      50.588  27.972  25.877  1.00  0.00    -0.014 A 
ATOM     85  C   UNL A   1      51.551  27.554  26.812  1.00  0.00     0.010 A 
ATOM     86  C   UNL A   1      50.986  28.222  24.549  1.00  0.00     0.010 A 
ATOM     87  C   UNL A   1      52.889  27.413  26.433  1.00  0.00     0.020 A 
ATOM     88  C   UNL A   1      52.317  28.052  24.159  1.00  0.00     0.020 A 
ATOM     89  C   UNL A   1      53.263  27.660  25.107  1.00  0.00     0.054 A 
BRANCH  89  90
ATOM     90  S   UNL A   1      54.996  27.416  24.629  1.00  0.00     0.124 S 
ATOM     91  O   UNL A   1      55.520  28.779  24.677  1.00  0.00    -0.237 OA
ATOM     92  O   UNL A   1      55.490  26.515  25.669  1.00  0.00    -0.237 OA
ATOM     93  O   UNL A   1      54.909  26.828  23.294  1.00  0.00    -0.744 OA
ENDBRANCH  89  90
ENDBRANCH  63  84
ENDBRANCH  37  38
ENDBRANCH  30  32
ENDBRANCH  29  30
ENDBRANCH  28  29
ENDBRANCH  27  28
ENDBRANCH  26  27
ENDBRANCH   1  26
TORSDOF 21
ENDMDL
