MODEL 1
REMARK VINA RESULT:     -11.9      0.000      0.000
REMARK SMILES COc1cc([C@H]2c3c(-c4ccccc4)n[nH]c3C(=O)N2c2ccc(C(=O)OCCOCCOC(=O)c3ccc(-c4c5nc(c(-c6ccc(S(=O)(=O)[O-])cc6)c6ccc([nH]6)c(-c6ccc(S(=O)(=O)[O-])cc6)c6nc(c(-c7ccc(S(=O)(=O)[O-])cc7)c7ccc4[nH]7)C=C6)C=C5)cc3)cc2)ccc1O
REMARK SMILES IDX 30 1 29 2 28 3 27 4 25 5 26 6 24 7 21 8 22 9 97 10 23 11
REMARK SMILES IDX 96 12 20 13 6 14 7 15 8 16 17 17 18 18 15 19 16 20 19 21
REMARK SMILES IDX 5 23 3 24 4 25 100 26 99 27 98 28 2 29 1 30 101 31 9 33
REMARK SMILES IDX 10 34 14 35 11 36 13 37 12 38 31 39 32 40 33 41 34 42 35 43
REMARK SMILES IDX 36 44 37 45 95 46 38 47 94 48 39 49 40 50 41 51 88 52 42 53
REMARK SMILES IDX 93 54 87 55 89 56 43 57 92 58 86 59 85 60 44 62 74 63 55 64
REMARK SMILES IDX 73 65 56 66 59 67 72 68 90 69 57 70 58 71 71 73 91 74 60 75
REMARK SMILES IDX 45 76 46 77 54 78 47 79 53 80 48 81 49 82 50 83 51 84 52 85
REMARK SMILES IDX 75 86 76 87 84 88 77 89 83 90 78 91 79 92 80 93 81 94 82 95
REMARK SMILES IDX 61 96 62 97 70 98 63 99 69 100 64 101 65 102 66 103 67 104
REMARK SMILES IDX 68 105
REMARK H PARENT 16 22 101 32 89 61 59 72
REMARK Flexibility Score: inf
ROOT
ATOM      1  O   UNL A   1      42.561  19.659  26.978  1.00  0.00    -0.374 OA
ENDROOT
BRANCH   1   2
ATOM      2  C   UNL A   1      41.352  20.405  27.105  1.00  0.00     0.202 C 
BRANCH   2   3
ATOM      3  C   UNL A   1      40.584  20.772  25.833  1.00  0.00     0.261 C 
BRANCH   3   4
ATOM      4  O   UNL A   1      39.231  21.184  26.083  1.00  0.00    -0.460 OA
BRANCH   4   5
ATOM      5  C   UNL A   1      38.306  20.546  25.327  1.00  0.00     0.338 C 
ATOM      6  O   UNL A   1      38.393  19.428  24.844  1.00  0.00    -0.246 OA
BRANCH   5   7
ATOM      7  C   UNL A   1      37.054  21.327  25.267  1.00  0.00     0.060 A 
ATOM      8  C   UNL A   1      34.712  22.827  25.508  1.00  0.00     0.045 A 
ATOM      9  C   UNL A   1      35.951  23.442  25.696  1.00  0.00     0.027 A 
ATOM     10  C   UNL A   1      34.657  21.481  25.113  1.00  0.00     0.027 A 
ATOM     11  C   UNL A   1      37.117  22.683  25.614  1.00  0.00     0.018 A 
ATOM     12  C   UNL A   1      35.829  20.736  24.957  1.00  0.00     0.018 A 
BRANCH   8  13
ATOM     13  N   UNL A   1      33.530  23.524  25.815  1.00  0.00    -0.295 N 
ATOM     14  C   UNL A   1      33.346  24.943  25.383  1.00  0.00     0.156 C 
ATOM     15  C   UNL A   1      31.976  25.184  25.893  1.00  0.00     0.038 A 
ATOM     16  C   UNL A   1      30.962  26.146  26.019  1.00  0.00     0.099 A 
ATOM     17  C   UNL A   1      31.482  24.050  26.467  1.00  0.00     0.129 A 
ATOM     18  C   UNL A   1      32.380  22.960  26.391  1.00  0.00     0.277 C 
ATOM     19  N   UNL A   1      29.913  25.620  26.694  1.00  0.00    -0.174 NA
ATOM     20  N   UNL A   1      30.263  24.335  26.954  1.00  0.00    -0.272 N 
ATOM     21  O   UNL A   1      32.171  21.809  26.759  1.00  0.00    -0.267 OA
ATOM     22  H   UNL A   1      29.696  23.692  27.438  1.00  0.00     0.190 HD
BRANCH  14  23
ATOM     23  C   UNL A   1      33.301  25.099  23.868  1.00  0.00    -0.016 A 
ATOM     24  C   UNL A   1      33.570  26.553  21.903  1.00  0.00     0.160 A 
ATOM     25  C   UNL A   1      33.607  26.347  23.292  1.00  0.00     0.056 A 
ATOM     26  C   UNL A   1      33.206  25.487  21.079  1.00  0.00     0.157 A 
ATOM     27  C   UNL A   1      32.915  24.238  21.622  1.00  0.00     0.050 A 
ATOM     28  C   UNL A   1      32.991  24.035  23.000  1.00  0.00     0.010 A 
BRANCH  24  29
ATOM     29  O   UNL A   1      33.986  27.799  21.520  1.00  0.00    -0.493 OA
ATOM     30  C   UNL A   1      33.769  28.891  22.403  1.00  0.00     0.278 C 
ENDBRANCH  24  29
BRANCH  26  31
ATOM     31  O   UNL A   1      33.183  25.554  19.717  1.00  0.00    -0.504 OA
ATOM     32  H   UNL A   1      32.484  26.001  19.282  1.00  0.00     0.293 HD
ENDBRANCH  26  31
ENDBRANCH  14  23
BRANCH  16  33
ATOM     33  C   UNL A   1      30.933  27.516  25.526  1.00  0.00     0.002 A 
ATOM     34  C   UNL A   1      31.529  28.545  26.263  1.00  0.00     0.010 A 
ATOM     35  C   UNL A   1      30.279  27.828  24.326  1.00  0.00     0.010 A 
ATOM     36  C   UNL A   1      31.489  29.861  25.796  1.00  0.00     0.001 A 
ATOM     37  C   UNL A   1      30.242  29.143  23.859  1.00  0.00     0.001 A 
ATOM     38  C   UNL A   1      30.848  30.158  24.594  1.00  0.00     0.000 A 
ENDBRANCH  16  33
ENDBRANCH   8  13
ENDBRANCH   5   7
ENDBRANCH   4   5
ENDBRANCH   3   4
ENDBRANCH   2   3
ENDBRANCH   1   2
BRANCH   1  39
ATOM     39  C   UNL A   1      42.934  19.127  25.712  1.00  0.00     0.202 C 
BRANCH  39  40
ATOM     40  C   UNL A   1      44.241  19.576  25.078  1.00  0.00     0.261 C 
BRANCH  40  41
ATOM     41  O   UNL A   1      44.782  20.729  25.705  1.00  0.00    -0.460 OA
BRANCH  41  42
ATOM     42  C   UNL A   1      44.516  21.881  25.048  1.00  0.00     0.338 C 
ATOM     43  O   UNL A   1      44.937  22.218  23.953  1.00  0.00    -0.246 OA
BRANCH  42  44
ATOM     44  C   UNL A   1      43.755  22.760  25.940  1.00  0.00     0.060 A 
ATOM     45  C   UNL A   1      42.828  23.604  25.329  1.00  0.00     0.016 A 
ATOM     46  C   UNL A   1      44.176  22.949  27.266  1.00  0.00     0.016 A 
ATOM     47  C   UNL A   1      42.514  24.782  25.967  1.00  0.00     0.010 A 
ATOM     48  C   UNL A   1      43.859  24.126  27.901  1.00  0.00     0.010 A 
ATOM     49  C   UNL A   1      43.116  25.068  27.201  1.00  0.00    -0.014 A 
BRANCH  49  50
ATOM     50  C   UNL A   1      42.845  26.355  27.802  1.00  0.00     0.031 A 
ATOM     51  C   UNL A   1      43.893  27.343  27.473  1.00  0.00     0.074 A 
ATOM     52  C   UNL A   1      41.742  26.625  28.525  1.00  0.00     0.049 A 
ATOM     53  N   UNL A   1      44.821  27.770  28.258  1.00  0.00    -0.248 NA
ATOM     54  C   UNL A   1      44.072  27.717  26.060  1.00  0.00     0.031 C 
ATOM     55  C   UNL A   1      40.537  25.817  28.721  1.00  0.00     0.029 A 
ATOM     56  N   UNL A   1      41.446  27.765  29.199  1.00  0.00    -0.354 N 
ATOM     57  C   UNL A   1      45.573  28.653  27.497  1.00  0.00     0.074 A 
ATOM     58  C   UNL A   1      45.197  28.429  26.124  1.00  0.00     0.031 C 
ATOM     59  C   UNL A   1      39.558  26.593  29.253  1.00  0.00     0.029 A 
ATOM     60  C   UNL A   1      40.115  27.897  29.576  1.00  0.00     0.049 A 
ATOM     61  H   UNL A   1      42.124  28.449  29.405  1.00  0.00     0.167 HD
ATOM     62  C   UNL A   1      46.250  29.678  28.082  1.00  0.00     0.031 A 
ATOM     63  C   UNL A   1      39.526  29.017  30.076  1.00  0.00     0.031 A 
ATOM     64  C   UNL A   1      46.392  29.477  29.501  1.00  0.00     0.049 A 
ATOM     65  C   UNL A   1      40.618  29.863  30.625  1.00  0.00     0.074 A 
ATOM     66  C   UNL A   1      47.009  28.521  30.284  1.00  0.00     0.029 A 
ATOM     67  N   UNL A   1      45.473  30.101  30.315  1.00  0.00    -0.354 N 
ATOM     68  N   UNL A   1      41.339  29.508  31.653  1.00  0.00    -0.248 NA
ATOM     69  C   UNL A   1      41.234  30.838  29.737  1.00  0.00     0.031 C 
ATOM     70  C   UNL A   1      46.110  28.297  31.367  1.00  0.00     0.029 A 
ATOM     71  C   UNL A   1      45.040  29.184  31.240  1.00  0.00     0.049 A 
ATOM     72  H   UNL A   1      45.180  31.038  30.245  1.00  0.00     0.167 HD
ATOM     73  C   UNL A   1      42.639  29.858  31.314  1.00  0.00     0.074 A 
ATOM     74  C   UNL A   1      42.502  30.741  30.154  1.00  0.00     0.031 C 
ATOM     75  C   UNL A   1      43.712  29.181  31.821  1.00  0.00     0.031 A 
BRANCH  62  76
ATOM     76  C   UNL A   1      46.393  31.029  27.434  1.00  0.00    -0.014 A 
ATOM     77  C   UNL A   1      47.665  31.436  26.990  1.00  0.00     0.010 A 
ATOM     78  C   UNL A   1      45.386  32.016  27.494  1.00  0.00     0.010 A 
ATOM     79  C   UNL A   1      47.926  32.777  26.678  1.00  0.00     0.020 A 
ATOM     80  C   UNL A   1      45.623  33.344  27.147  1.00  0.00     0.020 A 
ATOM     81  C   UNL A   1      46.903  33.722  26.769  1.00  0.00     0.054 A 
BRANCH  81  82
ATOM     82  S   UNL A   1      47.271  35.462  26.446  1.00  0.00     0.124 S 
ATOM     83  O   UNL A   1      47.472  35.983  27.795  1.00  0.00    -0.237 OA
ATOM     84  O   UNL A   1      48.467  35.373  25.614  1.00  0.00    -0.237 OA
ATOM     85  O   UNL A   1      46.075  35.944  25.759  1.00  0.00    -0.744 OA
ENDBRANCH  81  82
ENDBRANCH  62  76
BRANCH  63  86
ATOM     86  C   UNL A   1      38.181  29.570  29.753  1.00  0.00    -0.014 A 
ATOM     87  C   UNL A   1      37.442  30.308  30.700  1.00  0.00     0.010 A 
ATOM     88  C   UNL A   1      37.755  29.631  28.410  1.00  0.00     0.010 A 
ATOM     89  C   UNL A   1      36.359  31.122  30.309  1.00  0.00     0.020 A 
ATOM     90  C   UNL A   1      36.680  30.437  28.014  1.00  0.00     0.020 A 
ATOM     91  C   UNL A   1      35.999  31.197  28.961  1.00  0.00     0.054 A 
BRANCH  91  92
ATOM     92  S   UNL A   1      34.722  32.383  28.432  1.00  0.00     0.124 S 
ATOM     93  O   UNL A   1      33.806  31.539  27.670  1.00  0.00    -0.237 OA
ATOM     94  O   UNL A   1      34.208  32.887  29.701  1.00  0.00    -0.237 OA
ATOM     95  O   UNL A   1      35.467  33.359  27.638  1.00  0.00    -0.744 OA
ENDBRANCH  91  92
ENDBRANCH  63  86
BRANCH  75  96
ATOM     96  C   UNL A   1      43.478  28.203  32.953  1.00  0.00    -0.014 A 
ATOM     97  C   UNL A   1      43.314  26.812  32.784  1.00  0.00     0.010 A 
ATOM     98  C   UNL A   1      43.579  28.706  34.261  1.00  0.00     0.010 A 
ATOM     99  C   UNL A   1      43.229  25.957  33.898  1.00  0.00     0.020 A 
ATOM    100  C   UNL A   1      43.514  27.862  35.371  1.00  0.00     0.020 A 
ATOM    101  C   UNL A   1      43.328  26.493  35.188  1.00  0.00     0.054 A 
BRANCH 101 102
ATOM    102  S   UNL A   1      43.246  25.393  36.630  1.00  0.00     0.124 S 
ATOM    103  O   UNL A   1      44.094  26.077  37.600  1.00  0.00    -0.237 OA
ATOM    104  O   UNL A   1      41.819  25.371  36.944  1.00  0.00    -0.237 OA
ATOM    105  O   UNL A   1      43.779  24.124  36.131  1.00  0.00    -0.744 OA
ENDBRANCH 101 102
ENDBRANCH  75  96
ENDBRANCH  49  50
ENDBRANCH  42  44
ENDBRANCH  41  42
ENDBRANCH  40  41
ENDBRANCH  39  40
ENDBRANCH   1  39
TORSDOF 22
ENDMDL
MODEL 2
REMARK VINA RESULT:     -10.8      3.220      9.176
REMARK SMILES COc1cc([C@H]2c3c(-c4ccccc4)n[nH]c3C(=O)N2c2ccc(C(=O)OCCOCCOC(=O)c3ccc(-c4c5nc(c(-c6ccc(S(=O)(=O)[O-])cc6)c6ccc([nH]6)c(-c6ccc(S(=O)(=O)[O-])cc6)c6nc(c(-c7ccc(S(=O)(=O)[O-])cc7)c7ccc4[nH]7)C=C6)C=C5)cc3)cc2)ccc1O
REMARK SMILES IDX 30 1 29 2 28 3 27 4 25 5 26 6 24 7 21 8 22 9 97 10 23 11
REMARK SMILES IDX 96 12 20 13 6 14 7 15 8 16 17 17 18 18 15 19 16 20 19 21
REMARK SMILES IDX 5 23 3 24 4 25 100 26 99 27 98 28 2 29 1 30 101 31 9 33
REMARK SMILES IDX 10 34 14 35 11 36 13 37 12 38 31 39 32 40 33 41 34 42 35 43
REMARK SMILES IDX 36 44 37 45 95 46 38 47 94 48 39 49 40 50 41 51 88 52 42 53
REMARK SMILES IDX 93 54 87 55 89 56 43 57 92 58 86 59 85 60 44 62 74 63 55 64
REMARK SMILES IDX 73 65 56 66 59 67 72 68 90 69 57 70 58 71 71 73 91 74 60 75
REMARK SMILES IDX 45 76 46 77 54 78 47 79 53 80 48 81 49 82 50 83 51 84 52 85
REMARK SMILES IDX 75 86 76 87 84 88 77 89 83 90 78 91 79 92 80 93 81 94 82 95
REMARK SMILES IDX 61 96 62 97 70 98 63 99 69 100 64 101 65 102 66 103 67 104
REMARK SMILES IDX 68 105
REMARK H PARENT 16 22 101 32 89 61 59 72
REMARK Flexibility Score: inf
ROOT
ATOM      1  O   UNL A   1      36.875  31.430  30.714  1.00  0.00    -0.374 OA
ENDROOT
BRANCH   1   2
ATOM      2  C   UNL A   1      36.640  32.742  30.207  1.00  0.00     0.202 C 
BRANCH   2   3
ATOM      3  C   UNL A   1      35.628  32.915  29.071  1.00  0.00     0.261 C 
BRANCH   3   4
ATOM      4  O   UNL A   1      34.781  31.770  28.884  1.00  0.00    -0.460 OA
BRANCH   4   5
ATOM      5  C   UNL A   1      33.720  31.990  28.069  1.00  0.00     0.338 C 
ATOM      6  O   UNL A   1      33.089  33.027  27.947  1.00  0.00    -0.246 OA
BRANCH   5   7
ATOM      7  C   UNL A   1      33.488  30.826  27.191  1.00  0.00     0.060 A 
ATOM      8  C   UNL A   1      33.322  28.747  25.335  1.00  0.00     0.045 A 
ATOM      9  C   UNL A   1      34.378  28.777  26.248  1.00  0.00     0.027 A 
ATOM     10  C   UNL A   1      32.306  29.712  25.415  1.00  0.00     0.027 A 
ATOM     11  C   UNL A   1      34.481  29.837  27.148  1.00  0.00     0.018 A 
ATOM     12  C   UNL A   1      32.368  30.735  26.366  1.00  0.00     0.018 A 
BRANCH   8  13
ATOM     13  N   UNL A   1      33.335  27.818  24.281  1.00  0.00    -0.295 N 
ATOM     14  C   UNL A   1      33.369  26.349  24.556  1.00  0.00     0.156 C 
ATOM     15  C   UNL A   1      33.325  25.832  23.169  1.00  0.00     0.038 A 
ATOM     16  C   UNL A   1      33.342  24.667  22.387  1.00  0.00     0.099 A 
ATOM     17  C   UNL A   1      33.231  26.867  22.284  1.00  0.00     0.129 A 
ATOM     18  C   UNL A   1      33.166  28.129  22.921  1.00  0.00     0.277 C 
ATOM     19  N   UNL A   1      33.311  24.994  21.074  1.00  0.00    -0.174 NA
ATOM     20  N   UNL A   1      33.243  26.350  21.046  1.00  0.00    -0.272 N 
ATOM     21  O   UNL A   1      33.007  29.217  22.380  1.00  0.00    -0.267 OA
ATOM     22  H   UNL A   1      33.207  26.886  20.221  1.00  0.00     0.190 HD
BRANCH  14  23
ATOM     23  C   UNL A   1      32.117  25.851  25.266  1.00  0.00    -0.016 A 
ATOM     24  C   UNL A   1      31.083  24.233  26.803  1.00  0.00     0.160 A 
ATOM     25  C   UNL A   1      32.205  24.743  26.131  1.00  0.00     0.056 A 
ATOM     26  C   UNL A   1      29.845  24.840  26.591  1.00  0.00     0.157 A 
ATOM     27  C   UNL A   1      29.731  25.947  25.754  1.00  0.00     0.050 A 
ATOM     28  C   UNL A   1      30.860  26.469  25.121  1.00  0.00     0.010 A 
BRANCH  24  29
ATOM     29  O   UNL A   1      31.376  23.216  27.670  1.00  0.00    -0.493 OA
ATOM     30  C   UNL A   1      32.159  22.126  27.202  1.00  0.00     0.278 C 
ENDBRANCH  24  29
BRANCH  26  31
ATOM     31  O   UNL A   1      28.697  24.464  27.225  1.00  0.00    -0.504 OA
ATOM     32  H   UNL A   1      28.480  24.831  28.059  1.00  0.00     0.293 HD
ENDBRANCH  26  31
ENDBRANCH  14  23
BRANCH  16  33
ATOM     33  C   UNL A   1      33.371  23.276  22.818  1.00  0.00     0.002 A 
ATOM     34  C   UNL A   1      32.369  22.389  22.410  1.00  0.00     0.010 A 
ATOM     35  C   UNL A   1      34.381  22.816  23.674  1.00  0.00     0.010 A 
ATOM     36  C   UNL A   1      32.389  21.059  22.836  1.00  0.00     0.001 A 
ATOM     37  C   UNL A   1      34.402  21.486  24.096  1.00  0.00     0.001 A 
ATOM     38  C   UNL A   1      33.407  20.607  23.676  1.00  0.00     0.000 A 
ENDBRANCH  16  33
ENDBRANCH   8  13
ENDBRANCH   5   7
ENDBRANCH   4   5
ENDBRANCH   3   4
ENDBRANCH   2   3
ENDBRANCH   1   2
BRANCH   1  39
ATOM     39  C   UNL A   1      36.294  31.037  31.953  1.00  0.00     0.202 C 
BRANCH  39  40
ATOM     40  C   UNL A   1      37.023  31.367  33.246  1.00  0.00     0.261 C 
BRANCH  40  41
ATOM     41  O   UNL A   1      37.675  30.238  33.808  1.00  0.00    -0.460 OA
BRANCH  41  42
ATOM     42  C   UNL A   1      38.893  30.516  34.328  1.00  0.00     0.338 C 
ATOM     43  O   UNL A   1      39.184  31.447  35.061  1.00  0.00    -0.246 OA
BRANCH  42  44
ATOM     44  C   UNL A   1      39.871  29.602  33.734  1.00  0.00     0.060 A 
ATOM     45  C   UNL A   1      41.175  29.693  34.223  1.00  0.00     0.016 A 
ATOM     46  C   UNL A   1      39.568  28.925  32.541  1.00  0.00     0.016 A 
ATOM     47  C   UNL A   1      42.202  29.320  33.388  1.00  0.00     0.010 A 
ATOM     48  C   UNL A   1      40.597  28.553  31.710  1.00  0.00     0.010 A 
ATOM     49  C   UNL A   1      41.896  28.849  32.103  1.00  0.00    -0.014 A 
BRANCH  49  50
ATOM     50  C   UNL A   1      42.996  28.557  31.211  1.00  0.00     0.031 A 
ATOM     51  C   UNL A   1      43.154  29.602  30.178  1.00  0.00     0.074 A 
ATOM     52  C   UNL A   1      43.807  27.490  31.346  1.00  0.00     0.049 A 
ATOM     53  N   UNL A   1      42.823  29.512  28.936  1.00  0.00    -0.248 NA
ATOM     54  C   UNL A   1      43.493  30.965  30.619  1.00  0.00     0.031 C 
ATOM     55  C   UNL A   1      43.901  26.528  32.446  1.00  0.00     0.029 A 
ATOM     56  N   UNL A   1      44.800  27.088  30.514  1.00  0.00    -0.354 N 
ATOM     57  C   UNL A   1      43.130  30.745  28.380  1.00  0.00     0.074 A 
ATOM     58  C   UNL A   1      43.344  31.647  29.483  1.00  0.00     0.031 C 
ATOM     59  C   UNL A   1      45.050  25.815  32.320  1.00  0.00     0.029 A 
ATOM     60  C   UNL A   1      45.683  26.162  31.057  1.00  0.00     0.049 A 
ATOM     61  H   UNL A   1      44.889  27.426  29.593  1.00  0.00     0.167 HD
ATOM     62  C   UNL A   1      43.442  30.858  27.060  1.00  0.00     0.031 A 
ATOM     63  C   UNL A   1      46.861  25.756  30.511  1.00  0.00     0.031 A 
ATOM     64  C   UNL A   1      43.038  29.691  26.319  1.00  0.00     0.049 A 
ATOM     65  C   UNL A   1      46.781  26.053  29.057  1.00  0.00     0.074 A 
ATOM     66  C   UNL A   1      41.824  29.085  26.059  1.00  0.00     0.029 A 
ATOM     67  N   UNL A   1      43.999  28.732  26.090  1.00  0.00    -0.354 N 
ATOM     68  N   UNL A   1      45.943  25.453  28.258  1.00  0.00    -0.248 NA
ATOM     69  C   UNL A   1      47.259  27.350  28.601  1.00  0.00     0.031 C 
ATOM     70  C   UNL A   1      42.083  27.687  26.156  1.00  0.00     0.029 A 
ATOM     71  C   UNL A   1      43.449  27.508  26.380  1.00  0.00     0.049 A 
ATOM     72  H   UNL A   1      44.917  28.896  25.774  1.00  0.00     0.167 HD
ATOM     73  C   UNL A   1      45.450  26.459  27.438  1.00  0.00     0.074 A 
ATOM     74  C   UNL A   1      46.352  27.593  27.648  1.00  0.00     0.031 C 
ATOM     75  C   UNL A   1      44.202  26.379  26.888  1.00  0.00     0.031 A 
BRANCH  62  76
ATOM     76  C   UNL A   1      44.477  31.825  26.552  1.00  0.00    -0.014 A 
ATOM     77  C   UNL A   1      45.822  31.632  26.917  1.00  0.00     0.010 A 
ATOM     78  C   UNL A   1      44.142  33.062  25.961  1.00  0.00     0.010 A 
ATOM     79  C   UNL A   1      46.770  32.650  26.751  1.00  0.00     0.020 A 
ATOM     80  C   UNL A   1      45.085  34.067  25.753  1.00  0.00     0.020 A 
ATOM     81  C   UNL A   1      46.389  33.865  26.178  1.00  0.00     0.054 A 
BRANCH  81  82
ATOM     82  S   UNL A   1      47.599  35.201  26.045  1.00  0.00     0.124 S 
ATOM     83  O   UNL A   1      48.392  34.776  24.896  1.00  0.00    -0.237 OA
ATOM     84  O   UNL A   1      46.747  36.367  25.835  1.00  0.00    -0.237 OA
ATOM     85  O   UNL A   1      48.291  35.165  27.332  1.00  0.00    -0.744 OA
ENDBRANCH  81  82
ENDBRANCH  62  76
BRANCH  63  86
ATOM     86  C   UNL A   1      48.160  25.518  31.202  1.00  0.00    -0.014 A 
ATOM     87  C   UNL A   1      49.371  25.438  30.484  1.00  0.00     0.010 A 
ATOM     88  C   UNL A   1      48.246  25.675  32.600  1.00  0.00     0.010 A 
ATOM     89  C   UNL A   1      50.616  25.570  31.134  1.00  0.00     0.020 A 
ATOM     90  C   UNL A   1      49.479  25.806  33.254  1.00  0.00     0.020 A 
ATOM     91  C   UNL A   1      50.659  25.776  32.515  1.00  0.00     0.054 A 
BRANCH  91  92
ATOM     92  S   UNL A   1      52.252  26.127  33.327  1.00  0.00     0.124 S 
ATOM     93  O   UNL A   1      52.819  27.162  32.467  1.00  0.00    -0.237 OA
ATOM     94  O   UNL A   1      51.843  26.565  34.657  1.00  0.00    -0.237 OA
ATOM     95  O   UNL A   1      52.948  24.842  33.288  1.00  0.00    -0.744 OA
ENDBRANCH  91  92
ENDBRANCH  63  86
BRANCH  75  96
ATOM     96  C   UNL A   1      43.458  25.062  26.977  1.00  0.00    -0.014 A 
ATOM     97  C   UNL A   1      42.657  24.672  28.071  1.00  0.00     0.010 A 
ATOM     98  C   UNL A   1      43.455  24.253  25.828  1.00  0.00     0.010 A 
ATOM     99  C   UNL A   1      41.897  23.490  28.019  1.00  0.00     0.020 A 
ATOM    100  C   UNL A   1      42.690  23.088  25.764  1.00  0.00     0.020 A 
ATOM    101  C   UNL A   1      41.922  22.703  26.862  1.00  0.00     0.054 A 
BRANCH 101 102
ATOM    102  S   UNL A   1      40.923  21.189  26.778  1.00  0.00     0.124 S 
ATOM    103  O   UNL A   1      40.761  20.837  28.185  1.00  0.00    -0.237 OA
ATOM    104  O   UNL A   1      39.710  21.636  26.096  1.00  0.00    -0.237 OA
ATOM    105  O   UNL A   1      41.753  20.266  26.002  1.00  0.00    -0.744 OA
ENDBRANCH 101 102
ENDBRANCH  75  96
ENDBRANCH  49  50
ENDBRANCH  42  44
ENDBRANCH  41  42
ENDBRANCH  40  41
ENDBRANCH  39  40
ENDBRANCH   1  39
TORSDOF 22
ENDMDL
MODEL 3
REMARK VINA RESULT:     -10.6      4.707     10.391
REMARK SMILES COc1cc([C@H]2c3c(-c4ccccc4)n[nH]c3C(=O)N2c2ccc(C(=O)OCCOCCOC(=O)c3ccc(-c4c5nc(c(-c6ccc(S(=O)(=O)[O-])cc6)c6ccc([nH]6)c(-c6ccc(S(=O)(=O)[O-])cc6)c6nc(c(-c7ccc(S(=O)(=O)[O-])cc7)c7ccc4[nH]7)C=C6)C=C5)cc3)cc2)ccc1O
REMARK SMILES IDX 30 1 29 2 28 3 27 4 25 5 26 6 24 7 21 8 22 9 97 10 23 11
REMARK SMILES IDX 96 12 20 13 6 14 7 15 8 16 17 17 18 18 15 19 16 20 19 21
REMARK SMILES IDX 5 23 3 24 4 25 100 26 99 27 98 28 2 29 1 30 101 31 9 33
REMARK SMILES IDX 10 34 14 35 11 36 13 37 12 38 31 39 32 40 33 41 34 42 35 43
REMARK SMILES IDX 36 44 37 45 95 46 38 47 94 48 39 49 40 50 41 51 88 52 42 53
REMARK SMILES IDX 93 54 87 55 89 56 43 57 92 58 86 59 85 60 44 62 74 63 55 64
REMARK SMILES IDX 73 65 56 66 59 67 72 68 90 69 57 70 58 71 71 73 91 74 60 75
REMARK SMILES IDX 45 76 46 77 54 78 47 79 53 80 48 81 49 82 50 83 51 84 52 85
REMARK SMILES IDX 75 86 76 87 84 88 77 89 83 90 78 91 79 92 80 93 81 94 82 95
REMARK SMILES IDX 61 96 62 97 70 98 63 99 69 100 64 101 65 102 66 103 67 104
REMARK SMILES IDX 68 105
REMARK H PARENT 16 22 101 32 89 61 59 72
REMARK Flexibility Score: inf
ROOT
ATOM      1  O   UNL A   1      43.064  22.036  28.085  1.00  0.00    -0.374 OA
ENDROOT
BRANCH   1   2
ATOM      2  C   UNL A   1      42.431  23.167  28.678  1.00  0.00     0.202 C 
BRANCH   2   3
ATOM      3  C   UNL A   1      41.415  23.955  27.846  1.00  0.00     0.261 C 
BRANCH   3   4
ATOM      4  O   UNL A   1      41.439  25.368  28.107  1.00  0.00    -0.460 OA
BRANCH   4   5
ATOM      5  C   UNL A   1      40.782  26.115  27.186  1.00  0.00     0.338 C 
ATOM      6  O   UNL A   1      40.674  25.885  25.993  1.00  0.00    -0.246 OA
BRANCH   5   7
ATOM      7  C   UNL A   1      40.048  27.217  27.840  1.00  0.00     0.060 A 
ATOM      8  C   UNL A   1      38.364  29.117  29.000  1.00  0.00     0.045 A 
ATOM      9  C   UNL A   1      38.582  27.898  29.646  1.00  0.00     0.027 A 
ATOM     10  C   UNL A   1      39.062  29.413  27.819  1.00  0.00     0.027 A 
ATOM     11  C   UNL A   1      39.392  26.936  29.045  1.00  0.00     0.018 A 
ATOM     12  C   UNL A   1      39.933  28.477  27.253  1.00  0.00     0.018 A 
BRANCH   8  13
ATOM     13  N   UNL A   1      37.376  29.996  29.477  1.00  0.00    -0.295 N 
ATOM     14  C   UNL A   1      37.495  30.619  30.830  1.00  0.00     0.156 C 
ATOM     15  C   UNL A   1      36.273  31.457  30.829  1.00  0.00     0.038 A 
ATOM     16  C   UNL A   1      35.504  32.347  31.593  1.00  0.00     0.099 A 
ATOM     17  C   UNL A   1      35.624  31.339  29.635  1.00  0.00     0.129 A 
ATOM     18  C   UNL A   1      36.299  30.492  28.725  1.00  0.00     0.277 C 
ATOM     19  N   UNL A   1      34.400  32.712  30.899  1.00  0.00    -0.174 NA
ATOM     20  N   UNL A   1      34.504  32.077  29.704  1.00  0.00    -0.272 N 
ATOM     21  O   UNL A   1      35.982  30.264  27.562  1.00  0.00    -0.267 OA
ATOM     22  H   UNL A   1      33.843  32.149  28.978  1.00  0.00     0.190 HD
BRANCH  14  23
ATOM     23  C   UNL A   1      38.689  31.556  30.947  1.00  0.00    -0.016 A 
ATOM     24  C   UNL A   1      40.888  32.034  31.940  1.00  0.00     0.160 A 
ATOM     25  C   UNL A   1      39.767  31.204  31.783  1.00  0.00     0.056 A 
ATOM     26  C   UNL A   1      40.921  33.248  31.252  1.00  0.00     0.157 A 
ATOM     27  C   UNL A   1      39.877  33.613  30.407  1.00  0.00     0.050 A 
ATOM     28  C   UNL A   1      38.785  32.763  30.230  1.00  0.00     0.010 A 
BRANCH  24  29
ATOM     29  O   UNL A   1      41.874  31.487  32.715  1.00  0.00    -0.493 OA
ATOM     30  C   UNL A   1      41.647  31.355  34.112  1.00  0.00     0.278 C 
ENDBRANCH  24  29
BRANCH  26  31
ATOM     31  O   UNL A   1      41.977  34.111  31.288  1.00  0.00    -0.504 OA
ATOM     32  H   UNL A   1      42.322  34.395  32.111  1.00  0.00     0.293 HD
ENDBRANCH  26  31
ENDBRANCH  14  23
BRANCH  16  33
ATOM     33  C   UNL A   1      35.766  32.873  32.926  1.00  0.00     0.002 A 
ATOM     34  C   UNL A   1      36.793  32.334  33.708  1.00  0.00     0.010 A 
ATOM     35  C   UNL A   1      34.974  33.900  33.455  1.00  0.00     0.010 A 
ATOM     36  C   UNL A   1      37.035  32.829  34.992  1.00  0.00     0.001 A 
ATOM     37  C   UNL A   1      35.218  34.397  34.737  1.00  0.00     0.001 A 
ATOM     38  C   UNL A   1      36.250  33.862  35.504  1.00  0.00     0.000 A 
ENDBRANCH  16  33
ENDBRANCH   8  13
ENDBRANCH   5   7
ENDBRANCH   4   5
ENDBRANCH   3   4
ENDBRANCH   2   3
ENDBRANCH   1   2
BRANCH   1  39
ATOM     39  C   UNL A   1      42.329  21.198  27.199  1.00  0.00     0.202 C 
BRANCH  39  40
ATOM     40  C   UNL A   1      42.888  20.919  25.813  1.00  0.00     0.261 C 
BRANCH  40  41
ATOM     41  O   UNL A   1      42.858  22.062  24.972  1.00  0.00    -0.460 OA
BRANCH  41  42
ATOM     42  C   UNL A   1      44.002  22.256  24.276  1.00  0.00     0.338 C 
ATOM     43  O   UNL A   1      44.531  21.477  23.500  1.00  0.00    -0.246 OA
BRANCH  42  44
ATOM     44  C   UNL A   1      44.614  23.508  24.726  1.00  0.00     0.060 A 
ATOM     45  C   UNL A   1      45.957  23.439  25.097  1.00  0.00     0.016 A 
ATOM     46  C   UNL A   1      43.805  24.607  25.058  1.00  0.00     0.016 A 
ATOM     47  C   UNL A   1      46.419  24.355  26.014  1.00  0.00     0.010 A 
ATOM     48  C   UNL A   1      44.270  25.521  25.972  1.00  0.00     0.010 A 
ATOM     49  C   UNL A   1      45.534  25.322  26.512  1.00  0.00    -0.014 A 
BRANCH  49  50
ATOM     50  C   UNL A   1      46.017  26.209  27.547  1.00  0.00     0.031 A 
ATOM     51  C   UNL A   1      45.408  25.903  28.857  1.00  0.00     0.074 A 
ATOM     52  C   UNL A   1      46.949  27.159  27.342  1.00  0.00     0.049 A 
ATOM     53  N   UNL A   1      44.485  26.578  29.454  1.00  0.00    -0.248 NA
ATOM     54  C   UNL A   1      45.680  24.587  29.457  1.00  0.00     0.031 C 
ATOM     55  C   UNL A   1      47.788  27.402  26.167  1.00  0.00     0.029 A 
ATOM     56  N   UNL A   1      47.395  28.091  28.222  1.00  0.00    -0.354 N 
ATOM     57  C   UNL A   1      44.221  25.888  30.628  1.00  0.00     0.074 A 
ATOM     58  C   UNL A   1      44.827  24.589  30.481  1.00  0.00     0.031 C 
ATOM     59  C   UNL A   1      48.796  28.246  26.502  1.00  0.00     0.029 A 
ATOM     60  C   UNL A   1      48.581  28.721  27.860  1.00  0.00     0.049 A 
ATOM     61  H   UNL A   1      46.916  28.306  29.055  1.00  0.00     0.167 HD
ATOM     62  C   UNL A   1      43.753  26.536  31.728  1.00  0.00     0.031 A 
ATOM     63  C   UNL A   1      49.334  29.534  28.648  1.00  0.00     0.031 A 
ATOM     64  C   UNL A   1      43.230  27.837  31.394  1.00  0.00     0.049 A 
ATOM     65  C   UNL A   1      48.436  30.037  29.721  1.00  0.00     0.074 A 
ATOM     66  C   UNL A   1      42.197  28.286  30.595  1.00  0.00     0.029 A 
ATOM     67  N   UNL A   1      44.073  28.911  31.569  1.00  0.00    -0.354 N 
ATOM     68  N   UNL A   1      47.423  30.825  29.485  1.00  0.00    -0.248 NA
ATOM     69  C   UNL A   1      48.355  29.268  30.955  1.00  0.00     0.031 C 
ATOM     70  C   UNL A   1      42.712  29.445  29.946  1.00  0.00     0.029 A 
ATOM     71  C   UNL A   1      43.992  29.695  30.444  1.00  0.00     0.049 A 
ATOM     72  H   UNL A   1      44.632  29.087  32.359  1.00  0.00     0.167 HD
ATOM     73  C   UNL A   1      46.398  30.335  30.283  1.00  0.00     0.074 A 
ATOM     74  C   UNL A   1      47.053  29.421  31.221  1.00  0.00     0.031 C 
ATOM     75  C   UNL A   1      45.088  30.493  29.930  1.00  0.00     0.031 A 
BRANCH  62  76
ATOM     76  C   UNL A   1      44.162  26.160  33.126  1.00  0.00    -0.014 A 
ATOM     77  C   UNL A   1      45.526  25.946  33.399  1.00  0.00     0.010 A 
ATOM     78  C   UNL A   1      43.237  25.743  34.108  1.00  0.00     0.010 A 
ATOM     79  C   UNL A   1      45.936  25.295  34.570  1.00  0.00     0.020 A 
ATOM     80  C   UNL A   1      43.636  25.132  35.295  1.00  0.00     0.020 A 
ATOM     81  C   UNL A   1      44.984  24.884  35.504  1.00  0.00     0.054 A 
BRANCH  81  82
ATOM     82  S   UNL A   1      45.517  23.971  36.970  1.00  0.00     0.124 S 
ATOM     83  O   UNL A   1      45.316  22.587  36.552  1.00  0.00    -0.237 OA
ATOM     84  O   UNL A   1      46.905  24.399  37.110  1.00  0.00    -0.237 OA
ATOM     85  O   UNL A   1      44.615  24.447  38.017  1.00  0.00    -0.744 OA
ENDBRANCH  81  82
ENDBRANCH  62  76
BRANCH  63  86
ATOM     86  C   UNL A   1      50.818  29.578  28.771  1.00  0.00    -0.014 A 
ATOM     87  C   UNL A   1      51.484  30.724  29.252  1.00  0.00     0.010 A 
ATOM     88  C   UNL A   1      51.559  28.381  28.702  1.00  0.00     0.010 A 
ATOM     89  C   UNL A   1      52.818  30.659  29.703  1.00  0.00     0.020 A 
ATOM     90  C   UNL A   1      52.886  28.308  29.146  1.00  0.00     0.020 A 
ATOM     91  C   UNL A   1      53.504  29.442  29.666  1.00  0.00     0.054 A 
BRANCH  91  92
ATOM     92  S   UNL A   1      55.161  29.317  30.414  1.00  0.00     0.124 S 
ATOM     93  O   UNL A   1      55.925  28.641  29.369  1.00  0.00    -0.237 OA
ATOM     94  O   UNL A   1      55.512  30.713  30.650  1.00  0.00    -0.237 OA
ATOM     95  O   UNL A   1      54.933  28.526  31.623  1.00  0.00    -0.744 OA
ENDBRANCH  91  92
ENDBRANCH  63  86
BRANCH  75  96
ATOM     96  C   UNL A   1      44.756  31.427  28.785  1.00  0.00    -0.014 A 
ATOM     97  C   UNL A   1      44.405  32.785  28.940  1.00  0.00     0.010 A 
ATOM     98  C   UNL A   1      44.959  30.937  27.483  1.00  0.00     0.010 A 
ATOM     99  C   UNL A   1      44.238  33.616  27.818  1.00  0.00     0.020 A 
ATOM    100  C   UNL A   1      44.812  31.761  26.366  1.00  0.00     0.020 A 
ATOM    101  C   UNL A   1      44.441  33.094  26.535  1.00  0.00     0.054 A 
BRANCH 101 102
ATOM    102  S   UNL A   1      44.253  34.168  25.083  1.00  0.00     0.124 S 
ATOM    103  O   UNL A   1      45.477  34.961  25.114  1.00  0.00    -0.237 OA
ATOM    104  O   UNL A   1      44.147  33.213  23.982  1.00  0.00    -0.237 OA
ATOM    105  O   UNL A   1      43.026  34.917  25.360  1.00  0.00    -0.744 OA
ENDBRANCH 101 102
ENDBRANCH  75  96
ENDBRANCH  49  50
ENDBRANCH  42  44
ENDBRANCH  41  42
ENDBRANCH  40  41
ENDBRANCH  39  40
ENDBRANCH   1  39
TORSDOF 22
ENDMDL
