MODEL 1
REMARK VINA RESULT:     -10.7      0.000      0.000
REMARK SMILES Cc1cccc(Cn2c(=O)c3sccc3n(CC(=O)OCCOCCOC(=O)c3ccc(-c4c5nc(c(-c6ccc(S(=O)(=O)[O-])cc6)c6ccc([nH]6)c(-c6ccc(S(=O)(=O)[O-])cc6)c6nc(c(-c7ccc(S(=O)(=O)[O-])cc7)c7ccc4[nH]7)C=C6)C=C5)cc3)c2=O)c1
REMARK SMILES IDX 23 1 22 2 21 3 20 4 18 5 19 6 17 7 16 8 8 9 9 10 89 11 10 12
REMARK SMILES IDX 11 13 90 14 12 15 15 16 13 17 14 18 7 19 6 20 1 21 2 22 3 23
REMARK SMILES IDX 91 24 4 25 5 26 24 27 25 28 26 29 27 30 28 31 29 32 30 33
REMARK SMILES IDX 88 34 31 35 87 36 32 37 33 38 34 39 81 40 35 41 86 42 80 43
REMARK SMILES IDX 82 44 36 45 85 46 79 47 78 48 37 50 67 51 48 52 66 53 49 54
REMARK SMILES IDX 52 55 65 56 83 57 50 58 51 59 64 61 84 62 53 63 38 64 39 65
REMARK SMILES IDX 47 66 40 67 46 68 41 69 42 70 43 71 44 72 45 73 68 74 69 75
REMARK SMILES IDX 77 76 70 77 76 78 71 79 72 80 73 81 74 82 75 83 54 84 55 85
REMARK SMILES IDX 63 86 56 87 62 88 57 89 58 90 59 91 60 92 61 93
REMARK H PARENT 82 49 52 60
REMARK Flexibility Score: inf
ROOT
ATOM      1  O   UNL A   1      32.657  28.765  26.279  1.00  0.00    -0.374 OA
ENDROOT
BRANCH   1   2
ATOM      2  C   UNL A   1      32.935  27.695  25.384  1.00  0.00     0.202 C 
BRANCH   2   3
ATOM      3  C   UNL A   1      33.875  28.126  24.293  1.00  0.00     0.261 C 
BRANCH   3   4
ATOM      4  O   UNL A   1      33.936  27.067  23.364  1.00  0.00    -0.462 OA
BRANCH   4   5
ATOM      5  C   UNL A   1      33.809  27.329  22.053  1.00  0.00     0.326 C 
ATOM      6  O   UNL A   1      34.236  28.303  21.449  1.00  0.00    -0.250 OA
BRANCH   5   7
ATOM      7  C   UNL A   1      33.090  26.170  21.399  1.00  0.00     0.250 C 
BRANCH   7   8
ATOM      8  N   UNL A   1      32.297  25.387  22.355  1.00  0.00    -0.281 N 
ATOM      9  N   UNL A   1      32.083  23.381  23.608  1.00  0.00    -0.254 N 
ATOM     10  C   UNL A   1      30.980  23.827  24.342  1.00  0.00     0.274 A 
ATOM     11  C   UNL A   1      32.595  24.027  22.477  1.00  0.00     0.332 A 
ATOM     12  O   UNL A   1      30.540  23.230  25.325  1.00  0.00    -0.268 OA
ATOM     13  C   UNL A   1      30.497  25.112  23.904  1.00  0.00     0.116 A 
ATOM     14  O   UNL A   1      33.354  23.469  21.680  1.00  0.00    -0.247 OA
ATOM     15  S   UNL A   1      29.112  25.870  24.532  1.00  0.00    -0.136 S 
ATOM     16  C   UNL A   1      31.154  25.883  22.981  1.00  0.00     0.070 A 
ATOM     17  C   UNL A   1      29.369  27.254  23.553  1.00  0.00     0.068 A 
ATOM     18  C   UNL A   1      30.499  27.132  22.773  1.00  0.00     0.039 A 
BRANCH   9  19
ATOM     19  C   UNL A   1      32.797  22.200  24.058  1.00  0.00     0.166 C 
BRANCH  19  20
ATOM     20  C   UNL A   1      34.198  22.594  24.526  1.00  0.00    -0.028 A 
ATOM     21  C   UNL A   1      37.670  21.071  24.968  1.00  0.00     0.044 C 
ATOM     22  C   UNL A   1      36.507  22.013  25.045  1.00  0.00    -0.051 A 
ATOM     23  C   UNL A   1      36.668  23.245  25.694  1.00  0.00     0.003 A 
ATOM     24  C   UNL A   1      35.261  21.682  24.486  1.00  0.00     0.009 A 
ATOM     25  C   UNL A   1      35.623  24.158  25.735  1.00  0.00     0.001 A 
ATOM     26  C   UNL A   1      34.412  23.847  25.127  1.00  0.00     0.005 A 
ENDBRANCH  19  20
ENDBRANCH   9  19
ENDBRANCH   7   8
ENDBRANCH   5   7
ENDBRANCH   4   5
ENDBRANCH   3   4
ENDBRANCH   2   3
ENDBRANCH   1   2
BRANCH   1  27
ATOM     27  C   UNL A   1      33.395  28.638  27.498  1.00  0.00     0.202 C 
BRANCH  27  28
ATOM     28  C   UNL A   1      34.677  29.496  27.641  1.00  0.00     0.261 C 
BRANCH  28  29
ATOM     29  O   UNL A   1      34.547  30.741  26.936  1.00  0.00    -0.460 OA
BRANCH  29  30
ATOM     30  C   UNL A   1      33.831  31.721  27.575  1.00  0.00     0.338 C 
ATOM     31  O   UNL A   1      32.673  32.023  27.338  1.00  0.00    -0.246 OA
BRANCH  30  32
ATOM     32  C   UNL A   1      34.767  32.428  28.505  1.00  0.00     0.060 A 
ATOM     33  C   UNL A   1      36.093  32.705  28.130  1.00  0.00     0.016 A 
ATOM     34  C   UNL A   1      34.428  32.413  29.850  1.00  0.00     0.016 A 
ATOM     35  C   UNL A   1      37.107  32.774  29.112  1.00  0.00     0.010 A 
ATOM     36  C   UNL A   1      35.451  32.297  30.771  1.00  0.00     0.010 A 
ATOM     37  C   UNL A   1      36.805  32.471  30.443  1.00  0.00    -0.014 A 
BRANCH  37  38
ATOM     38  C   UNL A   1      37.783  32.123  31.505  1.00  0.00     0.031 A 
ATOM     39  C   UNL A   1      38.141  33.091  32.586  1.00  0.00     0.074 A 
ATOM     40  C   UNL A   1      38.222  30.851  31.694  1.00  0.00     0.049 A 
ATOM     41  N   UNL A   1      39.239  33.040  33.272  1.00  0.00    -0.248 NA
ATOM     42  C   UNL A   1      37.299  34.213  32.984  1.00  0.00     0.031 C 
ATOM     43  C   UNL A   1      38.755  30.284  32.938  1.00  0.00     0.029 A 
ATOM     44  N   UNL A   1      38.249  29.763  30.836  1.00  0.00    -0.354 N 
ATOM     45  C   UNL A   1      39.080  33.852  34.377  1.00  0.00     0.074 A 
ATOM     46  C   UNL A   1      37.910  34.636  34.087  1.00  0.00     0.031 C 
ATOM     47  C   UNL A   1      39.244  29.059  32.697  1.00  0.00     0.029 A 
ATOM     48  C   UNL A   1      39.176  28.821  31.270  1.00  0.00     0.049 A 
ATOM     49  H   UNL A   1      37.690  29.670  30.030  1.00  0.00     0.167 HD
ATOM     50  C   UNL A   1      39.857  33.687  35.489  1.00  0.00     0.031 A 
ATOM     51  C   UNL A   1      40.184  28.339  30.489  1.00  0.00     0.031 A 
ATOM     52  C   UNL A   1      40.797  32.565  35.333  1.00  0.00     0.049 A 
ATOM     53  C   UNL A   1      41.524  28.854  30.965  1.00  0.00     0.074 A 
ATOM     54  C   UNL A   1      40.850  31.298  35.890  1.00  0.00     0.029 A 
ATOM     55  N   UNL A   1      41.705  32.554  34.273  1.00  0.00    -0.354 N 
ATOM     56  N   UNL A   1      41.671  29.552  32.058  1.00  0.00    -0.248 NA
ATOM     57  C   UNL A   1      42.789  28.696  30.254  1.00  0.00     0.031 C 
ATOM     58  C   UNL A   1      41.739  30.505  35.109  1.00  0.00     0.029 A 
ATOM     59  C   UNL A   1      42.267  31.296  34.102  1.00  0.00     0.049 A 
ATOM     60  H   UNL A   1      41.919  33.338  33.717  1.00  0.00     0.167 HD
ATOM     61  C   UNL A   1      42.925  30.085  32.119  1.00  0.00     0.074 A 
ATOM     62  C   UNL A   1      43.616  29.442  31.013  1.00  0.00     0.031 C 
ATOM     63  C   UNL A   1      43.244  31.054  33.032  1.00  0.00     0.031 A 
BRANCH  50  64
ATOM     64  C   UNL A   1      39.589  34.387  36.822  1.00  0.00    -0.014 A 
ATOM     65  C   UNL A   1      40.036  35.704  37.050  1.00  0.00     0.010 A 
ATOM     66  C   UNL A   1      38.905  33.800  37.908  1.00  0.00     0.010 A 
ATOM     67  C   UNL A   1      39.865  36.353  38.294  1.00  0.00     0.020 A 
ATOM     68  C   UNL A   1      38.770  34.405  39.164  1.00  0.00     0.020 A 
ATOM     69  C   UNL A   1      39.248  35.688  39.353  1.00  0.00     0.054 A 
BRANCH  69  70
ATOM     70  S   UNL A   1      39.032  36.505  40.955  1.00  0.00     0.124 S 
ATOM     71  O   UNL A   1      37.900  35.784  41.531  1.00  0.00    -0.237 OA
ATOM     72  O   UNL A   1      40.322  36.280  41.599  1.00  0.00    -0.237 OA
ATOM     73  O   UNL A   1      38.755  37.898  40.601  1.00  0.00    -0.744 OA
ENDBRANCH  69  70
ENDBRANCH  50  64
BRANCH  51  74
ATOM     74  C   UNL A   1      39.742  27.956  29.108  1.00  0.00    -0.014 A 
ATOM     75  C   UNL A   1      39.955  28.977  28.155  1.00  0.00     0.010 A 
ATOM     76  C   UNL A   1      39.843  26.615  28.688  1.00  0.00     0.010 A 
ATOM     77  C   UNL A   1      40.596  28.687  26.948  1.00  0.00     0.020 A 
ATOM     78  C   UNL A   1      40.507  26.325  27.480  1.00  0.00     0.020 A 
ATOM     79  C   UNL A   1      40.969  27.375  26.676  1.00  0.00     0.054 A 
BRANCH  79  80
ATOM     80  S   UNL A   1      42.376  27.101  25.539  1.00  0.00     0.124 S 
ATOM     81  O   UNL A   1      42.057  25.805  24.958  1.00  0.00    -0.237 OA
ATOM     82  O   UNL A   1      42.306  28.243  24.626  1.00  0.00    -0.237 OA
ATOM     83  O   UNL A   1      43.523  27.136  26.444  1.00  0.00    -0.744 OA
ENDBRANCH  79  80
ENDBRANCH  51  74
BRANCH  63  84
ATOM     84  C   UNL A   1      44.530  31.849  33.035  1.00  0.00    -0.014 A 
ATOM     85  C   UNL A   1      45.641  31.556  33.841  1.00  0.00     0.010 A 
ATOM     86  C   UNL A   1      44.679  32.912  32.110  1.00  0.00     0.010 A 
ATOM     87  C   UNL A   1      46.803  32.338  33.796  1.00  0.00     0.020 A 
ATOM     88  C   UNL A   1      45.855  33.661  32.013  1.00  0.00     0.020 A 
ATOM     89  C   UNL A   1      46.898  33.393  32.889  1.00  0.00     0.054 A 
BRANCH  89  90
ATOM     90  S   UNL A   1      48.412  34.382  32.839  1.00  0.00     0.124 S 
ATOM     91  O   UNL A   1      48.081  35.381  31.826  1.00  0.00    -0.237 OA
ATOM     92  O   UNL A   1      48.514  34.887  34.206  1.00  0.00    -0.237 OA
ATOM     93  O   UNL A   1      49.441  33.421  32.459  1.00  0.00    -0.744 OA
ENDBRANCH  89  90
ENDBRANCH  63  84
ENDBRANCH  37  38
ENDBRANCH  30  32
ENDBRANCH  29  30
ENDBRANCH  28  29
ENDBRANCH  27  28
ENDBRANCH   1  27
TORSDOF 20
ENDMDL
MODEL 2
REMARK VINA RESULT:     -10.4      3.621      6.775
REMARK SMILES Cc1cccc(Cn2c(=O)c3sccc3n(CC(=O)OCCOCCOC(=O)c3ccc(-c4c5nc(c(-c6ccc(S(=O)(=O)[O-])cc6)c6ccc([nH]6)c(-c6ccc(S(=O)(=O)[O-])cc6)c6nc(c(-c7ccc(S(=O)(=O)[O-])cc7)c7ccc4[nH]7)C=C6)C=C5)cc3)c2=O)c1
REMARK SMILES IDX 23 1 22 2 21 3 20 4 18 5 19 6 17 7 16 8 8 9 9 10 89 11 10 12
REMARK SMILES IDX 11 13 90 14 12 15 15 16 13 17 14 18 7 19 6 20 1 21 2 22 3 23
REMARK SMILES IDX 91 24 4 25 5 26 24 27 25 28 26 29 27 30 28 31 29 32 30 33
REMARK SMILES IDX 88 34 31 35 87 36 32 37 33 38 34 39 81 40 35 41 86 42 80 43
REMARK SMILES IDX 82 44 36 45 85 46 79 47 78 48 37 50 67 51 48 52 66 53 49 54
REMARK SMILES IDX 52 55 65 56 83 57 50 58 51 59 64 61 84 62 53 63 38 64 39 65
REMARK SMILES IDX 47 66 40 67 46 68 41 69 42 70 43 71 44 72 45 73 68 74 69 75
REMARK SMILES IDX 77 76 70 77 76 78 71 79 72 80 73 81 74 82 75 83 54 84 55 85
REMARK SMILES IDX 63 86 56 87 62 88 57 89 58 90 59 91 60 92 61 93
REMARK H PARENT 82 49 52 60
REMARK Flexibility Score: inf
ROOT
ATOM      1  O   UNL A   1      37.220  21.591  25.893  1.00  0.00    -0.374 OA
ENDROOT
BRANCH   1   2
ATOM      2  C   UNL A   1      36.284  20.926  25.053  1.00  0.00     0.202 C 
BRANCH   2   3
ATOM      3  C   UNL A   1      35.231  21.875  24.550  1.00  0.00     0.261 C 
BRANCH   3   4
ATOM      4  O   UNL A   1      34.217  21.914  25.529  1.00  0.00    -0.462 OA
BRANCH   4   5
ATOM      5  C   UNL A   1      33.793  23.100  25.995  1.00  0.00     0.326 C 
ATOM      6  O   UNL A   1      34.453  23.936  26.596  1.00  0.00    -0.250 OA
BRANCH   5   7
ATOM      7  C   UNL A   1      32.346  23.284  25.596  1.00  0.00     0.250 C 
BRANCH   7   8
ATOM      8  N   UNL A   1      32.076  24.622  25.052  1.00  0.00    -0.281 N 
ATOM      9  N   UNL A   1      31.381  26.852  25.477  1.00  0.00    -0.254 N 
ATOM     10  C   UNL A   1      31.696  27.312  24.196  1.00  0.00     0.274 A 
ATOM     11  C   UNL A   1      31.338  25.503  25.846  1.00  0.00     0.332 A 
ATOM     12  O   UNL A   1      31.711  28.505  23.894  1.00  0.00    -0.268 OA
ATOM     13  C   UNL A   1      32.117  26.257  23.308  1.00  0.00     0.116 A 
ATOM     14  O   UNL A   1      30.771  25.112  26.870  1.00  0.00    -0.247 OA
ATOM     15  S   UNL A   1      32.469  26.485  21.662  1.00  0.00    -0.136 S 
ATOM     16  C   UNL A   1      32.344  24.972  23.729  1.00  0.00     0.070 A 
ATOM     17  C   UNL A   1      32.923  24.841  21.483  1.00  0.00     0.068 A 
ATOM     18  C   UNL A   1      32.813  24.144  22.668  1.00  0.00     0.039 A 
BRANCH   9  19
ATOM     19  C   UNL A   1      31.130  27.819  26.531  1.00  0.00     0.166 C 
BRANCH  19  20
ATOM     20  C   UNL A   1      32.432  28.532  26.894  1.00  0.00    -0.028 A 
ATOM     21  C   UNL A   1      33.695  32.002  27.862  1.00  0.00     0.044 C 
ATOM     22  C   UNL A   1      33.662  30.564  27.440  1.00  0.00    -0.051 A 
ATOM     23  C   UNL A   1      34.870  29.886  27.232  1.00  0.00     0.003 A 
ATOM     24  C   UNL A   1      32.445  29.889  27.242  1.00  0.00     0.009 A 
ATOM     25  C   UNL A   1      34.869  28.539  26.891  1.00  0.00     0.001 A 
ATOM     26  C   UNL A   1      33.662  27.864  26.757  1.00  0.00     0.005 A 
ENDBRANCH  19  20
ENDBRANCH   9  19
ENDBRANCH   7   8
ENDBRANCH   5   7
ENDBRANCH   4   5
ENDBRANCH   3   4
ENDBRANCH   2   3
ENDBRANCH   1   2
BRANCH   1  27
ATOM     27  C   UNL A   1      37.715  22.789  25.288  1.00  0.00     0.202 C 
BRANCH  27  28
ATOM     28  C   UNL A   1      37.837  24.040  26.193  1.00  0.00     0.261 C 
BRANCH  28  29
ATOM     29  O   UNL A   1      39.076  24.033  26.921  1.00  0.00    -0.460 OA
BRANCH  29  30
ATOM     30  C   UNL A   1      39.841  25.166  26.814  1.00  0.00     0.338 C 
ATOM     31  O   UNL A   1      40.377  25.568  25.794  1.00  0.00    -0.246 OA
BRANCH  30  32
ATOM     32  C   UNL A   1      40.005  25.729  28.192  1.00  0.00     0.060 A 
ATOM     33  C   UNL A   1      38.892  25.982  29.011  1.00  0.00     0.016 A 
ATOM     34  C   UNL A   1      41.207  26.370  28.457  1.00  0.00     0.016 A 
ATOM     35  C   UNL A   1      38.938  27.020  29.969  1.00  0.00     0.010 A 
ATOM     36  C   UNL A   1      41.173  27.494  29.260  1.00  0.00     0.010 A 
ATOM     37  C   UNL A   1      40.058  27.855  30.032  1.00  0.00    -0.014 A 
BRANCH  37  38
ATOM     38  C   UNL A   1      40.120  29.188  30.684  1.00  0.00     0.031 A 
ATOM     39  C   UNL A   1      39.089  30.238  30.415  1.00  0.00     0.074 A 
ATOM     40  C   UNL A   1      40.958  29.446  31.721  1.00  0.00     0.049 A 
ATOM     41  N   UNL A   1      39.283  31.507  30.596  1.00  0.00    -0.248 NA
ATOM     42  C   UNL A   1      37.753  29.955  29.907  1.00  0.00     0.031 C 
ATOM     43  C   UNL A   1      40.790  30.484  32.745  1.00  0.00     0.029 A 
ATOM     44  N   UNL A   1      42.124  28.815  32.125  1.00  0.00    -0.354 N 
ATOM     45  C   UNL A   1      38.048  32.124  30.578  1.00  0.00     0.074 A 
ATOM     46  C   UNL A   1      37.155  31.136  30.038  1.00  0.00     0.031 C 
ATOM     47  C   UNL A   1      41.898  30.551  33.499  1.00  0.00     0.029 A 
ATOM     48  C   UNL A   1      42.885  29.661  32.925  1.00  0.00     0.049 A 
ATOM     49  H   UNL A   1      42.377  27.896  31.880  1.00  0.00     0.167 HD
ATOM     50  C   UNL A   1      37.867  33.351  31.153  1.00  0.00     0.031 A 
ATOM     51  C   UNL A   1      44.189  29.969  32.670  1.00  0.00     0.031 A 
ATOM     52  C   UNL A   1      39.106  33.848  31.772  1.00  0.00     0.049 A 
ATOM     53  C   UNL A   1      44.323  31.408  32.225  1.00  0.00     0.074 A 
ATOM     54  C   UNL A   1      39.504  33.999  33.090  1.00  0.00     0.029 A 
ATOM     55  N   UNL A   1      40.263  33.995  31.005  1.00  0.00    -0.354 N 
ATOM     56  N   UNL A   1      43.325  32.250  32.226  1.00  0.00    -0.248 NA
ATOM     57  C   UNL A   1      45.538  32.016  31.691  1.00  0.00     0.031 C 
ATOM     58  C   UNL A   1      40.919  34.160  33.111  1.00  0.00     0.029 A 
ATOM     59  C   UNL A   1      41.385  34.155  31.807  1.00  0.00     0.049 A 
ATOM     60  H   UNL A   1      40.281  33.985  30.021  1.00  0.00     0.167 HD
ATOM     61  C   UNL A   1      43.661  33.390  31.559  1.00  0.00     0.074 A 
ATOM     62  C   UNL A   1      45.088  33.232  31.325  1.00  0.00     0.031 C 
ATOM     63  C   UNL A   1      42.715  34.315  31.206  1.00  0.00     0.031 A 
BRANCH  50  64
ATOM     64  C   UNL A   1      36.495  33.989  31.374  1.00  0.00    -0.014 A 
ATOM     65  C   UNL A   1      35.543  34.037  30.335  1.00  0.00     0.010 A 
ATOM     66  C   UNL A   1      36.074  34.573  32.588  1.00  0.00     0.010 A 
ATOM     67  C   UNL A   1      34.294  34.680  30.487  1.00  0.00     0.020 A 
ATOM     68  C   UNL A   1      34.863  35.260  32.744  1.00  0.00     0.020 A 
ATOM     69  C   UNL A   1      33.970  35.307  31.690  1.00  0.00     0.054 A 
BRANCH  69  70
ATOM     70  S   UNL A   1      32.377  36.143  31.895  1.00  0.00     0.124 S 
ATOM     71  O   UNL A   1      32.732  37.321  32.681  1.00  0.00    -0.237 OA
ATOM     72  O   UNL A   1      31.976  36.399  30.514  1.00  0.00    -0.237 OA
ATOM     73  O   UNL A   1      31.555  35.160  32.601  1.00  0.00    -0.744 OA
ENDBRANCH  69  70
ENDBRANCH  50  64
BRANCH  51  74
ATOM     74  C   UNL A   1      45.029  28.777  32.319  1.00  0.00    -0.014 A 
ATOM     75  C   UNL A   1      45.177  28.594  30.926  1.00  0.00     0.010 A 
ATOM     76  C   UNL A   1      46.092  28.398  33.162  1.00  0.00     0.010 A 
ATOM     77  C   UNL A   1      46.445  28.396  30.375  1.00  0.00     0.020 A 
ATOM     78  C   UNL A   1      47.374  28.219  32.606  1.00  0.00     0.020 A 
ATOM     79  C   UNL A   1      47.548  28.326  31.220  1.00  0.00     0.054 A 
BRANCH  79  80
ATOM     80  S   UNL A   1      49.181  28.794  30.540  1.00  0.00     0.124 S 
ATOM     81  O   UNL A   1      48.834  29.858  29.608  1.00  0.00    -0.237 OA
ATOM     82  O   UNL A   1      49.940  29.204  31.721  1.00  0.00    -0.237 OA
ATOM     83  O   UNL A   1      49.643  27.543  29.943  1.00  0.00    -0.744 OA
ENDBRANCH  79  80
ENDBRANCH  51  74
BRANCH  63  84
ATOM     84  C   UNL A   1      42.957  35.491  30.287  1.00  0.00    -0.014 A 
ATOM     85  C   UNL A   1      43.561  36.695  30.683  1.00  0.00     0.010 A 
ATOM     86  C   UNL A   1      42.639  35.362  28.913  1.00  0.00     0.010 A 
ATOM     87  C   UNL A   1      43.752  37.748  29.779  1.00  0.00     0.020 A 
ATOM     88  C   UNL A   1      42.881  36.383  27.989  1.00  0.00     0.020 A 
ATOM     89  C   UNL A   1      43.401  37.588  28.439  1.00  0.00     0.054 A 
BRANCH  89  90
ATOM     90  S   UNL A   1      43.667  38.957  27.287  1.00  0.00     0.124 S 
ATOM     91  O   UNL A   1      43.738  40.100  28.193  1.00  0.00    -0.237 OA
ATOM     92  O   UNL A   1      44.925  38.594  26.638  1.00  0.00    -0.237 OA
ATOM     93  O   UNL A   1      42.493  38.914  26.421  1.00  0.00    -0.744 OA
ENDBRANCH  89  90
ENDBRANCH  63  84
ENDBRANCH  37  38
ENDBRANCH  30  32
ENDBRANCH  29  30
ENDBRANCH  28  29
ENDBRANCH  27  28
ENDBRANCH   1  27
TORSDOF 20
ENDMDL
MODEL 3
REMARK VINA RESULT:     -10.3      5.409      9.767
REMARK SMILES Cc1cccc(Cn2c(=O)c3sccc3n(CC(=O)OCCOCCOC(=O)c3ccc(-c4c5nc(c(-c6ccc(S(=O)(=O)[O-])cc6)c6ccc([nH]6)c(-c6ccc(S(=O)(=O)[O-])cc6)c6nc(c(-c7ccc(S(=O)(=O)[O-])cc7)c7ccc4[nH]7)C=C6)C=C5)cc3)c2=O)c1
REMARK SMILES IDX 23 1 22 2 21 3 20 4 18 5 19 6 17 7 16 8 8 9 9 10 89 11 10 12
REMARK SMILES IDX 11 13 90 14 12 15 15 16 13 17 14 18 7 19 6 20 1 21 2 22 3 23
REMARK SMILES IDX 91 24 4 25 5 26 24 27 25 28 26 29 27 30 28 31 29 32 30 33
REMARK SMILES IDX 88 34 31 35 87 36 32 37 33 38 34 39 81 40 35 41 86 42 80 43
REMARK SMILES IDX 82 44 36 45 85 46 79 47 78 48 37 50 67 51 48 52 66 53 49 54
REMARK SMILES IDX 52 55 65 56 83 57 50 58 51 59 64 61 84 62 53 63 38 64 39 65
REMARK SMILES IDX 47 66 40 67 46 68 41 69 42 70 43 71 44 72 45 73 68 74 69 75
REMARK SMILES IDX 77 76 70 77 76 78 71 79 72 80 73 81 74 82 75 83 54 84 55 85
REMARK SMILES IDX 63 86 56 87 62 88 57 89 58 90 59 91 60 92 61 93
REMARK H PARENT 82 49 52 60
REMARK Flexibility Score: inf
ROOT
ATOM      1  O   UNL A   1      33.674  30.081  27.019  1.00  0.00    -0.374 OA
ENDROOT
BRANCH   1   2
ATOM      2  C   UNL A   1      32.398  30.353  26.454  1.00  0.00     0.202 C 
BRANCH   2   3
ATOM      3  C   UNL A   1      31.759  29.101  25.919  1.00  0.00     0.261 C 
BRANCH   3   4
ATOM      4  O   UNL A   1      32.051  28.070  26.836  1.00  0.00    -0.462 OA
BRANCH   4   5
ATOM      5  C   UNL A   1      32.589  26.923  26.392  1.00  0.00     0.326 C 
ATOM      6  O   UNL A   1      33.778  26.656  26.288  1.00  0.00    -0.250 OA
BRANCH   5   7
ATOM      7  C   UNL A   1      31.469  25.953  26.088  1.00  0.00     0.250 C 
BRANCH   7   8
ATOM      8  N   UNL A   1      31.845  24.956  25.077  1.00  0.00    -0.281 N 
ATOM      9  N   UNL A   1      32.194  22.666  24.558  1.00  0.00    -0.254 N 
ATOM     10  C   UNL A   1      32.362  22.887  23.188  1.00  0.00     0.274 A 
ATOM     11  C   UNL A   1      32.175  23.675  25.527  1.00  0.00     0.332 A 
ATOM     12  O   UNL A   1      32.391  21.978  22.358  1.00  0.00    -0.268 OA
ATOM     13  C   UNL A   1      32.370  24.287  22.842  1.00  0.00     0.116 A 
ATOM     14  O   UNL A   1      32.334  23.446  26.728  1.00  0.00    -0.247 OA
ATOM     15  S   UNL A   1      32.654  24.876  21.275  1.00  0.00    -0.136 S 
ATOM     16  C   UNL A   1      32.077  25.280  23.740  1.00  0.00     0.070 A 
ATOM     17  C   UNL A   1      32.399  26.493  21.785  1.00  0.00     0.068 A 
ATOM     18  C   UNL A   1      32.093  26.567  23.128  1.00  0.00     0.039 A 
BRANCH   9  19
ATOM     19  C   UNL A   1      31.971  21.311  25.030  1.00  0.00     0.166 C 
BRANCH  19  20
ATOM     20  C   UNL A   1      33.224  20.470  24.786  1.00  0.00    -0.028 A 
ATOM     21  C   UNL A   1      34.217  16.921  23.792  1.00  0.00     0.044 C 
ATOM     22  C   UNL A   1      34.286  18.335  24.283  1.00  0.00    -0.051 A 
ATOM     23  C   UNL A   1      35.526  18.864  24.668  1.00  0.00     0.003 A 
ATOM     24  C   UNL A   1      33.134  19.135  24.370  1.00  0.00     0.009 A 
ATOM     25  C   UNL A   1      35.627  20.187  25.078  1.00  0.00     0.001 A 
ATOM     26  C   UNL A   1      34.492  20.989  25.104  1.00  0.00     0.005 A 
ENDBRANCH  19  20
ENDBRANCH   9  19
ENDBRANCH   7   8
ENDBRANCH   5   7
ENDBRANCH   4   5
ENDBRANCH   3   4
ENDBRANCH   2   3
ENDBRANCH   1   2
BRANCH   1  27
ATOM     27  C   UNL A   1      34.199  31.219  27.710  1.00  0.00     0.202 C 
BRANCH  27  28
ATOM     28  C   UNL A   1      35.641  31.107  28.264  1.00  0.00     0.261 C 
BRANCH  28  29
ATOM     29  O   UNL A   1      36.005  29.734  28.484  1.00  0.00    -0.460 OA
BRANCH  29  30
ATOM     30  C   UNL A   1      36.979  29.514  29.424  1.00  0.00     0.338 C 
ATOM     31  O   UNL A   1      36.785  29.226  30.594  1.00  0.00    -0.246 OA
BRANCH  30  32
ATOM     32  C   UNL A   1      38.298  29.825  28.786  1.00  0.00     0.060 A 
ATOM     33  C   UNL A   1      38.583  29.420  27.472  1.00  0.00     0.016 A 
ATOM     34  C   UNL A   1      39.342  30.131  29.647  1.00  0.00     0.016 A 
ATOM     35  C   UNL A   1      39.914  29.139  27.089  1.00  0.00     0.010 A 
ATOM     36  C   UNL A   1      40.603  29.676  29.316  1.00  0.00     0.010 A 
ATOM     37  C   UNL A   1      40.931  29.171  28.047  1.00  0.00    -0.014 A 
BRANCH  37  38
ATOM     38  C   UNL A   1      42.274  28.549  27.920  1.00  0.00     0.031 A 
ATOM     39  C   UNL A   1      42.440  27.069  27.793  1.00  0.00     0.074 A 
ATOM     40  C   UNL A   1      43.390  29.284  27.673  1.00  0.00     0.049 A 
ATOM     41  N   UNL A   1      43.531  26.434  28.089  1.00  0.00    -0.248 NA
ATOM     42  C   UNL A   1      41.391  26.168  27.334  1.00  0.00     0.031 C 
ATOM     43  C   UNL A   1      44.630  28.811  27.049  1.00  0.00     0.029 A 
ATOM     44  N   UNL A   1      43.655  30.629  27.880  1.00  0.00    -0.354 N 
ATOM     45  C   UNL A   1      43.441  25.170  27.540  1.00  0.00     0.074 A 
ATOM     46  C   UNL A   1      42.056  25.026  27.185  1.00  0.00     0.031 C 
ATOM     47  C   UNL A   1      45.565  29.769  27.130  1.00  0.00     0.029 A 
ATOM     48  C   UNL A   1      45.027  30.855  27.922  1.00  0.00     0.049 A 
ATOM     49  H   UNL A   1      42.968  31.326  27.983  1.00  0.00     0.167 HD
ATOM     50  C   UNL A   1      44.562  24.425  27.304  1.00  0.00     0.031 A 
ATOM     51  C   UNL A   1      45.657  31.480  28.957  1.00  0.00     0.031 A 
ATOM     52  C   UNL A   1      45.786  25.153  27.675  1.00  0.00     0.049 A 
ATOM     53  C   UNL A   1      46.497  30.500  29.744  1.00  0.00     0.074 A 
ATOM     54  C   UNL A   1      46.794  25.740  26.927  1.00  0.00     0.029 A 
ATOM     55  N   UNL A   1      45.954  25.623  28.978  1.00  0.00    -0.354 N 
ATOM     56  N   UNL A   1      46.678  29.261  29.376  1.00  0.00    -0.248 NA
ATOM     57  C   UNL A   1      47.150  30.782  31.019  1.00  0.00     0.031 C 
ATOM     58  C   UNL A   1      47.520  26.624  27.777  1.00  0.00     0.029 A 
ATOM     59  C   UNL A   1      46.989  26.546  29.053  1.00  0.00     0.049 A 
ATOM     60  H   UNL A   1      45.408  25.337  29.746  1.00  0.00     0.167 HD
ATOM     61  C   UNL A   1      47.266  28.546  30.377  1.00  0.00     0.074 A 
ATOM     62  C   UNL A   1      47.627  29.566  31.350  1.00  0.00     0.031 C 
ATOM     63  C   UNL A   1      47.332  27.179  30.333  1.00  0.00     0.031 A 
BRANCH  50  64
ATOM     64  C   UNL A   1      44.562  23.127  26.495  1.00  0.00    -0.014 A 
ATOM     65  C   UNL A   1      43.547  22.164  26.674  1.00  0.00     0.010 A 
ATOM     66  C   UNL A   1      45.541  22.782  25.540  1.00  0.00     0.010 A 
ATOM     67  C   UNL A   1      43.556  20.925  25.993  1.00  0.00     0.020 A 
ATOM     68  C   UNL A   1      45.597  21.540  24.894  1.00  0.00     0.020 A 
ATOM     69  C   UNL A   1      44.597  20.613  25.119  1.00  0.00     0.054 A 
BRANCH  69  70
ATOM     70  S   UNL A   1      44.626  19.026  24.248  1.00  0.00     0.124 S 
ATOM     71  O   UNL A   1      43.472  18.331  24.810  1.00  0.00    -0.237 OA
ATOM     72  O   UNL A   1      44.505  19.432  22.851  1.00  0.00    -0.237 OA
ATOM     73  O   UNL A   1      45.923  18.453  24.611  1.00  0.00    -0.744 OA
ENDBRANCH  69  70
ENDBRANCH  50  64
BRANCH  51  74
ATOM     74  C   UNL A   1      44.964  32.729  29.414  1.00  0.00    -0.014 A 
ATOM     75  C   UNL A   1      45.628  33.910  29.014  1.00  0.00     0.010 A 
ATOM     76  C   UNL A   1      43.559  32.752  29.516  1.00  0.00     0.010 A 
ATOM     77  C   UNL A   1      44.917  34.939  28.392  1.00  0.00     0.020 A 
ATOM     78  C   UNL A   1      42.843  33.781  28.871  1.00  0.00     0.020 A 
ATOM     79  C   UNL A   1      43.542  34.808  28.225  1.00  0.00     0.054 A 
BRANCH  79  80
ATOM     80  S   UNL A   1      42.756  35.719  26.847  1.00  0.00     0.124 S 
ATOM     81  O   UNL A   1      43.555  36.935  26.784  1.00  0.00    -0.237 OA
ATOM     82  O   UNL A   1      42.893  34.808  25.710  1.00  0.00    -0.237 OA
ATOM     83  O   UNL A   1      41.381  35.876  27.317  1.00  0.00    -0.744 OA
ENDBRANCH  79  80
ENDBRANCH  51  74
BRANCH  63  84
ATOM     84  C   UNL A   1      47.767  26.297  31.483  1.00  0.00    -0.014 A 
ATOM     85  C   UNL A   1      49.083  25.857  31.690  1.00  0.00     0.010 A 
ATOM     86  C   UNL A   1      46.817  25.951  32.475  1.00  0.00     0.010 A 
ATOM     87  C   UNL A   1      49.416  25.038  32.776  1.00  0.00     0.020 A 
ATOM     88  C   UNL A   1      47.151  25.184  33.595  1.00  0.00     0.020 A 
ATOM     89  C   UNL A   1      48.445  24.697  33.716  1.00  0.00     0.054 A 
BRANCH  89  90
ATOM     90  S   UNL A   1      48.900  23.648  35.117  1.00  0.00     0.124 S 
ATOM     91  O   UNL A   1      50.358  23.690  35.061  1.00  0.00    -0.237 OA
ATOM     92  O   UNL A   1      48.298  24.344  36.253  1.00  0.00    -0.237 OA
ATOM     93  O   UNL A   1      48.296  22.359  34.795  1.00  0.00    -0.744 OA
ENDBRANCH  89  90
ENDBRANCH  63  84
ENDBRANCH  37  38
ENDBRANCH  30  32
ENDBRANCH  29  30
ENDBRANCH  28  29
ENDBRANCH  27  28
ENDBRANCH   1  27
TORSDOF 20
ENDMDL
