MODEL 1
REMARK VINA RESULT:     -13.1      0.000      0.000
REMARK SMILES COc1ccc(-c2[nH]nc3nc(-c4ccc(C(F)(F)F)cc4)cc(C(=O)OCCOCCOC(=O)c4ccc(-c5c6nc(c(-c7ccc(S(=O)(=O)[O-])cc7)c7ccc([nH]7)c(-c7ccc(S(=O)(=O)[O-])cc7)c7nc(c(-c8ccc(S(=O)(=O)[O-])cc8)c8ccc5[nH]8)C=C7)C=C6)cc4)c23)cc1
REMARK SMILES IDX 31 1 30 2 29 3 28 4 27 5 25 6 26 7 24 8 7 9 8 10 96 11 9 12
REMARK SMILES IDX 10 14 11 15 23 16 12 17 6 18 3 19 4 20 98 21 5 22 97 23 2 24
REMARK SMILES IDX 1 25 13 26 14 27 22 28 15 29 21 30 16 31 17 32 18 33 19 34
REMARK SMILES IDX 20 35 32 36 33 37 34 38 35 39 36 40 37 41 95 42 38 43 94 44
REMARK SMILES IDX 39 45 40 46 41 47 88 48 42 49 93 50 87 51 89 52 43 53 92 54
REMARK SMILES IDX 86 55 85 56 44 58 74 59 55 60 73 61 56 62 59 63 72 64 90 65
REMARK SMILES IDX 57 66 58 67 71 69 91 70 60 71 45 72 46 73 54 74 47 75 53 76
REMARK SMILES IDX 48 77 49 78 50 79 51 80 52 81 75 82 76 83 84 84 77 85 83 86
REMARK SMILES IDX 78 87 79 88 80 89 81 90 82 91 61 92 62 93 70 94 63 95 69 96
REMARK SMILES IDX 64 97 65 98 66 99 67 100 68 101
REMARK H PARENT 8 13 89 57 59 68
REMARK Flexibility Score: inf
ROOT
ATOM      1  C   UNL A   1      36.967  23.148  24.675  1.00  0.00     0.202 C 
ENDROOT
BRANCH   1   2
ATOM      2  O   UNL A   1      35.650  23.451  25.126  1.00  0.00    -0.374 OA
BRANCH   2   3
ATOM      3  C   UNL A   1      35.496  24.777  25.636  1.00  0.00     0.202 C 
BRANCH   3   4
ATOM      4  C   UNL A   1      34.263  25.497  25.084  1.00  0.00     0.261 C 
BRANCH   4   5
ATOM      5  O   UNL A   1      34.116  25.235  23.673  1.00  0.00    -0.460 OA
BRANCH   5   6
ATOM      6  C   UNL A   1      32.841  25.095  23.219  1.00  0.00     0.339 C 
ATOM      7  O   UNL A   1      32.335  25.693  22.289  1.00  0.00    -0.246 OA
BRANCH   6   8
ATOM      8  C   UNL A   1      32.150  24.082  24.032  1.00  0.00     0.075 A 
ATOM      9  C   UNL A   1      30.413  25.424  25.324  1.00  0.00     0.075 A 
ATOM     10  N   UNL A   1      29.686  25.051  26.433  1.00  0.00    -0.275 N 
ATOM     11  C   UNL A   1      31.189  24.308  25.033  1.00  0.00     0.061 A 
ATOM     12  N   UNL A   1      29.812  23.766  26.786  1.00  0.00    -0.154 NA
ATOM     13  H   UNL A   1      29.115  25.682  26.928  1.00  0.00     0.190 HD
ATOM     14  C   UNL A   1      30.688  23.282  25.907  1.00  0.00     0.182 A 
ATOM     15  N   UNL A   1      31.067  21.985  25.814  1.00  0.00    -0.226 NA
ATOM     16  C   UNL A   1      32.488  22.716  23.938  1.00  0.00     0.045 A 
ATOM     17  C   UNL A   1      31.954  21.735  24.813  1.00  0.00     0.074 A 
BRANCH   9  18
ATOM     18  C   UNL A   1      30.098  26.688  24.660  1.00  0.00     0.001 A 
ATOM     19  C   UNL A   1      29.505  29.022  23.187  1.00  0.00     0.118 A 
ATOM     20  C   UNL A   1      30.597  28.978  24.058  1.00  0.00     0.047 A 
ATOM     21  C   UNL A   1      28.663  27.917  23.106  1.00  0.00     0.047 A 
ATOM     22  C   UNL A   1      30.895  27.821  24.791  1.00  0.00     0.014 A 
ATOM     23  C   UNL A   1      28.943  26.770  23.860  1.00  0.00     0.014 A 
BRANCH  19  24
ATOM     24  O   UNL A   1      29.371  30.187  22.482  1.00  0.00    -0.497 OA
ATOM     25  C   UNL A   1      28.089  30.809  22.503  1.00  0.00     0.278 C 
ENDBRANCH  19  24
ENDBRANCH   9  18
BRANCH  17  26
ATOM     26  C   UNL A   1      32.402  20.325  24.725  1.00  0.00     0.000 A 
ATOM     27  C   UNL A   1      32.459  19.646  23.495  1.00  0.00     0.011 A 
ATOM     28  C   UNL A   1      32.755  19.604  25.879  1.00  0.00     0.011 A 
ATOM     29  C   UNL A   1      32.850  18.301  23.423  1.00  0.00     0.014 A 
ATOM     30  C   UNL A   1      33.141  18.260  25.812  1.00  0.00     0.014 A 
ATOM     31  C   UNL A   1      33.188  17.592  24.583  1.00  0.00     0.056 A 
BRANCH  31  32
ATOM     32  C   UNL A   1      33.573  16.133  24.508  1.00  0.00     0.416 C 
ATOM     33  F   UNL A   1      34.093  15.793  23.297  1.00  0.00    -0.166 F 
ATOM     34  F   UNL A   1      34.503  15.784  25.435  1.00  0.00    -0.166 F 
ATOM     35  F   UNL A   1      32.518  15.289  24.702  1.00  0.00    -0.166 F 
ENDBRANCH  31  32
ENDBRANCH  17  26
ENDBRANCH   6   8
ENDBRANCH   5   6
ENDBRANCH   4   5
ENDBRANCH   3   4
ENDBRANCH   2   3
ENDBRANCH   1   2
BRANCH   1  36
ATOM     36  C   UNL A   1      37.744  22.288  25.656  1.00  0.00     0.261 C 
BRANCH  36  37
ATOM     37  O   UNL A   1      38.484  23.165  26.488  1.00  0.00    -0.460 OA
BRANCH  37  38
ATOM     38  C   UNL A   1      39.690  22.698  26.903  1.00  0.00     0.338 C 
ATOM     39  O   UNL A   1      39.997  21.586  27.233  1.00  0.00    -0.246 OA
BRANCH  38  40
ATOM     40  C   UNL A   1      40.545  23.889  26.964  1.00  0.00     0.060 A 
ATOM     41  C   UNL A   1      41.478  23.888  27.993  1.00  0.00     0.016 A 
ATOM     42  C   UNL A   1      40.151  25.055  26.286  1.00  0.00     0.016 A 
ATOM     43  C   UNL A   1      41.764  25.098  28.572  1.00  0.00     0.010 A 
ATOM     44  C   UNL A   1      40.413  26.258  26.884  1.00  0.00     0.010 A 
ATOM     45  C   UNL A   1      41.121  26.242  28.081  1.00  0.00    -0.014 A 
BRANCH  45  46
ATOM     46  C   UNL A   1      41.291  27.473  28.809  1.00  0.00     0.031 A 
ATOM     47  C   UNL A   1      42.520  28.167  28.393  1.00  0.00     0.074 A 
ATOM     48  C   UNL A   1      40.377  27.948  29.675  1.00  0.00     0.049 A 
ATOM     49  N   UNL A   1      43.669  28.127  28.978  1.00  0.00    -0.248 NA
ATOM     50  C   UNL A   1      42.547  28.722  27.029  1.00  0.00     0.031 C 
ATOM     51  C   UNL A   1      39.011  27.479  29.918  1.00  0.00     0.029 A 
ATOM     52  N   UNL A   1      40.467  29.044  30.466  1.00  0.00    -0.354 N 
ATOM     53  C   UNL A   1      44.495  28.894  28.170  1.00  0.00     0.074 A 
ATOM     54  C   UNL A   1      43.852  28.951  26.883  1.00  0.00     0.031 C 
ATOM     55  C   UNL A   1      38.334  28.430  30.609  1.00  0.00     0.029 A 
ATOM     56  C   UNL A   1      39.255  29.496  30.971  1.00  0.00     0.049 A 
ATOM     57  H   UNL A   1      41.323  29.486  30.666  1.00  0.00     0.167 HD
ATOM     58  C   UNL A   1      45.424  29.728  28.711  1.00  0.00     0.031 A 
ATOM     59  C   UNL A   1      39.040  30.697  31.570  1.00  0.00     0.031 A 
ATOM     60  C   UNL A   1      45.658  29.429  30.102  1.00  0.00     0.049 A 
ATOM     61  C   UNL A   1      40.367  31.216  31.995  1.00  0.00     0.074 A 
ATOM     62  C   UNL A   1      46.090  28.318  30.800  1.00  0.00     0.029 A 
ATOM     63  N   UNL A   1      45.023  30.238  31.018  1.00  0.00    -0.354 N 
ATOM     64  N   UNL A   1      41.095  30.649  32.917  1.00  0.00    -0.248 NA
ATOM     65  C   UNL A   1      41.098  32.070  31.068  1.00  0.00     0.031 C 
ATOM     66  C   UNL A   1      45.320  28.310  32.000  1.00  0.00     0.029 A 
ATOM     67  C   UNL A   1      44.512  29.450  32.015  1.00  0.00     0.049 A 
ATOM     68  H   UNL A   1      44.950  31.218  30.965  1.00  0.00     0.167 HD
ATOM     69  C   UNL A   1      42.398  30.717  32.438  1.00  0.00     0.074 A 
ATOM     70  C   UNL A   1      42.348  31.685  31.344  1.00  0.00     0.031 C 
ATOM     71  C   UNL A   1      43.324  29.771  32.783  1.00  0.00     0.031 A 
BRANCH  58  72
ATOM     72  C   UNL A   1      45.738  31.081  28.115  1.00  0.00    -0.014 A 
ATOM     73  C   UNL A   1      44.712  32.040  28.044  1.00  0.00     0.010 A 
ATOM     74  C   UNL A   1      46.916  31.352  27.385  1.00  0.00     0.010 A 
ATOM     75  C   UNL A   1      44.839  33.175  27.231  1.00  0.00     0.020 A 
ATOM     76  C   UNL A   1      47.072  32.499  26.612  1.00  0.00     0.020 A 
ATOM     77  C   UNL A   1      46.017  33.388  26.513  1.00  0.00     0.054 A 
BRANCH  77  78
ATOM     78  S   UNL A   1      46.141  34.801  25.396  1.00  0.00     0.124 S 
ATOM     79  O   UNL A   1      47.561  34.792  25.059  1.00  0.00    -0.237 OA
ATOM     80  O   UNL A   1      45.227  34.422  24.321  1.00  0.00    -0.237 OA
ATOM     81  O   UNL A   1      45.697  35.925  26.218  1.00  0.00    -0.744 OA
ENDBRANCH  77  78
ENDBRANCH  58  72
BRANCH  59  82
ATOM     82  C   UNL A   1      37.836  31.564  31.475  1.00  0.00    -0.014 A 
ATOM     83  C   UNL A   1      36.612  31.192  32.064  1.00  0.00     0.010 A 
ATOM     84  C   UNL A   1      37.969  32.900  31.041  1.00  0.00     0.010 A 
ATOM     85  C   UNL A   1      35.579  32.130  32.252  1.00  0.00     0.020 A 
ATOM     86  C   UNL A   1      36.945  33.839  31.222  1.00  0.00     0.020 A 
ATOM     87  C   UNL A   1      35.759  33.454  31.843  1.00  0.00     0.054 A 
BRANCH  87  88
ATOM     88  S   UNL A   1      34.485  34.696  32.222  1.00  0.00     0.124 S 
ATOM     89  O   UNL A   1      34.004  35.064  30.894  1.00  0.00    -0.237 OA
ATOM     90  O   UNL A   1      33.544  33.946  33.050  1.00  0.00    -0.237 OA
ATOM     91  O   UNL A   1      35.223  35.744  32.925  1.00  0.00    -0.744 OA
ENDBRANCH  87  88
ENDBRANCH  59  82
BRANCH  71  92
ATOM     92  C   UNL A   1      43.006  28.849  33.938  1.00  0.00    -0.014 A 
ATOM     93  C   UNL A   1      43.045  29.231  35.295  1.00  0.00     0.010 A 
ATOM     94  C   UNL A   1      42.503  27.577  33.617  1.00  0.00     0.010 A 
ATOM     95  C   UNL A   1      42.614  28.349  36.300  1.00  0.00     0.020 A 
ATOM     96  C   UNL A   1      42.054  26.703  34.609  1.00  0.00     0.020 A 
ATOM     97  C   UNL A   1      42.120  27.089  35.947  1.00  0.00     0.054 A 
BRANCH  97  98
ATOM     98  S   UNL A   1      41.524  25.962  37.241  1.00  0.00     0.124 S 
ATOM     99  O   UNL A   1      42.620  25.978  38.206  1.00  0.00    -0.237 OA
ATOM    100  O   UNL A   1      40.287  26.599  37.683  1.00  0.00    -0.237 OA
ATOM    101  O   UNL A   1      41.339  24.692  36.538  1.00  0.00    -0.744 OA
ENDBRANCH  97  98
ENDBRANCH  71  92
ENDBRANCH  45  46
ENDBRANCH  38  40
ENDBRANCH  37  38
ENDBRANCH  36  37
ENDBRANCH   1  36
TORSDOF 21
ENDMDL
MODEL 2
REMARK VINA RESULT:     -13.1      3.418      5.642
REMARK SMILES COc1ccc(-c2[nH]nc3nc(-c4ccc(C(F)(F)F)cc4)cc(C(=O)OCCOCCOC(=O)c4ccc(-c5c6nc(c(-c7ccc(S(=O)(=O)[O-])cc7)c7ccc([nH]7)c(-c7ccc(S(=O)(=O)[O-])cc7)c7nc(c(-c8ccc(S(=O)(=O)[O-])cc8)c8ccc5[nH]8)C=C7)C=C6)cc4)c23)cc1
REMARK SMILES IDX 31 1 30 2 29 3 28 4 27 5 25 6 26 7 24 8 7 9 8 10 96 11 9 12
REMARK SMILES IDX 10 14 11 15 23 16 12 17 6 18 3 19 4 20 98 21 5 22 97 23 2 24
REMARK SMILES IDX 1 25 13 26 14 27 22 28 15 29 21 30 16 31 17 32 18 33 19 34
REMARK SMILES IDX 20 35 32 36 33 37 34 38 35 39 36 40 37 41 95 42 38 43 94 44
REMARK SMILES IDX 39 45 40 46 41 47 88 48 42 49 93 50 87 51 89 52 43 53 92 54
REMARK SMILES IDX 86 55 85 56 44 58 74 59 55 60 73 61 56 62 59 63 72 64 90 65
REMARK SMILES IDX 57 66 58 67 71 69 91 70 60 71 45 72 46 73 54 74 47 75 53 76
REMARK SMILES IDX 48 77 49 78 50 79 51 80 52 81 75 82 76 83 84 84 77 85 83 86
REMARK SMILES IDX 78 87 79 88 80 89 81 90 82 91 61 92 62 93 70 94 63 95 69 96
REMARK SMILES IDX 64 97 65 98 66 99 67 100 68 101
REMARK H PARENT 8 13 89 57 59 68
REMARK Flexibility Score: inf
ROOT
ATOM      1  C   UNL A   1      36.511  22.549  25.448  1.00  0.00     0.202 C 
ENDROOT
BRANCH   1   2
ATOM      2  O   UNL A   1      35.657  22.492  26.587  1.00  0.00    -0.374 OA
BRANCH   2   3
ATOM      3  C   UNL A   1      34.612  23.466  26.584  1.00  0.00     0.202 C 
BRANCH   3   4
ATOM      4  C   UNL A   1      33.273  22.916  27.082  1.00  0.00     0.261 C 
BRANCH   4   5
ATOM      5  O   UNL A   1      32.194  23.795  26.702  1.00  0.00    -0.460 OA
BRANCH   5   6
ATOM      6  C   UNL A   1      31.326  23.312  25.773  1.00  0.00     0.339 C 
ATOM      7  O   UNL A   1      30.583  22.358  25.905  1.00  0.00    -0.246 OA
BRANCH   6   8
ATOM      8  C   UNL A   1      31.411  24.139  24.559  1.00  0.00     0.075 A 
ATOM      9  C   UNL A   1      32.858  22.755  22.984  1.00  0.00     0.075 A 
ATOM     10  N   UNL A   1      33.499  23.152  21.831  1.00  0.00    -0.275 N 
ATOM     11  C   UNL A   1      32.208  23.902  23.425  1.00  0.00     0.061 A 
ATOM     12  N   UNL A   1      33.205  24.390  21.417  1.00  0.00    -0.154 NA
ATOM     13  H   UNL A   1      34.126  22.567  21.348  1.00  0.00     0.190 HD
ATOM     14  C   UNL A   1      32.373  24.845  22.353  1.00  0.00     0.182 A 
ATOM     15  N   UNL A   1      31.737  26.040  22.317  1.00  0.00    -0.226 NA
ATOM     16  C   UNL A   1      30.732  25.371  24.467  1.00  0.00     0.045 A 
ATOM     17  C   UNL A   1      30.915  26.264  23.379  1.00  0.00     0.074 A 
BRANCH   9  18
ATOM     18  C   UNL A   1      32.841  21.336  23.336  1.00  0.00     0.001 A 
ATOM     19  C   UNL A   1      32.591  18.611  24.031  1.00  0.00     0.118 A 
ATOM     20  C   UNL A   1      33.370  19.482  24.799  1.00  0.00     0.047 A 
ATOM     21  C   UNL A   1      31.992  19.090  22.870  1.00  0.00     0.047 A 
ATOM     22  C   UNL A   1      33.495  20.836  24.457  1.00  0.00     0.014 A 
ATOM     23  C   UNL A   1      32.141  20.435  22.511  1.00  0.00     0.014 A 
BRANCH  19  24
ATOM     24  O   UNL A   1      32.497  17.335  24.516  1.00  0.00    -0.497 OA
ATOM     25  C   UNL A   1      33.516  16.420  24.124  1.00  0.00     0.278 C 
ENDBRANCH  19  24
ENDBRANCH   9  18
BRANCH  17  26
ATOM     26  C   UNL A   1      30.239  27.583  23.367  1.00  0.00     0.000 A 
ATOM     27  C   UNL A   1      30.875  28.741  23.851  1.00  0.00     0.011 A 
ATOM     28  C   UNL A   1      28.920  27.718  22.900  1.00  0.00     0.011 A 
ATOM     29  C   UNL A   1      30.219  29.979  23.869  1.00  0.00     0.014 A 
ATOM     30  C   UNL A   1      28.259  28.951  22.921  1.00  0.00     0.014 A 
ATOM     31  C   UNL A   1      28.900  30.096  23.411  1.00  0.00     0.056 A 
BRANCH  31  32
ATOM     32  C   UNL A   1      28.180  31.423  23.466  1.00  0.00     0.416 C 
ATOM     33  F   UNL A   1      27.144  31.417  24.348  1.00  0.00    -0.166 F 
ATOM     34  F   UNL A   1      28.991  32.448  23.836  1.00  0.00    -0.166 F 
ATOM     35  F   UNL A   1      27.638  31.790  22.268  1.00  0.00    -0.166 F 
ENDBRANCH  31  32
ENDBRANCH  17  26
ENDBRANCH   6   8
ENDBRANCH   5   6
ENDBRANCH   4   5
ENDBRANCH   3   4
ENDBRANCH   2   3
ENDBRANCH   1   2
BRANCH   1  36
ATOM     36  C   UNL A   1      37.932  22.108  25.753  1.00  0.00     0.261 C 
BRANCH  36  37
ATOM     37  O   UNL A   1      38.598  23.215  26.336  1.00  0.00    -0.460 OA
BRANCH  37  38
ATOM     38  C   UNL A   1      39.752  22.923  26.991  1.00  0.00     0.338 C 
ATOM     39  O   UNL A   1      40.086  21.896  27.512  1.00  0.00    -0.246 OA
BRANCH  38  40
ATOM     40  C   UNL A   1      40.490  24.192  27.020  1.00  0.00     0.060 A 
ATOM     41  C   UNL A   1      41.534  24.241  27.935  1.00  0.00     0.016 A 
ATOM     42  C   UNL A   1      39.907  25.340  26.457  1.00  0.00     0.016 A 
ATOM     43  C   UNL A   1      41.769  25.448  28.543  1.00  0.00     0.010 A 
ATOM     44  C   UNL A   1      40.122  26.536  27.087  1.00  0.00     0.010 A 
ATOM     45  C   UNL A   1      40.964  26.540  28.193  1.00  0.00    -0.014 A 
BRANCH  45  46
ATOM     46  C   UNL A   1      41.100  27.750  28.964  1.00  0.00     0.031 A 
ATOM     47  C   UNL A   1      42.239  28.553  28.489  1.00  0.00     0.074 A 
ATOM     48  C   UNL A   1      40.227  28.115  29.918  1.00  0.00     0.049 A 
ATOM     49  N   UNL A   1      43.430  28.578  28.982  1.00  0.00    -0.248 NA
ATOM     50  C   UNL A   1      42.116  29.166  27.155  1.00  0.00     0.031 C 
ATOM     51  C   UNL A   1      38.922  27.533  30.242  1.00  0.00     0.029 A 
ATOM     52  N   UNL A   1      40.298  29.181  30.752  1.00  0.00    -0.354 N 
ATOM     53  C   UNL A   1      44.130  29.440  28.151  1.00  0.00     0.074 A 
ATOM     54  C   UNL A   1      43.383  29.501  26.921  1.00  0.00     0.031 C 
ATOM     55  C   UNL A   1      38.234  28.398  31.028  1.00  0.00     0.029 A 
ATOM     56  C   UNL A   1      39.100  29.517  31.369  1.00  0.00     0.049 A 
ATOM     57  H   UNL A   1      41.132  29.680  30.907  1.00  0.00     0.167 HD
ATOM     58  C   UNL A   1      45.035  30.320  28.659  1.00  0.00     0.031 A 
ATOM     59  C   UNL A   1      38.845  30.671  32.039  1.00  0.00     0.031 A 
ATOM     60  C   UNL A   1      45.400  29.982  30.011  1.00  0.00     0.049 A 
ATOM     61  C   UNL A   1      40.159  31.273  32.386  1.00  0.00     0.074 A 
ATOM     62  C   UNL A   1      45.967  28.879  30.621  1.00  0.00     0.029 A 
ATOM     63  N   UNL A   1      44.782  30.700  31.011  1.00  0.00    -0.354 N 
ATOM     64  N   UNL A   1      40.999  30.727  33.221  1.00  0.00    -0.248 NA
ATOM     65  C   UNL A   1      40.749  32.219  31.448  1.00  0.00     0.031 C 
ATOM     66  C   UNL A   1      45.298  28.762  31.874  1.00  0.00     0.029 A 
ATOM     67  C   UNL A   1      44.412  29.834  32.006  1.00  0.00     0.049 A 
ATOM     68  H   UNL A   1      44.633  31.673  31.011  1.00  0.00     0.167 HD
ATOM     69  C   UNL A   1      42.251  30.915  32.649  1.00  0.00     0.074 A 
ATOM     70  C   UNL A   1      42.042  31.921  31.610  1.00  0.00     0.031 C 
ATOM     71  C   UNL A   1      43.268  30.030  32.876  1.00  0.00     0.031 A 
BRANCH  58  72
ATOM     72  C   UNL A   1      45.199  31.717  28.106  1.00  0.00    -0.014 A 
ATOM     73  C   UNL A   1      46.500  32.215  27.912  1.00  0.00     0.010 A 
ATOM     74  C   UNL A   1      44.141  32.648  28.022  1.00  0.00     0.010 A 
ATOM     75  C   UNL A   1      46.727  33.584  27.712  1.00  0.00     0.020 A 
ATOM     76  C   UNL A   1      44.350  34.001  27.776  1.00  0.00     0.020 A 
ATOM     77  C   UNL A   1      45.647  34.467  27.656  1.00  0.00     0.054 A 
BRANCH  77  78
ATOM     78  S   UNL A   1      45.949  36.240  27.491  1.00  0.00     0.124 S 
ATOM     79  O   UNL A   1      47.151  36.414  28.300  1.00  0.00    -0.237 OA
ATOM     80  O   UNL A   1      46.123  36.387  26.049  1.00  0.00    -0.237 OA
ATOM     81  O   UNL A   1      44.734  36.844  28.033  1.00  0.00    -0.744 OA
ENDBRANCH  77  78
ENDBRANCH  58  72
BRANCH  59  82
ATOM     82  C   UNL A   1      37.576  31.446  32.078  1.00  0.00    -0.014 A 
ATOM     83  C   UNL A   1      37.029  31.902  33.293  1.00  0.00     0.010 A 
ATOM     84  C   UNL A   1      37.046  31.981  30.885  1.00  0.00     0.010 A 
ATOM     85  C   UNL A   1      36.023  32.887  33.314  1.00  0.00     0.020 A 
ATOM     86  C   UNL A   1      36.044  32.960  30.897  1.00  0.00     0.020 A 
ATOM     87  C   UNL A   1      35.548  33.422  32.114  1.00  0.00     0.054 A 
BRANCH  87  88
ATOM     88  S   UNL A   1      34.360  34.799  32.149  1.00  0.00     0.124 S 
ATOM     89  O   UNL A   1      35.057  35.792  32.961  1.00  0.00    -0.237 OA
ATOM     90  O   UNL A   1      34.212  35.130  30.734  1.00  0.00    -0.237 OA
ATOM     91  O   UNL A   1      33.173  34.214  32.771  1.00  0.00    -0.744 OA
ENDBRANCH  87  88
ENDBRANCH  59  82
BRANCH  71  92
ATOM     92  C   UNL A   1      43.113  29.038  34.007  1.00  0.00    -0.014 A 
ATOM     93  C   UNL A   1      43.380  29.328  35.361  1.00  0.00     0.010 A 
ATOM     94  C   UNL A   1      42.527  27.800  33.692  1.00  0.00     0.010 A 
ATOM     95  C   UNL A   1      43.089  28.389  36.365  1.00  0.00     0.020 A 
ATOM     96  C   UNL A   1      42.218  26.871  34.686  1.00  0.00     0.020 A 
ATOM     97  C   UNL A   1      42.508  27.164  36.018  1.00  0.00     0.054 A 
BRANCH  97  98
ATOM     98  S   UNL A   1      42.094  25.964  37.317  1.00  0.00     0.124 S 
ATOM     99  O   UNL A   1      40.684  26.244  37.571  1.00  0.00    -0.237 OA
ATOM    100  O   UNL A   1      42.377  24.682  36.677  1.00  0.00    -0.237 OA
ATOM    101  O   UNL A   1      43.000  26.312  38.412  1.00  0.00    -0.744 OA
ENDBRANCH  97  98
ENDBRANCH  71  92
ENDBRANCH  45  46
ENDBRANCH  38  40
ENDBRANCH  37  38
ENDBRANCH  36  37
ENDBRANCH   1  36
TORSDOF 21
ENDMDL
MODEL 3
REMARK VINA RESULT:     -13.0      2.761      7.377
REMARK SMILES COc1ccc(-c2[nH]nc3nc(-c4ccc(C(F)(F)F)cc4)cc(C(=O)OCCOCCOC(=O)c4ccc(-c5c6nc(c(-c7ccc(S(=O)(=O)[O-])cc7)c7ccc([nH]7)c(-c7ccc(S(=O)(=O)[O-])cc7)c7nc(c(-c8ccc(S(=O)(=O)[O-])cc8)c8ccc5[nH]8)C=C7)C=C6)cc4)c23)cc1
REMARK SMILES IDX 31 1 30 2 29 3 28 4 27 5 25 6 26 7 24 8 7 9 8 10 96 11 9 12
REMARK SMILES IDX 10 14 11 15 23 16 12 17 6 18 3 19 4 20 98 21 5 22 97 23 2 24
REMARK SMILES IDX 1 25 13 26 14 27 22 28 15 29 21 30 16 31 17 32 18 33 19 34
REMARK SMILES IDX 20 35 32 36 33 37 34 38 35 39 36 40 37 41 95 42 38 43 94 44
REMARK SMILES IDX 39 45 40 46 41 47 88 48 42 49 93 50 87 51 89 52 43 53 92 54
REMARK SMILES IDX 86 55 85 56 44 58 74 59 55 60 73 61 56 62 59 63 72 64 90 65
REMARK SMILES IDX 57 66 58 67 71 69 91 70 60 71 45 72 46 73 54 74 47 75 53 76
REMARK SMILES IDX 48 77 49 78 50 79 51 80 52 81 75 82 76 83 84 84 77 85 83 86
REMARK SMILES IDX 78 87 79 88 80 89 81 90 82 91 61 92 62 93 70 94 63 95 69 96
REMARK SMILES IDX 64 97 65 98 66 99 67 100 68 101
REMARK H PARENT 8 13 89 57 59 68
REMARK Flexibility Score: inf
ROOT
ATOM      1  C   UNL A   1      36.935  22.306  24.370  1.00  0.00     0.202 C 
ENDROOT
BRANCH   1   2
ATOM      2  O   UNL A   1      35.771  22.820  25.009  1.00  0.00    -0.374 OA
BRANCH   2   3
ATOM      3  C   UNL A   1      35.864  24.198  25.376  1.00  0.00     0.202 C 
BRANCH   3   4
ATOM      4  C   UNL A   1      34.591  24.991  25.074  1.00  0.00     0.261 C 
BRANCH   4   5
ATOM      5  O   UNL A   1      34.353  25.042  23.652  1.00  0.00    -0.460 OA
BRANCH   5   6
ATOM      6  C   UNL A   1      33.050  25.093  23.263  1.00  0.00     0.339 C 
ATOM      7  O   UNL A   1      32.579  25.812  22.404  1.00  0.00    -0.246 OA
BRANCH   6   8
ATOM      8  C   UNL A   1      32.277  24.116  24.047  1.00  0.00     0.075 A 
ATOM      9  C   UNL A   1      30.558  25.545  25.268  1.00  0.00     0.075 A 
ATOM     10  N   UNL A   1      29.768  25.210  26.346  1.00  0.00    -0.275 N 
ATOM     11  C   UNL A   1      31.289  24.391  25.008  1.00  0.00     0.061 A 
ATOM     12  N   UNL A   1      29.816  23.921  26.703  1.00  0.00    -0.154 NA
ATOM     13  H   UNL A   1      29.210  25.870  26.817  1.00  0.00     0.190 HD
ATOM     14  C   UNL A   1      30.702  23.394  25.860  1.00  0.00     0.182 A 
ATOM     15  N   UNL A   1      31.019  22.079  25.783  1.00  0.00    -0.226 NA
ATOM     16  C   UNL A   1      32.550  22.735  23.966  1.00  0.00     0.045 A 
ATOM     17  C   UNL A   1      31.933  21.784  24.818  1.00  0.00     0.074 A 
BRANCH   9  18
ATOM     18  C   UNL A   1      30.333  26.822  24.591  1.00  0.00     0.001 A 
ATOM     19  C   UNL A   1      29.855  29.373  23.482  1.00  0.00     0.118 A 
ATOM     20  C   UNL A   1      29.109  28.261  23.079  1.00  0.00     0.047 A 
ATOM     21  C   UNL A   1      30.892  29.195  24.391  1.00  0.00     0.047 A 
ATOM     22  C   UNL A   1      29.344  26.993  23.628  1.00  0.00     0.014 A 
ATOM     23  C   UNL A   1      31.147  27.923  24.919  1.00  0.00     0.014 A 
BRANCH  19  24
ATOM     24  O   UNL A   1      29.476  30.561  22.919  1.00  0.00    -0.497 OA
ATOM     25  C   UNL A   1      28.820  30.496  21.656  1.00  0.00     0.278 C 
ENDBRANCH  19  24
ENDBRANCH   9  18
BRANCH  17  26
ATOM     26  C   UNL A   1      32.313  20.353  24.748  1.00  0.00     0.000 A 
ATOM     27  C   UNL A   1      32.674  19.630  25.899  1.00  0.00     0.011 A 
ATOM     28  C   UNL A   1      32.359  19.674  23.518  1.00  0.00     0.011 A 
ATOM     29  C   UNL A   1      33.065  18.286  25.822  1.00  0.00     0.014 A 
ATOM     30  C   UNL A   1      32.754  18.334  23.435  1.00  0.00     0.014 A 
ATOM     31  C   UNL A   1      33.118  17.626  24.587  1.00  0.00     0.056 A 
BRANCH  31  32
ATOM     32  C   UNL A   1      33.577  16.189  24.500  1.00  0.00     0.416 C 
ATOM     33  F   UNL A   1      34.525  15.889  25.430  1.00  0.00    -0.166 F 
ATOM     34  F   UNL A   1      32.566  15.300  24.685  1.00  0.00    -0.166 F 
ATOM     35  F   UNL A   1      34.134  15.876  23.295  1.00  0.00    -0.166 F 
ENDBRANCH  31  32
ENDBRANCH  17  26
ENDBRANCH   6   8
ENDBRANCH   5   6
ENDBRANCH   4   5
ENDBRANCH   3   4
ENDBRANCH   2   3
ENDBRANCH   1   2
BRANCH   1  36
ATOM     36  C   UNL A   1      37.460  21.042  25.026  1.00  0.00     0.261 C 
BRANCH  36  37
ATOM     37  O   UNL A   1      38.675  21.380  25.674  1.00  0.00    -0.460 OA
BRANCH  37  38
ATOM     38  C   UNL A   1      39.596  20.383  25.744  1.00  0.00     0.338 C 
ATOM     39  O   UNL A   1      39.487  19.230  25.432  1.00  0.00    -0.246 OA
BRANCH  38  40
ATOM     40  C   UNL A   1      40.758  21.002  26.393  1.00  0.00     0.060 A 
ATOM     41  C   UNL A   1      40.730  20.986  27.782  1.00  0.00     0.016 A 
ATOM     42  C   UNL A   1      41.583  21.865  25.651  1.00  0.00     0.016 A 
ATOM     43  C   UNL A   1      41.277  22.067  28.425  1.00  0.00     0.010 A 
ATOM     44  C   UNL A   1      42.101  22.957  26.293  1.00  0.00     0.010 A 
ATOM     45  C   UNL A   1      41.836  23.092  27.651  1.00  0.00    -0.014 A 
BRANCH  45  46
ATOM     46  C   UNL A   1      42.243  24.298  28.326  1.00  0.00     0.031 A 
ATOM     47  C   UNL A   1      41.313  25.403  28.039  1.00  0.00     0.074 A 
ATOM     48  C   UNL A   1      43.281  24.349  29.179  1.00  0.00     0.049 A 
ATOM     49  N   UNL A   1      41.457  26.326  27.150  1.00  0.00    -0.248 NA
ATOM     50  C   UNL A   1      39.954  25.296  28.596  1.00  0.00     0.031 C 
ATOM     51  C   UNL A   1      44.062  23.246  29.744  1.00  0.00     0.029 A 
ATOM     52  N   UNL A   1      43.796  25.436  29.804  1.00  0.00    -0.354 N 
ATOM     53  C   UNL A   1      40.295  27.078  27.242  1.00  0.00     0.074 A 
ATOM     54  C   UNL A   1      39.324  26.233  27.889  1.00  0.00     0.031 C 
ATOM     55  C   UNL A   1      44.777  23.706  30.800  1.00  0.00     0.029 A 
ATOM     56  C   UNL A   1      44.611  25.148  30.891  1.00  0.00     0.049 A 
ATOM     57  H   UNL A   1      43.607  26.356  29.511  1.00  0.00     0.167 HD
ATOM     58  C   UNL A   1      40.329  28.434  27.138  1.00  0.00     0.031 A 
ATOM     59  C   UNL A   1      45.038  26.039  31.824  1.00  0.00     0.031 A 
ATOM     60  C   UNL A   1      41.579  28.890  26.583  1.00  0.00     0.049 A 
ATOM     61  C   UNL A   1      44.879  27.396  31.236  1.00  0.00     0.074 A 
ATOM     62  C   UNL A   1      42.256  28.673  25.399  1.00  0.00     0.029 A 
ATOM     63  N   UNL A   1      42.511  29.364  27.480  1.00  0.00    -0.354 N 
ATOM     64  N   UNL A   1      45.568  27.818  30.212  1.00  0.00    -0.248 NA
ATOM     65  C   UNL A   1      43.626  28.101  31.471  1.00  0.00     0.031 C 
ATOM     66  C   UNL A   1      43.633  28.613  25.764  1.00  0.00     0.029 A 
ATOM     67  C   UNL A   1      43.740  28.869  27.133  1.00  0.00     0.049 A 
ATOM     68  H   UNL A   1      42.324  29.959  28.242  1.00  0.00     0.167 HD
ATOM     69  C   UNL A   1      44.659  28.523  29.433  1.00  0.00     0.074 A 
ATOM     70  C   UNL A   1      43.507  28.745  30.305  1.00  0.00     0.031 C 
ATOM     71  C   UNL A   1      44.810  28.605  28.076  1.00  0.00     0.031 A 
BRANCH  58  72
ATOM     72  C   UNL A   1      39.444  29.330  27.973  1.00  0.00    -0.014 A 
ATOM     73  C   UNL A   1      39.818  29.595  29.303  1.00  0.00     0.010 A 
ATOM     74  C   UNL A   1      38.136  29.700  27.593  1.00  0.00     0.010 A 
ATOM     75  C   UNL A   1      38.904  30.141  30.215  1.00  0.00     0.020 A 
ATOM     76  C   UNL A   1      37.235  30.287  28.477  1.00  0.00     0.020 A 
ATOM     77  C   UNL A   1      37.615  30.473  29.794  1.00  0.00     0.054 A 
BRANCH  77  78
ATOM     78  S   UNL A   1      36.413  31.088  30.993  1.00  0.00     0.124 S 
ATOM     79  O   UNL A   1      36.117  29.885  31.763  1.00  0.00    -0.237 OA
ATOM     80  O   UNL A   1      37.177  32.120  31.689  1.00  0.00    -0.237 OA
ATOM     81  O   UNL A   1      35.322  31.584  30.157  1.00  0.00    -0.744 OA
ENDBRANCH  77  78
ENDBRANCH  58  72
BRANCH  59  82
ATOM     82  C   UNL A   1      45.228  25.818  33.282  1.00  0.00    -0.014 A 
ATOM     83  C   UNL A   1      44.138  25.805  34.173  1.00  0.00     0.010 A 
ATOM     84  C   UNL A   1      46.465  25.337  33.761  1.00  0.00     0.010 A 
ATOM     85  C   UNL A   1      44.269  25.289  35.477  1.00  0.00     0.020 A 
ATOM     86  C   UNL A   1      46.605  24.825  35.057  1.00  0.00     0.020 A 
ATOM     87  C   UNL A   1      45.501  24.786  35.905  1.00  0.00     0.054 A 
BRANCH  87  88
ATOM     88  S   UNL A   1      45.630  23.985  37.533  1.00  0.00     0.124 S 
ATOM     89  O   UNL A   1      45.529  22.569  37.193  1.00  0.00    -0.237 OA
ATOM     90  O   UNL A   1      46.938  24.431  38.006  1.00  0.00    -0.237 OA
ATOM     91  O   UNL A   1      44.492  24.526  38.275  1.00  0.00    -0.744 OA
ENDBRANCH  87  88
ENDBRANCH  59  82
BRANCH  71  92
ATOM     92  C   UNL A   1      46.141  28.202  27.480  1.00  0.00    -0.014 A 
ATOM     93  C   UNL A   1      46.371  26.990  26.797  1.00  0.00     0.010 A 
ATOM     94  C   UNL A   1      47.160  29.169  27.488  1.00  0.00     0.010 A 
ATOM     95  C   UNL A   1      47.602  26.748  26.164  1.00  0.00     0.020 A 
ATOM     96  C   UNL A   1      48.378  28.943  26.844  1.00  0.00     0.020 A 
ATOM     97  C   UNL A   1      48.598  27.730  26.192  1.00  0.00     0.054 A 
BRANCH  97  98
ATOM     98  S   UNL A   1      50.175  27.437  25.340  1.00  0.00     0.124 S 
ATOM     99  O   UNL A   1      50.137  26.000  25.086  1.00  0.00    -0.237 OA
ATOM    100  O   UNL A   1      50.068  28.288  24.157  1.00  0.00    -0.237 OA
ATOM    101  O   UNL A   1      51.180  27.867  26.312  1.00  0.00    -0.744 OA
ENDBRANCH  97  98
ENDBRANCH  71  92
ENDBRANCH  45  46
ENDBRANCH  38  40
ENDBRANCH  37  38
ENDBRANCH  36  37
ENDBRANCH   1  36
TORSDOF 21
ENDMDL
