MODEL 1
REMARK VINA RESULT:      -9.4      0.000      0.000
REMARK SMILES Cc1cc(C)cc(C(=O)N2CC[C@H](C(=O)OCCOCCOC(=O)c3ccc(-c4c5nc(c(-c6ccc(S(=O)(=O)[O-])cc6)c6ccc([nH]6)c(-c6ccc(S(=O)(=O)[O-])cc6)c6nc(c(-c7ccc(S(=O)(=O)[O-])cc7)c7ccc4[nH]7)C=C6)C=C5)cc3)[C@@H]2C)c1
REMARK SMILES IDX 20 1 19 2 18 3 17 4 16 5 14 6 15 7 13 8 10 9 11 10 85 11
REMARK SMILES IDX 12 12 86 13 8 14 9 15 7 16 1 17 2 18 3 19 87 20 4 21 5 22
REMARK SMILES IDX 6 23 21 24 22 25 23 26 24 27 25 28 26 29 84 30 27 31 83 32
REMARK SMILES IDX 28 33 29 34 30 35 77 36 31 37 82 38 76 39 78 40 32 41 81 42
REMARK SMILES IDX 75 43 74 44 33 46 63 47 44 48 62 49 45 50 48 51 61 52 79 53
REMARK SMILES IDX 46 54 47 55 60 57 80 58 49 59 34 60 35 61 43 62 36 63 42 64
REMARK SMILES IDX 37 65 38 66 39 67 40 68 41 69 64 70 65 71 73 72 66 73 72 74
REMARK SMILES IDX 67 75 68 76 69 77 70 78 71 79 50 80 51 81 59 82 52 83 58 84
REMARK SMILES IDX 53 85 54 86 55 87 56 88 57 89
REMARK H PARENT 78 45 48 56
REMARK Flexibility Score: inf
ROOT
ATOM      1  C   UNL A   1      42.331  19.449  26.243  1.00  0.00     0.202 C 
ENDROOT
BRANCH   1   2
ATOM      2  O   UNL A   1      42.879  19.214  24.948  1.00  0.00    -0.374 OA
BRANCH   2   3
ATOM      3  C   UNL A   1      44.288  18.972  24.915  1.00  0.00     0.202 C 
BRANCH   3   4
ATOM      4  C   UNL A   1      45.163  20.182  24.580  1.00  0.00     0.261 C 
BRANCH   4   5
ATOM      5  O   UNL A   1      44.447  21.226  23.883  1.00  0.00    -0.463 OA
BRANCH   5   6
ATOM      6  C   UNL A   1      44.523  22.465  24.444  1.00  0.00     0.311 C 
ATOM      7  O   UNL A   1      43.673  23.336  24.316  1.00  0.00    -0.252 OA
BRANCH   6   8
ATOM      8  C   UNL A   1      45.843  22.653  25.171  1.00  0.00     0.123 C 
ATOM      9  N   UNL A   1      46.134  24.749  26.298  1.00  0.00    -0.335 N 
ATOM     10  C   UNL A   1      46.271  24.978  24.873  1.00  0.00     0.121 C 
ATOM     11  C   UNL A   1      45.832  23.327  26.564  1.00  0.00     0.096 C 
ATOM     12  C   UNL A   1      46.707  23.621  24.347  1.00  0.00     0.039 C 
ATOM     13  C   UNL A   1      44.583  23.145  27.411  1.00  0.00     0.032 C 
BRANCH   9  14
ATOM     14  C   UNL A   1      46.298  25.830  27.149  1.00  0.00     0.254 C 
ATOM     15  O   UNL A   1      47.074  25.776  28.106  1.00  0.00    -0.269 OA
BRANCH  14  16
ATOM     16  C   UNL A   1      45.470  27.060  27.013  1.00  0.00     0.040 A 
ATOM     17  C   UNL A   1      42.181  28.195  25.469  1.00  0.00     0.044 C 
ATOM     18  C   UNL A   1      43.448  28.197  26.273  1.00  0.00    -0.050 A 
ATOM     19  C   UNL A   1      43.768  29.287  27.089  1.00  0.00     0.006 A 
ATOM     20  C   UNL A   1      44.278  27.071  26.283  1.00  0.00     0.017 A 
ATOM     21  C   UNL A   1      44.922  29.273  27.883  1.00  0.00    -0.050 A 
ATOM     22  C   UNL A   1      45.173  30.389  28.854  1.00  0.00     0.044 C 
ATOM     23  C   UNL A   1      45.779  28.165  27.823  1.00  0.00     0.017 A 
ENDBRANCH  14  16
ENDBRANCH   9  14
ENDBRANCH   6   8
ENDBRANCH   5   6
ENDBRANCH   4   5
ENDBRANCH   3   4
ENDBRANCH   2   3
ENDBRANCH   1   2
BRANCH   1  24
ATOM     24  C   UNL A   1      40.938  20.084  26.256  1.00  0.00     0.261 C 
BRANCH  24  25
ATOM     25  O   UNL A   1      41.034  21.518  26.250  1.00  0.00    -0.460 OA
BRANCH  25  26
ATOM     26  C   UNL A   1      39.841  22.156  26.262  1.00  0.00     0.338 C 
ATOM     27  O   UNL A   1      38.747  21.678  25.990  1.00  0.00    -0.246 OA
BRANCH  26  28
ATOM     28  C   UNL A   1      39.992  23.500  26.849  1.00  0.00     0.060 A 
ATOM     29  C   UNL A   1      41.236  24.123  26.685  1.00  0.00     0.016 A 
ATOM     30  C   UNL A   1      38.975  24.123  27.575  1.00  0.00     0.016 A 
ATOM     31  C   UNL A   1      41.490  25.343  27.303  1.00  0.00     0.010 A 
ATOM     32  C   UNL A   1      39.236  25.346  28.203  1.00  0.00     0.010 A 
ATOM     33  C   UNL A   1      40.508  25.939  28.102  1.00  0.00    -0.014 A 
BRANCH  33  34
ATOM     34  C   UNL A   1      40.882  27.086  28.963  1.00  0.00     0.031 A 
ATOM     35  C   UNL A   1      42.195  27.037  29.698  1.00  0.00     0.074 A 
ATOM     36  C   UNL A   1      40.099  28.176  29.038  1.00  0.00     0.049 A 
ATOM     37  N   UNL A   1      42.735  27.929  30.486  1.00  0.00    -0.248 NA
ATOM     38  C   UNL A   1      43.008  25.822  29.515  1.00  0.00     0.031 C 
ATOM     39  C   UNL A   1      38.835  28.359  28.326  1.00  0.00     0.029 A 
ATOM     40  N   UNL A   1      40.258  29.340  29.747  1.00  0.00    -0.354 N 
ATOM     41  C   UNL A   1      43.947  27.386  30.895  1.00  0.00     0.074 A 
ATOM     42  C   UNL A   1      44.052  26.075  30.292  1.00  0.00     0.031 C 
ATOM     43  C   UNL A   1      38.331  29.568  28.635  1.00  0.00     0.029 A 
ATOM     44  C   UNL A   1      39.221  30.228  29.589  1.00  0.00     0.049 A 
ATOM     45  H   UNL A   1      41.041  29.521  30.316  1.00  0.00     0.167 HD
ATOM     46  C   UNL A   1      44.891  27.929  31.700  1.00  0.00     0.031 A 
ATOM     47  C   UNL A   1      39.005  31.428  30.165  1.00  0.00     0.031 A 
ATOM     48  C   UNL A   1      44.775  29.227  32.308  1.00  0.00     0.049 A 
ATOM     49  C   UNL A   1      40.024  31.970  31.131  1.00  0.00     0.074 A 
ATOM     50  C   UNL A   1      45.684  29.880  33.121  1.00  0.00     0.029 A 
ATOM     51  N   UNL A   1      43.676  30.063  32.182  1.00  0.00    -0.354 N 
ATOM     52  N   UNL A   1      41.179  31.458  31.484  1.00  0.00    -0.248 NA
ATOM     53  C   UNL A   1      39.708  33.250  31.781  1.00  0.00     0.031 C 
ATOM     54  C   UNL A   1      45.108  31.087  33.535  1.00  0.00     0.029 A 
ATOM     55  C   UNL A   1      43.864  31.208  32.937  1.00  0.00     0.049 A 
ATOM     56  H   UNL A   1      42.880  29.870  31.635  1.00  0.00     0.167 HD
ATOM     57  C   UNL A   1      41.733  32.357  32.390  1.00  0.00     0.074 A 
ATOM     58  C   UNL A   1      40.794  33.455  32.516  1.00  0.00     0.031 C 
ATOM     59  C   UNL A   1      42.910  32.281  33.059  1.00  0.00     0.031 A 
BRANCH  46  60
ATOM     60  C   UNL A   1      46.110  27.101  32.001  1.00  0.00    -0.014 A 
ATOM     61  C   UNL A   1      47.227  27.106  31.146  1.00  0.00     0.010 A 
ATOM     62  C   UNL A   1      46.148  26.324  33.174  1.00  0.00     0.010 A 
ATOM     63  C   UNL A   1      48.346  26.321  31.441  1.00  0.00     0.020 A 
ATOM     64  C   UNL A   1      47.273  25.556  33.483  1.00  0.00     0.020 A 
ATOM     65  C   UNL A   1      48.360  25.547  32.606  1.00  0.00     0.054 A 
BRANCH  65  66
ATOM     66  S   UNL A   1      49.829  24.547  32.972  1.00  0.00     0.124 S 
ATOM     67  O   UNL A   1      49.245  23.393  33.652  1.00  0.00    -0.237 OA
ATOM     68  O   UNL A   1      50.375  24.281  31.643  1.00  0.00    -0.237 OA
ATOM     69  O   UNL A   1      50.642  25.420  33.813  1.00  0.00    -0.744 OA
ENDBRANCH  65  66
ENDBRANCH  46  60
BRANCH  47  70
ATOM     70  C   UNL A   1      37.757  32.181  29.866  1.00  0.00    -0.014 A 
ATOM     71  C   UNL A   1      37.743  33.197  28.896  1.00  0.00     0.010 A 
ATOM     72  C   UNL A   1      36.566  31.873  30.552  1.00  0.00     0.010 A 
ATOM     73  C   UNL A   1      36.562  33.896  28.620  1.00  0.00     0.020 A 
ATOM     74  C   UNL A   1      35.380  32.552  30.261  1.00  0.00     0.020 A 
ATOM     75  C   UNL A   1      35.387  33.565  29.301  1.00  0.00     0.054 A 
BRANCH  75  76
ATOM     76  S   UNL A   1      33.852  34.436  28.879  1.00  0.00     0.124 S 
ATOM     77  O   UNL A   1      33.242  33.525  27.916  1.00  0.00    -0.237 OA
ATOM     78  O   UNL A   1      33.180  34.536  30.172  1.00  0.00    -0.237 OA
ATOM     79  O   UNL A   1      34.321  35.706  28.331  1.00  0.00    -0.744 OA
ENDBRANCH  75  76
ENDBRANCH  47  70
BRANCH  59  80
ATOM     80  C   UNL A   1      43.252  33.412  33.991  1.00  0.00    -0.014 A 
ATOM     81  C   UNL A   1      42.897  33.357  35.349  1.00  0.00     0.010 A 
ATOM     82  C   UNL A   1      44.003  34.504  33.519  1.00  0.00     0.010 A 
ATOM     83  C   UNL A   1      43.272  34.384  36.219  1.00  0.00     0.020 A 
ATOM     84  C   UNL A   1      44.400  35.522  34.390  1.00  0.00     0.020 A 
ATOM     85  C   UNL A   1      44.023  35.459  35.734  1.00  0.00     0.054 A 
BRANCH  85  86
ATOM     86  S   UNL A   1      44.551  36.749  36.896  1.00  0.00     0.124 S 
ATOM     87  O   UNL A   1      43.334  36.974  37.671  1.00  0.00    -0.237 OA
ATOM     88  O   UNL A   1      45.645  36.103  37.616  1.00  0.00    -0.237 OA
ATOM     89  O   UNL A   1      44.952  37.854  36.028  1.00  0.00    -0.744 OA
ENDBRANCH  85  86
ENDBRANCH  59  80
ENDBRANCH  33  34
ENDBRANCH  26  28
ENDBRANCH  25  26
ENDBRANCH  24  25
ENDBRANCH   1  24
TORSDOF 19
ENDMDL
MODEL 2
REMARK VINA RESULT:      -8.9      5.269     12.365
REMARK SMILES Cc1cc(C)cc(C(=O)N2CC[C@H](C(=O)OCCOCCOC(=O)c3ccc(-c4c5nc(c(-c6ccc(S(=O)(=O)[O-])cc6)c6ccc([nH]6)c(-c6ccc(S(=O)(=O)[O-])cc6)c6nc(c(-c7ccc(S(=O)(=O)[O-])cc7)c7ccc4[nH]7)C=C6)C=C5)cc3)[C@@H]2C)c1
REMARK SMILES IDX 20 1 19 2 18 3 17 4 16 5 14 6 15 7 13 8 10 9 11 10 85 11
REMARK SMILES IDX 12 12 86 13 8 14 9 15 7 16 1 17 2 18 3 19 87 20 4 21 5 22
REMARK SMILES IDX 6 23 21 24 22 25 23 26 24 27 25 28 26 29 84 30 27 31 83 32
REMARK SMILES IDX 28 33 29 34 30 35 77 36 31 37 82 38 76 39 78 40 32 41 81 42
REMARK SMILES IDX 75 43 74 44 33 46 63 47 44 48 62 49 45 50 48 51 61 52 79 53
REMARK SMILES IDX 46 54 47 55 60 57 80 58 49 59 34 60 35 61 43 62 36 63 42 64
REMARK SMILES IDX 37 65 38 66 39 67 40 68 41 69 64 70 65 71 73 72 66 73 72 74
REMARK SMILES IDX 67 75 68 76 69 77 70 78 71 79 50 80 51 81 59 82 52 83 58 84
REMARK SMILES IDX 53 85 54 86 55 87 56 88 57 89
REMARK H PARENT 78 45 48 56
REMARK Flexibility Score: inf
ROOT
ATOM      1  C   UNL A   1      34.403  31.162  27.826  1.00  0.00     0.202 C 
ENDROOT
BRANCH   1   2
ATOM      2  O   UNL A   1      33.979  29.930  27.249  1.00  0.00    -0.374 OA
BRANCH   2   3
ATOM      3  C   UNL A   1      33.156  30.052  26.085  1.00  0.00     0.202 C 
BRANCH   3   4
ATOM      4  C   UNL A   1      31.771  29.405  26.178  1.00  0.00     0.261 C 
BRANCH   4   5
ATOM      5  O   UNL A   1      31.036  29.458  24.935  1.00  0.00    -0.463 OA
BRANCH   5   6
ATOM      6  C   UNL A   1      31.519  28.671  23.934  1.00  0.00     0.311 C 
ATOM      7  O   UNL A   1      32.024  29.094  22.904  1.00  0.00    -0.252 OA
BRANCH   6   8
ATOM      8  C   UNL A   1      31.263  27.202  24.226  1.00  0.00     0.123 C 
ATOM      9  N   UNL A   1      32.346  25.636  22.769  1.00  0.00    -0.335 N 
ATOM     10  C   UNL A   1      31.243  26.238  22.047  1.00  0.00     0.121 C 
ATOM     11  C   UNL A   1      32.447  26.210  24.126  1.00  0.00     0.096 C 
ATOM     12  C   UNL A   1      30.298  26.665  23.158  1.00  0.00     0.039 C 
ATOM     13  C   UNL A   1      33.834  26.755  24.427  1.00  0.00     0.032 C 
BRANCH   9  14
ATOM     14  C   UNL A   1      33.097  24.669  22.120  1.00  0.00     0.254 C 
ATOM     15  O   UNL A   1      33.277  24.714  20.901  1.00  0.00    -0.269 OA
BRANCH  14  16
ATOM     16  C   UNL A   1      33.626  23.479  22.843  1.00  0.00     0.040 A 
ATOM     17  C   UNL A   1      36.904  22.154  24.254  1.00  0.00     0.044 C 
ATOM     18  C   UNL A   1      35.442  22.288  23.945  1.00  0.00    -0.050 A 
ATOM     19  C   UNL A   1      34.513  21.411  24.514  1.00  0.00     0.006 A 
ATOM     20  C   UNL A   1      34.983  23.348  23.154  1.00  0.00     0.017 A 
ATOM     21  C   UNL A   1      33.142  21.562  24.273  1.00  0.00    -0.050 A 
ATOM     22  C   UNL A   1      32.155  20.700  25.003  1.00  0.00     0.044 C 
ATOM     23  C   UNL A   1      32.708  22.586  23.418  1.00  0.00     0.017 A 
ENDBRANCH  14  16
ENDBRANCH   9  14
ENDBRANCH   6   8
ENDBRANCH   5   6
ENDBRANCH   4   5
ENDBRANCH   3   4
ENDBRANCH   2   3
ENDBRANCH   1   2
BRANCH   1  24
ATOM     24  C   UNL A   1      35.575  31.055  28.805  1.00  0.00     0.261 C 
BRANCH  24  25
ATOM     25  O   UNL A   1      36.185  29.755  28.725  1.00  0.00    -0.460 OA
BRANCH  25  26
ATOM     26  C   UNL A   1      37.074  29.496  29.711  1.00  0.00     0.338 C 
ATOM     27  O   UNL A   1      36.850  29.461  30.915  1.00  0.00    -0.246 OA
BRANCH  26  28
ATOM     28  C   UNL A   1      38.357  29.057  29.133  1.00  0.00     0.060 A 
ATOM     29  C   UNL A   1      39.254  28.420  30.000  1.00  0.00     0.016 A 
ATOM     30  C   UNL A   1      38.702  29.294  27.800  1.00  0.00     0.016 A 
ATOM     31  C   UNL A   1      40.527  28.076  29.555  1.00  0.00     0.010 A 
ATOM     32  C   UNL A   1      39.985  28.955  27.357  1.00  0.00     0.010 A 
ATOM     33  C   UNL A   1      40.915  28.382  28.245  1.00  0.00    -0.014 A 
BRANCH  33  34
ATOM     34  C   UNL A   1      42.344  28.260  27.874  1.00  0.00     0.031 A 
ATOM     35  C   UNL A   1      43.256  29.431  28.120  1.00  0.00     0.074 A 
ATOM     36  C   UNL A   1      42.833  27.106  27.386  1.00  0.00     0.049 A 
ATOM     37  N   UNL A   1      44.539  29.542  27.894  1.00  0.00    -0.248 NA
ATOM     38  C   UNL A   1      42.640  30.636  28.702  1.00  0.00     0.031 C 
ATOM     39  C   UNL A   1      42.056  25.887  27.160  1.00  0.00     0.029 A 
ATOM     40  N   UNL A   1      44.106  26.770  26.999  1.00  0.00    -0.354 N 
ATOM     41  C   UNL A   1      44.884  30.825  28.303  1.00  0.00     0.074 A 
ATOM     42  C   UNL A   1      43.672  31.465  28.765  1.00  0.00     0.031 C 
ATOM     43  C   UNL A   1      42.871  24.935  26.672  1.00  0.00     0.029 A 
ATOM     44  C   UNL A   1      44.217  25.485  26.523  1.00  0.00     0.049 A 
ATOM     45  H   UNL A   1      44.867  27.392  27.056  1.00  0.00     0.167 HD
ATOM     46  C   UNL A   1      46.101  31.418  28.297  1.00  0.00     0.031 A 
ATOM     47  C   UNL A   1      45.280  24.836  26.008  1.00  0.00     0.031 A 
ATOM     48  C   UNL A   1      47.301  30.782  27.824  1.00  0.00     0.049 A 
ATOM     49  C   UNL A   1      46.604  25.549  25.923  1.00  0.00     0.074 A 
ATOM     50  C   UNL A   1      48.589  31.285  27.797  1.00  0.00     0.029 A 
ATOM     51  N   UNL A   1      47.357  29.507  27.282  1.00  0.00    -0.354 N 
ATOM     52  N   UNL A   1      46.920  26.751  26.342  1.00  0.00    -0.248 NA
ATOM     53  C   UNL A   1      47.712  24.819  25.292  1.00  0.00     0.031 C 
ATOM     54  C   UNL A   1      49.414  30.337  27.182  1.00  0.00     0.029 A 
ATOM     55  C   UNL A   1      48.649  29.222  26.877  1.00  0.00     0.049 A 
ATOM     56  H   UNL A   1      46.590  28.894  27.199  1.00  0.00     0.167 HD
ATOM     57  C   UNL A   1      48.267  26.919  26.034  1.00  0.00     0.074 A 
ATOM     58  C   UNL A   1      48.709  25.687  25.410  1.00  0.00     0.031 C 
ATOM     59  C   UNL A   1      49.064  27.994  26.245  1.00  0.00     0.031 A 
BRANCH  46  60
ATOM     60  C   UNL A   1      46.185  32.841  28.778  1.00  0.00    -0.014 A 
ATOM     61  C   UNL A   1      46.447  33.142  30.128  1.00  0.00     0.010 A 
ATOM     62  C   UNL A   1      46.025  33.894  27.860  1.00  0.00     0.010 A 
ATOM     63  C   UNL A   1      46.511  34.473  30.555  1.00  0.00     0.020 A 
ATOM     64  C   UNL A   1      46.111  35.225  28.279  1.00  0.00     0.020 A 
ATOM     65  C   UNL A   1      46.337  35.505  29.628  1.00  0.00     0.054 A 
BRANCH  65  66
ATOM     66  S   UNL A   1      46.438  37.222  30.206  1.00  0.00     0.124 S 
ATOM     67  O   UNL A   1      46.109  37.083  31.622  1.00  0.00    -0.237 OA
ATOM     68  O   UNL A   1      47.825  37.577  29.916  1.00  0.00    -0.237 OA
ATOM     69  O   UNL A   1      45.439  37.919  29.400  1.00  0.00    -0.744 OA
ENDBRANCH  65  66
ENDBRANCH  46  60
BRANCH  47  70
ATOM     70  C   UNL A   1      45.126  23.445  25.502  1.00  0.00    -0.014 A 
ATOM     71  C   UNL A   1      44.605  23.198  24.220  1.00  0.00     0.010 A 
ATOM     72  C   UNL A   1      45.512  22.356  26.305  1.00  0.00     0.010 A 
ATOM     73  C   UNL A   1      44.470  21.886  23.752  1.00  0.00     0.020 A 
ATOM     74  C   UNL A   1      45.401  21.045  25.831  1.00  0.00     0.020 A 
ATOM     75  C   UNL A   1      44.873  20.819  24.560  1.00  0.00     0.054 A 
BRANCH  75  76
ATOM     76  S   UNL A   1      44.752  19.129  23.907  1.00  0.00     0.124 S 
ATOM     77  O   UNL A   1      46.053  18.573  24.265  1.00  0.00    -0.237 OA
ATOM     78  O   UNL A   1      43.608  18.590  24.637  1.00  0.00    -0.237 OA
ATOM     79  O   UNL A   1      44.529  19.332  22.478  1.00  0.00    -0.744 OA
ENDBRANCH  75  76
ENDBRANCH  47  70
BRANCH  59  80
ATOM     80  C   UNL A   1      50.497  27.894  25.797  1.00  0.00    -0.014 A 
ATOM     81  C   UNL A   1      51.501  27.475  26.687  1.00  0.00     0.010 A 
ATOM     82  C   UNL A   1      50.830  28.147  24.454  1.00  0.00     0.010 A 
ATOM     83  C   UNL A   1      52.818  27.327  26.245  1.00  0.00     0.020 A 
ATOM     84  C   UNL A   1      52.141  27.977  24.003  1.00  0.00     0.020 A 
ATOM     85  C   UNL A   1      53.129  27.577  24.906  1.00  0.00     0.054 A 
BRANCH  85  86
ATOM     86  S   UNL A   1      54.834  27.318  24.343  1.00  0.00     0.124 S 
ATOM     87  O   UNL A   1      55.330  26.347  25.316  1.00  0.00    -0.237 OA
ATOM     88  O   UNL A   1      54.651  26.810  22.986  1.00  0.00    -0.237 OA
ATOM     89  O   UNL A   1      55.434  28.648  24.428  1.00  0.00    -0.744 OA
ENDBRANCH  85  86
ENDBRANCH  59  80
ENDBRANCH  33  34
ENDBRANCH  26  28
ENDBRANCH  25  26
ENDBRANCH  24  25
ENDBRANCH   1  24
TORSDOF 19
ENDMDL
MODEL 3
REMARK VINA RESULT:      -8.9      0.539      8.215
REMARK SMILES Cc1cc(C)cc(C(=O)N2CC[C@H](C(=O)OCCOCCOC(=O)c3ccc(-c4c5nc(c(-c6ccc(S(=O)(=O)[O-])cc6)c6ccc([nH]6)c(-c6ccc(S(=O)(=O)[O-])cc6)c6nc(c(-c7ccc(S(=O)(=O)[O-])cc7)c7ccc4[nH]7)C=C6)C=C5)cc3)[C@@H]2C)c1
REMARK SMILES IDX 20 1 19 2 18 3 17 4 16 5 14 6 15 7 13 8 10 9 11 10 85 11
REMARK SMILES IDX 12 12 86 13 8 14 9 15 7 16 1 17 2 18 3 19 87 20 4 21 5 22
REMARK SMILES IDX 6 23 21 24 22 25 23 26 24 27 25 28 26 29 84 30 27 31 83 32
REMARK SMILES IDX 28 33 29 34 30 35 77 36 31 37 82 38 76 39 78 40 32 41 81 42
REMARK SMILES IDX 75 43 74 44 33 46 63 47 44 48 62 49 45 50 48 51 61 52 79 53
REMARK SMILES IDX 46 54 47 55 60 57 80 58 49 59 34 60 35 61 43 62 36 63 42 64
REMARK SMILES IDX 37 65 38 66 39 67 40 68 41 69 64 70 65 71 73 72 66 73 72 74
REMARK SMILES IDX 67 75 68 76 69 77 70 78 71 79 50 80 51 81 59 82 52 83 58 84
REMARK SMILES IDX 53 85 54 86 55 87 56 88 57 89
REMARK H PARENT 78 45 48 56
REMARK Flexibility Score: inf
ROOT
ATOM      1  C   UNL A   1      41.931  19.544  26.325  1.00  0.00     0.202 C 
ENDROOT
BRANCH   1   2
ATOM      2  O   UNL A   1      42.618  19.217  25.119  1.00  0.00    -0.374 OA
BRANCH   2   3
ATOM      3  C   UNL A   1      44.006  18.906  25.271  1.00  0.00     0.202 C 
BRANCH   3   4
ATOM      4  C   UNL A   1      44.985  19.918  24.669  1.00  0.00     0.261 C 
BRANCH   4   5
ATOM      5  O   UNL A   1      44.327  20.984  23.949  1.00  0.00    -0.463 OA
BRANCH   5   6
ATOM      6  C   UNL A   1      44.497  22.233  24.466  1.00  0.00     0.311 C 
ATOM      7  O   UNL A   1      43.708  23.156  24.319  1.00  0.00    -0.252 OA
BRANCH   6   8
ATOM      8  C   UNL A   1      45.838  22.353  25.169  1.00  0.00     0.123 C 
ATOM      9  N   UNL A   1      46.338  24.496  26.122  1.00  0.00    -0.335 N 
ATOM     10  C   UNL A   1      46.478  24.596  24.682  1.00  0.00     0.121 C 
ATOM     11  C   UNL A   1      45.907  23.135  26.503  1.00  0.00     0.096 C 
ATOM     12  C   UNL A   1      46.779  23.166  24.266  1.00  0.00     0.039 C 
ATOM     13  C   UNL A   1      44.657  23.141  27.367  1.00  0.00     0.032 C 
BRANCH   9  14
ATOM     14  C   UNL A   1      46.613  25.622  26.882  1.00  0.00     0.254 C 
ATOM     15  O   UNL A   1      47.664  25.718  27.519  1.00  0.00    -0.269 OA
BRANCH  14  16
ATOM     16  C   UNL A   1      45.612  26.711  27.049  1.00  0.00     0.040 A 
ATOM     17  C   UNL A   1      45.279  30.126  28.698  1.00  0.00     0.044 C 
ATOM     18  C   UNL A   1      44.981  28.920  27.856  1.00  0.00    -0.050 A 
ATOM     19  C   UNL A   1      43.848  28.890  27.036  1.00  0.00     0.006 A 
ATOM     20  C   UNL A   1      45.881  27.849  27.815  1.00  0.00     0.017 A 
ATOM     21  C   UNL A   1      43.592  27.790  26.207  1.00  0.00    -0.050 A 
ATOM     22  C   UNL A   1      42.450  27.838  25.235  1.00  0.00     0.044 C 
ATOM     23  C   UNL A   1      44.468  26.695  26.236  1.00  0.00     0.017 A 
ENDBRANCH  14  16
ENDBRANCH   9  14
ENDBRANCH   6   8
ENDBRANCH   5   6
ENDBRANCH   4   5
ENDBRANCH   3   4
ENDBRANCH   2   3
ENDBRANCH   1   2
BRANCH   1  24
ATOM     24  C   UNL A   1      40.515  20.096  26.141  1.00  0.00     0.261 C 
BRANCH  24  25
ATOM     25  O   UNL A   1      40.555  21.503  25.845  1.00  0.00    -0.460 OA
BRANCH  25  26
ATOM     26  C   UNL A   1      39.416  22.167  26.150  1.00  0.00     0.338 C 
ATOM     27  O   UNL A   1      38.272  21.734  26.090  1.00  0.00    -0.246 OA
BRANCH  26  28
ATOM     28  C   UNL A   1      39.738  23.465  26.767  1.00  0.00     0.060 A 
ATOM     29  C   UNL A   1      41.040  23.947  26.580  1.00  0.00     0.016 A 
ATOM     30  C   UNL A   1      38.821  24.178  27.543  1.00  0.00     0.016 A 
ATOM     31  C   UNL A   1      41.451  25.111  27.222  1.00  0.00     0.010 A 
ATOM     32  C   UNL A   1      39.239  25.344  28.196  1.00  0.00     0.010 A 
ATOM     33  C   UNL A   1      40.567  25.790  28.069  1.00  0.00    -0.014 A 
BRANCH  33  34
ATOM     34  C   UNL A   1      41.096  26.860  28.949  1.00  0.00     0.031 A 
ATOM     35  C   UNL A   1      40.259  28.091  29.169  1.00  0.00     0.074 A 
ATOM     36  C   UNL A   1      42.269  26.708  29.588  1.00  0.00     0.049 A 
ATOM     37  N   UNL A   1      40.509  29.139  29.910  1.00  0.00    -0.248 NA
ATOM     38  C   UNL A   1      38.967  28.145  28.464  1.00  0.00     0.031 C 
ATOM     39  C   UNL A   1      43.136  25.535  29.497  1.00  0.00     0.029 A 
ATOM     40  N   UNL A   1      42.928  27.549  30.450  1.00  0.00    -0.354 N 
ATOM     41  C   UNL A   1      39.411  29.977  29.760  1.00  0.00     0.074 A 
ATOM     42  C   UNL A   1      38.504  29.330  28.837  1.00  0.00     0.031 C 
ATOM     43  C   UNL A   1      44.218  25.731  30.273  1.00  0.00     0.029 A 
ATOM     44  C   UNL A   1      44.133  27.053  30.889  1.00  0.00     0.049 A 
ATOM     45  H   UNL A   1      42.573  28.424  30.725  1.00  0.00     0.167 HD
ATOM     46  C   UNL A   1      39.175  31.178  30.340  1.00  0.00     0.031 A 
ATOM     47  C   UNL A   1      45.068  27.612  31.683  1.00  0.00     0.031 A 
ATOM     48  C   UNL A   1      40.086  31.822  31.247  1.00  0.00     0.049 A 
ATOM     49  C   UNL A   1      44.827  28.990  32.241  1.00  0.00     0.074 A 
ATOM     50  C   UNL A   1      39.933  33.027  31.908  1.00  0.00     0.029 A 
ATOM     51  N   UNL A   1      41.327  31.321  31.609  1.00  0.00    -0.354 N 
ATOM     52  N   UNL A   1      43.770  29.756  32.114  1.00  0.00    -0.248 NA
ATOM     53  C   UNL A   1      45.907  29.580  33.045  1.00  0.00     0.031 C 
ATOM     54  C   UNL A   1      41.109  33.284  32.623  1.00  0.00     0.029 A 
ATOM     55  C   UNL A   1      41.971  32.212  32.450  1.00  0.00     0.049 A 
ATOM     56  H   UNL A   1      41.696  30.457  31.311  1.00  0.00     0.167 HD
ATOM     57  C   UNL A   1      44.053  30.915  32.830  1.00  0.00     0.074 A 
ATOM     58  C   UNL A   1      45.372  30.741  33.403  1.00  0.00     0.031 C 
ATOM     59  C   UNL A   1      43.291  32.024  32.997  1.00  0.00     0.031 A 
BRANCH  46  60
ATOM     60  C   UNL A   1      37.901  31.889  29.976  1.00  0.00    -0.014 A 
ATOM     61  C   UNL A   1      37.766  32.567  28.751  1.00  0.00     0.010 A 
ATOM     62  C   UNL A   1      36.809  31.855  30.863  1.00  0.00     0.010 A 
ATOM     63  C   UNL A   1      36.575  33.230  28.437  1.00  0.00     0.020 A 
ATOM     64  C   UNL A   1      35.610  32.496  30.543  1.00  0.00     0.020 A 
ATOM     65  C   UNL A   1      35.507  33.194  29.338  1.00  0.00     0.054 A 
BRANCH  65  66
ATOM     66  S   UNL A   1      33.968  34.050  28.901  1.00  0.00     0.124 S 
ATOM     67  O   UNL A   1      34.470  35.271  28.275  1.00  0.00    -0.237 OA
ATOM     68  O   UNL A   1      33.320  33.103  27.998  1.00  0.00    -0.237 OA
ATOM     69  O   UNL A   1      33.299  34.239  30.186  1.00  0.00    -0.744 OA
ENDBRANCH  65  66
ENDBRANCH  46  60
BRANCH  47  70
ATOM     70  C   UNL A   1      46.332  26.881  31.969  1.00  0.00    -0.014 A 
ATOM     71  C   UNL A   1      46.443  26.046  33.094  1.00  0.00     0.010 A 
ATOM     72  C   UNL A   1      47.435  27.013  31.104  1.00  0.00     0.010 A 
ATOM     73  C   UNL A   1      47.635  25.360  33.351  1.00  0.00     0.020 A 
ATOM     74  C   UNL A   1      48.619  26.310  31.344  1.00  0.00     0.020 A 
ATOM     75  C   UNL A   1      48.713  25.493  32.471  1.00  0.00     0.054 A 
BRANCH  75  76
ATOM     76  S   UNL A   1      50.226  24.541  32.785  1.00  0.00     0.124 S 
ATOM     77  O   UNL A   1      49.755  23.521  33.716  1.00  0.00    -0.237 OA
ATOM     78  O   UNL A   1      50.584  24.066  31.451  1.00  0.00    -0.237 OA
ATOM     79  O   UNL A   1      51.140  25.531  33.350  1.00  0.00    -0.744 OA
ENDBRANCH  75  76
ENDBRANCH  47  70
BRANCH  59  80
ATOM     80  C   UNL A   1      43.863  33.140  33.829  1.00  0.00    -0.014 A 
ATOM     81  C   UNL A   1      43.883  33.054  35.231  1.00  0.00     0.010 A 
ATOM     82  C   UNL A   1      44.455  34.250  33.198  1.00  0.00     0.010 A 
ATOM     83  C   UNL A   1      44.471  34.069  35.992  1.00  0.00     0.020 A 
ATOM     84  C   UNL A   1      45.065  35.254  33.954  1.00  0.00     0.020 A 
ATOM     85  C   UNL A   1      45.060  35.160  35.347  1.00  0.00     0.054 A 
BRANCH  85  86
ATOM     86  S   UNL A   1      45.871  36.433  36.355  1.00  0.00     0.124 S 
ATOM     87  O   UNL A   1      47.027  35.711  36.881  1.00  0.00    -0.237 OA
ATOM     88  O   UNL A   1      46.172  37.474  35.376  1.00  0.00    -0.237 OA
ATOM     89  O   UNL A   1      44.857  36.791  37.344  1.00  0.00    -0.744 OA
ENDBRANCH  85  86
ENDBRANCH  59  80
ENDBRANCH  33  34
ENDBRANCH  26  28
ENDBRANCH  25  26
ENDBRANCH  24  25
ENDBRANCH   1  24
TORSDOF 19
ENDMDL
