MODEL 1
REMARK VINA RESULT:     -11.5      0.000      0.000
REMARK SMILES C[C@]12CCC[C@](C)(C(=O)OCCOCCOC(=O)c3ccc(-c4c5nc(c(-c6ccc(S(=O)(=O)[O-])cc6)c6ccc([nH]6)c(-c6ccc(S(=O)(=O)[O-])cc6)c6nc(c(-c7ccc(S(=O)(=O)[O-])cc7)c7ccc4[nH]7)C=C6)C=C5)cc3)[C@@H]1CC[C@]13C=C(CO)[C@H](CC[C@H]12)C3
REMARK SMILES IDX 14 1 13 2 12 3 11 4 10 5 8 6 9 7 6 8 1 9 2 10 3 11 79 12
REMARK SMILES IDX 90 13 4 14 80 15 82 16 89 17 5 18 7 19 81 20 83 21 91 22
REMARK SMILES IDX 88 23 84 24 87 25 85 26 86 27 15 29 16 30 17 31 18 32 19 33
REMARK SMILES IDX 20 34 78 35 21 36 77 37 22 38 23 39 24 40 71 41 25 42 76 43
REMARK SMILES IDX 70 44 72 45 26 46 75 47 69 48 68 49 27 51 57 52 38 53 56 54
REMARK SMILES IDX 39 55 42 56 55 57 73 58 40 59 41 60 54 62 74 63 43 64 28 65
REMARK SMILES IDX 29 66 37 67 30 68 36 69 31 70 32 71 33 72 34 73 35 74 58 75
REMARK SMILES IDX 59 76 67 77 60 78 66 79 61 80 62 81 63 82 64 83 65 84 44 85
REMARK SMILES IDX 45 86 53 87 46 88 52 89 47 90 48 91 49 92 50 93 51 94
REMARK H PARENT 86 28 72 50 42 61
REMARK Flexibility Score: inf
ROOT
ATOM      1  C   UNL A   1      34.390  31.732  28.203  1.00  0.00     0.202 C 
ENDROOT
BRANCH   1   2
ATOM      2  O   UNL A   1      33.960  30.566  27.506  1.00  0.00    -0.374 OA
BRANCH   2   3
ATOM      3  C   UNL A   1      32.668  30.563  26.901  1.00  0.00     0.202 C 
BRANCH   3   4
ATOM      4  C   UNL A   1      31.778  29.304  27.013  1.00  0.00     0.261 C 
BRANCH   4   5
ATOM      5  O   UNL A   1      32.196  28.280  26.085  1.00  0.00    -0.463 OA
BRANCH   5   6
ATOM      6  C   UNL A   1      31.321  27.265  25.868  1.00  0.00     0.312 C 
ATOM      7  O   UNL A   1      30.649  26.801  26.781  1.00  0.00    -0.252 OA
BRANCH   6   8
ATOM      8  C   UNL A   1      31.213  26.840  24.330  1.00  0.00     0.069 C 
ATOM      9  C   UNL A   1      32.864  25.027  25.962  1.00  0.00     0.012 C 
ATOM     10  C   UNL A   1      33.019  24.945  24.418  1.00  0.00    -0.025 C 
ATOM     11  C   UNL A   1      34.071  25.941  23.886  1.00  0.00     0.007 C 
ATOM     12  C   UNL A   1      31.652  25.333  23.801  1.00  0.00     0.012 C 
ATOM     13  C   UNL A   1      33.508  23.493  24.193  1.00  0.00     0.005 C 
ATOM     14  C   UNL A   1      33.710  27.426  23.921  1.00  0.00     0.002 C 
ATOM     15  C   UNL A   1      30.647  24.144  23.776  1.00  0.00     0.006 C 
ATOM     16  C   UNL A   1      32.432  22.338  24.234  1.00  0.00    -0.008 C 
ATOM     17  C   UNL A   1      34.725  23.038  23.400  1.00  0.00     0.006 C 
ATOM     18  C   UNL A   1      32.245  27.772  23.616  1.00  0.00     0.019 C 
ATOM     19  C   UNL A   1      29.800  27.253  23.873  1.00  0.00     0.024 C 
ATOM     20  C   UNL A   1      31.222  22.743  23.401  1.00  0.00     0.012 C 
ATOM     21  C   UNL A   1      32.200  22.036  25.687  1.00  0.00    -0.018 C 
ATOM     22  C   UNL A   1      33.090  20.957  23.935  1.00  0.00     0.019 C 
ATOM     23  C   UNL A   1      35.339  21.900  24.310  1.00  0.00     0.008 C 
ATOM     24  C   UNL A   1      33.348  21.503  26.168  1.00  0.00    -0.045 C 
ATOM     25  C   UNL A   1      34.228  20.997  24.989  1.00  0.00     0.018 C 
BRANCH  24  26
ATOM     26  C   UNL A   1      33.669  21.563  27.626  1.00  0.00     0.187 C 
BRANCH  26  27
ATOM     27  O   UNL A   1      32.594  22.155  28.342  1.00  0.00    -0.392 OA
ATOM     28  H   UNL A   1      31.911  21.486  28.510  1.00  0.00     0.211 HD
ENDBRANCH  26  27
ENDBRANCH  24  26
ENDBRANCH   6   8
ENDBRANCH   5   6
ENDBRANCH   4   5
ENDBRANCH   3   4
ENDBRANCH   2   3
ENDBRANCH   1   2
BRANCH   1  29
ATOM     29  C   UNL A   1      35.682  31.743  29.020  1.00  0.00     0.261 C 
BRANCH  29  30
ATOM     30  O   UNL A   1      36.696  30.886  28.477  1.00  0.00    -0.460 OA
BRANCH  30  31
ATOM     31  C   UNL A   1      37.057  29.857  29.278  1.00  0.00     0.338 C 
ATOM     32  O   UNL A   1      36.348  29.269  30.085  1.00  0.00    -0.246 OA
BRANCH  31  33
ATOM     33  C   UNL A   1      38.376  29.356  28.861  1.00  0.00     0.060 A 
ATOM     34  C   UNL A   1      39.234  28.892  29.869  1.00  0.00     0.016 A 
ATOM     35  C   UNL A   1      38.777  29.357  27.525  1.00  0.00     0.016 A 
ATOM     36  C   UNL A   1      40.511  28.454  29.550  1.00  0.00     0.010 A 
ATOM     37  C   UNL A   1      40.075  28.953  27.210  1.00  0.00     0.010 A 
ATOM     38  C   UNL A   1      40.953  28.532  28.226  1.00  0.00    -0.014 A 
BRANCH  38  39
ATOM     39  C   UNL A   1      42.395  28.368  27.948  1.00  0.00     0.031 A 
ATOM     40  C   UNL A   1      43.298  29.547  28.174  1.00  0.00     0.074 A 
ATOM     41  C   UNL A   1      42.887  27.190  27.534  1.00  0.00     0.049 A 
ATOM     42  N   UNL A   1      44.581  29.660  27.959  1.00  0.00    -0.248 NA
ATOM     43  C   UNL A   1      42.664  30.763  28.713  1.00  0.00     0.031 C 
ATOM     44  C   UNL A   1      42.105  25.970  27.340  1.00  0.00     0.029 A 
ATOM     45  N   UNL A   1      44.165  26.834  27.190  1.00  0.00    -0.354 N 
ATOM     46  C   UNL A   1      44.906  30.964  28.315  1.00  0.00     0.074 A 
ATOM     47  C   UNL A   1      43.684  31.607  28.745  1.00  0.00     0.031 C 
ATOM     48  C   UNL A   1      42.919  25.003  26.883  1.00  0.00     0.029 A 
ATOM     49  C   UNL A   1      44.265  25.549  26.717  1.00  0.00     0.049 A 
ATOM     50  H   UNL A   1      44.936  27.441  27.274  1.00  0.00     0.167 HD
ATOM     51  C   UNL A   1      46.115  31.570  28.277  1.00  0.00     0.031 A 
ATOM     52  C   UNL A   1      45.315  24.904  26.172  1.00  0.00     0.031 A 
ATOM     53  C   UNL A   1      47.315  30.921  27.822  1.00  0.00     0.049 A 
ATOM     54  C   UNL A   1      46.635  25.619  26.063  1.00  0.00     0.074 A 
ATOM     55  C   UNL A   1      48.601  31.427  27.771  1.00  0.00     0.029 A 
ATOM     56  N   UNL A   1      47.372  29.629  27.317  1.00  0.00    -0.354 N 
ATOM     57  N   UNL A   1      46.946  26.836  26.448  1.00  0.00    -0.248 NA
ATOM     58  C   UNL A   1      47.745  24.880  25.451  1.00  0.00     0.031 C 
ATOM     59  C   UNL A   1      49.420  30.471  27.162  1.00  0.00     0.029 A 
ATOM     60  C   UNL A   1      48.660  29.339  26.902  1.00  0.00     0.049 A 
ATOM     61  H   UNL A   1      46.609  29.010  27.263  1.00  0.00     0.167 HD
ATOM     62  C   UNL A   1      48.289  27.005  26.130  1.00  0.00     0.074 A 
ATOM     63  C   UNL A   1      48.737  25.757  25.544  1.00  0.00     0.031 C 
ATOM     64  C   UNL A   1      49.080  28.095  26.304  1.00  0.00     0.031 A 
BRANCH  51  65
ATOM     65  C   UNL A   1      46.175  33.024  28.667  1.00  0.00    -0.014 A 
ATOM     66  C   UNL A   1      46.446  33.426  29.987  1.00  0.00     0.010 A 
ATOM     67  C   UNL A   1      45.954  34.008  27.685  1.00  0.00     0.010 A 
ATOM     68  C   UNL A   1      46.442  34.782  30.329  1.00  0.00     0.020 A 
ATOM     69  C   UNL A   1      45.980  35.365  28.016  1.00  0.00     0.020 A 
ATOM     70  C   UNL A   1      46.203  35.742  29.341  1.00  0.00     0.054 A 
BRANCH  70  71
ATOM     71  S   UNL A   1      46.197  37.494  29.812  1.00  0.00     0.124 S 
ATOM     72  O   UNL A   1      47.499  37.943  29.324  1.00  0.00    -0.237 OA
ATOM     73  O   UNL A   1      45.041  38.016  29.086  1.00  0.00    -0.237 OA
ATOM     74  O   UNL A   1      46.055  37.463  31.266  1.00  0.00    -0.744 OA
ENDBRANCH  70  71
ENDBRANCH  51  65
BRANCH  52  75
ATOM     75  C   UNL A   1      45.131  23.523  25.648  1.00  0.00    -0.014 A 
ATOM     76  C   UNL A   1      44.803  23.297  24.302  1.00  0.00     0.010 A 
ATOM     77  C   UNL A   1      45.337  22.417  26.496  1.00  0.00     0.010 A 
ATOM     78  C   UNL A   1      44.693  21.991  23.810  1.00  0.00     0.020 A 
ATOM     79  C   UNL A   1      45.255  21.112  26.003  1.00  0.00     0.020 A 
ATOM     80  C   UNL A   1      44.930  20.907  24.662  1.00  0.00     0.054 A 
BRANCH  80  81
ATOM     81  S   UNL A   1      44.869  19.228  23.978  1.00  0.00     0.124 S 
ATOM     82  O   UNL A   1      43.830  18.604  24.793  1.00  0.00    -0.237 OA
ATOM     83  O   UNL A   1      44.517  19.471  22.581  1.00  0.00    -0.237 OA
ATOM     84  O   UNL A   1      46.222  18.719  24.192  1.00  0.00    -0.744 OA
ENDBRANCH  80  81
ENDBRANCH  52  75
BRANCH  64  85
ATOM     85  C   UNL A   1      50.515  27.992  25.856  1.00  0.00    -0.014 A 
ATOM     86  C   UNL A   1      51.525  27.587  26.746  1.00  0.00     0.010 A 
ATOM     87  C   UNL A   1      50.841  28.219  24.506  1.00  0.00     0.010 A 
ATOM     88  C   UNL A   1      52.838  27.427  26.298  1.00  0.00     0.020 A 
ATOM     89  C   UNL A   1      52.147  28.029  24.048  1.00  0.00     0.020 A 
ATOM     90  C   UNL A   1      53.140  27.642  24.950  1.00  0.00     0.054 A 
BRANCH  90  91
ATOM     91  S   UNL A   1      54.839  27.358  24.382  1.00  0.00     0.124 S 
ATOM     92  O   UNL A   1      55.253  28.698  23.977  1.00  0.00    -0.237 OA
ATOM     93  O   UNL A   1      55.491  26.832  25.579  1.00  0.00    -0.237 OA
ATOM     94  O   UNL A   1      54.685  26.398  23.290  1.00  0.00    -0.744 OA
ENDBRANCH  90  91
ENDBRANCH  64  85
ENDBRANCH  38  39
ENDBRANCH  31  33
ENDBRANCH  30  31
ENDBRANCH  29  30
ENDBRANCH   1  29
TORSDOF 19
ENDMDL
MODEL 2
REMARK VINA RESULT:     -11.4      6.368     12.155
REMARK SMILES C[C@]12CCC[C@](C)(C(=O)OCCOCCOC(=O)c3ccc(-c4c5nc(c(-c6ccc(S(=O)(=O)[O-])cc6)c6ccc([nH]6)c(-c6ccc(S(=O)(=O)[O-])cc6)c6nc(c(-c7ccc(S(=O)(=O)[O-])cc7)c7ccc4[nH]7)C=C6)C=C5)cc3)[C@@H]1CC[C@]13C=C(CO)[C@H](CC[C@H]12)C3
REMARK SMILES IDX 14 1 13 2 12 3 11 4 10 5 8 6 9 7 6 8 1 9 2 10 3 11 79 12
REMARK SMILES IDX 90 13 4 14 80 15 82 16 89 17 5 18 7 19 81 20 83 21 91 22
REMARK SMILES IDX 88 23 84 24 87 25 85 26 86 27 15 29 16 30 17 31 18 32 19 33
REMARK SMILES IDX 20 34 78 35 21 36 77 37 22 38 23 39 24 40 71 41 25 42 76 43
REMARK SMILES IDX 70 44 72 45 26 46 75 47 69 48 68 49 27 51 57 52 38 53 56 54
REMARK SMILES IDX 39 55 42 56 55 57 73 58 40 59 41 60 54 62 74 63 43 64 28 65
REMARK SMILES IDX 29 66 37 67 30 68 36 69 31 70 32 71 33 72 34 73 35 74 58 75
REMARK SMILES IDX 59 76 67 77 60 78 66 79 61 80 62 81 63 82 64 83 65 84 44 85
REMARK SMILES IDX 45 86 53 87 46 88 52 89 47 90 48 91 49 92 50 93 51 94
REMARK H PARENT 86 28 72 50 42 61
REMARK Flexibility Score: inf
ROOT
ATOM      1  C   UNL A   1      39.680  22.632  26.699  1.00  0.00     0.202 C 
ENDROOT
BRANCH   1   2
ATOM      2  O   UNL A   1      38.776  21.900  25.875  1.00  0.00    -0.374 OA
BRANCH   2   3
ATOM      3  C   UNL A   1      37.514  22.481  25.551  1.00  0.00     0.202 C 
BRANCH   3   4
ATOM      4  C   UNL A   1      36.892  22.223  24.160  1.00  0.00     0.261 C 
BRANCH   4   5
ATOM      5  O   UNL A   1      35.541  21.725  24.271  1.00  0.00    -0.463 OA
BRANCH   5   6
ATOM      6  C   UNL A   1      34.576  22.446  23.646  1.00  0.00     0.312 C 
ATOM      7  O   UNL A   1      34.827  23.110  22.647  1.00  0.00    -0.252 OA
BRANCH   6   8
ATOM      8  C   UNL A   1      33.124  22.253  24.289  1.00  0.00     0.069 C 
ATOM      9  C   UNL A   1      33.971  25.065  24.065  1.00  0.00     0.012 C 
ATOM     10  C   UNL A   1      32.789  24.745  25.021  1.00  0.00    -0.025 C 
ATOM     11  C   UNL A   1      33.272  24.379  26.440  1.00  0.00     0.007 C 
ATOM     12  C   UNL A   1      32.056  23.509  24.443  1.00  0.00     0.012 C 
ATOM     13  C   UNL A   1      32.001  26.078  25.061  1.00  0.00     0.005 C 
ATOM     14  C   UNL A   1      33.975  23.033  26.616  1.00  0.00     0.002 C 
ATOM     15  C   UNL A   1      31.055  23.882  23.310  1.00  0.00     0.006 C 
ATOM     16  C   UNL A   1      31.045  26.405  23.848  1.00  0.00    -0.008 C 
ATOM     17  C   UNL A   1      31.559  26.857  26.292  1.00  0.00     0.006 C 
ATOM     18  C   UNL A   1      33.427  21.871  25.774  1.00  0.00     0.019 C 
ATOM     19  C   UNL A   1      32.513  21.021  23.593  1.00  0.00     0.024 C 
ATOM     20  C   UNL A   1      30.208  25.176  23.515  1.00  0.00     0.012 C 
ATOM     21  C   UNL A   1      31.925  26.956  22.761  1.00  0.00    -0.018 C 
ATOM     22  C   UNL A   1      30.297  27.753  24.080  1.00  0.00     0.019 C 
ATOM     23  C   UNL A   1      31.859  28.356  25.892  1.00  0.00     0.008 C 
ATOM     24  C   UNL A   1      32.401  28.144  23.201  1.00  0.00    -0.045 C 
ATOM     25  C   UNL A   1      31.519  28.662  24.375  1.00  0.00     0.018 C 
BRANCH  24  26
ATOM     26  C   UNL A   1      33.667  28.716  22.651  1.00  0.00     0.187 C 
BRANCH  26  27
ATOM     27  O   UNL A   1      34.043  28.025  21.467  1.00  0.00    -0.392 OA
ATOM     28  H   UNL A   1      33.306  27.467  21.172  1.00  0.00     0.211 HD
ENDBRANCH  26  27
ENDBRANCH  24  26
ENDBRANCH   6   8
ENDBRANCH   5   6
ENDBRANCH   4   5
ENDBRANCH   3   4
ENDBRANCH   2   3
ENDBRANCH   1   2
BRANCH   1  29
ATOM     29  C   UNL A   1      41.194  22.478  26.556  1.00  0.00     0.261 C 
BRANCH  29  30
ATOM     30  O   UNL A   1      41.930  23.310  27.464  1.00  0.00    -0.460 OA
BRANCH  30  31
ATOM     31  C   UNL A   1      42.353  24.483  26.941  1.00  0.00     0.338 C 
ATOM     32  O   UNL A   1      42.862  24.659  25.841  1.00  0.00    -0.246 OA
BRANCH  31  33
ATOM     33  C   UNL A   1      41.878  25.591  27.785  1.00  0.00     0.060 A 
ATOM     34  C   UNL A   1      42.685  26.736  27.857  1.00  0.00     0.016 A 
ATOM     35  C   UNL A   1      40.687  25.509  28.507  1.00  0.00     0.016 A 
ATOM     36  C   UNL A   1      42.321  27.796  28.674  1.00  0.00     0.010 A 
ATOM     37  C   UNL A   1      40.341  26.559  29.359  1.00  0.00     0.010 A 
ATOM     38  C   UNL A   1      41.175  27.688  29.467  1.00  0.00    -0.014 A 
BRANCH  38  39
ATOM     39  C   UNL A   1      40.968  28.667  30.554  1.00  0.00     0.031 A 
ATOM     40  C   UNL A   1      41.834  28.561  31.776  1.00  0.00     0.074 A 
ATOM     41  C   UNL A   1      40.055  29.644  30.438  1.00  0.00     0.049 A 
ATOM     42  N   UNL A   1      41.811  29.271  32.872  1.00  0.00    -0.248 NA
ATOM     43  C   UNL A   1      42.864  27.506  31.760  1.00  0.00     0.031 C 
ATOM     44  C   UNL A   1      39.205  29.870  29.270  1.00  0.00     0.029 A 
ATOM     45  N   UNL A   1      39.682  30.620  31.324  1.00  0.00    -0.354 N 
ATOM     46  C   UNL A   1      42.804  28.738  33.685  1.00  0.00     0.074 A 
ATOM     47  C   UNL A   1      43.402  27.636  32.963  1.00  0.00     0.031 C 
ATOM     48  C   UNL A   1      38.387  30.906  29.524  1.00  0.00     0.029 A 
ATOM     49  C   UNL A   1      38.630  31.385  30.883  1.00  0.00     0.049 A 
ATOM     50  H   UNL A   1      40.124  30.759  32.193  1.00  0.00     0.167 HD
ATOM     51  C   UNL A   1      43.178  29.128  34.925  1.00  0.00     0.031 A 
ATOM     52  C   UNL A   1      37.920  32.336  31.522  1.00  0.00     0.031 A 
ATOM     53  C   UNL A   1      42.554  30.211  35.638  1.00  0.00     0.049 A 
ATOM     54  C   UNL A   1      38.296  32.704  32.932  1.00  0.00     0.074 A 
ATOM     55  C   UNL A   1      42.872  30.716  36.885  1.00  0.00     0.029 A 
ATOM     56  N   UNL A   1      41.469  30.942  35.173  1.00  0.00    -0.354 N 
ATOM     57  N   UNL A   1      39.270  32.229  33.675  1.00  0.00    -0.248 NA
ATOM     58  C   UNL A   1      37.485  33.735  33.591  1.00  0.00     0.031 C 
ATOM     59  C   UNL A   1      41.929  31.697  37.209  1.00  0.00     0.029 A 
ATOM     60  C   UNL A   1      41.070  31.858  36.131  1.00  0.00     0.049 A 
ATOM     61  H   UNL A   1      41.046  30.827  34.292  1.00  0.00     0.167 HD
ATOM     62  C   UNL A   1      39.191  32.908  34.887  1.00  0.00     0.074 A 
ATOM     63  C   UNL A   1      38.091  33.844  34.767  1.00  0.00     0.031 C 
ATOM     64  C   UNL A   1      39.959  32.768  35.998  1.00  0.00     0.031 A 
BRANCH  51  65
ATOM     65  C   UNL A   1      44.255  28.330  35.610  1.00  0.00    -0.014 A 
ATOM     66  C   UNL A   1      43.955  27.205  36.399  1.00  0.00     0.010 A 
ATOM     67  C   UNL A   1      45.599  28.719  35.459  1.00  0.00     0.010 A 
ATOM     68  C   UNL A   1      44.974  26.516  37.066  1.00  0.00     0.020 A 
ATOM     69  C   UNL A   1      46.623  28.014  36.098  1.00  0.00     0.020 A 
ATOM     70  C   UNL A   1      46.301  26.930  36.915  1.00  0.00     0.054 A 
BRANCH  70  71
ATOM     71  S   UNL A   1      47.602  26.023  37.795  1.00  0.00     0.124 S 
ATOM     72  O   UNL A   1      48.496  27.102  38.208  1.00  0.00    -0.237 OA
ATOM     73  O   UNL A   1      46.862  25.373  38.875  1.00  0.00    -0.237 OA
ATOM     74  O   UNL A   1      48.143  25.120  36.783  1.00  0.00    -0.744 OA
ENDBRANCH  70  71
ENDBRANCH  51  65
BRANCH  52  75
ATOM     75  C   UNL A   1      36.753  32.958  30.838  1.00  0.00    -0.014 A 
ATOM     76  C   UNL A   1      35.439  32.609  31.185  1.00  0.00     0.010 A 
ATOM     77  C   UNL A   1      36.962  33.953  29.862  1.00  0.00     0.010 A 
ATOM     78  C   UNL A   1      34.353  33.247  30.575  1.00  0.00     0.020 A 
ATOM     79  C   UNL A   1      35.881  34.612  29.271  1.00  0.00     0.020 A 
ATOM     80  C   UNL A   1      34.582  34.252  29.629  1.00  0.00     0.054 A 
BRANCH  80  81
ATOM     81  S   UNL A   1      33.158  35.126  28.920  1.00  0.00     0.124 S 
ATOM     82  O   UNL A   1      32.661  34.159  27.946  1.00  0.00    -0.237 OA
ATOM     83  O   UNL A   1      32.308  35.340  30.089  1.00  0.00    -0.237 OA
ATOM     84  O   UNL A   1      33.745  36.339  28.355  1.00  0.00    -0.744 OA
ENDBRANCH  80  81
ENDBRANCH  52  75
BRANCH  64  85
ATOM     85  C   UNL A   1      39.638  33.645  37.180  1.00  0.00    -0.014 A 
ATOM     86  C   UNL A   1      38.845  33.172  38.240  1.00  0.00     0.010 A 
ATOM     87  C   UNL A   1      40.210  34.928  37.271  1.00  0.00     0.010 A 
ATOM     88  C   UNL A   1      38.617  33.971  39.363  1.00  0.00     0.020 A 
ATOM     89  C   UNL A   1      40.009  35.718  38.406  1.00  0.00     0.020 A 
ATOM     90  C   UNL A   1      39.206  35.237  39.442  1.00  0.00     0.054 A 
BRANCH  90  91
ATOM     91  S   UNL A   1      38.949  36.224  40.942  1.00  0.00     0.124 S 
ATOM     92  O   UNL A   1      38.620  37.535  40.391  1.00  0.00    -0.237 OA
ATOM     93  O   UNL A   1      37.849  35.523  41.600  1.00  0.00    -0.237 OA
ATOM     94  O   UNL A   1      40.234  36.145  41.634  1.00  0.00    -0.744 OA
ENDBRANCH  90  91
ENDBRANCH  64  85
ENDBRANCH  38  39
ENDBRANCH  31  33
ENDBRANCH  30  31
ENDBRANCH  29  30
ENDBRANCH   1  29
TORSDOF 19
ENDMDL
MODEL 3
REMARK VINA RESULT:     -11.2      2.351      8.968
REMARK SMILES C[C@]12CCC[C@](C)(C(=O)OCCOCCOC(=O)c3ccc(-c4c5nc(c(-c6ccc(S(=O)(=O)[O-])cc6)c6ccc([nH]6)c(-c6ccc(S(=O)(=O)[O-])cc6)c6nc(c(-c7ccc(S(=O)(=O)[O-])cc7)c7ccc4[nH]7)C=C6)C=C5)cc3)[C@@H]1CC[C@]13C=C(CO)[C@H](CC[C@H]12)C3
REMARK SMILES IDX 14 1 13 2 12 3 11 4 10 5 8 6 9 7 6 8 1 9 2 10 3 11 79 12
REMARK SMILES IDX 90 13 4 14 80 15 82 16 89 17 5 18 7 19 81 20 83 21 91 22
REMARK SMILES IDX 88 23 84 24 87 25 85 26 86 27 15 29 16 30 17 31 18 32 19 33
REMARK SMILES IDX 20 34 78 35 21 36 77 37 22 38 23 39 24 40 71 41 25 42 76 43
REMARK SMILES IDX 70 44 72 45 26 46 75 47 69 48 68 49 27 51 57 52 38 53 56 54
REMARK SMILES IDX 39 55 42 56 55 57 73 58 40 59 41 60 54 62 74 63 43 64 28 65
REMARK SMILES IDX 29 66 37 67 30 68 36 69 31 70 32 71 33 72 34 73 35 74 58 75
REMARK SMILES IDX 59 76 67 77 60 78 66 79 61 80 62 81 63 82 64 83 65 84 44 85
REMARK SMILES IDX 45 86 53 87 46 88 52 89 47 90 48 91 49 92 50 93 51 94
REMARK H PARENT 86 28 72 50 42 61
REMARK Flexibility Score: inf
ROOT
ATOM      1  C   UNL A   1      39.149  21.922  26.127  1.00  0.00     0.202 C 
ENDROOT
BRANCH   1   2
ATOM      2  O   UNL A   1      37.793  22.357  26.180  1.00  0.00    -0.374 OA
BRANCH   2   3
ATOM      3  C   UNL A   1      37.281  23.147  25.108  1.00  0.00     0.202 C 
BRANCH   3   4
ATOM      4  C   UNL A   1      36.661  22.448  23.876  1.00  0.00     0.261 C 
BRANCH   4   5
ATOM      5  O   UNL A   1      35.310  22.012  24.142  1.00  0.00    -0.463 OA
BRANCH   5   6
ATOM      6  C   UNL A   1      34.326  22.625  23.437  1.00  0.00     0.312 C 
ATOM      7  O   UNL A   1      34.562  23.188  22.375  1.00  0.00    -0.252 OA
BRANCH   6   8
ATOM      8  C   UNL A   1      32.876  22.447  24.087  1.00  0.00     0.069 C 
ATOM      9  C   UNL A   1      33.797  25.241  23.962  1.00  0.00     0.012 C 
ATOM     10  C   UNL A   1      32.616  24.917  24.918  1.00  0.00    -0.025 C 
ATOM     11  C   UNL A   1      33.103  24.483  26.317  1.00  0.00     0.007 C 
ATOM     12  C   UNL A   1      31.844  23.724  24.300  1.00  0.00     0.012 C 
ATOM     13  C   UNL A   1      31.866  26.268  25.017  1.00  0.00     0.005 C 
ATOM     14  C   UNL A   1      33.769  23.113  26.433  1.00  0.00     0.002 C 
ATOM     15  C   UNL A   1      30.843  24.168  23.193  1.00  0.00     0.006 C 
ATOM     16  C   UNL A   1      30.908  26.668  23.828  1.00  0.00    -0.008 C 
ATOM     17  C   UNL A   1      31.457  27.010  26.283  1.00  0.00     0.006 C 
ATOM     18  C   UNL A   1      33.181  22.000  25.553  1.00  0.00     0.019 C 
ATOM     19  C   UNL A   1      32.224  21.260  23.351  1.00  0.00     0.024 C 
ATOM     20  C   UNL A   1      30.034  25.476  23.457  1.00  0.00     0.012 C 
ATOM     21  C   UNL A   1      31.791  27.236  22.754  1.00  0.00    -0.018 C 
ATOM     22  C   UNL A   1      30.199  28.025  24.120  1.00  0.00     0.019 C 
ATOM     23  C   UNL A   1      31.794  28.515  25.937  1.00  0.00     0.008 C 
ATOM     24  C   UNL A   1      32.304  28.393  23.235  1.00  0.00    -0.045 C 
ATOM     25  C   UNL A   1      31.448  28.889  24.436  1.00  0.00     0.018 C 
BRANCH  24  26
ATOM     26  C   UNL A   1      33.580  28.951  22.694  1.00  0.00     0.187 C 
BRANCH  26  27
ATOM     27  O   UNL A   1      33.996  28.209  21.555  1.00  0.00    -0.392 OA
ATOM     28  H   UNL A   1      34.837  27.766  21.748  1.00  0.00     0.211 HD
ENDBRANCH  26  27
ENDBRANCH  24  26
ENDBRANCH   6   8
ENDBRANCH   5   6
ENDBRANCH   4   5
ENDBRANCH   3   4
ENDBRANCH   2   3
ENDBRANCH   1   2
BRANCH   1  29
ATOM     29  C   UNL A   1      39.512  20.489  25.738  1.00  0.00     0.261 C 
BRANCH  29  30
ATOM     30  O   UNL A   1      40.420  19.871  26.661  1.00  0.00    -0.460 OA
BRANCH  30  31
ATOM     31  C   UNL A   1      41.680  19.713  26.196  1.00  0.00     0.338 C 
ATOM     32  O   UNL A   1      42.111  18.771  25.541  1.00  0.00    -0.246 OA
BRANCH  31  33
ATOM     33  C   UNL A   1      42.423  20.971  26.365  1.00  0.00     0.060 A 
ATOM     34  C   UNL A   1      42.581  21.453  27.673  1.00  0.00     0.016 A 
ATOM     35  C   UNL A   1      42.934  21.677  25.276  1.00  0.00     0.016 A 
ATOM     36  C   UNL A   1      43.227  22.660  27.898  1.00  0.00     0.010 A 
ATOM     37  C   UNL A   1      43.549  22.911  25.500  1.00  0.00     0.010 A 
ATOM     38  C   UNL A   1      43.666  23.417  26.808  1.00  0.00    -0.014 A 
BRANCH  38  39
ATOM     39  C   UNL A   1      44.058  24.824  27.032  1.00  0.00     0.031 A 
ATOM     40  C   UNL A   1      45.498  25.198  26.828  1.00  0.00     0.074 A 
ATOM     41  C   UNL A   1      43.147  25.747  27.378  1.00  0.00     0.049 A 
ATOM     42  N   UNL A   1      46.087  26.350  27.005  1.00  0.00    -0.248 NA
ATOM     43  C   UNL A   1      46.394  24.124  26.363  1.00  0.00     0.031 C 
ATOM     44  C   UNL A   1      41.716  25.499  27.545  1.00  0.00     0.029 A 
ATOM     45  N   UNL A   1      43.298  27.078  27.664  1.00  0.00    -0.354 N 
ATOM     46  C   UNL A   1      47.426  26.136  26.696  1.00  0.00     0.074 A 
ATOM     47  C   UNL A   1      47.564  24.743  26.334  1.00  0.00     0.031 C 
ATOM     48  C   UNL A   1      41.122  26.640  27.932  1.00  0.00     0.029 A 
ATOM     49  C   UNL A   1      42.136  27.682  28.079  1.00  0.00     0.049 A 
ATOM     50  H   UNL A   1      44.156  27.555  27.581  1.00  0.00     0.167 HD
ATOM     51  C   UNL A   1      48.448  27.024  26.720  1.00  0.00     0.031 A 
ATOM     52  C   UNL A   1      41.927  28.924  28.560  1.00  0.00     0.031 A 
ATOM     53  C   UNL A   1      48.294  28.400  27.107  1.00  0.00     0.049 A 
ATOM     54  C   UNL A   1      43.090  29.875  28.657  1.00  0.00     0.074 A 
ATOM     55  C   UNL A   1      49.252  29.397  27.137  1.00  0.00     0.029 A 
ATOM     56  N   UNL A   1      47.109  28.969  27.554  1.00  0.00    -0.354 N 
ATOM     57  N   UNL A   1      44.343  29.680  28.315  1.00  0.00    -0.248 NA
ATOM     58  C   UNL A   1      42.815  31.210  29.200  1.00  0.00     0.031 C 
ATOM     59  C   UNL A   1      48.666  30.546  27.678  1.00  0.00     0.029 A 
ATOM     60  C   UNL A   1      47.322  30.288  27.913  1.00  0.00     0.049 A 
ATOM     61  H   UNL A   1      46.244  28.502  27.606  1.00  0.00     0.167 HD
ATOM     62  C   UNL A   1      45.004  30.871  28.596  1.00  0.00     0.074 A 
ATOM     63  C   UNL A   1      44.007  31.788  29.112  1.00  0.00     0.031 C 
ATOM     64  C   UNL A   1      46.318  31.178  28.443  1.00  0.00     0.031 A 
BRANCH  51  65
ATOM     65  C   UNL A   1      49.824  26.507  26.392  1.00  0.00    -0.014 A 
ATOM     66  C   UNL A   1      50.673  25.983  27.382  1.00  0.00     0.010 A 
ATOM     67  C   UNL A   1      50.274  26.551  25.059  1.00  0.00     0.010 A 
ATOM     68  C   UNL A   1      51.966  25.560  27.055  1.00  0.00     0.020 A 
ATOM     69  C   UNL A   1      51.553  26.101  24.723  1.00  0.00     0.020 A 
ATOM     70  C   UNL A   1      52.399  25.629  25.726  1.00  0.00     0.054 A 
BRANCH  70  71
ATOM     71  S   UNL A   1      54.081  25.080  25.330  1.00  0.00     0.124 S 
ATOM     72  O   UNL A   1      54.777  25.297  26.596  1.00  0.00    -0.237 OA
ATOM     73  O   UNL A   1      53.882  23.682  24.955  1.00  0.00    -0.237 OA
ATOM     74  O   UNL A   1      54.487  25.963  24.239  1.00  0.00    -0.744 OA
ENDBRANCH  70  71
ENDBRANCH  51  65
BRANCH  52  75
ATOM     75  C   UNL A   1      40.567  29.304  29.030  1.00  0.00    -0.014 A 
ATOM     76  C   UNL A   1      40.260  29.350  30.399  1.00  0.00     0.010 A 
ATOM     77  C   UNL A   1      39.580  29.676  28.095  1.00  0.00     0.010 A 
ATOM     78  C   UNL A   1      38.994  29.768  30.826  1.00  0.00     0.020 A 
ATOM     79  C   UNL A   1      38.325  30.120  28.519  1.00  0.00     0.020 A 
ATOM     80  C   UNL A   1      38.039  30.161  29.884  1.00  0.00     0.054 A 
BRANCH  80  81
ATOM     81  S   UNL A   1      36.438  30.784  30.468  1.00  0.00     0.124 S 
ATOM     82  O   UNL A   1      35.578  30.544  29.314  1.00  0.00    -0.237 OA
ATOM     83  O   UNL A   1      36.181  29.941  31.634  1.00  0.00    -0.237 OA
ATOM     84  O   UNL A   1      36.704  32.189  30.770  1.00  0.00    -0.744 OA
ENDBRANCH  80  81
ENDBRANCH  52  75
BRANCH  64  85
ATOM     85  C   UNL A   1      46.760  32.562  28.839  1.00  0.00    -0.014 A 
ATOM     86  C   UNL A   1      46.744  33.621  27.914  1.00  0.00     0.010 A 
ATOM     87  C   UNL A   1      47.111  32.826  30.176  1.00  0.00     0.010 A 
ATOM     88  C   UNL A   1      47.087  34.914  28.314  1.00  0.00     0.020 A 
ATOM     89  C   UNL A   1      47.424  34.124  30.587  1.00  0.00     0.020 A 
ATOM     90  C   UNL A   1      47.418  35.160  29.650  1.00  0.00     0.054 A 
BRANCH  90  91
ATOM     91  S   UNL A   1      47.791  36.861  30.157  1.00  0.00     0.124 S 
ATOM     92  O   UNL A   1      48.859  37.228  29.231  1.00  0.00    -0.237 OA
ATOM     93  O   UNL A   1      46.515  37.542  29.948  1.00  0.00    -0.237 OA
ATOM     94  O   UNL A   1      48.198  36.726  31.554  1.00  0.00    -0.744 OA
ENDBRANCH  90  91
ENDBRANCH  64  85
ENDBRANCH  38  39
ENDBRANCH  31  33
ENDBRANCH  30  31
ENDBRANCH  29  30
ENDBRANCH   1  29
TORSDOF 19
ENDMDL
