MODEL 1
REMARK VINA RESULT:      -9.0      0.000      0.000
REMARK SMILES CC(=O)c1ccc(C(F)(F)C(=O)OCCOCCOC(=O)c2ccc(-c3c4nc(c(-c5ccc(S(=O)(=O)[O-])cc5)c5ccc([nH]5)c(-c5ccc(S(=O)(=O)[O-])cc5)c5nc(c(-c6ccc(S(=O)(=O)[O-])cc6)c6ccc3[nH]6)C=C5)C=C4)cc2)n1C
REMARK SMILES IDX 17 1 16 2 15 3 14 4 13 5 11 6 12 7 8 8 9 9 10 10 7 11 4 12
REMARK SMILES IDX 5 13 82 14 6 15 83 16 2 17 1 18 3 19 18 20 19 21 20 22 21 23
REMARK SMILES IDX 22 24 23 25 81 26 24 27 80 28 25 29 26 30 27 31 74 32 28 33
REMARK SMILES IDX 79 34 73 35 75 36 29 37 78 38 72 39 71 40 30 42 60 43 41 44
REMARK SMILES IDX 59 45 42 46 45 47 58 48 76 49 43 50 44 51 57 53 77 54 46 55
REMARK SMILES IDX 31 56 32 57 40 58 33 59 39 60 34 61 35 62 36 63 37 64 38 65
REMARK SMILES IDX 61 66 62 67 70 68 63 69 69 70 64 71 65 72 66 73 67 74 68 75
REMARK SMILES IDX 47 76 48 77 56 78 49 79 55 80 50 81 51 82 52 83 53 84 54 85
REMARK H PARENT 75 41 45 52
REMARK Flexibility Score: inf
ROOT
ATOM      1  C   UNL A   1      32.167  28.872  25.475  1.00  0.00     0.202 C 
ENDROOT
BRANCH   1   2
ATOM      2  O   UNL A   1      31.728  28.935  24.114  1.00  0.00    -0.374 OA
BRANCH   2   3
ATOM      3  C   UNL A   1      30.808  27.925  23.677  1.00  0.00     0.202 C 
BRANCH   3   4
ATOM      4  C   UNL A   1      31.400  26.877  22.726  1.00  0.00     0.261 C 
BRANCH   4   5
ATOM      5  O   UNL A   1      32.316  26.055  23.464  1.00  0.00    -0.458 OA
BRANCH   5   6
ATOM      6  C   UNL A   1      31.939  24.764  23.708  1.00  0.00     0.383 C 
ATOM      7  O   UNL A   1      31.186  24.119  22.983  1.00  0.00    -0.244 OA
BRANCH   6   8
ATOM      8  C   UNL A   1      32.684  24.222  24.934  1.00  0.00     0.382 C 
ATOM      9  F   UNL A   1      31.947  23.224  25.517  1.00  0.00    -0.186 F 
ATOM     10  F   UNL A   1      32.798  25.172  25.920  1.00  0.00    -0.186 F 
BRANCH   8  11
ATOM     11  C   UNL A   1      34.089  23.686  24.659  1.00  0.00     0.100 A 
ATOM     12  C   UNL A   1      36.131  22.682  24.761  1.00  0.00     0.084 A 
ATOM     13  C   UNL A   1      35.974  23.196  23.489  1.00  0.00     0.032 A 
ATOM     14  N   UNL A   1      34.979  23.001  25.482  1.00  0.00    -0.340 N 
ATOM     15  C   UNL A   1      34.704  23.783  23.416  1.00  0.00     0.031 A 
ATOM     16  C   UNL A   1      34.883  22.703  26.896  1.00  0.00     0.150 C 
BRANCH  12  17
ATOM     17  C   UNL A   1      37.324  21.997  25.241  1.00  0.00     0.176 C 
ATOM     18  C   UNL A   1      38.375  22.819  25.948  1.00  0.00     0.095 C 
ATOM     19  O   UNL A   1      37.472  20.781  25.126  1.00  0.00    -0.293 OA
ENDBRANCH  12  17
ENDBRANCH   8  11
ENDBRANCH   6   8
ENDBRANCH   5   6
ENDBRANCH   4   5
ENDBRANCH   3   4
ENDBRANCH   2   3
ENDBRANCH   1   2
BRANCH   1  20
ATOM     20  C   UNL A   1      33.658  28.634  25.728  1.00  0.00     0.261 C 
BRANCH  20  21
ATOM     21  O   UNL A   1      33.972  28.633  27.126  1.00  0.00    -0.460 OA
BRANCH  21  22
ATOM     22  C   UNL A   1      34.323  29.843  27.625  1.00  0.00     0.338 C 
ATOM     23  O   UNL A   1      33.592  30.799  27.818  1.00  0.00    -0.246 OA
BRANCH  22  24
ATOM     24  C   UNL A   1      35.718  29.787  28.100  1.00  0.00     0.060 A 
ATOM     25  C   UNL A   1      36.726  30.065  27.168  1.00  0.00     0.016 A 
ATOM     26  C   UNL A   1      36.037  29.428  29.412  1.00  0.00     0.016 A 
ATOM     27  C   UNL A   1      38.063  29.928  27.529  1.00  0.00     0.010 A 
ATOM     28  C   UNL A   1      37.379  29.282  29.770  1.00  0.00     0.010 A 
ATOM     29  C   UNL A   1      38.392  29.493  28.818  1.00  0.00    -0.014 A 
BRANCH  29  30
ATOM     30  C   UNL A   1      39.782  29.084  29.118  1.00  0.00     0.031 A 
ATOM     31  C   UNL A   1      40.698  30.085  29.766  1.00  0.00     0.074 A 
ATOM     32  C   UNL A   1      40.209  27.842  28.834  1.00  0.00     0.049 A 
ATOM     33  N   UNL A   1      41.961  29.968  30.081  1.00  0.00    -0.248 NA
ATOM     34  C   UNL A   1      40.112  31.394  30.100  1.00  0.00     0.031 C 
ATOM     35  C   UNL A   1      39.394  26.778  28.249  1.00  0.00     0.029 A 
ATOM     36  N   UNL A   1      41.445  27.269  28.998  1.00  0.00    -0.354 N 
ATOM     37  C   UNL A   1      42.323  31.189  30.638  1.00  0.00     0.074 A 
ATOM     38  C   UNL A   1      41.156  32.041  30.597  1.00  0.00     0.031 C 
ATOM     39  C   UNL A   1      40.156  25.682  28.092  1.00  0.00     0.029 A 
ATOM     40  C   UNL A   1      41.517  25.977  28.537  1.00  0.00     0.049 A 
ATOM     41  H   UNL A   1      42.207  27.740  29.406  1.00  0.00     0.167 HD
ATOM     42  C   UNL A   1      43.523  31.565  31.141  1.00  0.00     0.031 A 
ATOM     43  C   UNL A   1      42.569  25.139  28.466  1.00  0.00     0.031 A 
ATOM     44  C   UNL A   1      44.682  30.715  31.165  1.00  0.00     0.049 A 
ATOM     45  C   UNL A   1      43.909  25.601  28.972  1.00  0.00     0.074 A 
ATOM     46  C   UNL A   1      45.943  30.994  31.660  1.00  0.00     0.029 A 
ATOM     47  N   UNL A   1      44.722  29.422  30.666  1.00  0.00    -0.354 N 
ATOM     48  N   UNL A   1      44.234  26.753  29.513  1.00  0.00    -0.248 NA
ATOM     49  C   UNL A   1      45.025  24.650  28.863  1.00  0.00     0.031 C 
ATOM     50  C   UNL A   1      46.760  29.884  31.414  1.00  0.00     0.029 A 
ATOM     51  C   UNL A   1      45.992  28.897  30.819  1.00  0.00     0.049 A 
ATOM     52  H   UNL A   1      43.959  28.949  30.261  1.00  0.00     0.167 HD
ATOM     53  C   UNL A   1      45.583  26.652  29.837  1.00  0.00     0.074 A 
ATOM     54  C   UNL A   1      46.011  25.327  29.437  1.00  0.00     0.031 C 
ATOM     55  C   UNL A   1      46.393  27.571  30.418  1.00  0.00     0.031 A 
BRANCH  42  56
ATOM     56  C   UNL A   1      43.643  32.969  31.670  1.00  0.00    -0.014 A 
ATOM     57  C   UNL A   1      43.408  33.261  33.025  1.00  0.00     0.010 A 
ATOM     58  C   UNL A   1      44.019  34.008  30.799  1.00  0.00     0.010 A 
ATOM     59  C   UNL A   1      43.507  34.575  33.492  1.00  0.00     0.020 A 
ATOM     60  C   UNL A   1      44.144  35.319  31.268  1.00  0.00     0.020 A 
ATOM     61  C   UNL A   1      43.870  35.597  32.608  1.00  0.00     0.054 A 
BRANCH  61  62
ATOM     62  S   UNL A   1      44.006  37.291  33.243  1.00  0.00     0.124 S 
ATOM     63  O   UNL A   1      43.997  38.075  32.010  1.00  0.00    -0.237 OA
ATOM     64  O   UNL A   1      42.813  37.419  34.077  1.00  0.00    -0.237 OA
ATOM     65  O   UNL A   1      45.273  37.288  33.970  1.00  0.00    -0.744 OA
ENDBRANCH  61  62
ENDBRANCH  42  56
BRANCH  43  66
ATOM     66  C   UNL A   1      42.397  23.780  27.882  1.00  0.00    -0.014 A 
ATOM     67  C   UNL A   1      42.719  23.532  26.537  1.00  0.00     0.010 A 
ATOM     68  C   UNL A   1      41.917  22.722  28.677  1.00  0.00     0.010 A 
ATOM     69  C   UNL A   1      42.552  22.256  25.992  1.00  0.00     0.020 A 
ATOM     70  C   UNL A   1      41.772  21.439  28.143  1.00  0.00     0.020 A 
ATOM     71  C   UNL A   1      42.081  21.217  26.800  1.00  0.00     0.054 A 
BRANCH  71  72
ATOM     72  S   UNL A   1      41.925  19.555  26.087  1.00  0.00     0.124 S 
ATOM     73  O   UNL A   1      42.429  18.713  27.167  1.00  0.00    -0.237 OA
ATOM     74  O   UNL A   1      40.492  19.458  25.823  1.00  0.00    -0.237 OA
ATOM     75  O   UNL A   1      42.768  19.616  24.895  1.00  0.00    -0.744 OA
ENDBRANCH  71  72
ENDBRANCH  43  66
BRANCH  55  76
ATOM     76  C   UNL A   1      47.815  27.164  30.699  1.00  0.00    -0.014 A 
ATOM     77  C   UNL A   1      48.856  27.489  29.811  1.00  0.00     0.010 A 
ATOM     78  C   UNL A   1      48.118  26.508  31.905  1.00  0.00     0.010 A 
ATOM     79  C   UNL A   1      50.174  27.142  30.116  1.00  0.00     0.020 A 
ATOM     80  C   UNL A   1      49.438  26.182  32.225  1.00  0.00     0.020 A 
ATOM     81  C   UNL A   1      50.457  26.490  31.321  1.00  0.00     0.054 A 
BRANCH  81  82
ATOM     82  S   UNL A   1      52.182  26.097  31.719  1.00  0.00     0.124 S 
ATOM     83  O   UNL A   1      52.753  25.862  30.396  1.00  0.00    -0.237 OA
ATOM     84  O   UNL A   1      52.641  27.308  32.395  1.00  0.00    -0.237 OA
ATOM     85  O   UNL A   1      52.081  24.916  32.574  1.00  0.00    -0.744 OA
ENDBRANCH  81  82
ENDBRANCH  55  76
ENDBRANCH  29  30
ENDBRANCH  22  24
ENDBRANCH  21  22
ENDBRANCH  20  21
ENDBRANCH   1  20
TORSDOF 19
ENDMDL
MODEL 2
REMARK VINA RESULT:      -8.8      4.916     10.879
REMARK SMILES CC(=O)c1ccc(C(F)(F)C(=O)OCCOCCOC(=O)c2ccc(-c3c4nc(c(-c5ccc(S(=O)(=O)[O-])cc5)c5ccc([nH]5)c(-c5ccc(S(=O)(=O)[O-])cc5)c5nc(c(-c6ccc(S(=O)(=O)[O-])cc6)c6ccc3[nH]6)C=C5)C=C4)cc2)n1C
REMARK SMILES IDX 17 1 16 2 15 3 14 4 13 5 11 6 12 7 8 8 9 9 10 10 7 11 4 12
REMARK SMILES IDX 5 13 82 14 6 15 83 16 2 17 1 18 3 19 18 20 19 21 20 22 21 23
REMARK SMILES IDX 22 24 23 25 81 26 24 27 80 28 25 29 26 30 27 31 74 32 28 33
REMARK SMILES IDX 79 34 73 35 75 36 29 37 78 38 72 39 71 40 30 42 60 43 41 44
REMARK SMILES IDX 59 45 42 46 45 47 58 48 76 49 43 50 44 51 57 53 77 54 46 55
REMARK SMILES IDX 31 56 32 57 40 58 33 59 39 60 34 61 35 62 36 63 37 64 38 65
REMARK SMILES IDX 61 66 62 67 70 68 63 69 69 70 64 71 65 72 66 73 67 74 68 75
REMARK SMILES IDX 47 76 48 77 56 78 49 79 55 80 50 81 51 82 52 83 53 84 54 85
REMARK H PARENT 75 41 45 52
REMARK Flexibility Score: inf
ROOT
ATOM      1  C   UNL A   1      44.620  23.755  25.552  1.00  0.00     0.202 C 
ENDROOT
BRANCH   1   2
ATOM      2  O   UNL A   1      45.066  22.465  25.987  1.00  0.00    -0.374 OA
BRANCH   2   3
ATOM      3  C   UNL A   1      45.319  21.485  24.970  1.00  0.00     0.202 C 
BRANCH   3   4
ATOM      4  C   UNL A   1      44.534  20.176  25.122  1.00  0.00     0.261 C 
BRANCH   4   5
ATOM      5  O   UNL A   1      43.140  20.490  25.253  1.00  0.00    -0.458 OA
BRANCH   5   6
ATOM      6  C   UNL A   1      42.344  19.555  25.855  1.00  0.00     0.383 C 
ATOM      7  O   UNL A   1      42.501  18.343  25.740  1.00  0.00    -0.244 OA
BRANCH   6   8
ATOM      8  C   UNL A   1      41.326  20.245  26.771  1.00  0.00     0.382 C 
ATOM      9  F   UNL A   1      41.843  21.432  27.221  1.00  0.00    -0.186 F 
ATOM     10  F   UNL A   1      41.102  19.522  27.918  1.00  0.00    -0.186 F 
BRANCH   8  11
ATOM     11  C   UNL A   1      39.962  20.522  26.138  1.00  0.00     0.100 A 
ATOM     12  C   UNL A   1      38.054  21.460  25.322  1.00  0.00     0.084 A 
ATOM     13  C   UNL A   1      38.028  20.113  25.019  1.00  0.00     0.032 A 
ATOM     14  N   UNL A   1      39.234  21.703  26.025  1.00  0.00    -0.340 N 
ATOM     15  C   UNL A   1      39.218  19.542  25.491  1.00  0.00     0.031 A 
ATOM     16  C   UNL A   1      39.503  23.009  26.593  1.00  0.00     0.150 C 
BRANCH  12  17
ATOM     17  C   UNL A   1      36.991  22.405  25.005  1.00  0.00     0.176 C 
ATOM     18  C   UNL A   1      36.766  23.559  25.952  1.00  0.00     0.095 C 
ATOM     19  O   UNL A   1      36.316  22.313  23.981  1.00  0.00    -0.293 OA
ENDBRANCH  12  17
ENDBRANCH   8  11
ENDBRANCH   6   8
ENDBRANCH   5   6
ENDBRANCH   4   5
ENDBRANCH   3   4
ENDBRANCH   2   3
ENDBRANCH   1   2
BRANCH   1  20
ATOM     20  C   UNL A   1      43.168  23.883  25.086  1.00  0.00     0.261 C 
BRANCH  20  21
ATOM     21  O   UNL A   1      42.377  24.654  25.999  1.00  0.00    -0.460 OA
BRANCH  21  22
ATOM     22  C   UNL A   1      42.427  25.992  25.794  1.00  0.00     0.338 C 
ATOM     23  O   UNL A   1      42.358  26.575  24.726  1.00  0.00    -0.246 OA
BRANCH  22  24
ATOM     24  C   UNL A   1      42.380  26.686  27.094  1.00  0.00     0.060 A 
ATOM     25  C   UNL A   1      41.417  26.257  28.017  1.00  0.00     0.016 A 
ATOM     26  C   UNL A   1      43.223  27.760  27.388  1.00  0.00     0.016 A 
ATOM     27  C   UNL A   1      41.255  26.940  29.219  1.00  0.00     0.010 A 
ATOM     28  C   UNL A   1      43.053  28.449  28.591  1.00  0.00     0.010 A 
ATOM     29  C   UNL A   1      42.042  28.065  29.490  1.00  0.00    -0.014 A 
BRANCH  29  30
ATOM     30  C   UNL A   1      41.690  28.946  30.624  1.00  0.00     0.031 A 
ATOM     31  C   UNL A   1      42.514  28.861  31.880  1.00  0.00     0.074 A 
ATOM     32  C   UNL A   1      40.670  29.815  30.528  1.00  0.00     0.049 A 
ATOM     33  N   UNL A   1      42.368  29.499  33.010  1.00  0.00    -0.248 NA
ATOM     34  C   UNL A   1      43.653  27.927  31.857  1.00  0.00     0.031 C 
ATOM     35  C   UNL A   1      39.835  30.015  29.344  1.00  0.00     0.029 A 
ATOM     36  N   UNL A   1      40.160  30.692  31.452  1.00  0.00    -0.354 N 
ATOM     37  C   UNL A   1      43.385  29.037  33.836  1.00  0.00     0.074 A 
ATOM     38  C   UNL A   1      44.128  28.048  33.087  1.00  0.00     0.031 C 
ATOM     39  C   UNL A   1      38.908  30.949  29.617  1.00  0.00     0.029 A 
ATOM     40  C   UNL A   1      39.066  31.389  31.002  1.00  0.00     0.049 A 
ATOM     41  H   UNL A   1      40.543  30.810  32.352  1.00  0.00     0.167 HD
ATOM     42  C   UNL A   1      43.676  29.407  35.106  1.00  0.00     0.031 A 
ATOM     43  C   UNL A   1      38.272  32.267  31.645  1.00  0.00     0.031 A 
ATOM     44  C   UNL A   1      42.924  30.382  35.847  1.00  0.00     0.049 A 
ATOM     45  C   UNL A   1      38.575  32.615  33.079  1.00  0.00     0.074 A 
ATOM     46  C   UNL A   1      43.138  30.837  37.136  1.00  0.00     0.029 A 
ATOM     47  N   UNL A   1      41.806  31.047  35.366  1.00  0.00    -0.354 N 
ATOM     48  N   UNL A   1      39.552  32.184  33.843  1.00  0.00    -0.248 NA
ATOM     49  C   UNL A   1      37.673  33.571  33.735  1.00  0.00     0.031 C 
ATOM     50  C   UNL A   1      42.118  31.742  37.451  1.00  0.00     0.029 A 
ATOM     51  C   UNL A   1      41.305  31.892  36.340  1.00  0.00     0.049 A 
ATOM     52  H   UNL A   1      41.425  30.934  34.465  1.00  0.00     0.167 HD
ATOM     53  C   UNL A   1      39.399  32.841  35.059  1.00  0.00     0.074 A 
ATOM     54  C   UNL A   1      38.241  33.701  34.927  1.00  0.00     0.031 C 
ATOM     55  C   UNL A   1      40.152  32.745  36.182  1.00  0.00     0.031 A 
BRANCH  42  56
ATOM     56  C   UNL A   1      44.835  28.723  35.779  1.00  0.00    -0.014 A 
ATOM     57  C   UNL A   1      46.137  29.250  35.703  1.00  0.00     0.010 A 
ATOM     58  C   UNL A   1      44.614  27.546  36.516  1.00  0.00     0.010 A 
ATOM     59  C   UNL A   1      47.203  28.589  36.320  1.00  0.00     0.020 A 
ATOM     60  C   UNL A   1      45.673  26.897  37.156  1.00  0.00     0.020 A 
ATOM     61  C   UNL A   1      46.965  27.413  37.038  1.00  0.00     0.054 A 
BRANCH  61  62
ATOM     62  S   UNL A   1      48.364  26.583  37.842  1.00  0.00     0.124 S 
ATOM     63  O   UNL A   1      48.997  25.904  36.714  1.00  0.00    -0.237 OA
ATOM     64  O   UNL A   1      49.120  27.700  38.405  1.00  0.00    -0.237 OA
ATOM     65  O   UNL A   1      47.731  25.706  38.822  1.00  0.00    -0.744 OA
ENDBRANCH  61  62
ENDBRANCH  42  56
BRANCH  43  66
ATOM     66  C   UNL A   1      37.107  32.869  30.941  1.00  0.00    -0.014 A 
ATOM     67  C   UNL A   1      37.298  33.820  29.924  1.00  0.00     0.010 A 
ATOM     68  C   UNL A   1      35.796  32.484  31.279  1.00  0.00     0.010 A 
ATOM     69  C   UNL A   1      36.201  34.386  29.268  1.00  0.00     0.020 A 
ATOM     70  C   UNL A   1      34.698  33.029  30.610  1.00  0.00     0.020 A 
ATOM     71  C   UNL A   1      34.907  33.985  29.614  1.00  0.00     0.054 A 
BRANCH  71  72
ATOM     72  S   UNL A   1      33.500  34.691  28.711  1.00  0.00     0.124 S 
ATOM     73  O   UNL A   1      32.550  34.953  29.787  1.00  0.00    -0.237 OA
ATOM     74  O   UNL A   1      34.088  35.870  28.082  1.00  0.00    -0.237 OA
ATOM     75  O   UNL A   1      33.121  33.625  27.785  1.00  0.00    -0.744 OA
ENDBRANCH  71  72
ENDBRANCH  43  66
BRANCH  55  76
ATOM     76  C   UNL A   1      39.778  33.622  37.347  1.00  0.00    -0.014 A 
ATOM     77  C   UNL A   1      38.944  33.153  38.377  1.00  0.00     0.010 A 
ATOM     78  C   UNL A   1      40.329  34.913  37.441  1.00  0.00     0.010 A 
ATOM     79  C   UNL A   1      38.648  33.970  39.470  1.00  0.00     0.020 A 
ATOM     80  C   UNL A   1      40.056  35.724  38.545  1.00  0.00     0.020 A 
ATOM     81  C   UNL A   1      39.206  35.251  39.548  1.00  0.00     0.054 A 
BRANCH  81  82
ATOM     82  S   UNL A   1      38.850  36.273  41.003  1.00  0.00     0.124 S 
ATOM     83  O   UNL A   1      37.760  35.534  41.634  1.00  0.00    -0.237 OA
ATOM     84  O   UNL A   1      40.120  36.258  41.725  1.00  0.00    -0.237 OA
ATOM     85  O   UNL A   1      38.480  37.568  40.435  1.00  0.00    -0.744 OA
ENDBRANCH  81  82
ENDBRANCH  55  76
ENDBRANCH  29  30
ENDBRANCH  22  24
ENDBRANCH  21  22
ENDBRANCH  20  21
ENDBRANCH   1  20
TORSDOF 19
ENDMDL
MODEL 3
REMARK VINA RESULT:      -8.8      3.715      8.097
REMARK SMILES CC(=O)c1ccc(C(F)(F)C(=O)OCCOCCOC(=O)c2ccc(-c3c4nc(c(-c5ccc(S(=O)(=O)[O-])cc5)c5ccc([nH]5)c(-c5ccc(S(=O)(=O)[O-])cc5)c5nc(c(-c6ccc(S(=O)(=O)[O-])cc6)c6ccc3[nH]6)C=C5)C=C4)cc2)n1C
REMARK SMILES IDX 17 1 16 2 15 3 14 4 13 5 11 6 12 7 8 8 9 9 10 10 7 11 4 12
REMARK SMILES IDX 5 13 82 14 6 15 83 16 2 17 1 18 3 19 18 20 19 21 20 22 21 23
REMARK SMILES IDX 22 24 23 25 81 26 24 27 80 28 25 29 26 30 27 31 74 32 28 33
REMARK SMILES IDX 79 34 73 35 75 36 29 37 78 38 72 39 71 40 30 42 60 43 41 44
REMARK SMILES IDX 59 45 42 46 45 47 58 48 76 49 43 50 44 51 57 53 77 54 46 55
REMARK SMILES IDX 31 56 32 57 40 58 33 59 39 60 34 61 35 62 36 63 37 64 38 65
REMARK SMILES IDX 61 66 62 67 70 68 63 69 69 70 64 71 65 72 66 73 67 74 68 75
REMARK SMILES IDX 47 76 48 77 56 78 49 79 55 80 50 81 51 82 52 83 53 84 54 85
REMARK H PARENT 75 41 45 52
REMARK Flexibility Score: inf
ROOT
ATOM      1  C   UNL A   1      38.042  21.675  25.843  1.00  0.00     0.202 C 
ENDROOT
BRANCH   1   2
ATOM      2  O   UNL A   1      37.323  22.886  26.101  1.00  0.00    -0.374 OA
BRANCH   2   3
ATOM      3  C   UNL A   1      35.964  22.949  25.646  1.00  0.00     0.202 C 
BRANCH   3   4
ATOM      4  C   UNL A   1      35.456  24.357  25.315  1.00  0.00     0.261 C 
BRANCH   4   5
ATOM      5  O   UNL A   1      34.053  24.281  25.023  1.00  0.00    -0.458 OA
BRANCH   5   6
ATOM      6  C   UNL A   1      33.699  23.890  23.761  1.00  0.00     0.383 C 
ATOM      7  O   UNL A   1      34.424  24.005  22.777  1.00  0.00    -0.244 OA
BRANCH   6   8
ATOM      8  C   UNL A   1      32.334  23.191  23.793  1.00  0.00     0.382 C 
ATOM      9  F   UNL A   1      31.515  23.739  22.839  1.00  0.00    -0.186 F 
ATOM     10  F   UNL A   1      31.672  23.421  24.974  1.00  0.00    -0.186 F 
BRANCH   8  11
ATOM     11  C   UNL A   1      32.372  21.677  23.584  1.00  0.00     0.100 A 
ATOM     12  C   UNL A   1      32.551  19.418  23.814  1.00  0.00     0.084 A 
ATOM     13  C   UNL A   1      32.132  19.681  22.525  1.00  0.00     0.032 A 
ATOM     14  N   UNL A   1      32.714  20.646  24.456  1.00  0.00    -0.340 N 
ATOM     15  C   UNL A   1      31.989  21.069  22.394  1.00  0.00     0.031 A 
ATOM     16  C   UNL A   1      33.264  20.717  25.794  1.00  0.00     0.150 C 
BRANCH  12  17
ATOM     17  C   UNL A   1      32.824  18.089  24.346  1.00  0.00     0.176 C 
ATOM     18  C   UNL A   1      34.172  17.475  24.055  1.00  0.00     0.095 C 
ATOM     19  O   UNL A   1      32.015  17.486  25.050  1.00  0.00    -0.293 OA
ENDBRANCH  12  17
ENDBRANCH   8  11
ENDBRANCH   6   8
ENDBRANCH   5   6
ENDBRANCH   4   5
ENDBRANCH   3   4
ENDBRANCH   2   3
ENDBRANCH   1   2
BRANCH   1  20
ATOM     20  C   UNL A   1      39.560  21.696  26.038  1.00  0.00     0.261 C 
BRANCH  20  21
ATOM     21  O   UNL A   1      40.030  20.529  26.723  1.00  0.00    -0.460 OA
BRANCH  21  22
ATOM     22  C   UNL A   1      41.290  20.155  26.397  1.00  0.00     0.338 C 
ATOM     23  O   UNL A   1      41.635  19.107  25.879  1.00  0.00    -0.246 OA
BRANCH  22  24
ATOM     24  C   UNL A   1      42.201  21.300  26.580  1.00  0.00     0.060 A 
ATOM     25  C   UNL A   1      42.461  21.710  27.894  1.00  0.00     0.016 A 
ATOM     26  C   UNL A   1      42.753  21.985  25.495  1.00  0.00     0.016 A 
ATOM     27  C   UNL A   1      43.228  22.848  28.128  1.00  0.00     0.010 A 
ATOM     28  C   UNL A   1      43.516  23.131  25.731  1.00  0.00     0.010 A 
ATOM     29  C   UNL A   1      43.721  23.586  27.045  1.00  0.00    -0.014 A 
BRANCH  29  30
ATOM     30  C   UNL A   1      44.294  24.929  27.279  1.00  0.00     0.031 A 
ATOM     31  C   UNL A   1      43.381  26.024  27.759  1.00  0.00     0.074 A 
ATOM     32  C   UNL A   1      45.604  25.161  27.086  1.00  0.00     0.049 A 
ATOM     33  N   UNL A   1      43.648  27.282  27.989  1.00  0.00    -0.248 NA
ATOM     34  C   UNL A   1      41.978  25.649  28.007  1.00  0.00     0.031 C 
ATOM     35  C   UNL A   1      46.588  24.163  26.668  1.00  0.00     0.029 A 
ATOM     36  N   UNL A   1      46.329  26.318  27.212  1.00  0.00    -0.354 N 
ATOM     37  C   UNL A   1      42.447  27.851  28.398  1.00  0.00     0.074 A 
ATOM     38  C   UNL A   1      41.445  26.809  28.362  1.00  0.00     0.031 C 
ATOM     39  C   UNL A   1      47.790  24.756  26.562  1.00  0.00     0.029 A 
ATOM     40  C   UNL A   1      47.653  26.177  26.874  1.00  0.00     0.049 A 
ATOM     41  H   UNL A   1      45.938  27.169  27.516  1.00  0.00     0.167 HD
ATOM     42  C   UNL A   1      42.203  29.129  28.773  1.00  0.00     0.031 A 
ATOM     43  C   UNL A   1      48.634  27.097  26.807  1.00  0.00     0.031 A 
ATOM     44  C   UNL A   1      43.202  30.162  28.793  1.00  0.00     0.049 A 
ATOM     45  C   UNL A   1      48.324  28.526  27.165  1.00  0.00     0.074 A 
ATOM     46  C   UNL A   1      43.063  31.487  29.164  1.00  0.00     0.029 A 
ATOM     47  N   UNL A   1      44.525  29.985  28.418  1.00  0.00    -0.354 N 
ATOM     48  N   UNL A   1      47.188  29.047  27.568  1.00  0.00    -0.248 NA
ATOM     49  C   UNL A   1      49.429  29.490  27.066  1.00  0.00     0.031 C 
ATOM     50  C   UNL A   1      44.293  32.124  28.967  1.00  0.00     0.029 A 
ATOM     51  C   UNL A   1      45.210  31.182  28.527  1.00  0.00     0.049 A 
ATOM     52  H   UNL A   1      44.919  29.134  28.119  1.00  0.00     0.167 HD
ATOM     53  C   UNL A   1      47.450  30.393  27.799  1.00  0.00     0.074 A 
ATOM     54  C   UNL A   1      48.851  30.604  27.498  1.00  0.00     0.031 C 
ATOM     55  C   UNL A   1      46.608  31.366  28.227  1.00  0.00     0.031 A 
BRANCH  42  56
ATOM     56  C   UNL A   1      40.790  29.481  29.153  1.00  0.00    -0.014 A 
ATOM     57  C   UNL A   1      39.787  29.630  28.178  1.00  0.00     0.010 A 
ATOM     58  C   UNL A   1      40.457  29.645  30.510  1.00  0.00     0.010 A 
ATOM     59  C   UNL A   1      38.485  29.976  28.551  1.00  0.00     0.020 A 
ATOM     60  C   UNL A   1      39.150  29.965  30.888  1.00  0.00     0.020 A 
ATOM     61  C   UNL A   1      38.176  30.147  29.904  1.00  0.00     0.054 A 
BRANCH  61  62
ATOM     62  S   UNL A   1      36.475  30.580  30.362  1.00  0.00     0.124 S 
ATOM     63  O   UNL A   1      36.662  31.871  31.022  1.00  0.00    -0.237 OA
ATOM     64  O   UNL A   1      35.796  30.629  29.069  1.00  0.00    -0.237 OA
ATOM     65  O   UNL A   1      36.062  29.487  31.238  1.00  0.00    -0.744 OA
ENDBRANCH  61  62
ENDBRANCH  42  56
BRANCH  43  66
ATOM     66  C   UNL A   1      50.000  26.695  26.371  1.00  0.00    -0.014 A 
ATOM     67  C   UNL A   1      50.371  26.769  25.018  1.00  0.00     0.010 A 
ATOM     68  C   UNL A   1      50.942  26.244  27.315  1.00  0.00     0.010 A 
ATOM     69  C   UNL A   1      51.653  26.387  24.613  1.00  0.00     0.020 A 
ATOM     70  C   UNL A   1      52.232  25.884  26.918  1.00  0.00     0.020 A 
ATOM     71  C   UNL A   1      52.576  25.949  25.566  1.00  0.00     0.054 A 
BRANCH  71  72
ATOM     72  S   UNL A   1      54.253  25.511  25.026  1.00  0.00     0.124 S 
ATOM     73  O   UNL A   1      55.080  26.251  25.973  1.00  0.00    -0.237 OA
ATOM     74  O   UNL A   1      54.263  24.058  25.175  1.00  0.00    -0.237 OA
ATOM     75  O   UNL A   1      54.301  25.987  23.645  1.00  0.00    -0.744 OA
ENDBRANCH  71  72
ENDBRANCH  43  66
BRANCH  55  76
ATOM     76  C   UNL A   1      47.186  32.740  28.440  1.00  0.00    -0.014 A 
ATOM     77  C   UNL A   1      47.770  33.104  29.666  1.00  0.00     0.010 A 
ATOM     78  C   UNL A   1      47.205  33.653  27.370  1.00  0.00     0.010 A 
ATOM     79  C   UNL A   1      48.341  34.369  29.825  1.00  0.00     0.020 A 
ATOM     80  C   UNL A   1      47.797  34.909  27.517  1.00  0.00     0.020 A 
ATOM     81  C   UNL A   1      48.351  35.264  28.749  1.00  0.00     0.054 A 
BRANCH  81  82
ATOM     82  S   UNL A   1      49.146  36.880  28.963  1.00  0.00     0.124 S 
ATOM     83  O   UNL A   1      49.153  37.025  30.416  1.00  0.00    -0.237 OA
ATOM     84  O   UNL A   1      50.454  36.680  28.345  1.00  0.00    -0.237 OA
ATOM     85  O   UNL A   1      48.262  37.798  28.249  1.00  0.00    -0.744 OA
ENDBRANCH  81  82
ENDBRANCH  55  76
ENDBRANCH  29  30
ENDBRANCH  22  24
ENDBRANCH  21  22
ENDBRANCH  20  21
ENDBRANCH   1  20
TORSDOF 19
ENDMDL
