MODEL 1
REMARK VINA RESULT:      -8.8      0.000      0.000
REMARK SMILES COc1cc(Br)c(OC)c(C(=O)NCCC(=O)OCCOCCOC(=O)c2ccc(-c3c4nc(c(-c5ccc(S(=O)(=O)[O-])cc5)c5ccc([nH]5)c(-c5ccc(S(=O)(=O)[O-])cc5)c5nc(c(-c6ccc(S(=O)(=O)[O-])cc6)c6ccc3[nH]6)C=C5)C=C4)cc2)c1
REMARK SMILES IDX 20 1 19 2 18 3 16 4 17 5 15 6 14 7 13 8 11 9 12 10 10 12
REMARK SMILES IDX 3 13 4 14 87 15 5 16 6 17 7 18 2 19 1 20 8 21 9 22 21 23
REMARK SMILES IDX 22 24 23 25 24 26 25 27 26 28 27 29 28 30 86 31 29 32 85 33
REMARK SMILES IDX 30 34 31 35 32 36 79 37 33 38 84 39 78 40 80 41 34 42 83 43
REMARK SMILES IDX 77 44 76 45 35 47 65 48 46 49 64 50 47 51 50 52 63 53 81 54
REMARK SMILES IDX 48 55 49 56 62 58 82 59 51 60 36 61 37 62 45 63 38 64 44 65
REMARK SMILES IDX 39 66 40 67 41 68 42 69 43 70 66 71 67 72 75 73 68 74 74 75
REMARK SMILES IDX 69 76 70 77 71 78 72 79 73 80 52 81 53 82 61 83 54 84 60 85
REMARK SMILES IDX 55 86 56 87 57 88 58 89 59 90
REMARK H PARENT 13 11 80 46 50 57
REMARK Flexibility Score: inf
ROOT
ATOM      1  C   UNL A   1      33.804  33.279  27.964  1.00  0.00     0.202 C 
ENDROOT
BRANCH   1   2
ATOM      2  C   UNL A   1      33.626  31.760  27.941  1.00  0.00     0.261 C 
BRANCH   2   3
ATOM      3  O   UNL A   1      32.533  31.333  27.103  1.00  0.00    -0.463 OA
BRANCH   3   4
ATOM      4  C   UNL A   1      32.454  29.994  26.886  1.00  0.00     0.307 C 
ATOM      5  O   UNL A   1      31.691  29.226  27.462  1.00  0.00    -0.252 OA
BRANCH   4   6
ATOM      6  C   UNL A   1      33.465  29.515  25.878  1.00  0.00     0.144 C 
BRANCH   6   7
ATOM      7  C   UNL A   1      32.954  29.369  24.454  1.00  0.00     0.128 C 
BRANCH   7   8
ATOM      8  N   UNL A   1      31.633  28.762  24.336  1.00  0.00    -0.351 N 
ATOM      9  C   UNL A   1      31.228  27.471  24.051  1.00  0.00     0.255 C 
ATOM     10  O   UNL A   1      30.030  27.207  24.111  1.00  0.00    -0.269 OA
ATOM     11  H   UNL A   1      30.891  29.389  24.488  1.00  0.00     0.163 HD
BRANCH   9  12
ATOM     12  C   UNL A   1      32.200  26.396  23.703  1.00  0.00     0.086 A 
ATOM     13  C   UNL A   1      33.192  24.968  22.023  1.00  0.00     0.121 A 
ATOM     14  C   UNL A   1      33.928  24.307  22.998  1.00  0.00     0.066 A 
ATOM     15  C   UNL A   1      32.413  26.069  22.358  1.00  0.00     0.064 A 
ATOM     16  C   UNL A   1      33.804  24.682  24.338  1.00  0.00     0.064 A 
ATOM     17  Br  UNL A   1      34.779  23.621  25.580  1.00  0.00    -0.047 Br
ATOM     18  C   UNL A   1      32.933  25.723  24.709  1.00  0.00     0.146 A 
BRANCH  13  19
ATOM     19  O   UNL A   1      33.176  24.561  20.716  1.00  0.00    -0.497 OA
ATOM     20  C   UNL A   1      32.498  25.510  19.883  1.00  0.00     0.278 C 
ENDBRANCH  13  19
BRANCH  18  21
ATOM     21  O   UNL A   1      32.652  26.002  26.022  1.00  0.00    -0.495 OA
ATOM     22  C   UNL A   1      31.653  25.161  26.605  1.00  0.00     0.278 C 
ENDBRANCH  18  21
ENDBRANCH   9  12
ENDBRANCH   7   8
ENDBRANCH   6   7
ENDBRANCH   4   6
ENDBRANCH   3   4
ENDBRANCH   2   3
ENDBRANCH   1   2
BRANCH   1  23
ATOM     23  O   UNL A   1      32.877  34.021  28.756  1.00  0.00    -0.374 OA
BRANCH  23  24
ATOM     24  C   UNL A   1      33.368  35.190  29.408  1.00  0.00     0.202 C 
BRANCH  24  25
ATOM     25  C   UNL A   1      33.620  35.082  30.917  1.00  0.00     0.261 C 
BRANCH  25  26
ATOM     26  O   UNL A   1      34.911  34.520  31.216  1.00  0.00    -0.460 OA
BRANCH  26  27
ATOM     27  C   UNL A   1      34.889  33.217  31.586  1.00  0.00     0.338 C 
ATOM     28  O   UNL A   1      33.960  32.621  32.119  1.00  0.00    -0.246 OA
BRANCH  27  29
ATOM     29  C   UNL A   1      36.084  32.517  31.083  1.00  0.00     0.060 A 
ATOM     30  C   UNL A   1      36.819  31.758  32.004  1.00  0.00     0.016 A 
ATOM     31  C   UNL A   1      36.531  32.666  29.769  1.00  0.00     0.016 A 
ATOM     32  C   UNL A   1      38.034  31.190  31.629  1.00  0.00     0.010 A 
ATOM     33  C   UNL A   1      37.760  32.103  29.399  1.00  0.00     0.010 A 
ATOM     34  C   UNL A   1      38.535  31.398  30.338  1.00  0.00    -0.014 A 
BRANCH  34  35
ATOM     35  C   UNL A   1      39.932  31.006  30.029  1.00  0.00     0.031 A 
ATOM     36  C   UNL A   1      41.034  32.015  30.225  1.00  0.00     0.074 A 
ATOM     37  C   UNL A   1      40.227  29.755  29.632  1.00  0.00     0.049 A 
ATOM     38  N   UNL A   1      42.320  31.886  30.024  1.00  0.00    -0.248 NA
ATOM     39  C   UNL A   1      40.631  33.343  30.717  1.00  0.00     0.031 C 
ATOM     40  C   UNL A   1      39.259  28.675  29.452  1.00  0.00     0.029 A 
ATOM     41  N   UNL A   1      41.434  29.184  29.308  1.00  0.00    -0.354 N 
ATOM     42  C   UNL A   1      42.879  33.115  30.360  1.00  0.00     0.074 A 
ATOM     43  C   UNL A   1      41.791  33.982  30.751  1.00  0.00     0.031 C 
ATOM     44  C   UNL A   1      39.908  27.571  29.045  1.00  0.00     0.029 A 
ATOM     45  C   UNL A   1      41.332  27.875  28.904  1.00  0.00     0.049 A 
ATOM     46  H   UNL A   1      42.289  29.667  29.361  1.00  0.00     0.167 HD
ATOM     47  C   UNL A   1      44.182  33.485  30.347  1.00  0.00     0.031 A 
ATOM     48  C   UNL A   1      42.275  27.024  28.453  1.00  0.00     0.031 A 
ATOM     49  C   UNL A   1      45.264  32.626  29.942  1.00  0.00     0.049 A 
ATOM     50  C   UNL A   1      43.708  27.483  28.376  1.00  0.00     0.074 A 
ATOM     51  C   UNL A   1      46.617  32.908  29.902  1.00  0.00     0.029 A 
ATOM     52  N   UNL A   1      45.113  31.321  29.498  1.00  0.00    -0.354 N 
ATOM     53  N   UNL A   1      44.224  28.640  28.715  1.00  0.00    -0.248 NA
ATOM     54  C   UNL A   1      44.688  26.516  27.859  1.00  0.00     0.031 C 
ATOM     55  C   UNL A   1      47.281  31.791  29.383  1.00  0.00     0.029 A 
ATOM     56  C   UNL A   1      46.347  30.793  29.157  1.00  0.00     0.049 A 
ATOM     57  H   UNL A   1      44.257  30.841  29.434  1.00  0.00     0.167 HD
ATOM     58  C   UNL A   1      45.590  28.532  28.478  1.00  0.00     0.074 A 
ATOM     59  C   UNL A   1      45.823  27.192  27.979  1.00  0.00     0.031 C 
ATOM     60  C   UNL A   1      46.565  29.458  28.659  1.00  0.00     0.031 A 
BRANCH  47  61
ATOM     61  C   UNL A   1      44.506  34.897  30.756  1.00  0.00    -0.014 A 
ATOM     62  C   UNL A   1      44.885  35.206  32.075  1.00  0.00     0.010 A 
ATOM     63  C   UNL A   1      44.467  35.927  29.797  1.00  0.00     0.010 A 
ATOM     64  C   UNL A   1      45.185  36.523  32.436  1.00  0.00     0.020 A 
ATOM     65  C   UNL A   1      44.789  37.240  30.149  1.00  0.00     0.020 A 
ATOM     66  C   UNL A   1      45.130  37.533  31.470  1.00  0.00     0.054 A 
BRANCH  66  67
ATOM     67  S   UNL A   1      45.544  39.229  31.960  1.00  0.00     0.124 S 
ATOM     68  O   UNL A   1      44.232  39.875  31.946  1.00  0.00    -0.237 OA
ATOM     69  O   UNL A   1      46.139  39.047  33.281  1.00  0.00    -0.237 OA
ATOM     70  O   UNL A   1      46.468  39.676  30.920  1.00  0.00    -0.744 OA
ENDBRANCH  66  67
ENDBRANCH  47  61
BRANCH  48  71
ATOM     71  C   UNL A   1      41.890  25.653  28.019  1.00  0.00    -0.014 A 
ATOM     72  C   UNL A   1      41.219  25.444  26.803  1.00  0.00     0.010 A 
ATOM     73  C   UNL A   1      42.198  24.544  28.830  1.00  0.00     0.010 A 
ATOM     74  C   UNL A   1      40.849  24.153  26.411  1.00  0.00     0.020 A 
ATOM     75  C   UNL A   1      41.854  23.250  28.429  1.00  0.00     0.020 A 
ATOM     76  C   UNL A   1      41.171  23.064  27.226  1.00  0.00     0.054 A 
BRANCH  76  77
ATOM     77  S   UNL A   1      40.730  21.393  26.673  1.00  0.00     0.124 S 
ATOM     78  O   UNL A   1      41.777  21.109  25.698  1.00  0.00    -0.237 OA
ATOM     79  O   UNL A   1      40.794  20.622  27.914  1.00  0.00    -0.237 OA
ATOM     80  O   UNL A   1      39.388  21.559  26.121  1.00  0.00    -0.744 OA
ENDBRANCH  76  77
ENDBRANCH  48  71
BRANCH  60  81
ATOM     81  C   UNL A   1      47.981  29.049  28.350  1.00  0.00    -0.014 A 
ATOM     82  C   UNL A   1      48.547  29.280  27.083  1.00  0.00     0.010 A 
ATOM     83  C   UNL A   1      48.776  28.479  29.361  1.00  0.00     0.010 A 
ATOM     84  C   UNL A   1      49.874  28.921  26.827  1.00  0.00     0.020 A 
ATOM     85  C   UNL A   1      50.110  28.144  29.116  1.00  0.00     0.020 A 
ATOM     86  C   UNL A   1      50.647  28.354  27.845  1.00  0.00     0.054 A 
BRANCH  86  87
ATOM     87  S   UNL A   1      52.379  27.938  27.501  1.00  0.00     0.124 S 
ATOM     88  O   UNL A   1      52.655  26.924  28.514  1.00  0.00    -0.237 OA
ATOM     89  O   UNL A   1      52.326  27.451  26.125  1.00  0.00    -0.237 OA
ATOM     90  O   UNL A   1      53.082  29.206  27.680  1.00  0.00    -0.744 OA
ENDBRANCH  86  87
ENDBRANCH  60  81
ENDBRANCH  34  35
ENDBRANCH  27  29
ENDBRANCH  26  27
ENDBRANCH  25  26
ENDBRANCH  24  25
ENDBRANCH  23  24
ENDBRANCH   1  23
TORSDOF 22
ENDMDL
MODEL 2
REMARK VINA RESULT:      -8.8      5.473      6.602
REMARK SMILES COc1cc(Br)c(OC)c(C(=O)NCCC(=O)OCCOCCOC(=O)c2ccc(-c3c4nc(c(-c5ccc(S(=O)(=O)[O-])cc5)c5ccc([nH]5)c(-c5ccc(S(=O)(=O)[O-])cc5)c5nc(c(-c6ccc(S(=O)(=O)[O-])cc6)c6ccc3[nH]6)C=C5)C=C4)cc2)c1
REMARK SMILES IDX 20 1 19 2 18 3 16 4 17 5 15 6 14 7 13 8 11 9 12 10 10 12
REMARK SMILES IDX 3 13 4 14 87 15 5 16 6 17 7 18 2 19 1 20 8 21 9 22 21 23
REMARK SMILES IDX 22 24 23 25 24 26 25 27 26 28 27 29 28 30 86 31 29 32 85 33
REMARK SMILES IDX 30 34 31 35 32 36 79 37 33 38 84 39 78 40 80 41 34 42 83 43
REMARK SMILES IDX 77 44 76 45 35 47 65 48 46 49 64 50 47 51 50 52 63 53 81 54
REMARK SMILES IDX 48 55 49 56 62 58 82 59 51 60 36 61 37 62 45 63 38 64 44 65
REMARK SMILES IDX 39 66 40 67 41 68 42 69 43 70 66 71 67 72 75 73 68 74 74 75
REMARK SMILES IDX 69 76 70 77 71 78 72 79 73 80 52 81 53 82 61 83 54 84 60 85
REMARK SMILES IDX 55 86 56 87 57 88 58 89 59 90
REMARK H PARENT 13 11 80 46 50 57
REMARK Flexibility Score: inf
ROOT
ATOM      1  C   UNL A   1      36.084  32.897  28.096  1.00  0.00     0.202 C 
ENDROOT
BRANCH   1   2
ATOM      2  C   UNL A   1      35.552  31.469  28.236  1.00  0.00     0.261 C 
BRANCH   2   3
ATOM      3  O   UNL A   1      34.135  31.368  27.989  1.00  0.00    -0.463 OA
BRANCH   3   4
ATOM      4  C   UNL A   1      33.742  30.267  27.295  1.00  0.00     0.307 C 
ATOM      5  O   UNL A   1      34.489  29.391  26.873  1.00  0.00    -0.252 OA
BRANCH   4   6
ATOM      6  C   UNL A   1      32.259  30.253  27.035  1.00  0.00     0.144 C 
BRANCH   6   7
ATOM      7  C   UNL A   1      31.720  28.992  26.379  1.00  0.00     0.128 C 
BRANCH   7   8
ATOM      8  N   UNL A   1      32.123  28.803  24.990  1.00  0.00    -0.351 N 
ATOM      9  C   UNL A   1      32.569  27.692  24.298  1.00  0.00     0.255 C 
ATOM     10  O   UNL A   1      32.750  27.791  23.087  1.00  0.00    -0.269 OA
ATOM     11  H   UNL A   1      32.065  29.618  24.443  1.00  0.00     0.163 HD
BRANCH   9  12
ATOM     12  C   UNL A   1      32.808  26.384  24.971  1.00  0.00     0.086 A 
ATOM     13  C   UNL A   1      34.365  24.672  25.673  1.00  0.00     0.121 A 
ATOM     14  C   UNL A   1      33.316  23.883  26.127  1.00  0.00     0.066 A 
ATOM     15  C   UNL A   1      34.123  25.953  25.192  1.00  0.00     0.064 A 
ATOM     16  C   UNL A   1      32.000  24.336  26.005  1.00  0.00     0.064 A 
ATOM     17  Br  UNL A   1      30.655  23.111  26.561  1.00  0.00    -0.047 Br
ATOM     18  C   UNL A   1      31.728  25.586  25.418  1.00  0.00     0.146 A 
BRANCH  13  19
ATOM     19  O   UNL A   1      35.660  24.227  25.650  1.00  0.00    -0.497 OA
ATOM     20  C   UNL A   1      35.795  23.060  24.829  1.00  0.00     0.278 C 
ENDBRANCH  13  19
BRANCH  18  21
ATOM     21  O   UNL A   1      30.450  25.986  25.120  1.00  0.00    -0.495 OA
ATOM     22  C   UNL A   1      29.975  25.549  23.845  1.00  0.00     0.278 C 
ENDBRANCH  18  21
ENDBRANCH   9  12
ENDBRANCH   7   8
ENDBRANCH   6   7
ENDBRANCH   4   6
ENDBRANCH   3   4
ENDBRANCH   2   3
ENDBRANCH   1   2
BRANCH   1  23
ATOM     23  O   UNL A   1      35.211  33.848  27.488  1.00  0.00    -0.374 OA
BRANCH  23  24
ATOM     24  C   UNL A   1      34.816  34.967  28.278  1.00  0.00     0.202 C 
BRANCH  24  25
ATOM     25  C   UNL A   1      33.325  35.074  28.624  1.00  0.00     0.261 C 
BRANCH  25  26
ATOM     26  O   UNL A   1      32.990  34.347  29.821  1.00  0.00    -0.460 OA
BRANCH  26  27
ATOM     27  C   UNL A   1      33.187  35.033  30.973  1.00  0.00     0.338 C 
ATOM     28  O   UNL A   1      32.470  35.913  31.436  1.00  0.00    -0.246 OA
BRANCH  27  29
ATOM     29  C   UNL A   1      34.303  34.449  31.737  1.00  0.00     0.060 A 
ATOM     30  C   UNL A   1      35.405  35.275  32.000  1.00  0.00     0.016 A 
ATOM     31  C   UNL A   1      34.319  33.105  32.114  1.00  0.00     0.016 A 
ATOM     32  C   UNL A   1      36.550  34.745  32.590  1.00  0.00     0.010 A 
ATOM     33  C   UNL A   1      35.478  32.573  32.696  1.00  0.00     0.010 A 
ATOM     34  C   UNL A   1      36.611  33.381  32.899  1.00  0.00    -0.014 A 
BRANCH  34  35
ATOM     35  C   UNL A   1      37.911  32.783  33.291  1.00  0.00     0.031 A 
ATOM     36  C   UNL A   1      38.436  33.024  34.682  1.00  0.00     0.074 A 
ATOM     37  C   UNL A   1      38.592  31.993  32.441  1.00  0.00     0.049 A 
ATOM     38  N   UNL A   1      39.542  32.596  35.236  1.00  0.00    -0.248 NA
ATOM     39  C   UNL A   1      37.601  33.853  35.567  1.00  0.00     0.031 C 
ATOM     40  C   UNL A   1      38.167  31.645  31.086  1.00  0.00     0.029 A 
ATOM     41  N   UNL A   1      39.790  31.340  32.597  1.00  0.00    -0.354 N 
ATOM     42  C   UNL A   1      39.538  33.107  36.530  1.00  0.00     0.074 A 
ATOM     43  C   UNL A   1      38.335  33.896  36.669  1.00  0.00     0.031 C 
ATOM     44  C   UNL A   1      39.093  30.844  30.532  1.00  0.00     0.029 A 
ATOM     45  C   UNL A   1      40.191  30.650  31.479  1.00  0.00     0.049 A 
ATOM     46  H   UNL A   1      40.311  31.365  33.432  1.00  0.00     0.167 HD
ATOM     47  C   UNL A   1      40.451  32.929  37.513  1.00  0.00     0.031 A 
ATOM     48  C   UNL A   1      41.322  29.958  31.238  1.00  0.00     0.031 A 
ATOM     49  C   UNL A   1      41.657  32.157  37.369  1.00  0.00     0.049 A 
ATOM     50  C   UNL A   1      42.360  29.838  32.323  1.00  0.00     0.074 A 
ATOM     51  C   UNL A   1      42.641  31.913  38.310  1.00  0.00     0.029 A 
ATOM     52  N   UNL A   1      42.047  31.510  36.205  1.00  0.00    -0.354 N 
ATOM     53  N   UNL A   1      42.333  30.309  33.547  1.00  0.00    -0.248 NA
ATOM     54  C   UNL A   1      43.581  29.087  31.995  1.00  0.00     0.031 C 
ATOM     55  C   UNL A   1      43.653  31.163  37.701  1.00  0.00     0.029 A 
ATOM     56  C   UNL A   1      43.270  30.888  36.398  1.00  0.00     0.049 A 
ATOM     57  H   UNL A   1      41.532  31.495  35.367  1.00  0.00     0.167 HD
ATOM     58  C   UNL A   1      43.519  29.890  34.142  1.00  0.00     0.074 A 
ATOM     59  C   UNL A   1      44.234  29.115  33.149  1.00  0.00     0.031 C 
ATOM     60  C   UNL A   1      43.973  30.123  35.400  1.00  0.00     0.031 A 
BRANCH  47  61
ATOM     61  C   UNL A   1      40.196  33.614  38.829  1.00  0.00    -0.014 A 
ATOM     62  C   UNL A   1      39.476  32.976  39.856  1.00  0.00     0.010 A 
ATOM     63  C   UNL A   1      40.715  34.902  39.057  1.00  0.00     0.010 A 
ATOM     64  C   UNL A   1      39.250  33.627  41.073  1.00  0.00     0.020 A 
ATOM     65  C   UNL A   1      40.512  35.546  40.280  1.00  0.00     0.020 A 
ATOM     66  C   UNL A   1      39.767  34.911  41.275  1.00  0.00     0.054 A 
BRANCH  66  67
ATOM     67  S   UNL A   1      39.477  35.725  42.870  1.00  0.00     0.124 S 
ATOM     68  O   UNL A   1      39.736  37.126  42.544  1.00  0.00    -0.237 OA
ATOM     69  O   UNL A   1      38.083  35.393  43.152  1.00  0.00    -0.237 OA
ATOM     70  O   UNL A   1      40.455  35.103  43.760  1.00  0.00    -0.744 OA
ENDBRANCH  66  67
ENDBRANCH  47  61
BRANCH  48  71
ATOM     71  C   UNL A   1      41.543  29.339  29.902  1.00  0.00    -0.014 A 
ATOM     72  C   UNL A   1      41.054  28.054  29.613  1.00  0.00     0.010 A 
ATOM     73  C   UNL A   1      42.250  30.041  28.908  1.00  0.00     0.010 A 
ATOM     74  C   UNL A   1      41.279  27.476  28.359  1.00  0.00     0.020 A 
ATOM     75  C   UNL A   1      42.454  29.479  27.645  1.00  0.00     0.020 A 
ATOM     76  C   UNL A   1      41.976  28.194  27.382  1.00  0.00     0.054 A 
BRANCH  76  77
ATOM     77  S   UNL A   1      42.211  27.447  25.746  1.00  0.00     0.124 S 
ATOM     78  O   UNL A   1      43.539  26.854  25.869  1.00  0.00    -0.237 OA
ATOM     79  O   UNL A   1      41.100  26.500  25.668  1.00  0.00    -0.237 OA
ATOM     80  O   UNL A   1      42.114  28.584  24.834  1.00  0.00    -0.744 OA
ENDBRANCH  76  77
ENDBRANCH  48  71
BRANCH  60  81
ATOM     81  C   UNL A   1      45.290  29.507  35.790  1.00  0.00    -0.014 A 
ATOM     82  C   UNL A   1      46.499  30.211  35.638  1.00  0.00     0.010 A 
ATOM     83  C   UNL A   1      45.313  28.226  36.372  1.00  0.00     0.010 A 
ATOM     84  C   UNL A   1      47.707  29.633  36.036  1.00  0.00     0.020 A 
ATOM     85  C   UNL A   1      46.516  27.656  36.796  1.00  0.00     0.020 A 
ATOM     86  C   UNL A   1      47.708  28.357  36.612  1.00  0.00     0.054 A 
BRANCH  86  87
ATOM     87  S   UNL A   1      49.284  27.647  37.161  1.00  0.00     0.124 S 
ATOM     88  O   UNL A   1      48.842  26.546  38.012  1.00  0.00    -0.237 OA
ATOM     89  O   UNL A   1      49.916  27.253  35.904  1.00  0.00    -0.237 OA
ATOM     90  O   UNL A   1      49.938  28.751  37.860  1.00  0.00    -0.744 OA
ENDBRANCH  86  87
ENDBRANCH  60  81
ENDBRANCH  34  35
ENDBRANCH  27  29
ENDBRANCH  26  27
ENDBRANCH  25  26
ENDBRANCH  24  25
ENDBRANCH  23  24
ENDBRANCH   1  23
TORSDOF 22
ENDMDL
MODEL 3
REMARK VINA RESULT:      -8.7      5.171      6.196
REMARK SMILES COc1cc(Br)c(OC)c(C(=O)NCCC(=O)OCCOCCOC(=O)c2ccc(-c3c4nc(c(-c5ccc(S(=O)(=O)[O-])cc5)c5ccc([nH]5)c(-c5ccc(S(=O)(=O)[O-])cc5)c5nc(c(-c6ccc(S(=O)(=O)[O-])cc6)c6ccc3[nH]6)C=C5)C=C4)cc2)c1
REMARK SMILES IDX 20 1 19 2 18 3 16 4 17 5 15 6 14 7 13 8 11 9 12 10 10 12
REMARK SMILES IDX 3 13 4 14 87 15 5 16 6 17 7 18 2 19 1 20 8 21 9 22 21 23
REMARK SMILES IDX 22 24 23 25 24 26 25 27 26 28 27 29 28 30 86 31 29 32 85 33
REMARK SMILES IDX 30 34 31 35 32 36 79 37 33 38 84 39 78 40 80 41 34 42 83 43
REMARK SMILES IDX 77 44 76 45 35 47 65 48 46 49 64 50 47 51 50 52 63 53 81 54
REMARK SMILES IDX 48 55 49 56 62 58 82 59 51 60 36 61 37 62 45 63 38 64 44 65
REMARK SMILES IDX 39 66 40 67 41 68 42 69 43 70 66 71 67 72 75 73 68 74 74 75
REMARK SMILES IDX 69 76 70 77 71 78 72 79 73 80 52 81 53 82 61 83 54 84 60 85
REMARK SMILES IDX 55 86 56 87 57 88 58 89 59 90
REMARK H PARENT 13 11 80 46 50 57
REMARK Flexibility Score: inf
ROOT
ATOM      1  C   UNL A   1      34.648  33.536  28.289  1.00  0.00     0.202 C 
ENDROOT
BRANCH   1   2
ATOM      2  C   UNL A   1      34.438  32.061  28.635  1.00  0.00     0.261 C 
BRANCH   2   3
ATOM      3  O   UNL A   1      33.710  31.341  27.618  1.00  0.00    -0.463 OA
BRANCH   3   4
ATOM      4  C   UNL A   1      34.111  30.059  27.413  1.00  0.00     0.307 C 
ATOM      5  O   UNL A   1      35.218  29.610  27.686  1.00  0.00    -0.252 OA
BRANCH   4   6
ATOM      6  C   UNL A   1      33.049  29.226  26.744  1.00  0.00     0.144 C 
BRANCH   6   7
ATOM      7  C   UNL A   1      33.175  29.091  25.236  1.00  0.00     0.128 C 
BRANCH   7   8
ATOM      8  N   UNL A   1      31.910  28.948  24.525  1.00  0.00    -0.351 N 
ATOM      9  C   UNL A   1      31.134  27.843  24.229  1.00  0.00     0.255 C 
ATOM     10  O   UNL A   1      30.043  28.021  23.691  1.00  0.00    -0.269 OA
ATOM     11  H   UNL A   1      31.539  29.797  24.194  1.00  0.00     0.163 HD
BRANCH   9  12
ATOM     12  C   UNL A   1      31.568  26.457  24.566  1.00  0.00     0.086 A 
ATOM     13  C   UNL A   1      31.432  24.549  26.043  1.00  0.00     0.121 A 
ATOM     14  C   UNL A   1      32.421  23.897  25.317  1.00  0.00     0.066 A 
ATOM     15  C   UNL A   1      30.937  25.774  25.614  1.00  0.00     0.064 A 
ATOM     16  C   UNL A   1      32.996  24.522  24.208  1.00  0.00     0.064 A 
ATOM     17  Br  UNL A   1      34.415  23.568  23.374  1.00  0.00    -0.047 Br
ATOM     18  C   UNL A   1      32.585  25.812  23.824  1.00  0.00     0.146 A 
BRANCH  13  19
ATOM     19  O   UNL A   1      30.925  24.041  27.210  1.00  0.00    -0.497 OA
ATOM     20  C   UNL A   1      30.083  22.908  26.962  1.00  0.00     0.278 C 
ENDBRANCH  13  19
BRANCH  18  21
ATOM     21  O   UNL A   1      33.244  26.526  22.856  1.00  0.00    -0.495 OA
ATOM     22  C   UNL A   1      32.838  26.223  21.518  1.00  0.00     0.278 C 
ENDBRANCH  18  21
ENDBRANCH   9  12
ENDBRANCH   7   8
ENDBRANCH   6   7
ENDBRANCH   4   6
ENDBRANCH   3   4
ENDBRANCH   2   3
ENDBRANCH   1   2
BRANCH   1  23
ATOM     23  O   UNL A   1      33.473  34.338  28.168  1.00  0.00    -0.374 OA
BRANCH  23  24
ATOM     24  C   UNL A   1      33.548  35.678  28.650  1.00  0.00     0.202 C 
BRANCH  24  25
ATOM     25  C   UNL A   1      32.578  36.061  29.775  1.00  0.00     0.261 C 
BRANCH  25  26
ATOM     26  O   UNL A   1      33.262  36.354  31.008  1.00  0.00    -0.460 OA
BRANCH  26  27
ATOM     27  C   UNL A   1      33.124  35.410  31.970  1.00  0.00     0.338 C 
ATOM     28  O   UNL A   1      32.108  35.155  32.608  1.00  0.00    -0.246 OA
BRANCH  27  29
ATOM     29  C   UNL A   1      34.324  34.559  32.035  1.00  0.00     0.060 A 
ATOM     30  C   UNL A   1      34.228  33.366  32.765  1.00  0.00     0.016 A 
ATOM     31  C   UNL A   1      35.542  34.953  31.477  1.00  0.00     0.016 A 
ATOM     32  C   UNL A   1      35.362  32.589  32.986  1.00  0.00     0.010 A 
ATOM     33  C   UNL A   1      36.684  34.175  31.712  1.00  0.00     0.010 A 
ATOM     34  C   UNL A   1      36.606  33.012  32.501  1.00  0.00    -0.014 A 
BRANCH  34  35
ATOM     35  C   UNL A   1      37.836  32.316  32.952  1.00  0.00     0.031 A 
ATOM     36  C   UNL A   1      38.463  32.718  34.262  1.00  0.00     0.074 A 
ATOM     37  C   UNL A   1      38.359  31.304  32.237  1.00  0.00     0.049 A 
ATOM     38  N   UNL A   1      39.532  32.242  34.848  1.00  0.00    -0.248 NA
ATOM     39  C   UNL A   1      37.794  33.795  35.010  1.00  0.00     0.031 C 
ATOM     40  C   UNL A   1      37.819  30.790  30.979  1.00  0.00     0.029 A 
ATOM     41  N   UNL A   1      39.468  30.528  32.470  1.00  0.00    -0.354 N 
ATOM     42  C   UNL A   1      39.666  32.964  36.030  1.00  0.00     0.074 A 
ATOM     43  C   UNL A   1      38.587  33.925  36.063  1.00  0.00     0.031 C 
ATOM     44  C   UNL A   1      38.600  29.784  30.548  1.00  0.00     0.029 A 
ATOM     45  C   UNL A   1      39.712  29.606  31.481  1.00  0.00     0.049 A 
ATOM     46  H   UNL A   1      40.033  30.623  33.270  1.00  0.00     0.167 HD
ATOM     47  C   UNL A   1      40.601  32.833  37.001  1.00  0.00     0.031 A 
ATOM     48  C   UNL A   1      40.728  28.732  31.332  1.00  0.00     0.031 A 
ATOM     49  C   UNL A   1      41.684  31.887  36.960  1.00  0.00     0.049 A 
ATOM     50  C   UNL A   1      41.799  28.658  32.389  1.00  0.00     0.074 A 
ATOM     51  C   UNL A   1      42.678  31.675  37.899  1.00  0.00     0.029 A 
ATOM     52  N   UNL A   1      41.922  31.002  35.919  1.00  0.00    -0.354 N 
ATOM     53  N   UNL A   1      41.901  29.332  33.510  1.00  0.00    -0.248 NA
ATOM     54  C   UNL A   1      42.890  27.699  32.163  1.00  0.00     0.031 C 
ATOM     55  C   UNL A   1      43.547  30.697  37.403  1.00  0.00     0.029 A 
ATOM     56  C   UNL A   1      43.061  30.258  36.181  1.00  0.00     0.049 A 
ATOM     57  H   UNL A   1      41.364  30.914  35.113  1.00  0.00     0.167 HD
ATOM     58  C   UNL A   1      43.052  28.861  34.134  1.00  0.00     0.074 A 
ATOM     59  C   UNL A   1      43.604  27.835  33.273  1.00  0.00     0.031 C 
ATOM     60  C   UNL A   1      43.601  29.242  35.315  1.00  0.00     0.031 A 
BRANCH  47  61
ATOM     61  C   UNL A   1      40.510  33.764  38.181  1.00  0.00    -0.014 A 
ATOM     62  C   UNL A   1      41.214  34.982  38.204  1.00  0.00     0.010 A 
ATOM     63  C   UNL A   1      39.681  33.432  39.268  1.00  0.00     0.010 A 
ATOM     64  C   UNL A   1      41.116  35.835  39.308  1.00  0.00     0.020 A 
ATOM     65  C   UNL A   1      39.563  34.293  40.362  1.00  0.00     0.020 A 
ATOM     66  C   UNL A   1      40.294  35.482  40.383  1.00  0.00     0.054 A 
BRANCH  66  67
ATOM     67  S   UNL A   1      40.170  36.616  41.793  1.00  0.00     0.124 S 
ATOM     68  O   UNL A   1      39.092  37.508  41.368  1.00  0.00    -0.237 OA
ATOM     69  O   UNL A   1      39.843  35.720  42.899  1.00  0.00    -0.237 OA
ATOM     70  O   UNL A   1      41.494  37.230  41.863  1.00  0.00    -0.744 OA
ENDBRANCH  66  67
ENDBRANCH  47  61
BRANCH  48  71
ATOM     71  C   UNL A   1      40.792  27.868  30.122  1.00  0.00    -0.014 A 
ATOM     72  C   UNL A   1      39.731  27.006  29.794  1.00  0.00     0.010 A 
ATOM     73  C   UNL A   1      41.925  27.905  29.288  1.00  0.00     0.010 A 
ATOM     74  C   UNL A   1      39.807  26.187  28.663  1.00  0.00     0.020 A 
ATOM     75  C   UNL A   1      41.994  27.108  28.142  1.00  0.00     0.020 A 
ATOM     76  C   UNL A   1      40.938  26.246  27.842  1.00  0.00     0.054 A 
BRANCH  76  77
ATOM     77  S   UNL A   1      40.993  25.215  26.351  1.00  0.00     0.124 S 
ATOM     78  O   UNL A   1      42.103  24.314  26.644  1.00  0.00    -0.237 OA
ATOM     79  O   UNL A   1      39.666  24.602  26.341  1.00  0.00    -0.237 OA
ATOM     80  O   UNL A   1      41.234  26.178  25.279  1.00  0.00    -0.744 OA
ENDBRANCH  76  77
ENDBRANCH  48  71
BRANCH  60  81
ATOM     81  C   UNL A   1      44.845  28.525  35.768  1.00  0.00    -0.014 A 
ATOM     82  C   UNL A   1      46.126  29.034  35.483  1.00  0.00     0.010 A 
ATOM     83  C   UNL A   1      44.730  27.356  36.542  1.00  0.00     0.010 A 
ATOM     84  C   UNL A   1      47.267  28.370  35.940  1.00  0.00     0.020 A 
ATOM     85  C   UNL A   1      45.869  26.704  37.024  1.00  0.00     0.020 A 
ATOM     86  C   UNL A   1      47.131  27.207  36.707  1.00  0.00     0.054 A 
BRANCH  86  87
ATOM     87  S   UNL A   1      48.626  26.388  37.327  1.00  0.00     0.124 S 
ATOM     88  O   UNL A   1      48.423  25.011  36.889  1.00  0.00    -0.237 OA
ATOM     89  O   UNL A   1      49.697  27.112  36.644  1.00  0.00    -0.237 OA
ATOM     90  O   UNL A   1      48.564  26.599  38.771  1.00  0.00    -0.744 OA
ENDBRANCH  86  87
ENDBRANCH  60  81
ENDBRANCH  34  35
ENDBRANCH  27  29
ENDBRANCH  26  27
ENDBRANCH  25  26
ENDBRANCH  24  25
ENDBRANCH  23  24
ENDBRANCH   1  23
TORSDOF 22
ENDMDL
