MODEL 1
REMARK VINA RESULT:     -11.0      0.000      0.000
REMARK SMILES C[C@H]1[C@H](C)CC[C@@]2(C(=O)OCCOCCOC(=O)c3ccc(-c4c5nc(c(-c6ccc(S(=O)(=O)[O-])cc6)c6ccc([nH]6)c(-c6ccc(S(=O)(=O)[O-])cc6)c6nc(c(-c7ccc(S(=O)(=O)[O-])cc7)c7ccc4[nH]7)C=C6)C=C5)cc3)CC[C@@]3(C)C(=CC[C@@H]4[C@@]5(C)CC[C@H](O)C(C)(C)[C@@H]5CC[C@]43C)[C@H]12
REMARK SMILES IDX 14 1 13 2 12 3 11 4 10 5 8 6 9 7 7 8 1 9 2 10 3 11 101 12
REMARK SMILES IDX 4 13 5 14 83 15 6 16 79 17 81 18 84 19 80 20 82 21 99 22
REMARK SMILES IDX 85 23 86 24 98 25 100 26 87 27 97 28 88 29 89 30 96 31 90 32
REMARK SMILES IDX 93 33 91 34 94 35 95 36 92 37 15 39 16 40 17 41 18 42 19 43
REMARK SMILES IDX 20 44 78 45 21 46 77 47 22 48 23 49 24 50 71 51 25 52 76 53
REMARK SMILES IDX 70 54 72 55 26 56 75 57 69 58 68 59 27 61 57 62 38 63 56 64
REMARK SMILES IDX 39 65 42 66 55 67 73 68 40 69 41 70 54 72 74 73 43 74 28 75
REMARK SMILES IDX 29 76 37 77 30 78 36 79 31 80 32 81 33 82 34 83 35 84 58 85
REMARK SMILES IDX 59 86 67 87 60 88 66 89 61 90 62 91 63 92 64 93 65 94 44 95
REMARK SMILES IDX 45 96 53 97 46 98 52 99 47 100 48 101 49 102 50 103 51 104
REMARK H PARENT 92 38 72 60 42 71
REMARK Flexibility Score: inf
ROOT
ATOM      1  C   UNL A   1      33.566  30.602  27.558  1.00  0.00     0.202 C 
ENDROOT
BRANCH   1   2
ATOM      2  O   UNL A   1      34.185  29.331  27.597  1.00  0.00    -0.374 OA
BRANCH   2   3
ATOM      3  C   UNL A   1      35.018  28.994  26.498  1.00  0.00     0.202 C 
BRANCH   3   4
ATOM      4  C   UNL A   1      34.478  28.175  25.311  1.00  0.00     0.261 C 
BRANCH   4   5
ATOM      5  O   UNL A   1      33.518  28.885  24.485  1.00  0.00    -0.463 OA
BRANCH   5   6
ATOM      6  C   UNL A   1      32.342  28.348  24.067  1.00  0.00     0.312 C 
ATOM      7  O   UNL A   1      32.206  27.831  22.965  1.00  0.00    -0.252 OA
BRANCH   6   8
ATOM      8  C   UNL A   1      31.155  28.506  25.072  1.00  0.00     0.075 C 
ATOM      9  C   UNL A   1      27.982  28.132  22.750  1.00  0.00     0.008 C 
ATOM     10  C   UNL A   1      29.333  28.630  23.273  1.00  0.00    -0.003 C 
ATOM     11  C   UNL A   1      29.261  30.190  23.490  1.00  0.00    -0.011 C 
ATOM     12  C   UNL A   1      29.842  27.821  24.561  1.00  0.00     0.036 C 
ATOM     13  C   UNL A   1      28.997  30.998  22.205  1.00  0.00     0.008 C 
ATOM     14  C   UNL A   1      30.542  30.774  24.080  1.00  0.00     0.005 C 
ATOM     15  C   UNL A   1      30.160  26.260  24.537  1.00  0.00    -0.063 C 
ATOM     16  C   UNL A   1      30.975  30.024  25.310  1.00  0.00     0.020 C 
ATOM     17  C   UNL A   1      31.490  27.974  26.480  1.00  0.00     0.020 C 
ATOM     18  C   UNL A   1      30.688  25.583  25.865  1.00  0.00    -0.006 C 
ATOM     19  C   UNL A   1      30.251  25.573  23.377  1.00  0.00    -0.027 C 
ATOM     20  C   UNL A   1      31.751  26.490  26.547  1.00  0.00     0.013 C 
ATOM     21  C   UNL A   1      29.472  25.454  26.815  1.00  0.00     0.017 C 
ATOM     22  C   UNL A   1      31.373  24.105  25.611  1.00  0.00    -0.020 C 
ATOM     23  C   UNL A   1      31.231  24.431  23.166  1.00  0.00     0.032 C 
ATOM     24  C   UNL A   1      32.264  24.283  24.328  1.00  0.00     0.006 C 
ATOM     25  C   UNL A   1      32.219  23.586  26.801  1.00  0.00     0.008 C 
ATOM     26  C   UNL A   1      30.273  23.016  25.398  1.00  0.00     0.012 C 
ATOM     27  C   UNL A   1      33.531  23.317  24.089  1.00  0.00    -0.025 C 
ATOM     28  C   UNL A   1      33.075  22.361  26.441  1.00  0.00     0.005 C 
ATOM     29  C   UNL A   1      33.132  22.241  23.065  1.00  0.00     0.012 C 
ATOM     30  C   UNL A   1      34.721  24.132  23.469  1.00  0.00     0.010 C 
ATOM     31  C   UNL A   1      34.151  22.781  25.438  1.00  0.00     0.003 C 
ATOM     32  C   UNL A   1      36.019  23.336  23.266  1.00  0.00     0.033 C 
ATOM     33  C   UNL A   1      35.385  21.800  25.282  1.00  0.00    -0.006 C 
ATOM     34  C   UNL A   1      36.498  22.570  24.504  1.00  0.00     0.120 C 
ATOM     35  C   UNL A   1      35.054  20.438  24.634  1.00  0.00     0.014 C 
ATOM     36  C   UNL A   1      35.983  21.438  26.673  1.00  0.00     0.014 C 
BRANCH  34  37
ATOM     37  O   UNL A   1      37.573  21.701  24.139  1.00  0.00    -0.393 OA
ATOM     38  H   UNL A   1      38.415  22.173  24.230  1.00  0.00     0.210 HD
ENDBRANCH  34  37
ENDBRANCH   6   8
ENDBRANCH   5   6
ENDBRANCH   4   5
ENDBRANCH   3   4
ENDBRANCH   2   3
ENDBRANCH   1   2
BRANCH   1  39
ATOM     39  C   UNL A   1      34.578  31.740  27.762  1.00  0.00     0.261 C 
BRANCH  39  40
ATOM     40  O   UNL A   1      34.100  33.041  27.367  1.00  0.00    -0.460 OA
BRANCH  40  41
ATOM     41  C   UNL A   1      33.701  33.847  28.378  1.00  0.00     0.338 C 
ATOM     42  O   UNL A   1      32.629  34.436  28.481  1.00  0.00    -0.246 OA
BRANCH  41  43
ATOM     43  C   UNL A   1      34.711  33.857  29.450  1.00  0.00     0.060 A 
ATOM     44  C   UNL A   1      36.011  34.302  29.162  1.00  0.00     0.016 A 
ATOM     45  C   UNL A   1      34.413  33.297  30.692  1.00  0.00     0.016 A 
ATOM     46  C   UNL A   1      37.034  34.121  30.087  1.00  0.00     0.010 A 
ATOM     47  C   UNL A   1      35.447  33.074  31.603  1.00  0.00     0.010 A 
ATOM     48  C   UNL A   1      36.766  33.432  31.272  1.00  0.00    -0.014 A 
BRANCH  48  49
ATOM     49  C   UNL A   1      37.894  32.832  32.016  1.00  0.00     0.031 A 
ATOM     50  C   UNL A   1      38.564  31.624  31.414  1.00  0.00     0.074 A 
ATOM     51  C   UNL A   1      38.331  33.372  33.165  1.00  0.00     0.049 A 
ATOM     52  N   UNL A   1      39.508  30.868  31.904  1.00  0.00    -0.248 NA
ATOM     53  C   UNL A   1      38.101  31.214  30.075  1.00  0.00     0.031 C 
ATOM     54  C   UNL A   1      37.802  34.589  33.780  1.00  0.00     0.029 A 
ATOM     55  N   UNL A   1      39.315  32.958  34.022  1.00  0.00    -0.354 N 
ATOM     56  C   UNL A   1      39.738  29.886  30.947  1.00  0.00     0.074 A 
ATOM     57  C   UNL A   1      38.825  30.127  29.855  1.00  0.00     0.031 C 
ATOM     58  C   UNL A   1      38.460  34.814  34.931  1.00  0.00     0.029 A 
ATOM     59  C   UNL A   1      39.419  33.733  35.151  1.00  0.00     0.049 A 
ATOM     60  H   UNL A   1      39.893  32.181  33.845  1.00  0.00     0.167 HD
ATOM     61  C   UNL A   1      40.633  28.871  30.981  1.00  0.00     0.031 A 
ATOM     62  C   UNL A   1      40.177  33.560  36.250  1.00  0.00     0.031 A 
ATOM     63  C   UNL A   1      41.523  28.643  32.087  1.00  0.00     0.049 A 
ATOM     64  C   UNL A   1      41.099  32.370  36.307  1.00  0.00     0.074 A 
ATOM     65  C   UNL A   1      42.469  27.647  32.242  1.00  0.00     0.029 A 
ATOM     66  N   UNL A   1      41.569  29.424  33.233  1.00  0.00    -0.354 N 
ATOM     67  N   UNL A   1      41.306  31.443  35.400  1.00  0.00    -0.248 NA
ATOM     68  C   UNL A   1      41.893  32.203  37.531  1.00  0.00     0.031 C 
ATOM     69  C   UNL A   1      43.043  27.790  33.509  1.00  0.00     0.029 A 
ATOM     70  C   UNL A   1      42.507  28.917  34.113  1.00  0.00     0.049 A 
ATOM     71  H   UNL A   1      41.015  30.222  33.395  1.00  0.00     0.167 HD
ATOM     72  C   UNL A   1      42.275  30.599  35.933  1.00  0.00     0.074 A 
ATOM     73  C   UNL A   1      42.623  31.137  37.233  1.00  0.00     0.031 C 
ATOM     74  C   UNL A   1      42.830  29.481  35.400  1.00  0.00     0.031 A 
BRANCH  61  75
ATOM     75  C   UNL A   1      40.657  27.912  29.818  1.00  0.00    -0.014 A 
ATOM     76  C   UNL A   1      39.712  26.876  29.699  1.00  0.00     0.010 A 
ATOM     77  C   UNL A   1      41.623  28.073  28.807  1.00  0.00     0.010 A 
ATOM     78  C   UNL A   1      39.748  26.007  28.604  1.00  0.00     0.020 A 
ATOM     79  C   UNL A   1      41.644  27.224  27.697  1.00  0.00     0.020 A 
ATOM     80  C   UNL A   1      40.713  26.188  27.609  1.00  0.00     0.054 A 
BRANCH  80  81
ATOM     81  S   UNL A   1      40.707  25.072  26.178  1.00  0.00     0.124 S 
ATOM     82  O   UNL A   1      39.306  24.661  26.119  1.00  0.00    -0.237 OA
ATOM     83  O   UNL A   1      41.152  25.943  25.092  1.00  0.00    -0.237 OA
ATOM     84  O   UNL A   1      41.648  24.019  26.553  1.00  0.00    -0.744 OA
ENDBRANCH  80  81
ENDBRANCH  61  75
BRANCH  62  85
ATOM     85  C   UNL A   1      40.066  34.508  37.393  1.00  0.00    -0.014 A 
ATOM     86  C   UNL A   1      39.139  34.288  38.426  1.00  0.00     0.010 A 
ATOM     87  C   UNL A   1      40.896  35.644  37.453  1.00  0.00     0.010 A 
ATOM     88  C   UNL A   1      39.030  35.196  39.485  1.00  0.00     0.020 A 
ATOM     89  C   UNL A   1      40.813  36.536  38.525  1.00  0.00     0.020 A 
ATOM     90  C   UNL A   1      39.869  36.312  39.529  1.00  0.00     0.054 A 
BRANCH  90  91
ATOM     91  S   UNL A   1      39.735  37.454  40.933  1.00  0.00     0.124 S 
ATOM     92  O   UNL A   1      39.103  38.617  40.320  1.00  0.00    -0.237 OA
ATOM     93  O   UNL A   1      38.906  36.701  41.871  1.00  0.00    -0.237 OA
ATOM     94  O   UNL A   1      41.121  37.644  41.353  1.00  0.00    -0.744 OA
ENDBRANCH  90  91
ENDBRANCH  62  85
BRANCH  74  95
ATOM     95  C   UNL A   1      43.898  28.792  36.206  1.00  0.00    -0.014 A 
ATOM     96  C   UNL A   1      45.214  29.285  36.249  1.00  0.00     0.010 A 
ATOM     97  C   UNL A   1      43.558  27.667  36.979  1.00  0.00     0.010 A 
ATOM     98  C   UNL A   1      46.180  28.642  37.025  1.00  0.00     0.020 A 
ATOM     99  C   UNL A   1      44.513  27.042  37.783  1.00  0.00     0.020 A 
ATOM    100  C   UNL A   1      45.823  27.526  37.790  1.00  0.00     0.054 A 
BRANCH 100 101
ATOM    101  S   UNL A   1      47.087  26.737  38.822  1.00  0.00     0.124 S 
ATOM    102  O   UNL A   1      48.075  27.803  38.960  1.00  0.00    -0.237 OA
ATOM    103  O   UNL A   1      46.345  26.405  40.036  1.00  0.00    -0.237 OA
ATOM    104  O   UNL A   1      47.516  25.589  38.028  1.00  0.00    -0.744 OA
ENDBRANCH 100 101
ENDBRANCH  74  95
ENDBRANCH  48  49
ENDBRANCH  41  43
ENDBRANCH  40  41
ENDBRANCH  39  40
ENDBRANCH   1  39
TORSDOF 18
ENDMDL
MODEL 2
REMARK VINA RESULT:     -10.9      4.744      9.101
REMARK SMILES C[C@H]1[C@H](C)CC[C@@]2(C(=O)OCCOCCOC(=O)c3ccc(-c4c5nc(c(-c6ccc(S(=O)(=O)[O-])cc6)c6ccc([nH]6)c(-c6ccc(S(=O)(=O)[O-])cc6)c6nc(c(-c7ccc(S(=O)(=O)[O-])cc7)c7ccc4[nH]7)C=C6)C=C5)cc3)CC[C@@]3(C)C(=CC[C@@H]4[C@@]5(C)CC[C@H](O)C(C)(C)[C@@H]5CC[C@]43C)[C@H]12
REMARK SMILES IDX 14 1 13 2 12 3 11 4 10 5 8 6 9 7 7 8 1 9 2 10 3 11 101 12
REMARK SMILES IDX 4 13 5 14 83 15 6 16 79 17 81 18 84 19 80 20 82 21 99 22
REMARK SMILES IDX 85 23 86 24 98 25 100 26 87 27 97 28 88 29 89 30 96 31 90 32
REMARK SMILES IDX 93 33 91 34 94 35 95 36 92 37 15 39 16 40 17 41 18 42 19 43
REMARK SMILES IDX 20 44 78 45 21 46 77 47 22 48 23 49 24 50 71 51 25 52 76 53
REMARK SMILES IDX 70 54 72 55 26 56 75 57 69 58 68 59 27 61 57 62 38 63 56 64
REMARK SMILES IDX 39 65 42 66 55 67 73 68 40 69 41 70 54 72 74 73 43 74 28 75
REMARK SMILES IDX 29 76 37 77 30 78 36 79 31 80 32 81 33 82 34 83 35 84 58 85
REMARK SMILES IDX 59 86 67 87 60 88 66 89 61 90 62 91 63 92 64 93 65 94 44 95
REMARK SMILES IDX 45 96 53 97 46 98 52 99 47 100 48 101 49 102 50 103 51 104
REMARK H PARENT 92 38 72 60 42 71
REMARK Flexibility Score: inf
ROOT
ATOM      1  C   UNL A   1      33.367  30.327  27.388  1.00  0.00     0.202 C 
ENDROOT
BRANCH   1   2
ATOM      2  O   UNL A   1      34.452  30.101  26.511  1.00  0.00    -0.374 OA
BRANCH   2   3
ATOM      3  C   UNL A   1      34.543  28.810  25.927  1.00  0.00     0.202 C 
BRANCH   3   4
ATOM      4  C   UNL A   1      34.309  28.599  24.420  1.00  0.00     0.261 C 
BRANCH   4   5
ATOM      5  O   UNL A   1      33.239  27.669  24.107  1.00  0.00    -0.463 OA
BRANCH   5   6
ATOM      6  C   UNL A   1      32.016  28.053  23.654  1.00  0.00     0.312 C 
ATOM      7  O   UNL A   1      31.779  28.234  22.466  1.00  0.00    -0.252 OA
BRANCH   6   8
ATOM      8  C   UNL A   1      30.955  28.315  24.772  1.00  0.00     0.075 C 
ATOM      9  C   UNL A   1      27.535  27.681  22.900  1.00  0.00     0.008 C 
ATOM     10  C   UNL A   1      28.930  28.238  23.201  1.00  0.00    -0.003 C 
ATOM     11  C   UNL A   1      28.860  29.812  23.256  1.00  0.00    -0.011 C 
ATOM     12  C   UNL A   1      29.602  27.575  24.498  1.00  0.00     0.036 C 
ATOM     13  C   UNL A   1      28.432  30.475  21.934  1.00  0.00     0.008 C 
ATOM     14  C   UNL A   1      30.192  30.461  23.622  1.00  0.00     0.005 C 
ATOM     15  C   UNL A   1      29.940  26.022  24.604  1.00  0.00    -0.063 C 
ATOM     16  C   UNL A   1      30.780  29.850  24.865  1.00  0.00     0.020 C 
ATOM     17  C   UNL A   1      31.463  27.941  26.178  1.00  0.00     0.020 C 
ATOM     18  C   UNL A   1      30.633  25.495  25.924  1.00  0.00    -0.006 C 
ATOM     19  C   UNL A   1      29.903  25.213  23.522  1.00  0.00    -0.027 C 
ATOM     20  C   UNL A   1      31.754  26.473  26.372  1.00  0.00     0.013 C 
ATOM     21  C   UNL A   1      29.540  25.465  27.021  1.00  0.00     0.017 C 
ATOM     22  C   UNL A   1      31.306  24.000  25.750  1.00  0.00    -0.020 C 
ATOM     23  C   UNL A   1      30.869  24.058  23.319  1.00  0.00     0.032 C 
ATOM     24  C   UNL A   1      32.035  24.040  24.358  1.00  0.00     0.006 C 
ATOM     25  C   UNL A   1      32.295  23.615  26.879  1.00  0.00     0.008 C 
ATOM     26  C   UNL A   1      30.206  22.890  25.788  1.00  0.00     0.012 C 
ATOM     27  C   UNL A   1      33.280  23.057  24.074  1.00  0.00    -0.025 C 
ATOM     28  C   UNL A   1      33.123  22.361  26.552  1.00  0.00     0.005 C 
ATOM     29  C   UNL A   1      32.780  21.875  23.226  1.00  0.00     0.012 C 
ATOM     30  C   UNL A   1      34.375  23.804  23.232  1.00  0.00     0.010 C 
ATOM     31  C   UNL A   1      34.065  22.673  25.388  1.00  0.00     0.003 C 
ATOM     32  C   UNL A   1      35.652  22.995  22.961  1.00  0.00     0.033 C 
ATOM     33  C   UNL A   1      35.287  21.684  25.192  1.00  0.00    -0.006 C 
ATOM     34  C   UNL A   1      36.287  22.369  24.208  1.00  0.00     0.120 C 
ATOM     35  C   UNL A   1      34.903  20.259  24.738  1.00  0.00     0.014 C 
ATOM     36  C   UNL A   1      36.051  21.477  26.532  1.00  0.00     0.014 C 
BRANCH  34  37
ATOM     37  O   UNL A   1      37.325  21.469  23.812  1.00  0.00    -0.393 OA
ATOM     38  H   UNL A   1      38.022  21.463  24.487  1.00  0.00     0.210 HD
ENDBRANCH  34  37
ENDBRANCH   6   8
ENDBRANCH   5   6
ENDBRANCH   4   5
ENDBRANCH   3   4
ENDBRANCH   2   3
ENDBRANCH   1   2
BRANCH   1  39
ATOM     39  C   UNL A   1      33.408  31.735  28.002  1.00  0.00     0.261 C 
BRANCH  39  40
ATOM     40  O   UNL A   1      34.730  32.206  28.329  1.00  0.00    -0.460 OA
BRANCH  40  41
ATOM     41  C   UNL A   1      35.199  31.832  29.541  1.00  0.00     0.338 C 
ATOM     42  O   UNL A   1      34.747  32.138  30.642  1.00  0.00    -0.246 OA
BRANCH  41  43
ATOM     43  C   UNL A   1      36.312  30.879  29.385  1.00  0.00     0.060 A 
ATOM     44  C   UNL A   1      36.852  30.264  30.525  1.00  0.00     0.016 A 
ATOM     45  C   UNL A   1      36.910  30.707  28.136  1.00  0.00     0.016 A 
ATOM     46  C   UNL A   1      38.033  29.534  30.435  1.00  0.00     0.010 A 
ATOM     47  C   UNL A   1      38.118  30.012  28.052  1.00  0.00     0.010 A 
ATOM     48  C   UNL A   1      38.707  29.481  29.212  1.00  0.00    -0.014 A 
BRANCH  48  49
ATOM     49  C   UNL A   1      40.144  29.133  29.208  1.00  0.00     0.031 A 
ATOM     50  C   UNL A   1      41.125  30.213  29.585  1.00  0.00     0.074 A 
ATOM     51  C   UNL A   1      40.554  27.888  28.918  1.00  0.00     0.049 A 
ATOM     52  N   UNL A   1      42.430  30.189  29.576  1.00  0.00    -0.248 NA
ATOM     53  C   UNL A   1      40.551  31.495  30.035  1.00  0.00     0.031 C 
ATOM     54  C   UNL A   1      39.675  26.757  28.625  1.00  0.00     0.029 A 
ATOM     55  N   UNL A   1      41.818  27.371  28.817  1.00  0.00    -0.354 N 
ATOM     56  C   UNL A   1      42.832  31.453  29.996  1.00  0.00     0.074 A 
ATOM     57  C   UNL A   1      41.636  32.226  30.237  1.00  0.00     0.031 C 
ATOM     58  C   UNL A   1      40.432  25.678  28.358  1.00  0.00     0.029 A 
ATOM     59  C   UNL A   1      41.842  26.058  28.417  1.00  0.00     0.049 A 
ATOM     60  H   UNL A   1      42.631  27.891  29.012  1.00  0.00     0.167 HD
ATOM     61  C   UNL A   1      44.090  31.923  30.164  1.00  0.00     0.031 A 
ATOM     62  C   UNL A   1      42.887  25.271  28.098  1.00  0.00     0.031 A 
ATOM     63  C   UNL A   1      45.265  31.137  29.904  1.00  0.00     0.049 A 
ATOM     64  C   UNL A   1      44.276  25.845  28.202  1.00  0.00     0.074 A 
ATOM     65  C   UNL A   1      46.592  31.502  30.030  1.00  0.00     0.029 A 
ATOM     66  N   UNL A   1      45.249  29.823  29.458  1.00  0.00    -0.354 N 
ATOM     67  N   UNL A   1      44.647  27.042  28.594  1.00  0.00    -0.248 NA
ATOM     68  C   UNL A   1      45.389  24.964  27.824  1.00  0.00     0.031 C 
ATOM     69  C   UNL A   1      47.379  30.428  29.600  1.00  0.00     0.029 A 
ATOM     70  C   UNL A   1      46.543  29.370  29.276  1.00  0.00     0.049 A 
ATOM     71  H   UNL A   1      44.437  29.292  29.295  1.00  0.00     0.167 HD
ATOM     72  C   UNL A   1      46.036  27.048  28.538  1.00  0.00     0.074 A 
ATOM     73  C   UNL A   1      46.438  25.729  28.091  1.00  0.00     0.031 C 
ATOM     74  C   UNL A   1      46.906  28.048  28.830  1.00  0.00     0.031 A 
BRANCH  61  75
ATOM     75  C   UNL A   1      44.255  33.357  30.598  1.00  0.00    -0.014 A 
ATOM     76  C   UNL A   1      44.363  34.402  29.662  1.00  0.00     0.010 A 
ATOM     77  C   UNL A   1      44.265  33.667  31.971  1.00  0.00     0.010 A 
ATOM     78  C   UNL A   1      44.504  35.725  30.092  1.00  0.00     0.020 A 
ATOM     79  C   UNL A   1      44.377  34.992  32.404  1.00  0.00     0.020 A 
ATOM     80  C   UNL A   1      44.507  36.012  31.461  1.00  0.00     0.054 A 
BRANCH  80  81
ATOM     81  S   UNL A   1      44.646  37.743  31.987  1.00  0.00     0.124 S 
ATOM     82  O   UNL A   1      43.799  38.426  31.011  1.00  0.00    -0.237 OA
ATOM     83  O   UNL A   1      44.125  37.704  33.351  1.00  0.00    -0.237 OA
ATOM     84  O   UNL A   1      46.074  38.028  31.876  1.00  0.00    -0.744 OA
ENDBRANCH  80  81
ENDBRANCH  61  75
BRANCH  62  85
ATOM     85  C   UNL A   1      42.658  23.881  27.617  1.00  0.00    -0.014 A 
ATOM     86  C   UNL A   1      42.535  22.814  28.524  1.00  0.00     0.010 A 
ATOM     87  C   UNL A   1      42.559  23.617  26.237  1.00  0.00     0.010 A 
ATOM     88  C   UNL A   1      42.340  21.509  28.059  1.00  0.00     0.020 A 
ATOM     89  C   UNL A   1      42.332  22.320  25.771  1.00  0.00     0.020 A 
ATOM     90  C   UNL A   1      42.237  21.271  26.686  1.00  0.00     0.054 A 
BRANCH  90  91
ATOM     91  S   UNL A   1      41.944  19.574  26.111  1.00  0.00     0.124 S 
ATOM     92  O   UNL A   1      40.531  19.617  25.749  1.00  0.00    -0.237 OA
ATOM     93  O   UNL A   1      42.882  19.454  24.998  1.00  0.00    -0.237 OA
ATOM     94  O   UNL A   1      42.267  18.757  27.279  1.00  0.00    -0.744 OA
ENDBRANCH  90  91
ENDBRANCH  62  85
BRANCH  74  95
ATOM     95  C   UNL A   1      48.374  27.740  28.713  1.00  0.00    -0.014 A 
ATOM     96  C   UNL A   1      49.114  27.273  29.813  1.00  0.00     0.010 A 
ATOM     97  C   UNL A   1      49.006  27.863  27.461  1.00  0.00     0.010 A 
ATOM     98  C   UNL A   1      50.469  26.970  29.671  1.00  0.00     0.020 A 
ATOM     99  C   UNL A   1      50.352  27.528  27.308  1.00  0.00     0.020 A 
ATOM    100  C   UNL A   1      51.079  27.096  28.419  1.00  0.00     0.054 A 
BRANCH 100 101
ATOM    101  S   UNL A   1      52.829  26.653  28.254  1.00  0.00     0.124 S 
ATOM    102  O   UNL A   1      53.139  26.141  29.584  1.00  0.00    -0.237 OA
ATOM    103  O   UNL A   1      52.806  25.658  27.184  1.00  0.00    -0.237 OA
ATOM    104  O   UNL A   1      53.476  27.917  27.906  1.00  0.00    -0.744 OA
ENDBRANCH 100 101
ENDBRANCH  74  95
ENDBRANCH  48  49
ENDBRANCH  41  43
ENDBRANCH  40  41
ENDBRANCH  39  40
ENDBRANCH   1  39
TORSDOF 18
ENDMDL
MODEL 3
REMARK VINA RESULT:     -10.8      7.844     14.088
REMARK SMILES C[C@H]1[C@H](C)CC[C@@]2(C(=O)OCCOCCOC(=O)c3ccc(-c4c5nc(c(-c6ccc(S(=O)(=O)[O-])cc6)c6ccc([nH]6)c(-c6ccc(S(=O)(=O)[O-])cc6)c6nc(c(-c7ccc(S(=O)(=O)[O-])cc7)c7ccc4[nH]7)C=C6)C=C5)cc3)CC[C@@]3(C)C(=CC[C@@H]4[C@@]5(C)CC[C@H](O)C(C)(C)[C@@H]5CC[C@]43C)[C@H]12
REMARK SMILES IDX 14 1 13 2 12 3 11 4 10 5 8 6 9 7 7 8 1 9 2 10 3 11 101 12
REMARK SMILES IDX 4 13 5 14 83 15 6 16 79 17 81 18 84 19 80 20 82 21 99 22
REMARK SMILES IDX 85 23 86 24 98 25 100 26 87 27 97 28 88 29 89 30 96 31 90 32
REMARK SMILES IDX 93 33 91 34 94 35 95 36 92 37 15 39 16 40 17 41 18 42 19 43
REMARK SMILES IDX 20 44 78 45 21 46 77 47 22 48 23 49 24 50 71 51 25 52 76 53
REMARK SMILES IDX 70 54 72 55 26 56 75 57 69 58 68 59 27 61 57 62 38 63 56 64
REMARK SMILES IDX 39 65 42 66 55 67 73 68 40 69 41 70 54 72 74 73 43 74 28 75
REMARK SMILES IDX 29 76 37 77 30 78 36 79 31 80 32 81 33 82 34 83 35 84 58 85
REMARK SMILES IDX 59 86 67 87 60 88 66 89 61 90 62 91 63 92 64 93 65 94 44 95
REMARK SMILES IDX 45 96 53 97 46 98 52 99 47 100 48 101 49 102 50 103 51 104
REMARK H PARENT 92 38 72 60 42 71
REMARK Flexibility Score: inf
ROOT
ATOM      1  C   UNL A   1      49.052  38.687  28.664  1.00  0.00     0.202 C 
ENDROOT
BRANCH   1   2
ATOM      2  O   UNL A   1      48.094  39.716  28.819  1.00  0.00    -0.374 OA
BRANCH   2   3
ATOM      3  C   UNL A   1      47.324  39.696  30.012  1.00  0.00     0.202 C 
BRANCH   3   4
ATOM      4  C   UNL A   1      45.925  40.335  30.068  1.00  0.00     0.261 C 
BRANCH   4   5
ATOM      5  O   UNL A   1      45.253  40.411  28.783  1.00  0.00    -0.463 OA
BRANCH   5   6
ATOM      6  C   UNL A   1      43.903  40.356  28.635  1.00  0.00     0.312 C 
ATOM      7  O   UNL A   1      43.128  40.528  29.569  1.00  0.00    -0.252 OA
BRANCH   6   8
ATOM      8  C   UNL A   1      43.415  39.986  27.196  1.00  0.00     0.075 C 
ATOM      9  C   UNL A   1      46.787  39.158  25.313  1.00  0.00     0.008 C 
ATOM     10  C   UNL A   1      45.759  39.915  26.161  1.00  0.00    -0.003 C 
ATOM     11  C   UNL A   1      45.487  41.325  25.510  1.00  0.00    -0.011 C 
ATOM     12  C   UNL A   1      44.429  39.063  26.440  1.00  0.00     0.036 C 
ATOM     13  C   UNL A   1      46.721  42.244  25.447  1.00  0.00     0.008 C 
ATOM     14  C   UNL A   1      44.419  42.130  26.245  1.00  0.00     0.005 C 
ATOM     15  C   UNL A   1      44.430  37.688  27.243  1.00  0.00    -0.063 C 
ATOM     16  C   UNL A   1      43.167  41.322  26.456  1.00  0.00     0.020 C 
ATOM     17  C   UNL A   1      42.023  39.325  27.189  1.00  0.00     0.020 C 
ATOM     18  C   UNL A   1      43.047  36.958  27.480  1.00  0.00    -0.006 C 
ATOM     19  C   UNL A   1      45.510  37.276  27.944  1.00  0.00    -0.027 C 
ATOM     20  C   UNL A   1      41.957  37.989  27.886  1.00  0.00     0.013 C 
ATOM     21  C   UNL A   1      42.640  36.320  26.130  1.00  0.00     0.017 C 
ATOM     22  C   UNL A   1      43.116  35.806  28.658  1.00  0.00    -0.020 C 
ATOM     23  C   UNL A   1      45.406  36.516  29.255  1.00  0.00     0.032 C 
ATOM     24  C   UNL A   1      43.950  36.458  29.819  1.00  0.00     0.006 C 
ATOM     25  C   UNL A   1      41.730  35.339  29.170  1.00  0.00     0.008 C 
ATOM     26  C   UNL A   1      43.800  34.507  28.120  1.00  0.00     0.012 C 
ATOM     27  C   UNL A   1      43.752  35.949  31.335  1.00  0.00    -0.025 C 
ATOM     28  C   UNL A   1      41.815  34.494  30.451  1.00  0.00     0.005 C 
ATOM     29  C   UNL A   1      44.917  35.009  31.687  1.00  0.00     0.012 C 
ATOM     30  C   UNL A   1      43.820  37.167  32.325  1.00  0.00     0.010 C 
ATOM     31  C   UNL A   1      42.306  35.375  31.600  1.00  0.00     0.003 C 
ATOM     32  C   UNL A   1      43.566  36.821  33.800  1.00  0.00     0.033 C 
ATOM     33  C   UNL A   1      42.044  34.829  33.064  1.00  0.00    -0.006 C 
ATOM     34  C   UNL A   1      42.290  36.010  34.054  1.00  0.00     0.120 C 
ATOM     35  C   UNL A   1      42.855  33.570  33.441  1.00  0.00     0.014 C 
ATOM     36  C   UNL A   1      40.557  34.404  33.238  1.00  0.00     0.014 C 
BRANCH  34  37
ATOM     37  O   UNL A   1      42.274  35.562  35.411  1.00  0.00    -0.393 OA
ATOM     38  H   UNL A   1      41.385  35.677  35.780  1.00  0.00     0.210 HD
ENDBRANCH  34  37
ENDBRANCH   6   8
ENDBRANCH   5   6
ENDBRANCH   4   5
ENDBRANCH   3   4
ENDBRANCH   2   3
ENDBRANCH   1   2
BRANCH   1  39
ATOM     39  C   UNL A   1      49.007  37.681  29.824  1.00  0.00     0.261 C 
BRANCH  39  40
ATOM     40  O   UNL A   1      50.067  36.704  29.809  1.00  0.00    -0.460 OA
BRANCH  40  41
ATOM     41  C   UNL A   1      50.071  35.864  28.749  1.00  0.00     0.338 C 
ATOM     42  O   UNL A   1      50.913  35.794  27.857  1.00  0.00    -0.246 OA
BRANCH  41  43
ATOM     43  C   UNL A   1      48.944  34.920  28.843  1.00  0.00     0.060 A 
ATOM     44  C   UNL A   1      48.814  34.121  29.989  1.00  0.00     0.016 A 
ATOM     45  C   UNL A   1      48.107  34.725  27.744  1.00  0.00     0.016 A 
ATOM     46  C   UNL A   1      47.896  33.076  30.015  1.00  0.00     0.010 A 
ATOM     47  C   UNL A   1      47.217  33.649  27.751  1.00  0.00     0.010 A 
ATOM     48  C   UNL A   1      47.158  32.791  28.863  1.00  0.00    -0.014 A 
BRANCH  48  49
ATOM     49  C   UNL A   1      46.558  31.447  28.719  1.00  0.00     0.031 A 
ATOM     50  C   UNL A   1      47.387  30.380  28.053  1.00  0.00     0.074 A 
ATOM     51  C   UNL A   1      45.334  31.180  29.202  1.00  0.00     0.049 A 
ATOM     52  N   UNL A   1      47.063  29.158  27.731  1.00  0.00    -0.248 NA
ATOM     53  C   UNL A   1      48.773  30.746  27.704  1.00  0.00     0.031 C 
ATOM     54  C   UNL A   1      44.493  32.124  29.937  1.00  0.00     0.029 A 
ATOM     55  N   UNL A   1      44.586  30.035  29.139  1.00  0.00    -0.354 N 
ATOM     56  C   UNL A   1      48.193  28.617  27.125  1.00  0.00     0.074 A 
ATOM     57  C   UNL A   1      49.206  29.646  27.107  1.00  0.00     0.031 C 
ATOM     58  C   UNL A   1      43.330  31.521  30.241  1.00  0.00     0.029 A 
ATOM     59  C   UNL A   1      43.333  30.170  29.684  1.00  0.00     0.049 A 
ATOM     60  H   UNL A   1      44.915  29.197  28.742  1.00  0.00     0.167 HD
ATOM     61  C   UNL A   1      48.365  27.370  26.626  1.00  0.00     0.031 A 
ATOM     62  C   UNL A   1      42.298  29.309  29.691  1.00  0.00     0.031 A 
ATOM     63  C   UNL A   1      47.336  26.367  26.644  1.00  0.00     0.049 A 
ATOM     64  C   UNL A   1      42.480  27.959  29.047  1.00  0.00     0.074 A 
ATOM     65  C   UNL A   1      47.386  25.071  26.165  1.00  0.00     0.029 A 
ATOM     66  N   UNL A   1      46.063  26.555  27.165  1.00  0.00    -0.354 N 
ATOM     67  N   UNL A   1      43.550  27.458  28.471  1.00  0.00    -0.248 NA
ATOM     68  C   UNL A   1      41.322  27.057  29.056  1.00  0.00     0.031 C 
ATOM     69  C   UNL A   1      46.123  24.496  26.341  1.00  0.00     0.029 A 
ATOM     70  C   UNL A   1      45.309  25.408  26.995  1.00  0.00     0.049 A 
ATOM     71  H   UNL A   1      45.744  27.382  27.593  1.00  0.00     0.167 HD
ATOM     72  C   UNL A   1      43.201  26.172  28.075  1.00  0.00     0.074 A 
ATOM     73  C   UNL A   1      41.828  25.968  28.493  1.00  0.00     0.031 C 
ATOM     74  C   UNL A   1      43.944  25.239  27.427  1.00  0.00     0.031 A 
BRANCH  61  75
ATOM     75  C   UNL A   1      49.688  27.044  25.982  1.00  0.00    -0.014 A 
ATOM     76  C   UNL A   1      50.781  26.583  26.739  1.00  0.00     0.010 A 
ATOM     77  C   UNL A   1      49.828  27.169  24.587  1.00  0.00     0.010 A 
ATOM     78  C   UNL A   1      51.994  26.276  26.115  1.00  0.00     0.020 A 
ATOM     79  C   UNL A   1      51.031  26.835  23.957  1.00  0.00     0.020 A 
ATOM     80  C   UNL A   1      52.111  26.402  24.727  1.00  0.00     0.054 A 
BRANCH  80  81
ATOM     81  S   UNL A   1      53.683  25.953  23.941  1.00  0.00     0.124 S 
ATOM     82  O   UNL A   1      54.619  26.869  24.590  1.00  0.00    -0.237 OA
ATOM     83  O   UNL A   1      53.830  24.545  24.303  1.00  0.00    -0.237 OA
ATOM     84  O   UNL A   1      53.448  26.207  22.522  1.00  0.00    -0.744 OA
ENDBRANCH  80  81
ENDBRANCH  61  75
BRANCH  62  85
ATOM     85  C   UNL A   1      40.994  29.710  30.290  1.00  0.00    -0.014 A 
ATOM     86  C   UNL A   1      40.707  29.442  31.640  1.00  0.00     0.010 A 
ATOM     87  C   UNL A   1      40.029  30.370  29.507  1.00  0.00     0.010 A 
ATOM     88  C   UNL A   1      39.472  29.806  32.186  1.00  0.00     0.020 A 
ATOM     89  C   UNL A   1      38.807  30.764  30.057  1.00  0.00     0.020 A 
ATOM     90  C   UNL A   1      38.531  30.466  31.392  1.00  0.00     0.054 A 
BRANCH  90  91
ATOM     91  S   UNL A   1      36.952  30.963  32.136  1.00  0.00     0.124 S 
ATOM     92  O   UNL A   1      36.466  31.954  31.182  1.00  0.00    -0.237 OA
ATOM     93  O   UNL A   1      36.214  29.703  32.176  1.00  0.00    -0.237 OA
ATOM     94  O   UNL A   1      37.341  31.491  33.443  1.00  0.00    -0.744 OA
ENDBRANCH  90  91
ENDBRANCH  62  85
BRANCH  74  95
ATOM     95  C   UNL A   1      43.299  23.905  27.167  1.00  0.00    -0.014 A 
ATOM     96  C   UNL A   1      42.849  23.547  25.884  1.00  0.00     0.010 A 
ATOM     97  C   UNL A   1      43.199  22.972  28.217  1.00  0.00     0.010 A 
ATOM     98  C   UNL A   1      42.278  22.292  25.665  1.00  0.00     0.020 A 
ATOM     99  C   UNL A   1      42.660  21.705  27.993  1.00  0.00     0.020 A 
ATOM    100  C   UNL A   1      42.189  21.378  26.720  1.00  0.00     0.054 A 
BRANCH 100 101
ATOM    101  S   UNL A   1      41.483  19.740  26.396  1.00  0.00     0.124 S 
ATOM    102  O   UNL A   1      40.105  20.068  26.043  1.00  0.00    -0.237 OA
ATOM    103  O   UNL A   1      42.314  19.246  25.299  1.00  0.00    -0.237 OA
ATOM    104  O   UNL A   1      41.651  19.033  27.663  1.00  0.00    -0.744 OA
ENDBRANCH 100 101
ENDBRANCH  74  95
ENDBRANCH  48  49
ENDBRANCH  41  43
ENDBRANCH  40  41
ENDBRANCH  39  40
ENDBRANCH   1  39
TORSDOF 18
ENDMDL
