MODEL 1
REMARK VINA RESULT:     -11.4      0.000      0.000
REMARK SMILES Nc1nccc(N2CCC[C@@](Cc3ccc(F)cc3F)(C(=O)OCCOCCOC(=O)c3ccc(-c4c5nc(c(-c6ccc(S(=O)(=O)[O-])cc6)c6ccc([nH]6)c(-c6ccc(S(=O)(=O)[O-])cc6)c6nc(c(-c7ccc(S(=O)(=O)[O-])cc7)c7ccc4[nH]7)C=C6)C=C5)cc3)C2)n1
REMARK SMILES IDX 27 1 26 2 25 3 24 4 23 5 21 6 22 7 11 8 7 9 8 10 92 11 9 12
REMARK SMILES IDX 10 13 6 14 2 15 3 16 93 17 4 18 5 19 1 20 12 23 13 24 14 25
REMARK SMILES IDX 19 26 15 27 18 28 20 29 16 30 17 31 28 32 29 33 30 34 31 35
REMARK SMILES IDX 32 36 33 37 91 38 34 39 90 40 35 41 36 42 37 43 84 44 38 45
REMARK SMILES IDX 89 46 83 47 85 48 39 49 88 50 82 51 81 52 40 54 70 55 51 56
REMARK SMILES IDX 69 57 52 58 55 59 68 60 86 61 53 62 54 63 67 65 87 66 56 67
REMARK SMILES IDX 41 68 42 69 50 70 43 71 49 72 44 73 45 74 46 75 47 76 48 77
REMARK SMILES IDX 71 78 72 79 80 80 73 81 79 82 74 83 75 84 76 85 77 86 78 87
REMARK SMILES IDX 57 88 58 89 66 90 59 91 65 92 60 93 61 94 62 95 63 96 64 97
REMARK H PARENT 1 21 1 22 85 53 55 64
REMARK Flexibility Score: inf
ROOT
ATOM      1  C   UNL A   1      34.728  31.405  27.594  1.00  0.00     0.202 C 
ENDROOT
BRANCH   1   2
ATOM      2  O   UNL A   1      33.321  31.173  27.613  1.00  0.00    -0.374 OA
BRANCH   2   3
ATOM      3  C   UNL A   1      32.851  29.897  27.192  1.00  0.00     0.202 C 
BRANCH   3   4
ATOM      4  C   UNL A   1      33.497  29.266  25.955  1.00  0.00     0.261 C 
BRANCH   4   5
ATOM      5  O   UNL A   1      32.577  28.961  24.894  1.00  0.00    -0.463 OA
BRANCH   5   6
ATOM      6  C   UNL A   1      32.806  27.781  24.258  1.00  0.00     0.314 C 
ATOM      7  O   UNL A   1      33.782  27.565  23.544  1.00  0.00    -0.252 OA
BRANCH   6   8
ATOM      8  C   UNL A   1      31.697  26.750  24.457  1.00  0.00     0.090 C 
ATOM      9  N   UNL A   1      31.503  24.334  24.824  1.00  0.00    -0.355 N 
ATOM     10  C   UNL A   1      30.732  24.405  26.055  1.00  0.00     0.118 C 
ATOM     11  C   UNL A   1      32.461  25.412  24.600  1.00  0.00     0.137 C 
ATOM     12  C   UNL A   1      29.956  25.724  26.067  1.00  0.00     0.023 C 
ATOM     13  C   UNL A   1      30.842  26.938  25.739  1.00  0.00     0.023 C 
BRANCH   9  14
ATOM     14  C   UNL A   1      31.927  23.085  24.393  1.00  0.00     0.134 A 
ATOM     15  C   UNL A   1      32.040  21.466  22.781  1.00  0.00     0.221 A 
ATOM     16  N   UNL A   1      32.456  20.525  23.632  1.00  0.00    -0.222 NA
ATOM     17  N   UNL A   1      31.758  22.730  23.108  1.00  0.00    -0.196 NA
ATOM     18  C   UNL A   1      32.614  20.913  24.908  1.00  0.00     0.119 A 
ATOM     19  C   UNL A   1      32.380  22.192  25.341  1.00  0.00     0.067 A 
BRANCH  15  20
ATOM     20  N   UNL A   1      31.849  21.092  21.480  1.00  0.00    -0.368 N 
ATOM     21  H   UNL A   1      30.948  21.127  21.085  1.00  0.00     0.159 HD
ATOM     22  H   UNL A   1      32.613  20.789  20.937  1.00  0.00     0.159 HD
ENDBRANCH  15  20
ENDBRANCH   9  14
BRANCH   8  23
ATOM     23  C   UNL A   1      30.849  26.723  23.150  1.00  0.00     0.059 C 
BRANCH  23  24
ATOM     24  C   UNL A   1      29.872  27.867  22.987  1.00  0.00    -0.011 A 
ATOM     25  C   UNL A   1      30.303  29.128  22.548  1.00  0.00     0.010 A 
ATOM     26  C   UNL A   1      28.513  27.695  23.289  1.00  0.00     0.129 A 
ATOM     27  C   UNL A   1      29.406  30.195  22.480  1.00  0.00     0.040 A 
ATOM     28  C   UNL A   1      27.612  28.749  23.214  1.00  0.00     0.078 A 
ATOM     29  F   UNL A   1      28.058  26.492  23.668  1.00  0.00    -0.207 F 
ATOM     30  C   UNL A   1      28.072  29.997  22.823  1.00  0.00     0.126 A 
ATOM     31  F   UNL A   1      27.220  31.026  22.774  1.00  0.00    -0.207 F 
ENDBRANCH  23  24
ENDBRANCH   8  23
ENDBRANCH   6   8
ENDBRANCH   5   6
ENDBRANCH   4   5
ENDBRANCH   3   4
ENDBRANCH   2   3
ENDBRANCH   1   2
BRANCH   1  32
ATOM     32  C   UNL A   1      35.544  31.019  28.837  1.00  0.00     0.261 C 
BRANCH  32  33
ATOM     33  O   UNL A   1      36.025  29.660  28.801  1.00  0.00    -0.460 OA
BRANCH  33  34
ATOM     34  C   UNL A   1      36.903  29.350  29.787  1.00  0.00     0.338 C 
ATOM     35  O   UNL A   1      36.681  29.334  30.992  1.00  0.00    -0.246 OA
BRANCH  34  36
ATOM     36  C   UNL A   1      38.176  28.859  29.232  1.00  0.00     0.060 A 
ATOM     37  C   UNL A   1      39.069  28.227  30.107  1.00  0.00     0.016 A 
ATOM     38  C   UNL A   1      38.556  29.159  27.923  1.00  0.00     0.016 A 
ATOM     39  C   UNL A   1      40.367  27.935  29.688  1.00  0.00     0.010 A 
ATOM     40  C   UNL A   1      39.862  28.873  27.509  1.00  0.00     0.010 A 
ATOM     41  C   UNL A   1      40.785  28.295  28.401  1.00  0.00    -0.014 A 
BRANCH  41  42
ATOM     42  C   UNL A   1      42.222  28.191  28.043  1.00  0.00     0.031 A 
ATOM     43  C   UNL A   1      43.127  29.374  28.262  1.00  0.00     0.074 A 
ATOM     44  C   UNL A   1      42.725  27.043  27.557  1.00  0.00     0.049 A 
ATOM     45  N   UNL A   1      44.406  29.495  28.013  1.00  0.00    -0.248 NA
ATOM     46  C   UNL A   1      42.508  30.578  28.837  1.00  0.00     0.031 C 
ATOM     47  C   UNL A   1      41.961  25.817  27.329  1.00  0.00     0.029 A 
ATOM     48  N   UNL A   1      44.001  26.727  27.164  1.00  0.00    -0.354 N 
ATOM     49  C   UNL A   1      44.747  30.786  28.400  1.00  0.00     0.074 A 
ATOM     50  C   UNL A   1      43.533  31.418  28.874  1.00  0.00     0.031 C 
ATOM     51  C   UNL A   1      42.783  24.883  26.819  1.00  0.00     0.029 A 
ATOM     52  C   UNL A   1      44.120  25.453  26.662  1.00  0.00     0.049 A 
ATOM     53  H   UNL A   1      44.758  27.352  27.233  1.00  0.00     0.167 HD
ATOM     54  C   UNL A   1      45.958  31.392  28.370  1.00  0.00     0.031 A 
ATOM     55  C   UNL A   1      45.180  24.824  26.116  1.00  0.00     0.031 A 
ATOM     56  C   UNL A   1      47.161  30.775  27.875  1.00  0.00     0.049 A 
ATOM     57  C   UNL A   1      46.504  25.535  26.029  1.00  0.00     0.074 A 
ATOM     58  C   UNL A   1      48.438  31.307  27.806  1.00  0.00     0.029 A 
ATOM     59  N   UNL A   1      47.234  29.494  27.349  1.00  0.00    -0.354 N 
ATOM     60  N   UNL A   1      46.814  26.747  26.424  1.00  0.00    -0.248 NA
ATOM     61  C   UNL A   1      47.620  24.791  25.429  1.00  0.00     0.031 C 
ATOM     62  C   UNL A   1      49.272  30.364  27.196  1.00  0.00     0.029 A 
ATOM     63  C   UNL A   1      48.527  29.225  26.931  1.00  0.00     0.049 A 
ATOM     64  H   UNL A   1      46.477  28.867  27.284  1.00  0.00     0.167 HD
ATOM     65  C   UNL A   1      48.165  26.906  26.132  1.00  0.00     0.074 A 
ATOM     66  C   UNL A   1      48.615  25.661  25.544  1.00  0.00     0.031 C 
ATOM     67  C   UNL A   1      48.960  27.986  26.335  1.00  0.00     0.031 A 
BRANCH  54  68
ATOM     68  C   UNL A   1      46.026  32.815  28.860  1.00  0.00    -0.014 A 
ATOM     69  C   UNL A   1      45.596  33.881  28.051  1.00  0.00     0.010 A 
ATOM     70  C   UNL A   1      46.523  33.087  30.147  1.00  0.00     0.010 A 
ATOM     71  C   UNL A   1      45.712  35.200  28.499  1.00  0.00     0.020 A 
ATOM     72  C   UNL A   1      46.619  34.403  30.608  1.00  0.00     0.020 A 
ATOM     73  C   UNL A   1      46.234  35.453  29.771  1.00  0.00     0.054 A 
BRANCH  73  74
ATOM     74  S   UNL A   1      46.388  37.173  30.327  1.00  0.00     0.124 S 
ATOM     75  O   UNL A   1      46.935  37.005  31.671  1.00  0.00    -0.237 OA
ATOM     76  O   UNL A   1      47.301  37.750  29.345  1.00  0.00    -0.237 OA
ATOM     77  O   UNL A   1      45.018  37.678  30.272  1.00  0.00    -0.744 OA
ENDBRANCH  73  74
ENDBRANCH  54  68
BRANCH  55  78
ATOM     78  C   UNL A   1      45.015  23.445  25.585  1.00  0.00    -0.014 A 
ATOM     79  C   UNL A   1      44.641  23.228  24.247  1.00  0.00     0.010 A 
ATOM     80  C   UNL A   1      45.272  22.338  26.414  1.00  0.00     0.010 A 
ATOM     81  C   UNL A   1      44.529  21.925  23.750  1.00  0.00     0.020 A 
ATOM     82  C   UNL A   1      45.184  21.037  25.913  1.00  0.00     0.020 A 
ATOM     83  C   UNL A   1      44.807  20.839  24.584  1.00  0.00     0.054 A 
BRANCH  83  84
ATOM     84  S   UNL A   1      44.739  19.161  23.894  1.00  0.00     0.124 S 
ATOM     85  O   UNL A   1      43.680  18.548  24.687  1.00  0.00    -0.237 OA
ATOM     86  O   UNL A   1      44.417  19.410  22.491  1.00  0.00    -0.237 OA
ATOM     87  O   UNL A   1      46.084  18.641  24.130  1.00  0.00    -0.744 OA
ENDBRANCH  83  84
ENDBRANCH  55  78
BRANCH  67  88
ATOM     88  C   UNL A   1      50.406  27.869  25.933  1.00  0.00    -0.014 A 
ATOM     89  C   UNL A   1      50.825  28.196  24.631  1.00  0.00     0.010 A 
ATOM     90  C   UNL A   1      51.366  27.483  26.885  1.00  0.00     0.010 A 
ATOM     91  C   UNL A   1      52.177  28.113  24.283  1.00  0.00     0.020 A 
ATOM     92  C   UNL A   1      52.721  27.420  26.547  1.00  0.00     0.020 A 
ATOM     93  C   UNL A   1      53.116  27.722  25.242  1.00  0.00     0.054 A 
BRANCH  93  94
ATOM     94  S   UNL A   1      54.870  27.666  24.780  1.00  0.00     0.124 S 
ATOM     95  O   UNL A   1      55.064  28.976  24.166  1.00  0.00    -0.237 OA
ATOM     96  O   UNL A   1      55.536  27.470  26.066  1.00  0.00    -0.237 OA
ATOM     97  O   UNL A   1      54.951  26.529  23.865  1.00  0.00    -0.744 OA
ENDBRANCH  93  94
ENDBRANCH  67  88
ENDBRANCH  41  42
ENDBRANCH  34  36
ENDBRANCH  33  34
ENDBRANCH  32  33
ENDBRANCH   1  32
TORSDOF 21
ENDMDL
MODEL 2
REMARK VINA RESULT:     -11.2      6.383     11.718
REMARK SMILES Nc1nccc(N2CCC[C@@](Cc3ccc(F)cc3F)(C(=O)OCCOCCOC(=O)c3ccc(-c4c5nc(c(-c6ccc(S(=O)(=O)[O-])cc6)c6ccc([nH]6)c(-c6ccc(S(=O)(=O)[O-])cc6)c6nc(c(-c7ccc(S(=O)(=O)[O-])cc7)c7ccc4[nH]7)C=C6)C=C5)cc3)C2)n1
REMARK SMILES IDX 27 1 26 2 25 3 24 4 23 5 21 6 22 7 11 8 7 9 8 10 92 11 9 12
REMARK SMILES IDX 10 13 6 14 2 15 3 16 93 17 4 18 5 19 1 20 12 23 13 24 14 25
REMARK SMILES IDX 19 26 15 27 18 28 20 29 16 30 17 31 28 32 29 33 30 34 31 35
REMARK SMILES IDX 32 36 33 37 91 38 34 39 90 40 35 41 36 42 37 43 84 44 38 45
REMARK SMILES IDX 89 46 83 47 85 48 39 49 88 50 82 51 81 52 40 54 70 55 51 56
REMARK SMILES IDX 69 57 52 58 55 59 68 60 86 61 53 62 54 63 67 65 87 66 56 67
REMARK SMILES IDX 41 68 42 69 50 70 43 71 49 72 44 73 45 74 46 75 47 76 48 77
REMARK SMILES IDX 71 78 72 79 80 80 73 81 79 82 74 83 75 84 76 85 77 86 78 87
REMARK SMILES IDX 57 88 58 89 66 90 59 91 65 92 60 93 61 94 62 95 63 96 64 97
REMARK H PARENT 1 21 1 22 85 53 55 64
REMARK Flexibility Score: inf
ROOT
ATOM      1  C   UNL A   1      40.112  22.050  26.783  1.00  0.00     0.202 C 
ENDROOT
BRANCH   1   2
ATOM      2  O   UNL A   1      39.150  21.732  25.779  1.00  0.00    -0.374 OA
BRANCH   2   3
ATOM      3  C   UNL A   1      37.841  22.274  25.916  1.00  0.00     0.202 C 
BRANCH   3   4
ATOM      4  C   UNL A   1      37.595  23.695  25.399  1.00  0.00     0.261 C 
BRANCH   4   5
ATOM      5  O   UNL A   1      36.216  24.001  25.135  1.00  0.00    -0.463 OA
BRANCH   5   6
ATOM      6  C   UNL A   1      35.706  23.425  24.013  1.00  0.00     0.314 C 
ATOM      7  O   UNL A   1      36.298  23.377  22.938  1.00  0.00    -0.252 OA
BRANCH   6   8
ATOM      8  C   UNL A   1      34.286  22.891  24.187  1.00  0.00     0.090 C 
ATOM      9  N   UNL A   1      33.185  20.727  24.526  1.00  0.00    -0.355 N 
ATOM     10  C   UNL A   1      32.479  21.078  25.748  1.00  0.00     0.118 C 
ATOM     11  C   UNL A   1      34.484  21.363  24.325  1.00  0.00     0.137 C 
ATOM     12  C   UNL A   1      32.261  22.593  25.764  1.00  0.00     0.023 C 
ATOM     13  C   UNL A   1      33.546  23.382  25.460  1.00  0.00     0.023 C 
BRANCH   9  14
ATOM     14  C   UNL A   1      33.110  19.413  24.087  1.00  0.00     0.134 A 
ATOM     15  C   UNL A   1      33.891  17.262  24.095  1.00  0.00     0.221 A 
ATOM     16  N   UNL A   1      33.199  16.915  23.006  1.00  0.00    -0.222 NA
ATOM     17  N   UNL A   1      33.887  18.475  24.655  1.00  0.00    -0.196 NA
ATOM     18  C   UNL A   1      32.433  17.876  22.464  1.00  0.00     0.119 A 
ATOM     19  C   UNL A   1      32.337  19.143  22.977  1.00  0.00     0.067 A 
BRANCH  15  20
ATOM     20  N   UNL A   1      34.696  16.310  24.654  1.00  0.00    -0.368 N 
ATOM     21  H   UNL A   1      35.581  16.123  24.265  1.00  0.00     0.159 HD
ATOM     22  H   UNL A   1      34.391  15.811  25.447  1.00  0.00     0.159 HD
ENDBRANCH  15  20
ENDBRANCH   9  14
BRANCH   8  23
ATOM     23  C   UNL A   1      33.511  23.195  22.869  1.00  0.00     0.059 C 
BRANCH  23  24
ATOM     24  C   UNL A   1      32.881  24.568  22.789  1.00  0.00    -0.011 A 
ATOM     25  C   UNL A   1      33.670  25.714  22.604  1.00  0.00     0.010 A 
ATOM     26  C   UNL A   1      31.494  24.727  22.917  1.00  0.00     0.129 A 
ATOM     27  C   UNL A   1      33.083  26.980  22.612  1.00  0.00     0.040 A 
ATOM     28  C   UNL A   1      30.902  25.982  22.916  1.00  0.00     0.078 A 
ATOM     29  F   UNL A   1      30.706  23.650  23.050  1.00  0.00    -0.207 F 
ATOM     30  C   UNL A   1      31.708  27.102  22.778  1.00  0.00     0.126 A 
ATOM     31  F   UNL A   1      31.152  28.319  22.804  1.00  0.00    -0.207 F 
ENDBRANCH  23  24
ENDBRANCH   8  23
ENDBRANCH   6   8
ENDBRANCH   5   6
ENDBRANCH   4   5
ENDBRANCH   3   4
ENDBRANCH   2   3
ENDBRANCH   1   2
BRANCH   1  32
ATOM     32  C   UNL A   1      41.182  23.101  26.454  1.00  0.00     0.261 C 
BRANCH  32  33
ATOM     33  O   UNL A   1      40.628  24.387  26.107  1.00  0.00    -0.460 OA
BRANCH  33  34
ATOM     34  C   UNL A   1      41.529  25.401  26.096  1.00  0.00     0.338 C 
ATOM     35  O   UNL A   1      42.148  25.823  25.127  1.00  0.00    -0.246 OA
BRANCH  34  36
ATOM     36  C   UNL A   1      41.579  26.084  27.399  1.00  0.00     0.060 A 
ATOM     37  C   UNL A   1      40.500  25.903  28.274  1.00  0.00     0.016 A 
ATOM     38  C   UNL A   1      42.581  27.011  27.690  1.00  0.00     0.016 A 
ATOM     39  C   UNL A   1      40.394  26.687  29.423  1.00  0.00     0.010 A 
ATOM     40  C   UNL A   1      42.467  27.803  28.839  1.00  0.00     0.010 A 
ATOM     41  C   UNL A   1      41.354  27.672  29.690  1.00  0.00    -0.014 A 
BRANCH  41  42
ATOM     42  C   UNL A   1      41.115  28.649  30.781  1.00  0.00     0.031 A 
ATOM     43  C   UNL A   1      41.971  28.601  32.018  1.00  0.00     0.074 A 
ATOM     44  C   UNL A   1      40.165  29.594  30.658  1.00  0.00     0.049 A 
ATOM     45  N   UNL A   1      41.924  29.356  33.086  1.00  0.00    -0.248 NA
ATOM     46  C   UNL A   1      43.015  27.566  32.056  1.00  0.00     0.031 C 
ATOM     47  C   UNL A   1      39.293  29.767  29.498  1.00  0.00     0.029 A 
ATOM     48  N   UNL A   1      39.776  30.582  31.527  1.00  0.00    -0.354 N 
ATOM     49  C   UNL A   1      42.931  28.889  33.923  1.00  0.00     0.074 A 
ATOM     50  C   UNL A   1      43.552  27.768  33.251  1.00  0.00     0.031 C 
ATOM     51  C   UNL A   1      38.457  30.793  29.734  1.00  0.00     0.029 A 
ATOM     52  C   UNL A   1      38.718  31.329  31.069  1.00  0.00     0.049 A 
ATOM     53  H   UNL A   1      40.212  30.740  32.395  1.00  0.00     0.167 HD
ATOM     54  C   UNL A   1      43.310  29.352  35.139  1.00  0.00     0.031 A 
ATOM     55  C   UNL A   1      38.023  32.319  31.664  1.00  0.00     0.031 A 
ATOM     56  C   UNL A   1      42.677  30.450  35.823  1.00  0.00     0.049 A 
ATOM     57  C   UNL A   1      38.414  32.777  33.044  1.00  0.00     0.074 A 
ATOM     58  C   UNL A   1      42.991  30.995  37.056  1.00  0.00     0.029 A 
ATOM     59  N   UNL A   1      41.590  31.163  35.337  1.00  0.00    -0.354 N 
ATOM     60  N   UNL A   1      39.386  32.341  33.810  1.00  0.00    -0.248 NA
ATOM     61  C   UNL A   1      37.621  33.863  33.634  1.00  0.00     0.031 C 
ATOM     62  C   UNL A   1      42.065  32.005  37.336  1.00  0.00     0.029 A 
ATOM     63  C   UNL A   1      41.205  32.125  36.256  1.00  0.00     0.049 A 
ATOM     64  H   UNL A   1      41.157  31.006  34.466  1.00  0.00     0.167 HD
ATOM     65  C   UNL A   1      39.329  33.110  34.969  1.00  0.00     0.074 A 
ATOM     66  C   UNL A   1      38.238  34.048  34.794  1.00  0.00     0.031 C 
ATOM     67  C   UNL A   1      40.110  33.045  36.076  1.00  0.00     0.031 A 
BRANCH  54  68
ATOM     68  C   UNL A   1      44.448  28.639  35.821  1.00  0.00    -0.014 A 
ATOM     69  C   UNL A   1      44.216  27.516  36.635  1.00  0.00     0.010 A 
ATOM     70  C   UNL A   1      45.766  29.095  35.642  1.00  0.00     0.010 A 
ATOM     71  C   UNL A   1      45.276  26.894  37.301  1.00  0.00     0.020 A 
ATOM     72  C   UNL A   1      46.832  28.462  36.288  1.00  0.00     0.020 A 
ATOM     73  C   UNL A   1      46.576  27.379  37.132  1.00  0.00     0.054 A 
BRANCH  73  74
ATOM     74  S   UNL A   1      47.934  26.566  38.018  1.00  0.00     0.124 S 
ATOM     75  O   UNL A   1      47.215  25.816  39.045  1.00  0.00    -0.237 OA
ATOM     76  O   UNL A   1      48.563  25.759  36.976  1.00  0.00    -0.237 OA
ATOM     77  O   UNL A   1      48.741  27.679  38.512  1.00  0.00    -0.744 OA
ENDBRANCH  73  74
ENDBRANCH  54  68
BRANCH  55  78
ATOM     78  C   UNL A   1      36.863  32.923  30.958  1.00  0.00    -0.014 A 
ATOM     79  C   UNL A   1      35.547  32.546  31.277  1.00  0.00     0.010 A 
ATOM     80  C   UNL A   1      37.074  33.914  29.982  1.00  0.00     0.010 A 
ATOM     81  C   UNL A   1      34.464  33.151  30.633  1.00  0.00     0.020 A 
ATOM     82  C   UNL A   1      35.994  34.537  29.353  1.00  0.00     0.020 A 
ATOM     83  C   UNL A   1      34.694  34.148  29.680  1.00  0.00     0.054 A 
BRANCH  83  84
ATOM     84  S   UNL A   1      33.272  34.981  28.919  1.00  0.00     0.124 S 
ATOM     85  O   UNL A   1      32.789  33.968  27.987  1.00  0.00    -0.237 OA
ATOM     86  O   UNL A   1      32.410  35.247  30.068  1.00  0.00    -0.237 OA
ATOM     87  O   UNL A   1      33.861  36.170  28.307  1.00  0.00    -0.744 OA
ENDBRANCH  83  84
ENDBRANCH  55  78
BRANCH  67  88
ATOM     88  C   UNL A   1      39.827  34.024  37.184  1.00  0.00    -0.014 A 
ATOM     89  C   UNL A   1      39.045  33.656  38.294  1.00  0.00     0.010 A 
ATOM     90  C   UNL A   1      40.398  35.308  37.143  1.00  0.00     0.010 A 
ATOM     91  C   UNL A   1      38.818  34.568  39.330  1.00  0.00     0.020 A 
ATOM     92  C   UNL A   1      40.192  36.213  38.187  1.00  0.00     0.020 A 
ATOM     93  C   UNL A   1      39.390  35.842  39.269  1.00  0.00     0.054 A 
BRANCH  93  94
ATOM     94  S   UNL A   1      39.120  36.991  40.646  1.00  0.00     0.124 S 
ATOM     95  O   UNL A   1      40.484  37.401  40.970  1.00  0.00    -0.237 OA
ATOM     96  O   UNL A   1      38.281  38.025  40.045  1.00  0.00    -0.237 OA
ATOM     97  O   UNL A   1      38.458  36.171  41.658  1.00  0.00    -0.744 OA
ENDBRANCH  93  94
ENDBRANCH  67  88
ENDBRANCH  41  42
ENDBRANCH  34  36
ENDBRANCH  33  34
ENDBRANCH  32  33
ENDBRANCH   1  32
TORSDOF 21
ENDMDL
MODEL 3
REMARK VINA RESULT:     -11.1      2.475      4.150
REMARK SMILES Nc1nccc(N2CCC[C@@](Cc3ccc(F)cc3F)(C(=O)OCCOCCOC(=O)c3ccc(-c4c5nc(c(-c6ccc(S(=O)(=O)[O-])cc6)c6ccc([nH]6)c(-c6ccc(S(=O)(=O)[O-])cc6)c6nc(c(-c7ccc(S(=O)(=O)[O-])cc7)c7ccc4[nH]7)C=C6)C=C5)cc3)C2)n1
REMARK SMILES IDX 27 1 26 2 25 3 24 4 23 5 21 6 22 7 11 8 7 9 8 10 92 11 9 12
REMARK SMILES IDX 10 13 6 14 2 15 3 16 93 17 4 18 5 19 1 20 12 23 13 24 14 25
REMARK SMILES IDX 19 26 15 27 18 28 20 29 16 30 17 31 28 32 29 33 30 34 31 35
REMARK SMILES IDX 32 36 33 37 91 38 34 39 90 40 35 41 36 42 37 43 84 44 38 45
REMARK SMILES IDX 89 46 83 47 85 48 39 49 88 50 82 51 81 52 40 54 70 55 51 56
REMARK SMILES IDX 69 57 52 58 55 59 68 60 86 61 53 62 54 63 67 65 87 66 56 67
REMARK SMILES IDX 41 68 42 69 50 70 43 71 49 72 44 73 45 74 46 75 47 76 48 77
REMARK SMILES IDX 71 78 72 79 80 80 73 81 79 82 74 83 75 84 76 85 77 86 78 87
REMARK SMILES IDX 57 88 58 89 66 90 59 91 65 92 60 93 61 94 62 95 63 96 64 97
REMARK H PARENT 1 21 1 22 85 53 55 64
REMARK Flexibility Score: inf
ROOT
ATOM      1  C   UNL A   1      35.111  32.379  28.883  1.00  0.00     0.202 C 
ENDROOT
BRANCH   1   2
ATOM      2  O   UNL A   1      33.889  32.329  28.148  1.00  0.00    -0.374 OA
BRANCH   2   3
ATOM      3  C   UNL A   1      33.631  31.171  27.362  1.00  0.00     0.202 C 
BRANCH   3   4
ATOM      4  C   UNL A   1      34.487  29.926  27.616  1.00  0.00     0.261 C 
BRANCH   4   5
ATOM      5  O   UNL A   1      34.444  28.950  26.562  1.00  0.00    -0.463 OA
BRANCH   5   6
ATOM      6  C   UNL A   1      33.290  28.231  26.494  1.00  0.00     0.314 C 
ATOM      7  O   UNL A   1      32.672  27.834  27.477  1.00  0.00    -0.252 OA
BRANCH   6   8
ATOM      8  C   UNL A   1      32.857  27.900  25.067  1.00  0.00     0.090 C 
ATOM      9  N   UNL A   1      31.208  28.694  23.437  1.00  0.00    -0.355 N 
ATOM     10  C   UNL A   1      32.146  28.984  22.364  1.00  0.00     0.118 C 
ATOM     11  C   UNL A   1      31.700  28.892  24.797  1.00  0.00     0.137 C 
ATOM     12  C   UNL A   1      33.378  28.094  22.544  1.00  0.00     0.023 C 
ATOM     13  C   UNL A   1      33.937  28.134  23.977  1.00  0.00     0.023 C 
BRANCH   9  14
ATOM     14  C   UNL A   1      29.877  29.041  23.248  1.00  0.00     0.134 A 
ATOM     15  C   UNL A   1      28.210  30.609  23.224  1.00  0.00     0.221 A 
ATOM     16  N   UNL A   1      27.235  29.697  23.207  1.00  0.00    -0.222 NA
ATOM     17  N   UNL A   1      29.518  30.336  23.254  1.00  0.00    -0.196 NA
ATOM     18  C   UNL A   1      27.628  28.413  23.202  1.00  0.00     0.119 A 
ATOM     19  C   UNL A   1      28.943  28.027  23.203  1.00  0.00     0.067 A 
BRANCH  15  20
ATOM     20  N   UNL A   1      27.838  31.923  23.253  1.00  0.00    -0.368 N 
ATOM     21  H   UNL A   1      27.691  32.412  22.410  1.00  0.00     0.159 HD
ATOM     22  H   UNL A   1      27.716  32.382  24.115  1.00  0.00     0.159 HD
ENDBRANCH  15  20
ENDBRANCH   9  14
BRANCH   8  23
ATOM     23  C   UNL A   1      32.298  26.445  25.078  1.00  0.00     0.059 C 
BRANCH  23  24
ATOM     24  C   UNL A   1      33.263  25.377  24.613  1.00  0.00    -0.011 A 
ATOM     25  C   UNL A   1      34.387  25.037  25.380  1.00  0.00     0.010 A 
ATOM     26  C   UNL A   1      33.062  24.714  23.394  1.00  0.00     0.129 A 
ATOM     27  C   UNL A   1      35.311  24.107  24.901  1.00  0.00     0.040 A 
ATOM     28  C   UNL A   1      33.971  23.780  22.915  1.00  0.00     0.078 A 
ATOM     29  F   UNL A   1      31.975  24.982  22.657  1.00  0.00    -0.207 F 
ATOM     30  C   UNL A   1      35.099  23.496  23.670  1.00  0.00     0.126 A 
ATOM     31  F   UNL A   1      35.996  22.619  23.206  1.00  0.00    -0.207 F 
ENDBRANCH  23  24
ENDBRANCH   8  23
ENDBRANCH   6   8
ENDBRANCH   5   6
ENDBRANCH   4   5
ENDBRANCH   3   4
ENDBRANCH   2   3
ENDBRANCH   1   2
BRANCH   1  32
ATOM     32  C   UNL A   1      35.048  32.202  30.407  1.00  0.00     0.261 C 
BRANCH  32  33
ATOM     33  O   UNL A   1      36.320  31.858  30.993  1.00  0.00    -0.460 OA
BRANCH  33  34
ATOM     34  C   UNL A   1      36.708  30.577  30.778  1.00  0.00     0.338 C 
ATOM     35  O   UNL A   1      35.992  29.582  30.778  1.00  0.00    -0.246 OA
BRANCH  34  36
ATOM     36  C   UNL A   1      38.120  30.508  30.370  1.00  0.00     0.060 A 
ATOM     37  C   UNL A   1      38.400  30.366  29.004  1.00  0.00     0.016 A 
ATOM     38  C   UNL A   1      39.142  30.417  31.317  1.00  0.00     0.016 A 
ATOM     39  C   UNL A   1      39.699  30.083  28.584  1.00  0.00     0.010 A 
ATOM     40  C   UNL A   1      40.444  30.124  30.892  1.00  0.00     0.010 A 
ATOM     41  C   UNL A   1      40.721  29.917  29.528  1.00  0.00    -0.014 A 
BRANCH  41  42
ATOM     42  C   UNL A   1      42.040  29.394  29.094  1.00  0.00     0.031 A 
ATOM     43  C   UNL A   1      43.227  30.320  29.054  1.00  0.00     0.074 A 
ATOM     44  C   UNL A   1      42.189  28.098  28.770  1.00  0.00     0.049 A 
ATOM     45  N   UNL A   1      44.462  30.068  28.701  1.00  0.00    -0.248 NA
ATOM     46  C   UNL A   1      42.989  31.712  29.465  1.00  0.00     0.031 C 
ATOM     47  C   UNL A   1      41.128  27.093  28.798  1.00  0.00     0.029 A 
ATOM     48  N   UNL A   1      43.299  27.409  28.346  1.00  0.00    -0.354 N 
ATOM     49  C   UNL A   1      45.149  31.267  28.847  1.00  0.00     0.074 A 
ATOM     50  C   UNL A   1      44.187  32.252  29.293  1.00  0.00     0.031 C 
ATOM     51  C   UNL A   1      41.634  25.916  28.393  1.00  0.00     0.029 A 
ATOM     52  C   UNL A   1      43.046  26.091  28.053  1.00  0.00     0.049 A 
ATOM     53  H   UNL A   1      44.189  27.819  28.260  1.00  0.00     0.167 HD
ATOM     54  C   UNL A   1      46.462  31.527  28.635  1.00  0.00     0.031 A 
ATOM     55  C   UNL A   1      43.852  25.137  27.546  1.00  0.00     0.031 A 
ATOM     56  C   UNL A   1      47.415  30.556  28.166  1.00  0.00     0.049 A 
ATOM     57  C   UNL A   1      45.293  25.460  27.252  1.00  0.00     0.074 A 
ATOM     58  C   UNL A   1      48.768  30.722  27.924  1.00  0.00     0.029 A 
ATOM     59  N   UNL A   1      47.114  29.238  27.853  1.00  0.00    -0.354 N 
ATOM     60  N   UNL A   1      45.933  26.593  27.421  1.00  0.00    -0.248 NA
ATOM     61  C   UNL A   1      46.120  24.375  26.708  1.00  0.00     0.031 C 
ATOM     62  C   UNL A   1      49.274  29.519  27.420  1.00  0.00     0.029 A 
ATOM     63  C   UNL A   1      48.248  28.587  27.397  1.00  0.00     0.049 A 
ATOM     64  H   UNL A   1      46.223  28.827  27.944  1.00  0.00     0.167 HD
ATOM     65  C   UNL A   1      47.242  26.353  27.015  1.00  0.00     0.074 A 
ATOM     66  C   UNL A   1      47.305  24.964  26.610  1.00  0.00     0.031 C 
ATOM     67  C   UNL A   1      48.295  27.207  26.984  1.00  0.00     0.031 A 
BRANCH  54  68
ATOM     68  C   UNL A   1      46.931  32.937  28.879  1.00  0.00    -0.014 A 
ATOM     69  C   UNL A   1      46.863  33.910  27.866  1.00  0.00     0.010 A 
ATOM     70  C   UNL A   1      47.441  33.295  30.140  1.00  0.00     0.010 A 
ATOM     71  C   UNL A   1      47.348  35.201  28.091  1.00  0.00     0.020 A 
ATOM     72  C   UNL A   1      47.906  34.592  30.377  1.00  0.00     0.020 A 
ATOM     73  C   UNL A   1      47.877  35.530  29.342  1.00  0.00     0.054 A 
BRANCH  73  74
ATOM     74  S   UNL A   1      48.513  37.209  29.608  1.00  0.00     0.124 S 
ATOM     75  O   UNL A   1      49.909  36.948  29.954  1.00  0.00    -0.237 OA
ATOM     76  O   UNL A   1      48.296  37.846  28.313  1.00  0.00    -0.237 OA
ATOM     77  O   UNL A   1      47.688  37.723  30.699  1.00  0.00    -0.744 OA
ENDBRANCH  73  74
ENDBRANCH  54  68
BRANCH  55  78
ATOM     78  C   UNL A   1      43.297  23.788  27.260  1.00  0.00    -0.014 A 
ATOM     79  C   UNL A   1      42.770  23.478  25.994  1.00  0.00     0.010 A 
ATOM     80  C   UNL A   1      43.330  22.791  28.252  1.00  0.00     0.010 A 
ATOM     81  C   UNL A   1      42.288  22.193  25.727  1.00  0.00     0.020 A 
ATOM     82  C   UNL A   1      42.870  21.500  27.980  1.00  0.00     0.020 A 
ATOM     83  C   UNL A   1      42.347  21.210  26.720  1.00  0.00     0.054 A 
BRANCH  83  84
ATOM     84  S   UNL A   1      41.795  19.527  26.323  1.00  0.00     0.124 S 
ATOM     85  O   UNL A   1      42.578  19.224  25.130  1.00  0.00    -0.237 OA
ATOM     86  O   UNL A   1      42.160  18.784  27.526  1.00  0.00    -0.237 OA
ATOM     87  O   UNL A   1      40.357  19.681  26.111  1.00  0.00    -0.744 OA
ENDBRANCH  83  84
ENDBRANCH  55  78
BRANCH  67  88
ATOM     88  C   UNL A   1      49.616  26.663  26.508  1.00  0.00    -0.014 A 
ATOM     89  C   UNL A   1      49.998  26.766  25.158  1.00  0.00     0.010 A 
ATOM     90  C   UNL A   1      50.510  26.093  27.432  1.00  0.00     0.010 A 
ATOM     91  C   UNL A   1      51.242  26.284  24.738  1.00  0.00     0.020 A 
ATOM     92  C   UNL A   1      51.762  25.631  27.019  1.00  0.00     0.020 A 
ATOM     93  C   UNL A   1      52.116  25.717  25.671  1.00  0.00     0.054 A 
BRANCH  93  94
ATOM     94  S   UNL A   1      53.742  25.140  25.111  1.00  0.00     0.124 S 
ATOM     95  O   UNL A   1      53.443  23.784  24.658  1.00  0.00    -0.237 OA
ATOM     96  O   UNL A   1      54.078  26.094  24.057  1.00  0.00    -0.237 OA
ATOM     97  O   UNL A   1      54.572  25.229  26.310  1.00  0.00    -0.744 OA
ENDBRANCH  93  94
ENDBRANCH  67  88
ENDBRANCH  41  42
ENDBRANCH  34  36
ENDBRANCH  33  34
ENDBRANCH  32  33
ENDBRANCH   1  32
TORSDOF 21
ENDMDL
