MODEL 1
REMARK VINA RESULT:      -8.5      0.000      0.000
REMARK SMILES CN(C)S(=O)(=O)c1ccc(-n2c(CCC(=O)OCCOCCOC(=O)c3ccc(-c4c5nc(c(-c6ccc(S(=O)(=O)[O-])cc6)c6ccc([nH]6)c(-c6ccc(S(=O)(=O)[O-])cc6)c6nc(c(-c7ccc(S(=O)(=O)[O-])cc7)c7ccc4[nH]7)C=C6)C=C5)cc3)ccc2-c2ccc(F)cc2)cc1
REMARK SMILES IDX 19 1 18 2 17 3 15 4 16 5 14 6 13 7 12 8 11 9 88 10 86 11
REMARK SMILES IDX 87 12 10 13 7 14 8 15 97 16 9 17 96 18 4 19 5 20 6 21 2 22
REMARK SMILES IDX 1 23 3 24 89 25 90 26 95 27 91 28 94 29 92 30 93 31 20 32
REMARK SMILES IDX 21 33 22 34 23 35 24 36 25 37 26 38 27 39 85 40 28 41 84 42
REMARK SMILES IDX 29 43 30 44 31 45 78 46 32 47 83 48 77 49 79 50 33 51 82 52
REMARK SMILES IDX 76 53 75 54 34 56 64 57 45 58 63 59 46 60 49 61 62 62 80 63
REMARK SMILES IDX 47 64 48 65 61 67 81 68 50 69 35 70 36 71 44 72 37 73 43 74
REMARK SMILES IDX 38 75 39 76 40 77 41 78 42 79 65 80 66 81 74 82 67 83 73 84
REMARK SMILES IDX 68 85 69 86 70 87 71 88 72 89 51 90 52 91 60 92 53 93 59 94
REMARK SMILES IDX 54 95 55 96 56 97 57 98 58 99
REMARK H PARENT 79 55 49 66
REMARK Flexibility Score: inf
ROOT
ATOM      1  C   UNL A   1      49.304  25.664  26.328  1.00  0.00     0.202 C 
ENDROOT
BRANCH   1   2
ATOM      2  C   UNL A   1      47.616  26.281  25.055  1.00  0.00     0.261 C 
BRANCH   2   3
ATOM      3  O   UNL A   1      46.156  25.359  24.857  1.00  0.00    -0.463 OA
BRANCH   3   4
ATOM      4  C   UNL A   1      46.011  23.998  24.892  1.00  0.00     0.306 C 
ATOM      5  O   UNL A   1      45.972  23.323  23.866  1.00  0.00    -0.252 OA
BRANCH   4   6
ATOM      6  C   UNL A   1      45.973  23.300  26.312  1.00  0.00     0.129 C 
BRANCH   6   7
ATOM      7  C   UNL A   1      46.037  24.010  27.692  1.00  0.00     0.066 C 
BRANCH   7   8
ATOM      8  C   UNL A   1      44.722  24.100  28.349  1.00  0.00     0.024 A 
ATOM      9  N   UNL A   1      44.065  25.296  28.570  1.00  0.00    -0.314 N 
ATOM     10  C   UNL A   1      42.709  24.964  28.808  1.00  0.00     0.053 A 
ATOM     11  C   UNL A   1      43.931  23.064  28.798  1.00  0.00     0.024 A 
ATOM     12  C   UNL A   1      42.661  23.599  29.051  1.00  0.00     0.029 A 
BRANCH   9  13
ATOM     13  C   UNL A   1      44.630  26.609  28.347  1.00  0.00     0.046 A 
ATOM     14  C   UNL A   1      45.154  30.190  28.374  1.00  0.00     0.082 A 
ATOM     15  C   UNL A   1      45.477  29.209  29.827  1.00  0.00     0.024 A 
ATOM     16  C   UNL A   1      44.537  29.433  26.877  1.00  0.00     0.024 A 
ATOM     17  C   UNL A   1      45.255  27.449  29.806  1.00  0.00     0.028 A 
ATOM     18  C   UNL A   1      44.325  27.624  26.832  1.00  0.00     0.028 A 
BRANCH  14  19
ATOM     19  S   UNL A   1      46.139  31.686  28.322  1.00  0.00     0.242 S 
ATOM     20  O   UNL A   1      46.326  32.037  26.931  1.00  0.00    -0.207 OA
ATOM     21  O   UNL A   1      47.280  31.423  29.175  1.00  0.00    -0.207 OA
BRANCH  19  22
ATOM     22  N   UNL A   1      45.218  32.933  29.035  1.00  0.00    -0.204 NA
ATOM     23  C   UNL A   1      43.778  32.808  28.685  1.00  0.00     0.124 C 
ATOM     24  C   UNL A   1      45.334  33.074  30.509  1.00  0.00     0.124 C 
ENDBRANCH  19  22
ENDBRANCH  14  19
ENDBRANCH   9  13
BRANCH  10  25
ATOM     25  C   UNL A   1      41.524  25.835  28.734  1.00  0.00    -0.001 A 
ATOM     26  C   UNL A   1      41.608  27.158  29.192  1.00  0.00     0.013 A 
ATOM     27  C   UNL A   1      40.309  25.388  28.185  1.00  0.00     0.013 A 
ATOM     28  C   UNL A   1      40.547  28.047  28.992  1.00  0.00     0.040 A 
ATOM     29  C   UNL A   1      39.265  26.289  27.942  1.00  0.00     0.040 A 
ATOM     30  C   UNL A   1      39.402  27.613  28.337  1.00  0.00     0.123 A 
ATOM     31  F   UNL A   1      38.420  28.485  28.071  1.00  0.00    -0.207 F 
ENDBRANCH  10  25
ENDBRANCH   7   8
ENDBRANCH   6   7
ENDBRANCH   4   6
ENDBRANCH   3   4
ENDBRANCH   2   3
ENDBRANCH   1   2
BRANCH   1  32
ATOM     32  O   UNL A   1      50.842  26.039  26.224  1.00  0.00    -0.374 OA
BRANCH  32  33
ATOM     33  C   UNL A   1      51.249  27.383  26.540  1.00  0.00     0.202 C 
BRANCH  33  34
ATOM     34  C   UNL A   1      51.656  27.748  27.961  1.00  0.00     0.261 C 
BRANCH  34  35
ATOM     35  O   UNL A   1      50.971  27.023  28.971  1.00  0.00    -0.460 OA
BRANCH  35  36
ATOM     36  C   UNL A   1      50.280  27.795  29.845  1.00  0.00     0.338 C 
ATOM     37  O   UNL A   1      50.179  29.009  29.836  1.00  0.00    -0.246 OA
BRANCH  36  38
ATOM     38  C   UNL A   1      49.759  26.939  30.915  1.00  0.00     0.060 A 
ATOM     39  C   UNL A   1      48.745  26.043  30.576  1.00  0.00     0.016 A 
ATOM     40  C   UNL A   1      49.997  27.323  32.239  1.00  0.00     0.016 A 
ATOM     41  C   UNL A   1      47.793  25.762  31.533  1.00  0.00     0.010 A 
ATOM     42  C   UNL A   1      49.001  27.122  33.162  1.00  0.00     0.010 A 
ATOM     43  C   UNL A   1      47.869  26.402  32.783  1.00  0.00    -0.014 A 
BRANCH  43  44
ATOM     44  C   UNL A   1      46.858  26.061  33.795  1.00  0.00     0.031 A 
ATOM     45  C   UNL A   1      47.195  24.569  34.179  1.00  0.00     0.074 A 
ATOM     46  C   UNL A   1      45.871  27.023  34.002  1.00  0.00     0.049 A 
ATOM     47  N   UNL A   1      46.432  23.526  34.179  1.00  0.00    -0.248 NA
ATOM     48  C   UNL A   1      48.623  24.110  34.364  1.00  0.00     0.031 C 
ATOM     49  C   UNL A   1      45.955  28.459  33.589  1.00  0.00     0.029 A 
ATOM     50  N   UNL A   1      44.636  27.078  34.637  1.00  0.00    -0.354 N 
ATOM     51  C   UNL A   1      47.165  22.460  34.750  1.00  0.00     0.074 A 
ATOM     52  C   UNL A   1      48.538  22.794  34.591  1.00  0.00     0.031 C 
ATOM     53  C   UNL A   1      44.807  29.148  33.848  1.00  0.00     0.029 A 
ATOM     54  C   UNL A   1      43.829  28.276  34.467  1.00  0.00     0.049 A 
ATOM     55  H   UNL A   1      44.315  26.326  35.186  1.00  0.00     0.167 HD
ATOM     56  C   UNL A   1      46.582  21.551  35.589  1.00  0.00     0.031 A 
ATOM     57  C   UNL A   1      42.482  28.461  34.780  1.00  0.00     0.031 A 
ATOM     58  C   UNL A   1      45.200  21.888  35.714  1.00  0.00     0.049 A 
ATOM     59  C   UNL A   1      42.174  27.217  35.501  1.00  0.00     0.074 A 
ATOM     60  C   UNL A   1      44.194  21.928  34.781  1.00  0.00     0.029 A 
ATOM     61  N   UNL A   1      44.919  22.762  36.743  1.00  0.00    -0.354 N 
ATOM     62  N   UNL A   1      42.618  26.915  36.683  1.00  0.00    -0.248 NA
ATOM     63  C   UNL A   1      41.500  26.154  34.752  1.00  0.00     0.031 C 
ATOM     64  C   UNL A   1      43.722  23.244  34.958  1.00  0.00     0.029 A 
ATOM     65  C   UNL A   1      44.058  23.696  36.239  1.00  0.00     0.049 A 
ATOM     66  H   UNL A   1      45.269  22.723  37.662  1.00  0.00     0.167 HD
ATOM     67  C   UNL A   1      42.667  25.548  36.622  1.00  0.00     0.074 A 
ATOM     68  C   UNL A   1      41.726  25.143  35.582  1.00  0.00     0.031 C 
ATOM     69  C   UNL A   1      43.805  24.893  36.986  1.00  0.00     0.031 A 
BRANCH  56  70
ATOM     70  C   UNL A   1      47.122  20.618  36.637  1.00  0.00    -0.014 A 
ATOM     71  C   UNL A   1      46.276  19.527  36.977  1.00  0.00     0.010 A 
ATOM     72  C   UNL A   1      48.187  20.903  37.501  1.00  0.00     0.010 A 
ATOM     73  C   UNL A   1      46.410  18.829  38.173  1.00  0.00     0.020 A 
ATOM     74  C   UNL A   1      48.359  20.166  38.689  1.00  0.00     0.020 A 
ATOM     75  C   UNL A   1      47.452  19.156  39.028  1.00  0.00     0.054 A 
BRANCH  75  76
ATOM     76  S   UNL A   1      47.584  18.225  40.576  1.00  0.00     0.124 S 
ATOM     77  O   UNL A   1      47.073  19.175  41.560  1.00  0.00    -0.237 OA
ATOM     78  O   UNL A   1      46.723  17.073  40.314  1.00  0.00    -0.237 OA
ATOM     79  O   UNL A   1      49.009  17.919  40.673  1.00  0.00    -0.744 OA
ENDBRANCH  75  76
ENDBRANCH  56  70
BRANCH  57  80
ATOM     80  C   UNL A   1      41.220  29.348  34.558  1.00  0.00    -0.014 A 
ATOM     81  C   UNL A   1      40.635  30.285  35.421  1.00  0.00     0.010 A 
ATOM     82  C   UNL A   1      40.603  29.319  33.256  1.00  0.00     0.010 A 
ATOM     83  C   UNL A   1      39.662  31.236  34.950  1.00  0.00     0.020 A 
ATOM     84  C   UNL A   1      39.700  30.277  32.762  1.00  0.00     0.020 A 
ATOM     85  C   UNL A   1      39.261  31.273  33.606  1.00  0.00     0.054 A 
BRANCH  85  86
ATOM     86  S   UNL A   1      38.312  32.678  32.919  1.00  0.00     0.124 S 
ATOM     87  O   UNL A   1      38.985  32.940  31.652  1.00  0.00    -0.237 OA
ATOM     88  O   UNL A   1      36.962  32.128  32.814  1.00  0.00    -0.237 OA
ATOM     89  O   UNL A   1      38.461  33.728  33.927  1.00  0.00    -0.744 OA
ENDBRANCH  85  86
ENDBRANCH  57  80
BRANCH  69  90
ATOM     90  C   UNL A   1      44.800  25.626  37.895  1.00  0.00    -0.014 A 
ATOM     91  C   UNL A   1      46.072  25.945  37.388  1.00  0.00     0.010 A 
ATOM     92  C   UNL A   1      44.561  25.969  39.248  1.00  0.00     0.010 A 
ATOM     93  C   UNL A   1      47.048  26.595  38.163  1.00  0.00     0.020 A 
ATOM     94  C   UNL A   1      45.542  26.608  40.046  1.00  0.00     0.020 A 
ATOM     95  C   UNL A   1      46.778  26.936  39.487  1.00  0.00     0.054 A 
BRANCH  95  96
ATOM     96  S   UNL A   1      48.050  27.835  40.434  1.00  0.00     0.124 S 
ATOM     97  O   UNL A   1      48.010  29.171  39.845  1.00  0.00    -0.237 OA
ATOM     98  O   UNL A   1      47.548  27.741  41.802  1.00  0.00    -0.237 OA
ATOM     99  O   UNL A   1      49.279  27.086  40.172  1.00  0.00    -0.744 OA
ENDBRANCH  95  96
ENDBRANCH  69  90
ENDBRANCH  43  44
ENDBRANCH  36  38
ENDBRANCH  35  36
ENDBRANCH  34  35
ENDBRANCH  33  34
ENDBRANCH  32  33
ENDBRANCH   1  32
TORSDOF 23
ENDMDL
MODEL 2
REMARK VINA RESULT:      -8.4      6.170     13.800
REMARK SMILES CN(C)S(=O)(=O)c1ccc(-n2c(CCC(=O)OCCOCCOC(=O)c3ccc(-c4c5nc(c(-c6ccc(S(=O)(=O)[O-])cc6)c6ccc([nH]6)c(-c6ccc(S(=O)(=O)[O-])cc6)c6nc(c(-c7ccc(S(=O)(=O)[O-])cc7)c7ccc4[nH]7)C=C6)C=C5)cc3)ccc2-c2ccc(F)cc2)cc1
REMARK SMILES IDX 19 1 18 2 17 3 15 4 16 5 14 6 13 7 12 8 11 9 88 10 86 11
REMARK SMILES IDX 87 12 10 13 7 14 8 15 97 16 9 17 96 18 4 19 5 20 6 21 2 22
REMARK SMILES IDX 1 23 3 24 89 25 90 26 95 27 91 28 94 29 92 30 93 31 20 32
REMARK SMILES IDX 21 33 22 34 23 35 24 36 25 37 26 38 27 39 85 40 28 41 84 42
REMARK SMILES IDX 29 43 30 44 31 45 78 46 32 47 83 48 77 49 79 50 33 51 82 52
REMARK SMILES IDX 76 53 75 54 34 56 64 57 45 58 63 59 46 60 49 61 62 62 80 63
REMARK SMILES IDX 47 64 48 65 61 67 81 68 50 69 35 70 36 71 44 72 37 73 43 74
REMARK SMILES IDX 38 75 39 76 40 77 41 78 42 79 65 80 66 81 74 82 67 83 73 84
REMARK SMILES IDX 68 85 69 86 70 87 71 88 72 89 51 90 52 91 60 92 53 93 59 94
REMARK SMILES IDX 54 95 55 96 56 97 57 98 58 99
REMARK H PARENT 79 55 49 66
REMARK Flexibility Score: inf
ROOT
ATOM      1  C   UNL A   1      46.859  30.175  34.729  1.00  0.00     0.202 C 
ENDROOT
BRANCH   1   2
ATOM      2  C   UNL A   1      45.104  30.326  33.408  1.00  0.00     0.261 C 
BRANCH   2   3
ATOM      3  O   UNL A   1      44.741  29.198  32.135  1.00  0.00    -0.463 OA
BRANCH   3   4
ATOM      4  C   UNL A   1      43.509  28.767  31.722  1.00  0.00     0.306 C 
ATOM      5  O   UNL A   1      42.677  28.326  32.512  1.00  0.00    -0.252 OA
BRANCH   4   6
ATOM      6  C   UNL A   1      43.152  28.925  30.187  1.00  0.00     0.129 C 
BRANCH   6   7
ATOM      7  C   UNL A   1      42.333  30.076  29.544  1.00  0.00     0.066 C 
BRANCH   7   8
ATOM      8  C   UNL A   1      41.058  29.617  28.967  1.00  0.00     0.024 A 
ATOM      9  N   UNL A   1      39.824  30.051  29.415  1.00  0.00    -0.314 N 
ATOM     10  C   UNL A   1      38.902  29.750  28.383  1.00  0.00     0.053 A 
ATOM     11  C   UNL A   1      40.874  28.756  27.906  1.00  0.00     0.024 A 
ATOM     12  C   UNL A   1      39.532  28.867  27.519  1.00  0.00     0.029 A 
BRANCH   9  13
ATOM     13  C   UNL A   1      39.605  30.865  30.590  1.00  0.00     0.046 A 
ATOM     14  C   UNL A   1      38.014  32.849  33.166  1.00  0.00     0.082 A 
ATOM     15  C   UNL A   1      37.849  31.074  33.147  1.00  0.00     0.024 A 
ATOM     16  C   UNL A   1      38.946  33.694  31.896  1.00  0.00     0.024 A 
ATOM     17  C   UNL A   1      38.657  30.096  31.907  1.00  0.00     0.028 A 
ATOM     18  C   UNL A   1      39.801  32.703  30.629  1.00  0.00     0.028 A 
BRANCH  14  19
ATOM     19  S   UNL A   1      37.847  33.538  34.811  1.00  0.00     0.242 S 
ATOM     20  O   UNL A   1      36.690  32.924  35.426  1.00  0.00    -0.207 OA
ATOM     21  O   UNL A   1      37.911  34.974  34.633  1.00  0.00    -0.207 OA
BRANCH  19  22
ATOM     22  N   UNL A   1      39.211  33.053  35.713  1.00  0.00    -0.204 NA
ATOM     23  C   UNL A   1      38.959  31.773  36.428  1.00  0.00     0.124 C 
ATOM     24  C   UNL A   1      40.486  32.929  34.961  1.00  0.00     0.124 C 
ENDBRANCH  19  22
ENDBRANCH  14  19
ENDBRANCH   9  13
BRANCH  10  25
ATOM     25  C   UNL A   1      37.555  30.306  28.165  1.00  0.00    -0.001 A 
ATOM     26  C   UNL A   1      36.492  29.444  27.858  1.00  0.00     0.013 A 
ATOM     27  C   UNL A   1      37.294  31.683  28.285  1.00  0.00     0.013 A 
ATOM     28  C   UNL A   1      35.182  29.928  27.799  1.00  0.00     0.040 A 
ATOM     29  C   UNL A   1      35.978  32.159  28.272  1.00  0.00     0.040 A 
ATOM     30  C   UNL A   1      34.934  31.273  28.042  1.00  0.00     0.123 A 
ATOM     31  F   UNL A   1      33.672  31.721  28.066  1.00  0.00    -0.207 F 
ENDBRANCH  10  25
ENDBRANCH   7   8
ENDBRANCH   6   7
ENDBRANCH   4   6
ENDBRANCH   3   4
ENDBRANCH   2   3
ENDBRANCH   1   2
BRANCH   1  32
ATOM     32  O   UNL A   1      47.010  30.559  36.261  1.00  0.00    -0.374 OA
BRANCH  32  33
ATOM     33  C   UNL A   1      47.747  31.746  36.607  1.00  0.00     0.202 C 
BRANCH  33  34
ATOM     34  C   UNL A   1      47.290  33.108  36.103  1.00  0.00     0.261 C 
BRANCH  34  35
ATOM     35  O   UNL A   1      45.882  33.285  36.088  1.00  0.00    -0.460 OA
BRANCH  35  36
ATOM     36  C   UNL A   1      45.476  34.573  36.205  1.00  0.00     0.338 C 
ATOM     37  O   UNL A   1      45.286  35.194  37.236  1.00  0.00    -0.246 OA
BRANCH  36  38
ATOM     38  C   UNL A   1      45.164  35.089  34.869  1.00  0.00     0.060 A 
ATOM     39  C   UNL A   1      44.062  34.537  34.216  1.00  0.00     0.016 A 
ATOM     40  C   UNL A   1      46.167  35.776  34.178  1.00  0.00     0.016 A 
ATOM     41  C   UNL A   1      44.120  34.428  32.843  1.00  0.00     0.010 A 
ATOM     42  C   UNL A   1      46.272  35.583  32.823  1.00  0.00     0.010 A 
ATOM     43  C   UNL A   1      45.282  34.847  32.172  1.00  0.00    -0.014 A 
BRANCH  43  44
ATOM     44  C   UNL A   1      45.305  34.748  30.704  1.00  0.00     0.031 A 
ATOM     45  C   UNL A   1      44.645  36.097  30.223  1.00  0.00     0.074 A 
ATOM     46  C   UNL A   1      45.729  33.522  30.196  1.00  0.00     0.049 A 
ATOM     47  N   UNL A   1      43.646  36.286  29.426  1.00  0.00    -0.248 NA
ATOM     48  C   UNL A   1      44.976  37.413  30.888  1.00  0.00     0.031 C 
ATOM     49  C   UNL A   1      46.488  32.479  30.955  1.00  0.00     0.029 A 
ATOM     50  N   UNL A   1      45.705  32.881  28.962  1.00  0.00    -0.354 N 
ATOM     51  C   UNL A   1      43.542  37.678  29.194  1.00  0.00     0.074 A 
ATOM     52  C   UNL A   1      44.182  38.312  30.294  1.00  0.00     0.031 C 
ATOM     53  C   UNL A   1      46.698  31.346  30.225  1.00  0.00     0.029 A 
ATOM     54  C   UNL A   1      46.122  31.489  28.903  1.00  0.00     0.049 A 
ATOM     55  H   UNL A   1      45.412  33.356  28.151  1.00  0.00     0.167 HD
ATOM     56  C   UNL A   1      43.226  38.182  27.962  1.00  0.00     0.031 A 
ATOM     57  C   UNL A   1      45.945  30.579  27.861  1.00  0.00     0.031 A 
ATOM     58  C   UNL A   1      43.022  37.082  27.074  1.00  0.00     0.049 A 
ATOM     59  C   UNL A   1      45.426  31.449  26.795  1.00  0.00     0.074 A 
ATOM     60  C   UNL A   1      42.094  36.072  27.088  1.00  0.00     0.029 A 
ATOM     61  N   UNL A   1      44.162  36.662  26.419  1.00  0.00    -0.354 N 
ATOM     62  N   UNL A   1      46.123  32.345  26.166  1.00  0.00    -0.248 NA
ATOM     63  C   UNL A   1      43.978  31.456  26.577  1.00  0.00     0.031 C 
ATOM     64  C   UNL A   1      42.933  34.941  27.036  1.00  0.00     0.029 A 
ATOM     65  C   UNL A   1      44.168  35.297  26.484  1.00  0.00     0.049 A 
ATOM     66  H   UNL A   1      44.839  37.232  25.989  1.00  0.00     0.167 HD
ATOM     67  C   UNL A   1      45.163  33.269  25.845  1.00  0.00     0.074 A 
ATOM     68  C   UNL A   1      43.886  32.563  25.848  1.00  0.00     0.031 C 
ATOM     69  C   UNL A   1      45.363  34.584  26.139  1.00  0.00     0.031 A 
BRANCH  56  70
ATOM     70  C   UNL A   1      43.440  39.518  27.307  1.00  0.00    -0.014 A 
ATOM     71  C   UNL A   1      42.297  40.076  26.672  1.00  0.00     0.010 A 
ATOM     72  C   UNL A   1      44.687  40.075  26.999  1.00  0.00     0.010 A 
ATOM     73  C   UNL A   1      42.398  41.059  25.692  1.00  0.00     0.020 A 
ATOM     74  C   UNL A   1      44.791  41.107  26.045  1.00  0.00     0.020 A 
ATOM     75  C   UNL A   1      43.650  41.568  25.380  1.00  0.00     0.054 A 
BRANCH  75  76
ATOM     76  S   UNL A   1      43.734  42.843  24.095  1.00  0.00     0.124 S 
ATOM     77  O   UNL A   1      44.713  42.288  23.166  1.00  0.00    -0.237 OA
ATOM     78  O   UNL A   1      42.356  42.875  23.606  1.00  0.00    -0.237 OA
ATOM     79  O   UNL A   1      44.157  44.037  24.822  1.00  0.00    -0.744 OA
ENDBRANCH  75  76
ENDBRANCH  56  70
BRANCH  57  80
ATOM     80  C   UNL A   1      45.948  29.074  27.453  1.00  0.00    -0.014 A 
ATOM     81  C   UNL A   1      44.893  28.286  26.972  1.00  0.00     0.010 A 
ATOM     82  C   UNL A   1      47.214  28.386  27.446  1.00  0.00     0.010 A 
ATOM     83  C   UNL A   1      45.131  27.007  26.356  1.00  0.00     0.020 A 
ATOM     84  C   UNL A   1      47.475  27.167  26.794  1.00  0.00     0.020 A 
ATOM     85  C   UNL A   1      46.428  26.494  26.203  1.00  0.00     0.054 A 
BRANCH  85  86
ATOM     86  S   UNL A   1      46.780  25.061  25.121  1.00  0.00     0.124 S 
ATOM     87  O   UNL A   1      47.732  25.604  24.158  1.00  0.00    -0.237 OA
ATOM     88  O   UNL A   1      47.322  24.081  26.060  1.00  0.00    -0.237 OA
ATOM     89  O   UNL A   1      45.472  24.711  24.567  1.00  0.00    -0.744 OA
ENDBRANCH  85  86
ENDBRANCH  57  80
BRANCH  69  90
ATOM     90  C   UNL A   1      46.804  35.064  26.358  1.00  0.00    -0.014 A 
ATOM     91  C   UNL A   1      47.712  34.993  25.287  1.00  0.00     0.010 A 
ATOM     92  C   UNL A   1      47.323  35.534  27.589  1.00  0.00     0.010 A 
ATOM     93  C   UNL A   1      49.054  35.392  25.413  1.00  0.00     0.020 A 
ATOM     94  C   UNL A   1      48.678  35.922  27.734  1.00  0.00     0.020 A 
ATOM     95  C   UNL A   1      49.533  35.866  26.633  1.00  0.00     0.054 A 
BRANCH  95  96
ATOM     96  S   UNL A   1      51.263  36.433  26.731  1.00  0.00     0.124 S 
ATOM     97  O   UNL A   1      52.014  35.180  26.760  1.00  0.00    -0.237 OA
ATOM     98  O   UNL A   1      51.406  37.219  25.510  1.00  0.00    -0.237 OA
ATOM     99  O   UNL A   1      51.310  37.204  27.973  1.00  0.00    -0.744 OA
ENDBRANCH  95  96
ENDBRANCH  69  90
ENDBRANCH  43  44
ENDBRANCH  36  38
ENDBRANCH  35  36
ENDBRANCH  34  35
ENDBRANCH  33  34
ENDBRANCH  32  33
ENDBRANCH   1  32
TORSDOF 23
ENDMDL
MODEL 3
REMARK VINA RESULT:      -8.3      6.271     13.196
REMARK SMILES CN(C)S(=O)(=O)c1ccc(-n2c(CCC(=O)OCCOCCOC(=O)c3ccc(-c4c5nc(c(-c6ccc(S(=O)(=O)[O-])cc6)c6ccc([nH]6)c(-c6ccc(S(=O)(=O)[O-])cc6)c6nc(c(-c7ccc(S(=O)(=O)[O-])cc7)c7ccc4[nH]7)C=C6)C=C5)cc3)ccc2-c2ccc(F)cc2)cc1
REMARK SMILES IDX 19 1 18 2 17 3 15 4 16 5 14 6 13 7 12 8 11 9 88 10 86 11
REMARK SMILES IDX 87 12 10 13 7 14 8 15 97 16 9 17 96 18 4 19 5 20 6 21 2 22
REMARK SMILES IDX 1 23 3 24 89 25 90 26 95 27 91 28 94 29 92 30 93 31 20 32
REMARK SMILES IDX 21 33 22 34 23 35 24 36 25 37 26 38 27 39 85 40 28 41 84 42
REMARK SMILES IDX 29 43 30 44 31 45 78 46 32 47 83 48 77 49 79 50 33 51 82 52
REMARK SMILES IDX 76 53 75 54 34 56 64 57 45 58 63 59 46 60 49 61 62 62 80 63
REMARK SMILES IDX 47 64 48 65 61 67 81 68 50 69 35 70 36 71 44 72 37 73 43 74
REMARK SMILES IDX 38 75 39 76 40 77 41 78 42 79 65 80 66 81 74 82 67 83 73 84
REMARK SMILES IDX 68 85 69 86 70 87 71 88 72 89 51 90 52 91 60 92 53 93 59 94
REMARK SMILES IDX 54 95 55 96 56 97 57 98 58 99
REMARK H PARENT 79 55 49 66
REMARK Flexibility Score: inf
ROOT
ATOM      1  C   UNL A   1      38.755  34.488  29.265  1.00  0.00     0.202 C 
ENDROOT
BRANCH   1   2
ATOM      2  C   UNL A   1      40.891  35.018  29.172  1.00  0.00     0.261 C 
BRANCH   2   3
ATOM      3  O   UNL A   1      41.816  35.086  27.702  1.00  0.00    -0.463 OA
BRANCH   3   4
ATOM      4  C   UNL A   1      42.822  35.959  27.382  1.00  0.00     0.306 C 
ATOM      5  O   UNL A   1      44.004  35.624  27.411  1.00  0.00    -0.252 OA
BRANCH   4   6
ATOM      6  C   UNL A   1      42.410  37.408  26.896  1.00  0.00     0.129 C 
BRANCH   6   7
ATOM      7  C   UNL A   1      42.469  38.714  27.733  1.00  0.00     0.066 C 
BRANCH   7   8
ATOM      8  C   UNL A   1      42.159  39.916  26.940  1.00  0.00     0.024 A 
ATOM      9  N   UNL A   1      43.115  40.841  26.561  1.00  0.00    -0.314 N 
ATOM     10  C   UNL A   1      42.549  41.579  25.494  1.00  0.00     0.053 A 
ATOM     11  C   UNL A   1      40.939  40.292  26.419  1.00  0.00     0.024 A 
ATOM     12  C   UNL A   1      41.189  41.309  25.488  1.00  0.00     0.029 A 
BRANCH   9  13
ATOM     13  C   UNL A   1      44.487  40.854  27.019  1.00  0.00     0.046 A 
ATOM     14  C   UNL A   1      47.927  41.826  27.582  1.00  0.00     0.082 A 
ATOM     15  C   UNL A   1      46.595  42.652  28.430  1.00  0.00     0.024 A 
ATOM     16  C   UNL A   1      47.595  40.517  26.412  1.00  0.00     0.024 A 
ATOM     17  C   UNL A   1      44.910  42.154  28.183  1.00  0.00     0.028 A 
ATOM     18  C   UNL A   1      45.872  39.978  26.164  1.00  0.00     0.028 A 
BRANCH  14  19
ATOM     19  S   UNL A   1      49.467  41.888  28.496  1.00  0.00     0.242 S 
ATOM     20  O   UNL A   1      50.238  40.719  28.132  1.00  0.00    -0.207 OA
ATOM     21  O   UNL A   1      49.085  42.118  29.874  1.00  0.00    -0.207 OA
BRANCH  19  22
ATOM     22  N   UNL A   1      50.335  43.252  27.950  1.00  0.00    -0.204 NA
ATOM     23  C   UNL A   1      49.489  44.475  27.975  1.00  0.00     0.124 C 
ATOM     24  C   UNL A   1      51.608  43.545  28.655  1.00  0.00     0.124 C 
ENDBRANCH  19  22
ENDBRANCH  14  19
ENDBRANCH   9  13
BRANCH  10  25
ATOM     25  C   UNL A   1      43.233  42.414  24.492  1.00  0.00    -0.001 A 
ATOM     26  C   UNL A   1      42.883  42.299  23.139  1.00  0.00     0.013 A 
ATOM     27  C   UNL A   1      44.213  43.355  24.857  1.00  0.00     0.013 A 
ATOM     28  C   UNL A   1      43.405  43.186  22.193  1.00  0.00     0.040 A 
ATOM     29  C   UNL A   1      44.701  44.272  23.918  1.00  0.00     0.040 A 
ATOM     30  C   UNL A   1      44.281  44.185  22.598  1.00  0.00     0.123 A 
ATOM     31  F   UNL A   1      44.717  45.085  21.706  1.00  0.00    -0.207 F 
ENDBRANCH  10  25
ENDBRANCH   7   8
ENDBRANCH   6   7
ENDBRANCH   4   6
ENDBRANCH   3   4
ENDBRANCH   2   3
ENDBRANCH   1   2
BRANCH   1  32
ATOM     32  O   UNL A   1      38.044  33.270  29.991  1.00  0.00    -0.374 OA
BRANCH  32  33
ATOM     33  C   UNL A   1      36.620  33.114  29.847  1.00  0.00     0.202 C 
BRANCH  33  34
ATOM     34  C   UNL A   1      35.980  31.741  29.990  1.00  0.00     0.261 C 
BRANCH  34  35
ATOM     35  O   UNL A   1      36.730  30.682  29.414  1.00  0.00    -0.460 OA
BRANCH  35  36
ATOM     36  C   UNL A   1      36.928  29.623  30.236  1.00  0.00     0.338 C 
ATOM     37  O   UNL A   1      36.349  29.383  31.281  1.00  0.00    -0.246 OA
BRANCH  36  38
ATOM     38  C   UNL A   1      38.069  28.850  29.737  1.00  0.00     0.060 A 
ATOM     39  C   UNL A   1      38.843  28.176  30.681  1.00  0.00     0.016 A 
ATOM     40  C   UNL A   1      38.550  29.140  28.456  1.00  0.00     0.016 A 
ATOM     41  C   UNL A   1      40.193  28.053  30.433  1.00  0.00     0.010 A 
ATOM     42  C   UNL A   1      39.906  29.106  28.248  1.00  0.00     0.010 A 
ATOM     43  C   UNL A   1      40.730  28.628  29.267  1.00  0.00    -0.014 A 
BRANCH  43  44
ATOM     44  C   UNL A   1      42.168  28.456  29.011  1.00  0.00     0.031 A 
ATOM     45  C   UNL A   1      42.755  29.913  29.149  1.00  0.00     0.074 A 
ATOM     46  C   UNL A   1      42.552  27.182  28.599  1.00  0.00     0.049 A 
ATOM     47  N   UNL A   1      43.472  30.595  28.319  1.00  0.00    -0.248 NA
ATOM     48  C   UNL A   1      42.298  30.841  30.251  1.00  0.00     0.031 C 
ATOM     49  C   UNL A   1      41.740  25.934  28.754  1.00  0.00     0.029 A 
ATOM     50  N   UNL A   1      43.686  26.604  28.038  1.00  0.00    -0.354 N 
ATOM     51  C   UNL A   1      43.871  31.784  28.973  1.00  0.00     0.074 A 
ATOM     52  C   UNL A   1      42.926  31.999  30.014  1.00  0.00     0.031 C 
ATOM     53  C   UNL A   1      42.335  24.846  28.185  1.00  0.00     0.029 A 
ATOM     54  C   UNL A   1      43.605  25.221  27.596  1.00  0.00     0.049 A 
ATOM     55  H   UNL A   1      44.521  27.117  27.942  1.00  0.00     0.167 HD
ATOM     56  C   UNL A   1      45.122  32.312  28.811  1.00  0.00     0.031 A 
ATOM     57  C   UNL A   1      44.501  24.519  26.790  1.00  0.00     0.031 A 
ATOM     58  C   UNL A   1      45.839  31.478  27.901  1.00  0.00     0.049 A 
ATOM     59  C   UNL A   1      45.616  25.471  26.690  1.00  0.00     0.074 A 
ATOM     60  C   UNL A   1      45.609  31.177  26.581  1.00  0.00     0.029 A 
ATOM     61  N   UNL A   1      46.538  30.450  28.500  1.00  0.00    -0.354 N 
ATOM     62  N   UNL A   1      46.418  25.778  27.664  1.00  0.00    -0.248 NA
ATOM     63  C   UNL A   1      45.697  26.289  25.478  1.00  0.00     0.031 C 
ATOM     64  C   UNL A   1      45.593  29.769  26.630  1.00  0.00     0.029 A 
ATOM     65  C   UNL A   1      46.299  29.330  27.756  1.00  0.00     0.049 A 
ATOM     66  H   UNL A   1      47.099  30.511  29.307  1.00  0.00     0.167 HD
ATOM     67  C   UNL A   1      46.763  27.065  27.346  1.00  0.00     0.074 A 
ATOM     68  C   UNL A   1      46.550  27.211  25.909  1.00  0.00     0.031 C 
ATOM     69  C   UNL A   1      46.660  28.047  28.285  1.00  0.00     0.031 A 
BRANCH  56  70
ATOM     70  C   UNL A   1      45.959  33.253  29.631  1.00  0.00    -0.014 A 
ATOM     71  C   UNL A   1      47.187  32.719  30.109  1.00  0.00     0.010 A 
ATOM     72  C   UNL A   1      45.502  34.442  30.215  1.00  0.00     0.010 A 
ATOM     73  C   UNL A   1      47.868  33.272  31.189  1.00  0.00     0.020 A 
ATOM     74  C   UNL A   1      46.214  35.035  31.276  1.00  0.00     0.020 A 
ATOM     75  C   UNL A   1      47.373  34.429  31.772  1.00  0.00     0.054 A 
BRANCH  75  76
ATOM     76  S   UNL A   1      48.288  35.111  33.179  1.00  0.00     0.124 S 
ATOM     77  O   UNL A   1      48.510  33.932  34.010  1.00  0.00    -0.237 OA
ATOM     78  O   UNL A   1      49.482  35.654  32.533  1.00  0.00    -0.237 OA
ATOM     79  O   UNL A   1      47.377  36.111  33.730  1.00  0.00    -0.744 OA
ENDBRANCH  75  76
ENDBRANCH  56  70
BRANCH  57  80
ATOM     80  C   UNL A   1      44.711  23.260  25.894  1.00  0.00    -0.014 A 
ATOM     81  C   UNL A   1      45.873  22.820  25.246  1.00  0.00     0.010 A 
ATOM     82  C   UNL A   1      43.615  22.330  25.781  1.00  0.00     0.010 A 
ATOM     83  C   UNL A   1      45.977  21.486  24.715  1.00  0.00     0.020 A 
ATOM     84  C   UNL A   1      43.717  21.004  25.323  1.00  0.00     0.020 A 
ATOM     85  C   UNL A   1      44.925  20.565  24.828  1.00  0.00     0.054 A 
BRANCH  85  86
ATOM     86  S   UNL A   1      45.159  18.782  24.486  1.00  0.00     0.124 S 
ATOM     87  O   UNL A   1      46.445  18.496  25.111  1.00  0.00    -0.237 OA
ATOM     88  O   UNL A   1      43.995  18.180  25.133  1.00  0.00    -0.237 OA
ATOM     89  O   UNL A   1      45.149  18.701  23.025  1.00  0.00    -0.744 OA
ENDBRANCH  85  86
ENDBRANCH  57  80
BRANCH  69  90
ATOM     90  C   UNL A   1      46.639  27.634  29.763  1.00  0.00    -0.014 A 
ATOM     91  C   UNL A   1      47.806  27.093  30.330  1.00  0.00     0.010 A 
ATOM     92  C   UNL A   1      45.505  27.704  30.608  1.00  0.00     0.010 A 
ATOM     93  C   UNL A   1      47.862  26.670  31.670  1.00  0.00     0.020 A 
ATOM     94  C   UNL A   1      45.543  27.264  31.954  1.00  0.00     0.020 A 
ATOM     95  C   UNL A   1      46.735  26.766  32.483  1.00  0.00     0.054 A 
BRANCH  95  96
ATOM     96  S   UNL A   1      46.872  26.266  34.231  1.00  0.00     0.124 S 
ATOM     97  O   UNL A   1      47.107  24.827  34.140  1.00  0.00    -0.237 OA
ATOM     98  O   UNL A   1      48.009  27.055  34.695  1.00  0.00    -0.237 OA
ATOM     99  O   UNL A   1      45.581  26.641  34.807  1.00  0.00    -0.744 OA
ENDBRANCH  95  96
ENDBRANCH  69  90
ENDBRANCH  43  44
ENDBRANCH  36  38
ENDBRANCH  35  36
ENDBRANCH  34  35
ENDBRANCH  33  34
ENDBRANCH  32  33
ENDBRANCH   1  32
TORSDOF 23
ENDMDL
