MODEL 1
REMARK VINA RESULT:     -10.5      0.000      0.000
REMARK SMILES N#Cc1ccc(C[N@H+]2CCCC[C@H]2C(=O)OCCOCCOC(=O)c2ccc(-c3c4nc(c(-c5ccc(S(=O)(=O)[O-])cc5)c5ccc([nH]5)c(-c5ccc(S(=O)(=O)[O-])cc5)c5nc(c(-c6ccc(S(=O)(=O)[O-])cc6)c6ccc3[nH]6)C=C5)C=C4)cc2)c(F)c1
REMARK SMILES IDX 19 1 18 2 17 3 16 4 14 5 15 6 13 7 8 8 9 9 10 11 12 12 11 13
REMARK SMILES IDX 7 14 6 15 3 16 4 17 87 18 5 19 85 20 86 21 2 22 1 23 20 24
REMARK SMILES IDX 21 25 22 26 23 27 24 28 25 29 26 30 84 31 27 32 83 33 28 34
REMARK SMILES IDX 29 35 30 36 77 37 31 38 82 39 76 40 78 41 32 42 81 43 75 44
REMARK SMILES IDX 74 45 33 47 63 48 44 49 62 50 45 51 48 52 61 53 79 54 46 55
REMARK SMILES IDX 47 56 60 58 80 59 49 60 34 61 35 62 43 63 36 64 42 65 37 66
REMARK SMILES IDX 38 67 39 68 40 69 41 70 64 71 65 72 73 73 66 74 72 75 67 76
REMARK SMILES IDX 68 77 69 78 70 79 71 80 50 81 51 82 59 83 52 84 58 85 53 86
REMARK SMILES IDX 54 87 55 88 56 89 57 90
REMARK H PARENT 8 10 78 46 48 57
REMARK Flexibility Score: inf
ROOT
ATOM      1  O   UNL A   1      37.946  22.030  25.936  1.00  0.00    -0.374 OA
ENDROOT
BRANCH   1   2
ATOM      2  C   UNL A   1      37.380  22.630  24.779  1.00  0.00     0.202 C 
BRANCH   2   3
ATOM      3  C   UNL A   1      36.185  23.625  24.738  1.00  0.00     0.261 C 
BRANCH   3   4
ATOM      4  O   UNL A   1      35.397  23.867  25.914  1.00  0.00    -0.459 OA
BRANCH   4   5
ATOM      5  C   UNL A   1      34.138  24.209  25.555  1.00  0.00     0.364 C 
ATOM      6  O   UNL A   1      33.565  25.113  26.141  1.00  0.00    -0.245 OA
BRANCH   5   7
ATOM      7  C   UNL A   1      33.484  23.406  24.429  1.00  0.00     0.295 C 
ATOM      8  N   UNL A   1      32.979  22.079  24.907  1.00  0.00    -0.319 N 
ATOM      9  C   UNL A   1      31.919  22.205  25.910  1.00  0.00     0.263 C 
ATOM     10  H   UNL A   1      32.535  21.676  24.081  1.00  0.00     0.349 HD
ATOM     11  C   UNL A   1      30.747  23.086  25.438  1.00  0.00     0.062 C 
ATOM     12  C   UNL A   1      32.323  24.166  23.769  1.00  0.00     0.078 C 
ATOM     13  C   UNL A   1      31.144  24.370  24.714  1.00  0.00     0.013 C 
BRANCH   8  14
ATOM     14  C   UNL A   1      34.008  21.037  25.200  1.00  0.00     0.302 C 
BRANCH  14  15
ATOM     15  C   UNL A   1      33.749  19.575  24.861  1.00  0.00     0.042 A 
ATOM     16  C   UNL A   1      33.408  16.769  24.944  1.00  0.00     0.055 A 
ATOM     17  C   UNL A   1      32.296  17.618  25.008  1.00  0.00     0.020 A 
ATOM     18  C   UNL A   1      34.673  17.309  24.700  1.00  0.00     0.059 A 
ATOM     19  C   UNL A   1      32.461  19.013  24.958  1.00  0.00     0.014 A 
ATOM     20  C   UNL A   1      34.830  18.698  24.644  1.00  0.00     0.133 A 
ATOM     21  F   UNL A   1      36.077  19.190  24.582  1.00  0.00    -0.206 F 
BRANCH  16  22
ATOM     22  C   UNL A   1      33.267  15.372  25.235  1.00  0.00     0.099 C 
ATOM     23  N   UNL A   1      33.136  14.239  25.469  1.00  0.00    -0.192 NA
ENDBRANCH  16  22
ENDBRANCH  14  15
ENDBRANCH   8  14
ENDBRANCH   5   7
ENDBRANCH   4   5
ENDBRANCH   3   4
ENDBRANCH   2   3
ENDBRANCH   1   2
BRANCH   1  24
ATOM     24  C   UNL A   1      39.351  21.939  26.128  1.00  0.00     0.202 C 
BRANCH  24  25
ATOM     25  C   UNL A   1      40.156  23.090  26.723  1.00  0.00     0.261 C 
BRANCH  25  26
ATOM     26  O   UNL A   1      39.480  24.345  26.645  1.00  0.00    -0.460 OA
BRANCH  26  27
ATOM     27  C   UNL A   1      40.333  25.383  26.471  1.00  0.00     0.338 C 
ATOM     28  O   UNL A   1      40.745  25.832  25.414  1.00  0.00    -0.246 OA
BRANCH  27  29
ATOM     29  C   UNL A   1      40.532  26.080  27.749  1.00  0.00     0.060 A 
ATOM     30  C   UNL A   1      39.504  25.968  28.694  1.00  0.00     0.016 A 
ATOM     31  C   UNL A   1      41.651  26.878  27.982  1.00  0.00     0.016 A 
ATOM     32  C   UNL A   1      39.552  26.710  29.859  1.00  0.00     0.010 A 
ATOM     33  C   UNL A   1      41.682  27.654  29.139  1.00  0.00     0.010 A 
ATOM     34  C   UNL A   1      40.607  27.608  30.047  1.00  0.00    -0.014 A 
BRANCH  34  35
ATOM     35  C   UNL A   1      40.452  28.646  31.081  1.00  0.00     0.031 A 
ATOM     36  C   UNL A   1      41.381  28.619  32.261  1.00  0.00     0.074 A 
ATOM     37  C   UNL A   1      39.560  29.636  30.917  1.00  0.00     0.049 A 
ATOM     38  N   UNL A   1      41.431  29.421  33.291  1.00  0.00    -0.248 NA
ATOM     39  C   UNL A   1      42.391  27.547  32.280  1.00  0.00     0.031 C 
ATOM     40  C   UNL A   1      38.679  29.795  29.760  1.00  0.00     0.029 A 
ATOM     41  N   UNL A   1      39.261  30.700  31.723  1.00  0.00    -0.354 N 
ATOM     42  C   UNL A   1      42.464  28.942  34.088  1.00  0.00     0.074 A 
ATOM     43  C   UNL A   1      42.991  27.761  33.442  1.00  0.00     0.031 C 
ATOM     44  C   UNL A   1      37.936  30.902  29.933  1.00  0.00     0.029 A 
ATOM     45  C   UNL A   1      38.258  31.495  31.228  1.00  0.00     0.049 A 
ATOM     46  H   UNL A   1      39.721  30.878  32.575  1.00  0.00     0.167 HD
ATOM     47  C   UNL A   1      42.932  29.448  35.253  1.00  0.00     0.031 A 
ATOM     48  C   UNL A   1      37.655  32.566  31.776  1.00  0.00     0.031 A 
ATOM     49  C   UNL A   1      42.380  30.616  35.888  1.00  0.00     0.049 A 
ATOM     50  C   UNL A   1      38.119  33.044  33.126  1.00  0.00     0.074 A 
ATOM     51  C   UNL A   1      42.769  31.217  37.071  1.00  0.00     0.029 A 
ATOM     52  N   UNL A   1      41.313  31.354  35.394  1.00  0.00    -0.354 N 
ATOM     53  N   UNL A   1      39.095  32.586  33.874  1.00  0.00    -0.248 NA
ATOM     54  C   UNL A   1      37.403  34.188  33.702  1.00  0.00     0.031 C 
ATOM     55  C   UNL A   1      41.889  32.272  37.330  1.00  0.00     0.029 A 
ATOM     56  C   UNL A   1      41.006  32.383  36.267  1.00  0.00     0.049 A 
ATOM     57  H   UNL A   1      40.843  31.171  34.548  1.00  0.00     0.167 HD
ATOM     58  C   UNL A   1      39.135  33.411  34.994  1.00  0.00     0.074 A 
ATOM     59  C   UNL A   1      38.093  34.402  34.813  1.00  0.00     0.031 C 
ATOM     60  C   UNL A   1      39.960  33.359  36.070  1.00  0.00     0.031 A 
BRANCH  47  61
ATOM     61  C   UNL A   1      44.056  28.709  35.933  1.00  0.00    -0.014 A 
ATOM     62  C   UNL A   1      43.812  27.760  36.942  1.00  0.00     0.010 A 
ATOM     63  C   UNL A   1      45.385  28.958  35.540  1.00  0.00     0.010 A 
ATOM     64  C   UNL A   1      44.875  27.112  37.578  1.00  0.00     0.020 A 
ATOM     65  C   UNL A   1      46.448  28.286  36.148  1.00  0.00     0.020 A 
ATOM     66  C   UNL A   1      46.187  27.381  37.177  1.00  0.00     0.054 A 
BRANCH  66  67
ATOM     67  S   UNL A   1      47.545  26.515  38.012  1.00  0.00     0.124 S 
ATOM     68  O   UNL A   1      48.143  27.585  38.806  1.00  0.00    -0.237 OA
ATOM     69  O   UNL A   1      46.845  25.483  38.772  1.00  0.00    -0.237 OA
ATOM     70  O   UNL A   1      48.371  26.022  36.912  1.00  0.00    -0.744 OA
ENDBRANCH  66  67
ENDBRANCH  47  61
BRANCH  48  71
ATOM     71  C   UNL A   1      36.546  33.244  31.055  1.00  0.00    -0.014 A 
ATOM     72  C   UNL A   1      35.233  33.191  31.551  1.00  0.00     0.010 A 
ATOM     73  C   UNL A   1      36.799  33.957  29.868  1.00  0.00     0.010 A 
ATOM     74  C   UNL A   1      34.190  33.820  30.865  1.00  0.00     0.020 A 
ATOM     75  C   UNL A   1      35.768  34.616  29.197  1.00  0.00     0.020 A 
ATOM     76  C   UNL A   1      34.467  34.534  29.694  1.00  0.00     0.054 A 
BRANCH  76  77
ATOM     77  S   UNL A   1      33.104  35.381  28.849  1.00  0.00     0.124 S 
ATOM     78  O   UNL A   1      32.484  34.292  28.104  1.00  0.00    -0.237 OA
ATOM     79  O   UNL A   1      32.326  35.911  29.967  1.00  0.00    -0.237 OA
ATOM     80  O   UNL A   1      33.779  36.391  28.037  1.00  0.00    -0.744 OA
ENDBRANCH  76  77
ENDBRANCH  48  71
BRANCH  60  81
ATOM     81  C   UNL A   1      39.800  34.430  37.117  1.00  0.00    -0.014 A 
ATOM     82  C   UNL A   1      38.909  34.280  38.195  1.00  0.00     0.010 A 
ATOM     83  C   UNL A   1      40.599  35.587  37.047  1.00  0.00     0.010 A 
ATOM     84  C   UNL A   1      38.794  35.283  39.160  1.00  0.00     0.020 A 
ATOM     85  C   UNL A   1      40.516  36.574  38.031  1.00  0.00     0.020 A 
ATOM     86  C   UNL A   1      39.602  36.421  39.075  1.00  0.00     0.054 A 
BRANCH  86  87
ATOM     87  S   UNL A   1      39.466  37.685  40.368  1.00  0.00     0.124 S 
ATOM     88  O   UNL A   1      38.230  38.369  39.998  1.00  0.00    -0.237 OA
ATOM     89  O   UNL A   1      39.400  36.883  41.588  1.00  0.00    -0.237 OA
ATOM     90  O   UNL A   1      40.685  38.474  40.213  1.00  0.00    -0.744 OA
ENDBRANCH  86  87
ENDBRANCH  60  81
ENDBRANCH  34  35
ENDBRANCH  27  29
ENDBRANCH  26  27
ENDBRANCH  25  26
ENDBRANCH  24  25
ENDBRANCH   1  24
TORSDOF 20
ENDMDL
MODEL 2
REMARK VINA RESULT:     -10.3      3.171      9.133
REMARK SMILES N#Cc1ccc(C[N@H+]2CCCC[C@H]2C(=O)OCCOCCOC(=O)c2ccc(-c3c4nc(c(-c5ccc(S(=O)(=O)[O-])cc5)c5ccc([nH]5)c(-c5ccc(S(=O)(=O)[O-])cc5)c5nc(c(-c6ccc(S(=O)(=O)[O-])cc6)c6ccc3[nH]6)C=C5)C=C4)cc2)c(F)c1
REMARK SMILES IDX 19 1 18 2 17 3 16 4 14 5 15 6 13 7 8 8 9 9 10 11 12 12 11 13
REMARK SMILES IDX 7 14 6 15 3 16 4 17 87 18 5 19 85 20 86 21 2 22 1 23 20 24
REMARK SMILES IDX 21 25 22 26 23 27 24 28 25 29 26 30 84 31 27 32 83 33 28 34
REMARK SMILES IDX 29 35 30 36 77 37 31 38 82 39 76 40 78 41 32 42 81 43 75 44
REMARK SMILES IDX 74 45 33 47 63 48 44 49 62 50 45 51 48 52 61 53 79 54 46 55
REMARK SMILES IDX 47 56 60 58 80 59 49 60 34 61 35 62 43 63 36 64 42 65 37 66
REMARK SMILES IDX 38 67 39 68 40 69 41 70 64 71 65 72 73 73 66 74 72 75 67 76
REMARK SMILES IDX 68 77 69 78 70 79 71 80 50 81 51 82 59 83 52 84 58 85 53 86
REMARK SMILES IDX 54 87 55 88 56 89 57 90
REMARK H PARENT 8 10 78 46 48 57
REMARK Flexibility Score: inf
ROOT
ATOM      1  O   UNL A   1      31.260  29.911  24.933  1.00  0.00    -0.374 OA
ENDROOT
BRANCH   1   2
ATOM      2  C   UNL A   1      31.027  29.056  23.822  1.00  0.00     0.202 C 
BRANCH   2   3
ATOM      3  C   UNL A   1      32.094  28.237  23.040  1.00  0.00     0.261 C 
BRANCH   3   4
ATOM      4  O   UNL A   1      31.738  27.008  22.387  1.00  0.00    -0.459 OA
BRANCH   4   5
ATOM      5  C   UNL A   1      32.254  25.964  23.073  1.00  0.00     0.364 C 
ATOM      6  O   UNL A   1      33.460  25.890  23.248  1.00  0.00    -0.245 OA
BRANCH   5   7
ATOM      7  C   UNL A   1      31.278  24.898  23.577  1.00  0.00     0.295 C 
ATOM      8  N   UNL A   1      31.982  23.785  24.291  1.00  0.00    -0.319 N 
ATOM      9  C   UNL A   1      32.666  24.236  25.505  1.00  0.00     0.263 C 
ATOM     10  H   UNL A   1      31.223  23.181  24.606  1.00  0.00     0.349 HD
ATOM     11  C   UNL A   1      31.737  24.990  26.474  1.00  0.00     0.062 C 
ATOM     12  C   UNL A   1      30.207  25.483  24.511  1.00  0.00     0.078 C 
ATOM     13  C   UNL A   1      30.791  25.996  25.822  1.00  0.00     0.013 C 
BRANCH   8  14
ATOM     14  C   UNL A   1      32.757  22.831  23.443  1.00  0.00     0.302 C 
BRANCH  14  15
ATOM     15  C   UNL A   1      32.704  21.333  23.715  1.00  0.00     0.042 A 
ATOM     16  C   UNL A   1      33.204  18.551  23.797  1.00  0.00     0.055 A 
ATOM     17  C   UNL A   1      33.631  19.377  24.844  1.00  0.00     0.020 A 
ATOM     18  C   UNL A   1      32.409  19.086  22.779  1.00  0.00     0.059 A 
ATOM     19  C   UNL A   1      33.377  20.759  24.810  1.00  0.00     0.014 A 
ATOM     20  C   UNL A   1      32.153  20.461  22.755  1.00  0.00     0.133 A 
ATOM     21  F   UNL A   1      31.536  20.969  21.678  1.00  0.00    -0.206 F 
BRANCH  16  22
ATOM     22  C   UNL A   1      33.666  17.197  23.711  1.00  0.00     0.099 C 
ATOM     23  N   UNL A   1      34.026  16.092  23.643  1.00  0.00    -0.192 NA
ENDBRANCH  16  22
ENDBRANCH  14  15
ENDBRANCH   8  14
ENDBRANCH   5   7
ENDBRANCH   4   5
ENDBRANCH   3   4
ENDBRANCH   2   3
ENDBRANCH   1   2
BRANCH   1  24
ATOM     24  C   UNL A   1      32.048  29.507  26.044  1.00  0.00     0.202 C 
BRANCH  24  25
ATOM     25  C   UNL A   1      32.554  30.510  27.076  1.00  0.00     0.261 C 
BRANCH  25  26
ATOM     26  O   UNL A   1      33.933  30.837  26.908  1.00  0.00    -0.460 OA
BRANCH  26  27
ATOM     27  C   UNL A   1      34.452  31.466  27.990  1.00  0.00     0.338 C 
ATOM     28  O   UNL A   1      33.859  32.173  28.789  1.00  0.00    -0.246 OA
BRANCH  27  29
ATOM     29  C   UNL A   1      35.821  30.993  28.229  1.00  0.00     0.060 A 
ATOM     30  C   UNL A   1      35.983  29.618  28.450  1.00  0.00     0.016 A 
ATOM     31  C   UNL A   1      36.898  31.873  28.312  1.00  0.00     0.016 A 
ATOM     32  C   UNL A   1      37.215  29.118  28.824  1.00  0.00     0.010 A 
ATOM     33  C   UNL A   1      38.132  31.376  28.725  1.00  0.00     0.010 A 
ATOM     34  C   UNL A   1      38.273  30.008  29.032  1.00  0.00    -0.014 A 
BRANCH  34  35
ATOM     35  C   UNL A   1      39.444  29.524  29.783  1.00  0.00     0.031 A 
ATOM     36  C   UNL A   1      39.763  30.173  31.100  1.00  0.00     0.074 A 
ATOM     37  C   UNL A   1      40.146  28.470  29.335  1.00  0.00     0.049 A 
ATOM     38  N   UNL A   1      40.740  29.921  31.930  1.00  0.00    -0.248 NA
ATOM     39  C   UNL A   1      38.858  31.249  31.541  1.00  0.00     0.031 C 
ATOM     40  C   UNL A   1      39.855  27.719  28.115  1.00  0.00     0.029 A 
ATOM     41  N   UNL A   1      41.241  27.847  29.868  1.00  0.00    -0.354 N 
ATOM     42  C   UNL A   1      40.577  30.815  32.981  1.00  0.00     0.074 A 
ATOM     43  C   UNL A   1      39.431  31.639  32.669  1.00  0.00     0.031 C 
ATOM     44  C   UNL A   1      40.754  26.728  27.994  1.00  0.00     0.029 A 
ATOM     45  C   UNL A   1      41.705  26.809  29.100  1.00  0.00     0.049 A 
ATOM     46  H   UNL A   1      41.656  28.117  30.719  1.00  0.00     0.167 HD
ATOM     47  C   UNL A   1      41.317  30.932  34.109  1.00  0.00     0.031 A 
ATOM     48  C   UNL A   1      42.790  26.031  29.265  1.00  0.00     0.031 A 
ATOM     49  C   UNL A   1      42.466  30.112  34.391  1.00  0.00     0.049 A 
ATOM     50  C   UNL A   1      43.664  26.254  30.470  1.00  0.00     0.074 A 
ATOM     51  C   UNL A   1      43.295  30.144  35.496  1.00  0.00     0.029 A 
ATOM     52  N   UNL A   1      42.952  29.118  33.552  1.00  0.00    -0.354 N 
ATOM     53  N   UNL A   1      43.504  27.102  31.460  1.00  0.00    -0.248 NA
ATOM     54  C   UNL A   1      44.859  25.411  30.584  1.00  0.00     0.031 C 
ATOM     55  C   UNL A   1      44.326  29.221  35.292  1.00  0.00     0.029 A 
ATOM     56  C   UNL A   1      44.092  28.553  34.099  1.00  0.00     0.049 A 
ATOM     57  H   UNL A   1      42.547  28.854  32.695  1.00  0.00     0.167 HD
ATOM     58  C   UNL A   1      44.561  26.867  32.334  1.00  0.00     0.074 A 
ATOM     59  C   UNL A   1      45.341  25.789  31.760  1.00  0.00     0.031 C 
ATOM     60  C   UNL A   1      44.856  27.481  33.508  1.00  0.00     0.031 A 
BRANCH  47  61
ATOM     61  C   UNL A   1      40.936  32.016  35.084  1.00  0.00    -0.014 A 
ATOM     62  C   UNL A   1      41.365  33.345  34.916  1.00  0.00     0.010 A 
ATOM     63  C   UNL A   1      40.117  31.699  36.184  1.00  0.00     0.010 A 
ATOM     64  C   UNL A   1      41.022  34.325  35.853  1.00  0.00     0.020 A 
ATOM     65  C   UNL A   1      39.743  32.682  37.103  1.00  0.00     0.020 A 
ATOM     66  C   UNL A   1      40.214  33.985  36.942  1.00  0.00     0.054 A 
BRANCH  66  67
ATOM     67  S   UNL A   1      39.776  35.280  38.135  1.00  0.00     0.124 S 
ATOM     68  O   UNL A   1      40.898  35.224  39.068  1.00  0.00    -0.237 OA
ATOM     69  O   UNL A   1      39.712  36.476  37.298  1.00  0.00    -0.237 OA
ATOM     70  O   UNL A   1      38.494  34.834  38.677  1.00  0.00    -0.744 OA
ENDBRANCH  66  67
ENDBRANCH  47  61
BRANCH  48  71
ATOM     71  C   UNL A   1      43.114  24.985  28.259  1.00  0.00    -0.014 A 
ATOM     72  C   UNL A   1      42.601  23.684  28.389  1.00  0.00     0.010 A 
ATOM     73  C   UNL A   1      43.934  25.289  27.155  1.00  0.00     0.010 A 
ATOM     74  C   UNL A   1      42.917  22.701  27.447  1.00  0.00     0.020 A 
ATOM     75  C   UNL A   1      44.224  24.320  26.193  1.00  0.00     0.020 A 
ATOM     76  C   UNL A   1      43.722  23.027  26.352  1.00  0.00     0.054 A 
BRANCH  76  77
ATOM     77  S   UNL A   1      44.077  21.745  25.119  1.00  0.00     0.124 S 
ATOM     78  O   UNL A   1      45.422  21.327  25.494  1.00  0.00    -0.237 OA
ATOM     79  O   UNL A   1      43.016  20.772  25.367  1.00  0.00    -0.237 OA
ATOM     80  O   UNL A   1      43.974  22.456  23.846  1.00  0.00    -0.744 OA
ENDBRANCH  76  77
ENDBRANCH  48  71
BRANCH  60  81
ATOM     81  C   UNL A   1      46.051  26.973  34.272  1.00  0.00    -0.014 A 
ATOM     82  C   UNL A   1      47.330  27.531  34.098  1.00  0.00     0.010 A 
ATOM     83  C   UNL A   1      45.875  25.951  35.225  1.00  0.00     0.010 A 
ATOM     84  C   UNL A   1      48.416  27.051  34.834  1.00  0.00     0.020 A 
ATOM     85  C   UNL A   1      46.950  25.495  35.990  1.00  0.00     0.020 A 
ATOM     86  C   UNL A   1      48.218  26.039  35.779  1.00  0.00     0.054 A 
BRANCH  86  87
ATOM     87  S   UNL A   1      49.636  25.468  36.754  1.00  0.00     0.124 S 
ATOM     88  O   UNL A   1      50.318  24.584  35.812  1.00  0.00    -0.237 OA
ATOM     89  O   UNL A   1      50.332  26.716  37.061  1.00  0.00    -0.237 OA
ATOM     90  O   UNL A   1      49.025  24.803  37.902  1.00  0.00    -0.744 OA
ENDBRANCH  86  87
ENDBRANCH  60  81
ENDBRANCH  34  35
ENDBRANCH  27  29
ENDBRANCH  26  27
ENDBRANCH  25  26
ENDBRANCH  24  25
ENDBRANCH   1  24
TORSDOF 20
ENDMDL
MODEL 3
REMARK VINA RESULT:     -10.3      5.620      7.877
REMARK SMILES N#Cc1ccc(C[N@H+]2CCCC[C@H]2C(=O)OCCOCCOC(=O)c2ccc(-c3c4nc(c(-c5ccc(S(=O)(=O)[O-])cc5)c5ccc([nH]5)c(-c5ccc(S(=O)(=O)[O-])cc5)c5nc(c(-c6ccc(S(=O)(=O)[O-])cc6)c6ccc3[nH]6)C=C5)C=C4)cc2)c(F)c1
REMARK SMILES IDX 19 1 18 2 17 3 16 4 14 5 15 6 13 7 8 8 9 9 10 11 12 12 11 13
REMARK SMILES IDX 7 14 6 15 3 16 4 17 87 18 5 19 85 20 86 21 2 22 1 23 20 24
REMARK SMILES IDX 21 25 22 26 23 27 24 28 25 29 26 30 84 31 27 32 83 33 28 34
REMARK SMILES IDX 29 35 30 36 77 37 31 38 82 39 76 40 78 41 32 42 81 43 75 44
REMARK SMILES IDX 74 45 33 47 63 48 44 49 62 50 45 51 48 52 61 53 79 54 46 55
REMARK SMILES IDX 47 56 60 58 80 59 49 60 34 61 35 62 43 63 36 64 42 65 37 66
REMARK SMILES IDX 38 67 39 68 40 69 41 70 64 71 65 72 73 73 66 74 72 75 67 76
REMARK SMILES IDX 68 77 69 78 70 79 71 80 50 81 51 82 59 83 52 84 58 85 53 86
REMARK SMILES IDX 54 87 55 88 56 89 57 90
REMARK H PARENT 8 10 78 46 48 57
REMARK Flexibility Score: inf
ROOT
ATOM      1  O   UNL A   1      34.490  21.948  25.488  1.00  0.00    -0.374 OA
ENDROOT
BRANCH   1   2
ATOM      2  C   UNL A   1      33.887  22.695  26.536  1.00  0.00     0.202 C 
BRANCH   2   3
ATOM      3  C   UNL A   1      32.366  22.961  26.730  1.00  0.00     0.261 C 
BRANCH   3   4
ATOM      4  O   UNL A   1      31.574  23.488  25.653  1.00  0.00    -0.459 OA
BRANCH   4   5
ATOM      5  C   UNL A   1      31.493  24.833  25.766  1.00  0.00     0.364 C 
ATOM      6  O   UNL A   1      30.993  25.329  26.763  1.00  0.00    -0.245 OA
BRANCH   5   7
ATOM      7  C   UNL A   1      32.020  25.672  24.599  1.00  0.00     0.295 C 
ATOM      8  N   UNL A   1      31.351  27.010  24.525  1.00  0.00    -0.319 N 
ATOM      9  C   UNL A   1      31.616  27.841  25.702  1.00  0.00     0.263 C 
ATOM     10  H   UNL A   1      31.820  27.473  23.746  1.00  0.00     0.349 HD
ATOM     11  C   UNL A   1      33.119  28.009  25.993  1.00  0.00     0.062 C 
ATOM     12  C   UNL A   1      33.540  25.884  24.673  1.00  0.00     0.078 C 
ATOM     13  C   UNL A   1      33.955  26.737  25.866  1.00  0.00     0.013 C 
BRANCH   8  14
ATOM     14  C   UNL A   1      29.938  27.027  24.042  1.00  0.00     0.302 C 
BRANCH  14  15
ATOM     15  C   UNL A   1      29.453  28.121  23.100  1.00  0.00     0.042 A 
ATOM     16  C   UNL A   1      28.566  30.554  21.964  1.00  0.00     0.055 A 
ATOM     17  C   UNL A   1      29.913  30.183  21.875  1.00  0.00     0.020 A 
ATOM     18  C   UNL A   1      27.638  29.654  22.494  1.00  0.00     0.059 A 
ATOM     19  C   UNL A   1      30.356  28.970  22.432  1.00  0.00     0.014 A 
ATOM     20  C   UNL A   1      28.084  28.445  23.039  1.00  0.00     0.133 A 
ATOM     21  F   UNL A   1      27.195  27.682  23.693  1.00  0.00    -0.206 F 
BRANCH  16  22
ATOM     22  C   UNL A   1      28.159  31.884  21.617  1.00  0.00     0.099 C 
ATOM     23  N   UNL A   1      27.825  32.967  21.350  1.00  0.00    -0.192 NA
ENDBRANCH  16  22
ENDBRANCH  14  15
ENDBRANCH   8  14
ENDBRANCH   5   7
ENDBRANCH   4   5
ENDBRANCH   3   4
ENDBRANCH   2   3
ENDBRANCH   1   2
BRANCH   1  24
ATOM     24  C   UNL A   1      35.777  22.267  24.979  1.00  0.00     0.202 C 
BRANCH  24  25
ATOM     25  C   UNL A   1      37.054  21.823  25.686  1.00  0.00     0.261 C 
BRANCH  25  26
ATOM     26  O   UNL A   1      38.160  22.691  25.443  1.00  0.00    -0.460 OA
BRANCH  26  27
ATOM     27  C   UNL A   1      39.226  22.404  26.228  1.00  0.00     0.338 C 
ATOM     28  O   UNL A   1      39.934  21.411  26.178  1.00  0.00    -0.246 OA
BRANCH  27  29
ATOM     29  C   UNL A   1      39.585  23.582  27.027  1.00  0.00     0.060 A 
ATOM     30  C   UNL A   1      38.922  24.778  26.719  1.00  0.00     0.016 A 
ATOM     31  C   UNL A   1      40.591  23.537  27.991  1.00  0.00     0.016 A 
ATOM     32  C   UNL A   1      39.307  25.958  27.326  1.00  0.00     0.010 A 
ATOM     33  C   UNL A   1      41.004  24.731  28.576  1.00  0.00     0.010 A 
ATOM     34  C   UNL A   1      40.397  25.946  28.201  1.00  0.00    -0.014 A 
BRANCH  34  35
ATOM     35  C   UNL A   1      41.027  27.235  28.536  1.00  0.00     0.031 A 
ATOM     36  C   UNL A   1      42.502  27.388  28.299  1.00  0.00     0.074 A 
ATOM     37  C   UNL A   1      40.276  28.266  28.956  1.00  0.00     0.049 A 
ATOM     38  N   UNL A   1      43.272  28.421  28.521  1.00  0.00    -0.248 NA
ATOM     39  C   UNL A   1      43.204  26.223  27.734  1.00  0.00     0.031 C 
ATOM     40  C   UNL A   1      38.824  28.238  29.128  1.00  0.00     0.029 A 
ATOM     41  N   UNL A   1      40.637  29.539  29.301  1.00  0.00    -0.354 N 
ATOM     42  C   UNL A   1      44.548  28.025  28.139  1.00  0.00     0.074 A 
ATOM     43  C   UNL A   1      44.458  26.650  27.705  1.00  0.00     0.031 C 
ATOM     44  C   UNL A   1      38.416  29.447  29.546  1.00  0.00     0.029 A 
ATOM     45  C   UNL A   1      39.581  30.312  29.714  1.00  0.00     0.049 A 
ATOM     46  H   UNL A   1      41.563  29.869  29.257  1.00  0.00     0.167 HD
ATOM     47  C   UNL A   1      45.691  28.751  28.146  1.00  0.00     0.031 A 
ATOM     48  C   UNL A   1      39.567  31.569  30.196  1.00  0.00     0.031 A 
ATOM     49  C   UNL A   1      45.761  30.115  28.599  1.00  0.00     0.049 A 
ATOM     50  C   UNL A   1      40.869  32.317  30.300  1.00  0.00     0.074 A 
ATOM     51  C   UNL A   1      46.864  30.946  28.657  1.00  0.00     0.029 A 
ATOM     52  N   UNL A   1      44.683  30.843  29.082  1.00  0.00    -0.354 N 
ATOM     53  N   UNL A   1      42.071  31.937  29.937  1.00  0.00    -0.248 NA
ATOM     54  C   UNL A   1      40.809  33.667  30.872  1.00  0.00     0.031 C 
ATOM     55  C   UNL A   1      46.467  32.152  29.245  1.00  0.00     0.029 A 
ATOM     56  C   UNL A   1      45.100  32.103  29.474  1.00  0.00     0.049 A 
ATOM     57  H   UNL A   1      43.757  30.512  29.139  1.00  0.00     0.167 HD
ATOM     58  C   UNL A   1      42.907  33.017  30.203  1.00  0.00     0.074 A 
ATOM     59  C   UNL A   1      42.066  34.067  30.743  1.00  0.00     0.031 C 
ATOM     60  C   UNL A   1      44.246  33.134  30.013  1.00  0.00     0.031 A 
BRANCH  47  61
ATOM     61  C   UNL A   1      46.956  28.063  27.701  1.00  0.00    -0.014 A 
ATOM     62  C   UNL A   1      47.595  27.098  28.503  1.00  0.00     0.010 A 
ATOM     63  C   UNL A   1      47.509  28.376  26.445  1.00  0.00     0.010 A 
ATOM     64  C   UNL A   1      48.784  26.499  28.079  1.00  0.00     0.020 A 
ATOM     65  C   UNL A   1      48.678  27.752  26.002  1.00  0.00     0.020 A 
ATOM     66  C   UNL A   1      49.319  26.831  26.831  1.00  0.00     0.054 A 
BRANCH  66  67
ATOM     67  S   UNL A   1      50.856  26.027  26.303  1.00  0.00     0.124 S 
ATOM     68  O   UNL A   1      50.637  25.867  24.868  1.00  0.00    -0.237 OA
ATOM     69  O   UNL A   1      51.874  27.006  26.679  1.00  0.00    -0.237 OA
ATOM     70  O   UNL A   1      50.880  24.784  27.070  1.00  0.00    -0.744 OA
ENDBRANCH  66  67
ENDBRANCH  47  61
BRANCH  48  71
ATOM     71  C   UNL A   1      38.284  32.185  30.626  1.00  0.00    -0.014 A 
ATOM     72  C   UNL A   1      37.842  32.065  31.954  1.00  0.00     0.010 A 
ATOM     73  C   UNL A   1      37.498  32.907  29.707  1.00  0.00     0.010 A 
ATOM     74  C   UNL A   1      36.630  32.636  32.352  1.00  0.00     0.020 A 
ATOM     75  C   UNL A   1      36.304  33.509  30.108  1.00  0.00     0.020 A 
ATOM     76  C   UNL A   1      35.872  33.360  31.426  1.00  0.00     0.054 A 
BRANCH  76  77
ATOM     77  S   UNL A   1      34.327  34.132  31.981  1.00  0.00     0.124 S 
ATOM     78  O   UNL A   1      33.651  34.402  30.717  1.00  0.00    -0.237 OA
ATOM     79  O   UNL A   1      33.734  33.084  32.808  1.00  0.00    -0.237 OA
ATOM     80  O   UNL A   1      34.779  35.313  32.714  1.00  0.00    -0.744 OA
ENDBRANCH  76  77
ENDBRANCH  48  71
BRANCH  60  81
ATOM     81  C   UNL A   1      44.879  34.459  30.351  1.00  0.00    -0.014 A 
ATOM     82  C   UNL A   1      45.414  34.717  31.625  1.00  0.00     0.010 A 
ATOM     83  C   UNL A   1      44.987  35.445  29.351  1.00  0.00     0.010 A 
ATOM     84  C   UNL A   1      46.011  35.949  31.903  1.00  0.00     0.020 A 
ATOM     85  C   UNL A   1      45.618  36.662  29.614  1.00  0.00     0.020 A 
ATOM     86  C   UNL A   1      46.114  36.912  30.894  1.00  0.00     0.054 A 
BRANCH  86  87
ATOM     87  S   UNL A   1      46.936  38.483  31.270  1.00  0.00     0.124 S 
ATOM     88  O   UNL A   1      47.197  38.357  32.701  1.00  0.00    -0.237 OA
ATOM     89  O   UNL A   1      48.116  38.438  30.409  1.00  0.00    -0.237 OA
ATOM     90  O   UNL A   1      45.944  39.491  30.905  1.00  0.00    -0.744 OA
ENDBRANCH  86  87
ENDBRANCH  60  81
ENDBRANCH  34  35
ENDBRANCH  27  29
ENDBRANCH  26  27
ENDBRANCH  25  26
ENDBRANCH  24  25
ENDBRANCH   1  24
TORSDOF 20
ENDMDL
