MODEL 1
REMARK VINA RESULT:      -9.9      0.000      0.000
REMARK SMILES CCC[C@@H](Oc1ccc(-c2ccccc2)cc1)C(=O)OCCOCCOC(=O)c1ccc(-c2c3nc(c(-c4ccc(S(=O)(=O)[O-])cc4)c4ccc([nH]4)c(-c4ccc(S(=O)(=O)[O-])cc4)c4nc(c(-c5ccc(S(=O)(=O)[O-])cc5)c5ccc2[nH]5)C=C4)C=C3)cc1
REMARK SMILES IDX 23 1 22 2 21 3 20 4 18 5 19 6 4 7 3 8 2 9 1 10 5 11 6 12
REMARK SMILES IDX 7 13 17 14 8 15 16 16 9 17 10 18 11 19 15 20 12 21 14 22
REMARK SMILES IDX 13 23 24 24 25 25 26 26 27 27 28 28 29 29 30 30 88 31 31 32
REMARK SMILES IDX 87 33 32 34 33 35 34 36 81 37 35 38 86 39 80 40 82 41 36 42
REMARK SMILES IDX 85 43 79 44 78 45 37 47 67 48 48 49 66 50 49 51 52 52 65 53
REMARK SMILES IDX 83 54 50 55 51 56 64 58 84 59 53 60 38 61 39 62 47 63 40 64
REMARK SMILES IDX 46 65 41 66 42 67 43 68 44 69 45 70 68 71 69 72 77 73 70 74
REMARK SMILES IDX 76 75 71 76 72 77 73 78 74 79 75 80 54 81 55 82 63 83 56 84
REMARK SMILES IDX 62 85 57 86 58 87 59 88 60 89 61 90
REMARK H PARENT 82 46 52 57
REMARK Flexibility Score: inf
ROOT
ATOM      1  O   UNL A   1      32.244  30.572  25.978  1.00  0.00    -0.374 OA
ENDROOT
BRANCH   1   2
ATOM      2  C   UNL A   1      33.211  29.518  25.957  1.00  0.00     0.202 C 
BRANCH   2   3
ATOM      3  C   UNL A   1      33.068  28.425  27.021  1.00  0.00     0.261 C 
BRANCH   3   4
ATOM      4  O   UNL A   1      33.264  27.105  26.472  1.00  0.00    -0.461 OA
BRANCH   4   5
ATOM      5  C   UNL A   1      32.139  26.377  26.221  1.00  0.00     0.347 C 
ATOM      6  O   UNL A   1      31.127  26.384  26.914  1.00  0.00    -0.248 OA
BRANCH   5   7
ATOM      7  C   UNL A   1      32.261  25.544  24.942  1.00  0.00     0.282 C 
BRANCH   7   8
ATOM      8  C   UNL A   1      32.041  26.407  23.681  1.00  0.00     0.057 C 
BRANCH   8   9
ATOM      9  C   UNL A   1      30.600  26.543  23.160  1.00  0.00     0.001 C 
ATOM     10  C   UNL A   1      30.173  27.962  22.821  1.00  0.00     0.004 C 
ENDBRANCH   8   9
ENDBRANCH   7   8
BRANCH   7  11
ATOM     11  O   UNL A   1      33.579  24.973  24.989  1.00  0.00    -0.479 OA
BRANCH  11  12
ATOM     12  C   UNL A   1      33.543  23.622  24.809  1.00  0.00     0.120 A 
ATOM     13  C   UNL A   1      32.338  22.936  24.718  1.00  0.00     0.047 A 
ATOM     14  C   UNL A   1      34.747  22.938  24.761  1.00  0.00     0.047 A 
ATOM     15  C   UNL A   1      32.350  21.550  24.513  1.00  0.00     0.012 A 
ATOM     16  C   UNL A   1      34.752  21.570  24.500  1.00  0.00     0.012 A 
ATOM     17  C   UNL A   1      33.557  20.836  24.380  1.00  0.00    -0.018 A 
BRANCH  17  18
ATOM     18  C   UNL A   1      33.595  19.372  24.145  1.00  0.00    -0.018 A 
ATOM     19  C   UNL A   1      32.592  18.703  23.421  1.00  0.00     0.009 A 
ATOM     20  C   UNL A   1      34.658  18.588  24.635  1.00  0.00     0.009 A 
ATOM     21  C   UNL A   1      32.650  17.322  23.200  1.00  0.00     0.001 A 
ATOM     22  C   UNL A   1      34.729  17.213  24.403  1.00  0.00     0.001 A 
ATOM     23  C   UNL A   1      33.722  16.578  23.687  1.00  0.00     0.000 A 
ENDBRANCH  17  18
ENDBRANCH  11  12
ENDBRANCH   7  11
ENDBRANCH   5   7
ENDBRANCH   4   5
ENDBRANCH   3   4
ENDBRANCH   2   3
ENDBRANCH   1   2
BRANCH   1  24
ATOM     24  C   UNL A   1      32.211  31.403  27.132  1.00  0.00     0.202 C 
BRANCH  24  25
ATOM     25  C   UNL A   1      33.541  32.023  27.585  1.00  0.00     0.261 C 
BRANCH  25  26
ATOM     26  O   UNL A   1      33.632  33.436  27.330  1.00  0.00    -0.460 OA
BRANCH  26  27
ATOM     27  C   UNL A   1      33.511  34.205  28.441  1.00  0.00     0.338 C 
ATOM     28  O   UNL A   1      32.566  34.930  28.732  1.00  0.00    -0.246 OA
BRANCH  27  29
ATOM     29  C   UNL A   1      34.611  33.958  29.389  1.00  0.00     0.060 A 
ATOM     30  C   UNL A   1      35.895  34.337  28.979  1.00  0.00     0.016 A 
ATOM     31  C   UNL A   1      34.428  33.262  30.587  1.00  0.00     0.016 A 
ATOM     32  C   UNL A   1      37.006  33.962  29.731  1.00  0.00     0.010 A 
ATOM     33  C   UNL A   1      35.550  32.885  31.341  1.00  0.00     0.010 A 
ATOM     34  C   UNL A   1      36.847  33.195  30.893  1.00  0.00    -0.014 A 
BRANCH  34  35
ATOM     35  C   UNL A   1      38.060  32.623  31.531  1.00  0.00     0.031 A 
ATOM     36  C   UNL A   1      38.506  33.142  32.875  1.00  0.00     0.074 A 
ATOM     37  C   UNL A   1      38.698  31.579  30.972  1.00  0.00     0.049 A 
ATOM     38  N   UNL A   1      39.448  32.690  33.665  1.00  0.00    -0.248 NA
ATOM     39  C   UNL A   1      37.795  34.318  33.400  1.00  0.00     0.031 C 
ATOM     40  C   UNL A   1      38.351  30.966  29.690  1.00  0.00     0.029 A 
ATOM     41  N   UNL A   1      39.758  30.834  31.426  1.00  0.00    -0.354 N 
ATOM     42  C   UNL A   1      39.439  33.519  34.781  1.00  0.00     0.074 A 
ATOM     43  C   UNL A   1      38.424  34.525  34.549  1.00  0.00     0.031 C 
ATOM     44  C   UNL A   1      39.173  29.926  29.469  1.00  0.00     0.029 A 
ATOM     45  C   UNL A   1      40.112  29.808  30.582  1.00  0.00     0.049 A 
ATOM     46  H   UNL A   1      40.222  31.017  32.275  1.00  0.00     0.167 HD
ATOM     47  C   UNL A   1      40.194  33.445  35.904  1.00  0.00     0.031 A 
ATOM     48  C   UNL A   1      41.076  28.873  30.695  1.00  0.00     0.031 A 
ATOM     49  C   UNL A   1      41.213  32.454  36.133  1.00  0.00     0.049 A 
ATOM     50  C   UNL A   1      41.932  28.836  31.933  1.00  0.00     0.074 A 
ATOM     51  C   UNL A   1      42.021  32.292  37.246  1.00  0.00     0.029 A 
ATOM     52  N   UNL A   1      41.571  31.463  35.233  1.00  0.00    -0.354 N 
ATOM     53  N   UNL A   1      41.882  29.606  32.994  1.00  0.00    -0.248 NA
ATOM     54  C   UNL A   1      42.961  27.789  31.997  1.00  0.00     0.031 C 
ATOM     55  C   UNL A   1      42.901  31.232  36.998  1.00  0.00     0.029 A 
ATOM     56  C   UNL A   1      42.602  30.699  35.754  1.00  0.00     0.049 A 
ATOM     57  H   UNL A   1      41.152  31.322  34.352  1.00  0.00     0.167 HD
ATOM     58  C   UNL A   1      42.856  29.120  33.861  1.00  0.00     0.074 A 
ATOM     59  C   UNL A   1      43.465  27.980  33.208  1.00  0.00     0.031 C 
ATOM     60  C   UNL A   1      43.210  29.575  35.090  1.00  0.00     0.031 A 
BRANCH  47  61
ATOM     61  C   UNL A   1      39.960  34.488  36.966  1.00  0.00    -0.014 A 
ATOM     62  C   UNL A   1      39.058  34.263  38.021  1.00  0.00     0.010 A 
ATOM     63  C   UNL A   1      40.680  35.696  36.926  1.00  0.00     0.010 A 
ATOM     64  C   UNL A   1      38.851  35.243  38.996  1.00  0.00     0.020 A 
ATOM     65  C   UNL A   1      40.495  36.669  37.914  1.00  0.00     0.020 A 
ATOM     66  C   UNL A   1      39.568  36.443  38.933  1.00  0.00     0.054 A 
BRANCH  66  67
ATOM     67  S   UNL A   1      39.294  37.693  40.220  1.00  0.00     0.124 S 
ATOM     68  O   UNL A   1      38.197  38.473  39.650  1.00  0.00    -0.237 OA
ATOM     69  O   UNL A   1      38.949  36.884  41.386  1.00  0.00    -0.237 OA
ATOM     70  O   UNL A   1      40.574  38.389  40.305  1.00  0.00    -0.744 OA
ENDBRANCH  66  67
ENDBRANCH  47  61
BRANCH  48  71
ATOM     71  C   UNL A   1      41.281  27.885  29.600  1.00  0.00    -0.014 A 
ATOM     72  C   UNL A   1      42.336  28.033  28.683  1.00  0.00     0.010 A 
ATOM     73  C   UNL A   1      40.414  26.784  29.476  1.00  0.00     0.010 A 
ATOM     74  C   UNL A   1      42.511  27.104  27.652  1.00  0.00     0.020 A 
ATOM     75  C   UNL A   1      40.602  25.840  28.464  1.00  0.00     0.020 A 
ATOM     76  C   UNL A   1      41.644  26.012  27.550  1.00  0.00     0.054 A 
BRANCH  76  77
ATOM     77  S   UNL A   1      41.922  24.787  26.241  1.00  0.00     0.124 S 
ATOM     78  O   UNL A   1      42.028  25.631  25.054  1.00  0.00    -0.237 OA
ATOM     79  O   UNL A   1      43.159  24.140  26.670  1.00  0.00    -0.237 OA
ATOM     80  O   UNL A   1      40.732  23.943  26.306  1.00  0.00    -0.744 OA
ENDBRANCH  76  77
ENDBRANCH  48  71
BRANCH  60  81
ATOM     81  C   UNL A   1      44.292  28.819  35.818  1.00  0.00    -0.014 A 
ATOM     82  C   UNL A   1      45.650  29.134  35.642  1.00  0.00     0.010 A 
ATOM     83  C   UNL A   1      43.939  27.788  36.708  1.00  0.00     0.010 A 
ATOM     84  C   UNL A   1      46.639  28.400  36.303  1.00  0.00     0.020 A 
ATOM     85  C   UNL A   1      44.923  27.069  37.392  1.00  0.00     0.020 A 
ATOM     86  C   UNL A   1      46.269  27.365  37.167  1.00  0.00     0.054 A 
BRANCH  86  87
ATOM     87  S   UNL A   1      47.567  26.428  38.020  1.00  0.00     0.124 S 
ATOM     88  O   UNL A   1      48.525  27.477  38.358  1.00  0.00    -0.237 OA
ATOM     89  O   UNL A   1      46.853  25.840  39.151  1.00  0.00    -0.237 OA
ATOM     90  O   UNL A   1      48.021  25.472  37.013  1.00  0.00    -0.744 OA
ENDBRANCH  86  87
ENDBRANCH  60  81
ENDBRANCH  34  35
ENDBRANCH  27  29
ENDBRANCH  26  27
ENDBRANCH  25  26
ENDBRANCH  24  25
ENDBRANCH   1  24
TORSDOF 22
ENDMDL
MODEL 2
REMARK VINA RESULT:      -9.7      2.721      5.215
REMARK SMILES CCC[C@@H](Oc1ccc(-c2ccccc2)cc1)C(=O)OCCOCCOC(=O)c1ccc(-c2c3nc(c(-c4ccc(S(=O)(=O)[O-])cc4)c4ccc([nH]4)c(-c4ccc(S(=O)(=O)[O-])cc4)c4nc(c(-c5ccc(S(=O)(=O)[O-])cc5)c5ccc2[nH]5)C=C4)C=C3)cc1
REMARK SMILES IDX 23 1 22 2 21 3 20 4 18 5 19 6 4 7 3 8 2 9 1 10 5 11 6 12
REMARK SMILES IDX 7 13 17 14 8 15 16 16 9 17 10 18 11 19 15 20 12 21 14 22
REMARK SMILES IDX 13 23 24 24 25 25 26 26 27 27 28 28 29 29 30 30 88 31 31 32
REMARK SMILES IDX 87 33 32 34 33 35 34 36 81 37 35 38 86 39 80 40 82 41 36 42
REMARK SMILES IDX 85 43 79 44 78 45 37 47 67 48 48 49 66 50 49 51 52 52 65 53
REMARK SMILES IDX 83 54 50 55 51 56 64 58 84 59 53 60 38 61 39 62 47 63 40 64
REMARK SMILES IDX 46 65 41 66 42 67 43 68 44 69 45 70 68 71 69 72 77 73 70 74
REMARK SMILES IDX 76 75 71 76 72 77 73 78 74 79 75 80 54 81 55 82 63 83 56 84
REMARK SMILES IDX 62 85 57 86 58 87 59 88 60 89 61 90
REMARK H PARENT 82 46 52 57
REMARK Flexibility Score: inf
ROOT
ATOM      1  O   UNL A   1      32.759  27.971  25.170  1.00  0.00    -0.374 OA
ENDROOT
BRANCH   1   2
ATOM      2  C   UNL A   1      33.665  26.878  25.344  1.00  0.00     0.202 C 
BRANCH   2   3
ATOM      3  C   UNL A   1      33.132  25.645  26.082  1.00  0.00     0.261 C 
BRANCH   3   4
ATOM      4  O   UNL A   1      33.923  24.469  25.814  1.00  0.00    -0.461 OA
BRANCH   4   5
ATOM      5  C   UNL A   1      33.376  23.545  24.973  1.00  0.00     0.347 C 
ATOM      6  O   UNL A   1      32.747  22.554  25.330  1.00  0.00    -0.248 OA
BRANCH   5   7
ATOM      7  C   UNL A   1      33.612  23.890  23.500  1.00  0.00     0.282 C 
BRANCH   7   8
ATOM      8  C   UNL A   1      34.716  23.005  22.882  1.00  0.00     0.057 C 
BRANCH   8   9
ATOM      9  C   UNL A   1      36.148  23.185  23.413  1.00  0.00     0.001 C 
ATOM     10  C   UNL A   1      36.721  21.975  24.134  1.00  0.00     0.004 C 
ENDBRANCH   8   9
ENDBRANCH   7   8
BRANCH   7  11
ATOM     11  O   UNL A   1      32.339  23.701  22.860  1.00  0.00    -0.479 OA
BRANCH  11  12
ATOM     12  C   UNL A   1      31.565  24.819  22.954  1.00  0.00     0.120 A 
ATOM     13  C   UNL A   1      30.430  24.849  23.756  1.00  0.00     0.047 A 
ATOM     14  C   UNL A   1      31.915  25.922  22.192  1.00  0.00     0.047 A 
ATOM     15  C   UNL A   1      29.675  26.027  23.837  1.00  0.00     0.012 A 
ATOM     16  C   UNL A   1      31.195  27.106  22.321  1.00  0.00     0.012 A 
ATOM     17  C   UNL A   1      30.050  27.190  23.136  1.00  0.00    -0.018 A 
BRANCH  17  18
ATOM     18  C   UNL A   1      29.278  28.453  23.220  1.00  0.00    -0.018 A 
ATOM     19  C   UNL A   1      29.895  29.697  23.435  1.00  0.00     0.009 A 
ATOM     20  C   UNL A   1      27.875  28.455  23.074  1.00  0.00     0.009 A 
ATOM     21  C   UNL A   1      29.150  30.881  23.501  1.00  0.00     0.001 A 
ATOM     22  C   UNL A   1      27.130  29.634  23.122  1.00  0.00     0.001 A 
ATOM     23  C   UNL A   1      27.767  30.849  23.339  1.00  0.00     0.000 A 
ENDBRANCH  17  18
ENDBRANCH  11  12
ENDBRANCH   7  11
ENDBRANCH   5   7
ENDBRANCH   4   5
ENDBRANCH   3   4
ENDBRANCH   2   3
ENDBRANCH   1   2
BRANCH   1  24
ATOM     24  C   UNL A   1      33.065  29.184  25.848  1.00  0.00     0.202 C 
BRANCH  24  25
ATOM     25  C   UNL A   1      34.428  29.266  26.552  1.00  0.00     0.261 C 
BRANCH  25  26
ATOM     26  O   UNL A   1      34.372  29.909  27.838  1.00  0.00    -0.460 OA
BRANCH  26  27
ATOM     27  C   UNL A   1      35.170  31.000  27.944  1.00  0.00     0.338 C 
ATOM     28  O   UNL A   1      34.952  32.116  27.486  1.00  0.00    -0.246 OA
BRANCH  27  29
ATOM     29  C   UNL A   1      36.312  30.746  28.840  1.00  0.00     0.060 A 
ATOM     30  C   UNL A   1      37.467  31.505  28.621  1.00  0.00     0.016 A 
ATOM     31  C   UNL A   1      36.312  29.713  29.781  1.00  0.00     0.016 A 
ATOM     32  C   UNL A   1      38.645  31.191  29.293  1.00  0.00     0.010 A 
ATOM     33  C   UNL A   1      37.501  29.399  30.456  1.00  0.00     0.010 A 
ATOM     34  C   UNL A   1      38.685  30.108  30.182  1.00  0.00    -0.014 A 
BRANCH  34  35
ATOM     35  C   UNL A   1      40.007  29.666  30.695  1.00  0.00     0.031 A 
ATOM     36  C   UNL A   1      40.566  30.296  31.945  1.00  0.00     0.074 A 
ATOM     37  C   UNL A   1      40.656  28.639  30.116  1.00  0.00     0.049 A 
ATOM     38  N   UNL A   1      41.628  29.963  32.636  1.00  0.00    -0.248 NA
ATOM     39  C   UNL A   1      39.831  31.447  32.493  1.00  0.00     0.031 C 
ATOM     40  C   UNL A   1      40.210  27.925  28.920  1.00  0.00     0.029 A 
ATOM     41  N   UNL A   1      41.818  28.002  30.474  1.00  0.00    -0.354 N 
ATOM     42  C   UNL A   1      41.685  30.855  33.701  1.00  0.00     0.074 A 
ATOM     43  C   UNL A   1      40.573  31.769  33.543  1.00  0.00     0.031 C 
ATOM     44  C   UNL A   1      41.079  26.937  28.653  1.00  0.00     0.029 A 
ATOM     45  C   UNL A   1      42.150  26.955  29.647  1.00  0.00     0.049 A 
ATOM     46  H   UNL A   1      42.363  28.270  31.249  1.00  0.00     0.167 HD
ATOM     47  C   UNL A   1      42.571  30.905  34.725  1.00  0.00     0.031 A 
ATOM     48  C   UNL A   1      43.193  26.102  29.689  1.00  0.00     0.031 A 
ATOM     49  C   UNL A   1      43.686  30.007  34.878  1.00  0.00     0.049 A 
ATOM     50  C   UNL A   1      44.188  26.203  30.813  1.00  0.00     0.074 A 
ATOM     51  C   UNL A   1      44.631  29.972  35.890  1.00  0.00     0.029 A 
ATOM     52  N   UNL A   1      44.013  28.991  33.993  1.00  0.00    -0.354 N 
ATOM     53  N   UNL A   1      44.203  27.030  31.831  1.00  0.00    -0.248 NA
ATOM     54  C   UNL A   1      45.298  25.239  30.804  1.00  0.00     0.031 C 
ATOM     55  C   UNL A   1      45.556  28.965  35.591  1.00  0.00     0.029 A 
ATOM     56  C   UNL A   1      45.156  28.338  34.422  1.00  0.00     0.049 A 
ATOM     57  H   UNL A   1      43.505  28.767  33.179  1.00  0.00     0.167 HD
ATOM     58  C   UNL A   1      45.309  26.669  32.596  1.00  0.00     0.074 A 
ATOM     59  C   UNL A   1      45.926  25.539  31.932  1.00  0.00     0.031 C 
ATOM     60  C   UNL A   1      45.769  27.222  33.747  1.00  0.00     0.031 A 
BRANCH  47  61
ATOM     61  C   UNL A   1      42.382  31.990  35.752  1.00  0.00    -0.014 A 
ATOM     62  C   UNL A   1      41.610  31.773  36.908  1.00  0.00     0.010 A 
ATOM     63  C   UNL A   1      43.016  33.234  35.577  1.00  0.00     0.010 A 
ATOM     64  C   UNL A   1      41.443  32.792  37.850  1.00  0.00     0.020 A 
ATOM     65  C   UNL A   1      42.872  34.248  36.529  1.00  0.00     0.020 A 
ATOM     66  C   UNL A   1      42.071  34.026  37.651  1.00  0.00     0.054 A 
BRANCH  66  67
ATOM     67  S   UNL A   1      41.853  35.328  38.896  1.00  0.00     0.124 S 
ATOM     68  O   UNL A   1      40.705  34.830  39.651  1.00  0.00    -0.237 OA
ATOM     69  O   UNL A   1      43.127  35.311  39.608  1.00  0.00    -0.237 OA
ATOM     70  O   UNL A   1      41.602  36.528  38.102  1.00  0.00    -0.744 OA
ENDBRANCH  66  67
ENDBRANCH  47  61
BRANCH  48  71
ATOM     71  C   UNL A   1      43.344  25.067  28.629  1.00  0.00    -0.014 A 
ATOM     72  C   UNL A   1      42.744  23.803  28.764  1.00  0.00     0.010 A 
ATOM     73  C   UNL A   1      44.095  25.349  27.474  1.00  0.00     0.010 A 
ATOM     74  C   UNL A   1      42.903  22.835  27.768  1.00  0.00     0.020 A 
ATOM     75  C   UNL A   1      44.234  24.393  26.464  1.00  0.00     0.020 A 
ATOM     76  C   UNL A   1      43.646  23.137  26.623  1.00  0.00     0.054 A 
BRANCH  76  77
ATOM     77  S   UNL A   1      43.794  21.888  25.315  1.00  0.00     0.124 S 
ATOM     78  O   UNL A   1      45.156  21.402  25.512  1.00  0.00    -0.237 OA
ATOM     79  O   UNL A   1      42.730  20.946  25.656  1.00  0.00    -0.237 OA
ATOM     80  O   UNL A   1      43.570  22.650  24.089  1.00  0.00    -0.744 OA
ENDBRANCH  76  77
ENDBRANCH  48  71
BRANCH  60  81
ATOM     81  C   UNL A   1      46.986  26.593  34.375  1.00  0.00    -0.014 A 
ATOM     82  C   UNL A   1      46.869  25.587  35.350  1.00  0.00     0.010 A 
ATOM     83  C   UNL A   1      48.268  27.003  33.966  1.00  0.00     0.010 A 
ATOM     84  C   UNL A   1      48.010  25.039  35.942  1.00  0.00     0.020 A 
ATOM     85  C   UNL A   1      49.412  26.438  34.536  1.00  0.00     0.020 A 
ATOM     86  C   UNL A   1      49.275  25.475  35.537  1.00  0.00     0.054 A 
BRANCH  86  87
ATOM     87  S   UNL A   1      50.744  24.747  36.314  1.00  0.00     0.124 S 
ATOM     88  O   UNL A   1      50.703  23.376  35.812  1.00  0.00    -0.237 OA
ATOM     89  O   UNL A   1      51.830  25.575  35.795  1.00  0.00    -0.237 OA
ATOM     90  O   UNL A   1      50.486  24.894  37.744  1.00  0.00    -0.744 OA
ENDBRANCH  86  87
ENDBRANCH  60  81
ENDBRANCH  34  35
ENDBRANCH  27  29
ENDBRANCH  26  27
ENDBRANCH  25  26
ENDBRANCH  24  25
ENDBRANCH   1  24
TORSDOF 22
ENDMDL
MODEL 3
REMARK VINA RESULT:      -9.7      6.493      8.778
REMARK SMILES CCC[C@@H](Oc1ccc(-c2ccccc2)cc1)C(=O)OCCOCCOC(=O)c1ccc(-c2c3nc(c(-c4ccc(S(=O)(=O)[O-])cc4)c4ccc([nH]4)c(-c4ccc(S(=O)(=O)[O-])cc4)c4nc(c(-c5ccc(S(=O)(=O)[O-])cc5)c5ccc2[nH]5)C=C4)C=C3)cc1
REMARK SMILES IDX 23 1 22 2 21 3 20 4 18 5 19 6 4 7 3 8 2 9 1 10 5 11 6 12
REMARK SMILES IDX 7 13 17 14 8 15 16 16 9 17 10 18 11 19 15 20 12 21 14 22
REMARK SMILES IDX 13 23 24 24 25 25 26 26 27 27 28 28 29 29 30 30 88 31 31 32
REMARK SMILES IDX 87 33 32 34 33 35 34 36 81 37 35 38 86 39 80 40 82 41 36 42
REMARK SMILES IDX 85 43 79 44 78 45 37 47 67 48 48 49 66 50 49 51 52 52 65 53
REMARK SMILES IDX 83 54 50 55 51 56 64 58 84 59 53 60 38 61 39 62 47 63 40 64
REMARK SMILES IDX 46 65 41 66 42 67 43 68 44 69 45 70 68 71 69 72 77 73 70 74
REMARK SMILES IDX 76 75 71 76 72 77 73 78 74 79 75 80 54 81 55 82 63 83 56 84
REMARK SMILES IDX 62 85 57 86 58 87 59 88 60 89 61 90
REMARK H PARENT 82 46 52 57
REMARK Flexibility Score: inf
ROOT
ATOM      1  O   UNL A   1      33.231  29.770  26.196  1.00  0.00    -0.374 OA
ENDROOT
BRANCH   1   2
ATOM      2  C   UNL A   1      33.397  28.566  25.443  1.00  0.00     0.202 C 
BRANCH   2   3
ATOM      3  C   UNL A   1      32.762  27.295  26.017  1.00  0.00     0.261 C 
BRANCH   3   4
ATOM      4  O   UNL A   1      33.668  26.174  25.984  1.00  0.00    -0.461 OA
BRANCH   4   5
ATOM      5  C   UNL A   1      33.529  25.308  24.939  1.00  0.00     0.347 C 
ATOM      6  O   UNL A   1      33.126  25.614  23.822  1.00  0.00    -0.248 OA
BRANCH   5   7
ATOM      7  C   UNL A   1      33.958  23.885  25.304  1.00  0.00     0.282 C 
BRANCH   7   8
ATOM      8  C   UNL A   1      32.750  22.923  25.349  1.00  0.00     0.057 C 
BRANCH   8   9
ATOM      9  C   UNL A   1      32.857  21.616  24.546  1.00  0.00     0.001 C 
ATOM     10  C   UNL A   1      32.585  21.754  23.057  1.00  0.00     0.004 C 
ENDBRANCH   8   9
ENDBRANCH   7   8
BRANCH   7  11
ATOM     11  O   UNL A   1      34.916  23.511  24.300  1.00  0.00    -0.479 OA
BRANCH  11  12
ATOM     12  C   UNL A   1      36.124  23.207  24.853  1.00  0.00     0.120 A 
ATOM     13  C   UNL A   1      36.818  24.129  25.628  1.00  0.00     0.047 A 
ATOM     14  C   UNL A   1      36.668  21.961  24.589  1.00  0.00     0.047 A 
ATOM     15  C   UNL A   1      38.047  23.766  26.193  1.00  0.00     0.012 A 
ATOM     16  C   UNL A   1      37.862  21.586  25.199  1.00  0.00     0.012 A 
ATOM     17  C   UNL A   1      38.591  22.479  26.008  1.00  0.00    -0.018 A 
BRANCH  17  18
ATOM     18  C   UNL A   1      39.881  22.066  26.611  1.00  0.00    -0.018 A 
ATOM     19  C   UNL A   1      40.541  22.845  27.577  1.00  0.00     0.009 A 
ATOM     20  C   UNL A   1      40.496  20.853  26.241  1.00  0.00     0.009 A 
ATOM     21  C   UNL A   1      41.754  22.433  28.143  1.00  0.00     0.001 A 
ATOM     22  C   UNL A   1      41.697  20.430  26.815  1.00  0.00     0.001 A 
ATOM     23  C   UNL A   1      42.328  21.222  27.765  1.00  0.00     0.000 A 
ENDBRANCH  17  18
ENDBRANCH  11  12
ENDBRANCH   7  11
ENDBRANCH   5   7
ENDBRANCH   4   5
ENDBRANCH   3   4
ENDBRANCH   2   3
ENDBRANCH   1   2
BRANCH   1  24
ATOM     24  C   UNL A   1      33.754  29.788  27.520  1.00  0.00     0.202 C 
BRANCH  24  25
ATOM     25  C   UNL A   1      35.195  30.291  27.694  1.00  0.00     0.261 C 
BRANCH  25  26
ATOM     26  O   UNL A   1      36.033  29.385  28.434  1.00  0.00    -0.460 OA
BRANCH  26  27
ATOM     27  C   UNL A   1      37.089  29.982  29.040  1.00  0.00     0.338 C 
ATOM     28  O   UNL A   1      37.046  30.788  29.964  1.00  0.00    -0.246 OA
BRANCH  27  29
ATOM     29  C   UNL A   1      38.368  29.427  28.563  1.00  0.00     0.060 A 
ATOM     30  C   UNL A   1      39.337  29.148  29.533  1.00  0.00     0.016 A 
ATOM     31  C   UNL A   1      38.670  29.300  27.204  1.00  0.00     0.016 A 
ATOM     32  C   UNL A   1      40.631  28.806  29.149  1.00  0.00     0.010 A 
ATOM     33  C   UNL A   1      39.975  28.957  26.821  1.00  0.00     0.010 A 
ATOM     34  C   UNL A   1      40.974  28.752  27.791  1.00  0.00    -0.014 A 
BRANCH  34  35
ATOM     35  C   UNL A   1      42.408  28.616  27.431  1.00  0.00     0.031 A 
ATOM     36  C   UNL A   1      43.351  29.763  27.692  1.00  0.00     0.074 A 
ATOM     37  C   UNL A   1      42.889  27.444  26.975  1.00  0.00     0.049 A 
ATOM     38  N   UNL A   1      44.655  29.803  27.583  1.00  0.00    -0.248 NA
ATOM     39  C   UNL A   1      42.747  31.027  28.140  1.00  0.00     0.031 C 
ATOM     40  C   UNL A   1      42.089  26.250  26.705  1.00  0.00     0.029 A 
ATOM     41  N   UNL A   1      44.175  27.062  26.681  1.00  0.00    -0.354 N 
ATOM     42  C   UNL A   1      45.029  31.090  27.955  1.00  0.00     0.074 A 
ATOM     43  C   UNL A   1      43.810  31.811  28.254  1.00  0.00     0.031 C 
ATOM     44  C   UNL A   1      42.905  25.261  26.303  1.00  0.00     0.029 A 
ATOM     45  C   UNL A   1      44.280  25.754  26.270  1.00  0.00     0.049 A 
ATOM     46  H   UNL A   1      44.948  27.667  26.757  1.00  0.00     0.167 HD
ATOM     47  C   UNL A   1      46.271  31.622  28.052  1.00  0.00     0.031 A 
ATOM     48  C   UNL A   1      45.362  25.032  25.917  1.00  0.00     0.031 A 
ATOM     49  C   UNL A   1      47.485  30.912  27.742  1.00  0.00     0.049 A 
ATOM     50  C   UNL A   1      46.729  25.657  25.993  1.00  0.00     0.074 A 
ATOM     51  C   UNL A   1      48.792  31.364  27.823  1.00  0.00     0.029 A 
ATOM     52  N   UNL A   1      47.544  29.604  27.285  1.00  0.00    -0.354 N 
ATOM     53  N   UNL A   1      47.065  26.863  26.383  1.00  0.00    -0.248 NA
ATOM     54  C   UNL A   1      47.866  24.813  25.599  1.00  0.00     0.031 C 
ATOM     55  C   UNL A   1      49.637  30.345  27.368  1.00  0.00     0.029 A 
ATOM     56  C   UNL A   1      48.860  29.240  27.058  1.00  0.00     0.049 A 
ATOM     57  H   UNL A   1      46.763  29.021  27.143  1.00  0.00     0.167 HD
ATOM     58  C   UNL A   1      48.453  26.914  26.305  1.00  0.00     0.074 A 
ATOM     59  C   UNL A   1      48.894  25.612  25.848  1.00  0.00     0.031 C 
ATOM     60  C   UNL A   1      49.288  27.946  26.591  1.00  0.00     0.031 A 
BRANCH  47  61
ATOM     61  C   UNL A   1      46.377  33.058  28.491  1.00  0.00    -0.014 A 
ATOM     62  C   UNL A   1      46.501  33.397  29.851  1.00  0.00     0.010 A 
ATOM     63  C   UNL A   1      46.388  34.083  27.527  1.00  0.00     0.010 A 
ATOM     64  C   UNL A   1      46.596  34.736  30.241  1.00  0.00     0.020 A 
ATOM     65  C   UNL A   1      46.507  35.422  27.911  1.00  0.00     0.020 A 
ATOM     66  C   UNL A   1      46.592  35.741  29.268  1.00  0.00     0.054 A 
BRANCH  66  67
ATOM     67  S   UNL A   1      46.732  37.471  29.799  1.00  0.00     0.124 S 
ATOM     68  O   UNL A   1      47.400  37.334  31.091  1.00  0.00    -0.237 OA
ATOM     69  O   UNL A   1      47.536  38.070  28.737  1.00  0.00    -0.237 OA
ATOM     70  O   UNL A   1      45.346  37.927  29.860  1.00  0.00    -0.744 OA
ENDBRANCH  66  67
ENDBRANCH  47  61
BRANCH  48  71
ATOM     71  C   UNL A   1      45.194  23.623  25.463  1.00  0.00    -0.014 A 
ATOM     72  C   UNL A   1      44.533  23.328  24.258  1.00  0.00     0.010 A 
ATOM     73  C   UNL A   1      45.703  22.568  26.242  1.00  0.00     0.010 A 
ATOM     74  C   UNL A   1      44.372  22.000  23.848  1.00  0.00     0.020 A 
ATOM     75  C   UNL A   1      45.567  21.243  25.822  1.00  0.00     0.020 A 
ATOM     76  C   UNL A   1      44.892  20.967  24.632  1.00  0.00     0.054 A 
BRANCH  76  77
ATOM     77  S   UNL A   1      44.723  19.255  24.054  1.00  0.00     0.124 S 
ATOM     78  O   UNL A   1      43.370  18.920  24.488  1.00  0.00    -0.237 OA
ATOM     79  O   UNL A   1      44.910  19.387  22.611  1.00  0.00    -0.237 OA
ATOM     80  O   UNL A   1      45.797  18.552  24.750  1.00  0.00    -0.744 OA
ENDBRANCH  76  77
ENDBRANCH  48  71
BRANCH  60  81
ATOM     81  C   UNL A   1      50.766  27.696  26.441  1.00  0.00    -0.014 A 
ATOM     82  C   UNL A   1      51.506  27.057  27.452  1.00  0.00     0.010 A 
ATOM     83  C   UNL A   1      51.421  28.092  25.261  1.00  0.00     0.010 A 
ATOM     84  C   UNL A   1      52.882  26.863  27.306  1.00  0.00     0.020 A 
ATOM     85  C   UNL A   1      52.792  27.876  25.100  1.00  0.00     0.020 A 
ATOM     86  C   UNL A   1      53.519  27.283  26.134  1.00  0.00     0.054 A 
BRANCH  86  87
ATOM     87  S   UNL A   1      55.305  27.017  25.962  1.00  0.00     0.124 S 
ATOM     88  O   UNL A   1      55.672  28.044  24.990  1.00  0.00    -0.237 OA
ATOM     89  O   UNL A   1      55.797  27.234  27.320  1.00  0.00    -0.237 OA
ATOM     90  O   UNL A   1      55.405  25.641  25.482  1.00  0.00    -0.744 OA
ENDBRANCH  86  87
ENDBRANCH  60  81
ENDBRANCH  34  35
ENDBRANCH  27  29
ENDBRANCH  26  27
ENDBRANCH  25  26
ENDBRANCH  24  25
ENDBRANCH   1  24
TORSDOF 22
ENDMDL
