MODEL 1
REMARK VINA RESULT:     -11.4      0.000      0.000
REMARK SMILES CC1=C(CC(=O)OCCOCCOC(=O)c2ccc(-c3c4nc(c(-c5ccc(S(=O)(=O)[O-])cc5)c5ccc([nH]5)c(-c5ccc(S(=O)(=O)[O-])cc5)c5nc(c(-c6ccc(S(=O)(=O)[O-])cc6)c6ccc3[nH]6)C=C5)C=C4)cc2)c2cc(F)ccc2/C1=C\c1cccc(OCc2ccccc2)c1
REMARK SMILES IDX 9 1 8 2 7 3 5 4 6 5 4 6 3 7 1 8 2 9 83 10 76 11 82 12 84 13
REMARK SMILES IDX 77 14 81 15 78 16 80 17 79 18 85 19 86 20 98 21 87 22 89 23
REMARK SMILES IDX 88 24 90 25 91 26 92 27 93 28 97 29 94 30 96 31 95 32 10 33
REMARK SMILES IDX 11 34 12 35 13 36 14 37 15 38 16 39 17 40 75 41 18 42 74 43
REMARK SMILES IDX 19 44 20 45 21 46 68 47 22 48 73 49 67 50 69 51 23 52 72 53
REMARK SMILES IDX 66 54 65 55 24 57 54 58 35 59 53 60 36 61 39 62 52 63 70 64
REMARK SMILES IDX 37 65 38 66 51 68 71 69 40 70 25 71 26 72 34 73 27 74 33 75
REMARK SMILES IDX 28 76 29 77 30 78 31 79 32 80 55 81 56 82 64 83 57 84 63 85
REMARK SMILES IDX 58 86 59 87 60 88 61 89 62 90 41 91 42 92 50 93 43 94 49 95
REMARK SMILES IDX 44 96 45 97 46 98 47 99 48 100
REMARK H PARENT 69 56 39 67
REMARK Flexibility Score: inf
ROOT
ATOM      1  C   UNL A   1      42.649  19.373  26.140  1.00  0.00     0.202 C 
ENDROOT
BRANCH   1   2
ATOM      2  C   UNL A   1      41.871  19.710  27.422  1.00  0.00     0.261 C 
BRANCH   2   3
ATOM      3  O   UNL A   1      40.462  19.954  27.231  1.00  0.00    -0.463 OA
BRANCH   3   4
ATOM      4  C   UNL A   1      40.131  21.242  26.939  1.00  0.00     0.310 C 
ATOM      5  O   UNL A   1      40.447  22.211  27.625  1.00  0.00    -0.252 OA
BRANCH   4   6
ATOM      6  C   UNL A   1      39.325  21.436  25.657  1.00  0.00     0.159 C 
BRANCH   6   7
ATOM      7  C   UNL A   1      37.882  21.819  25.729  1.00  0.00    -0.025 C 
ATOM      8  C   UNL A   1      38.081  24.293  26.301  1.00  0.00     0.045 C 
ATOM      9  C   UNL A   1      37.340  23.030  26.011  1.00  0.00    -0.039 C 
ATOM     10  C   UNL A   1      35.871  22.949  25.923  1.00  0.00    -0.014 C 
ATOM     11  C   UNL A   1      36.777  20.915  25.357  1.00  0.00    -0.011 A 
ATOM     12  C   UNL A   1      35.543  21.565  25.531  1.00  0.00    -0.010 A 
ATOM     13  C   UNL A   1      35.026  23.979  26.118  1.00  0.00     0.017 C 
ATOM     14  C   UNL A   1      36.817  19.612  24.877  1.00  0.00     0.048 A 
ATOM     15  C   UNL A   1      34.346  20.888  25.321  1.00  0.00     0.012 A 
ATOM     16  C   UNL A   1      35.611  18.945  24.659  1.00  0.00     0.123 A 
ATOM     17  C   UNL A   1      34.383  19.560  24.898  1.00  0.00     0.040 A 
ATOM     18  F   UNL A   1      35.632  17.665  24.265  1.00  0.00    -0.207 F 
BRANCH  13  19
ATOM     19  C   UNL A   1      33.572  23.909  25.956  1.00  0.00    -0.021 A 
ATOM     20  C   UNL A   1      32.773  23.448  27.007  1.00  0.00     0.008 A 
ATOM     21  C   UNL A   1      32.993  24.212  24.714  1.00  0.00     0.054 A 
ATOM     22  C   UNL A   1      31.412  23.229  26.800  1.00  0.00     0.004 A 
ATOM     23  C   UNL A   1      31.624  24.028  24.518  1.00  0.00     0.120 A 
ATOM     24  C   UNL A   1      30.846  23.505  25.555  1.00  0.00     0.046 A 
BRANCH  23  25
ATOM     25  O   UNL A   1      30.919  24.344  23.386  1.00  0.00    -0.489 OA
BRANCH  25  26
ATOM     26  C   UNL A   1      30.063  25.492  23.410  1.00  0.00     0.265 C 
BRANCH  26  27
ATOM     27  C   UNL A   1      30.744  26.822  23.675  1.00  0.00    -0.011 A 
ATOM     28  C   UNL A   1      30.814  27.387  24.956  1.00  0.00     0.007 A 
ATOM     29  C   UNL A   1      31.329  27.516  22.604  1.00  0.00     0.007 A 
ATOM     30  C   UNL A   1      31.513  28.574  25.176  1.00  0.00     0.000 A 
ATOM     31  C   UNL A   1      32.011  28.714  22.822  1.00  0.00     0.000 A 
ATOM     32  C   UNL A   1      32.117  29.234  24.110  1.00  0.00     0.000 A 
ENDBRANCH  26  27
ENDBRANCH  25  26
ENDBRANCH  23  25
ENDBRANCH  13  19
ENDBRANCH   6   7
ENDBRANCH   4   6
ENDBRANCH   3   4
ENDBRANCH   2   3
ENDBRANCH   1   2
BRANCH   1  33
ATOM     33  O   UNL A   1      42.987  20.430  25.248  1.00  0.00    -0.374 OA
BRANCH  33  34
ATOM     34  C   UNL A   1      43.587  21.598  25.799  1.00  0.00     0.202 C 
BRANCH  34  35
ATOM     35  C   UNL A   1      43.335  22.944  25.108  1.00  0.00     0.261 C 
BRANCH  35  36
ATOM     36  O   UNL A   1      42.733  23.927  25.951  1.00  0.00    -0.460 OA
BRANCH  36  37
ATOM     37  C   UNL A   1      43.314  25.147  25.879  1.00  0.00     0.338 C 
ATOM     38  O   UNL A   1      44.086  25.559  25.025  1.00  0.00    -0.246 OA
BRANCH  37  39
ATOM     39  C   UNL A   1      42.733  26.007  26.915  1.00  0.00     0.060 A 
ATOM     40  C   UNL A   1      41.783  25.512  27.809  1.00  0.00     0.016 A 
ATOM     41  C   UNL A   1      43.197  27.324  27.002  1.00  0.00     0.016 A 
ATOM     42  C   UNL A   1      41.322  26.342  28.830  1.00  0.00     0.010 A 
ATOM     43  C   UNL A   1      42.741  28.147  28.025  1.00  0.00     0.010 A 
ATOM     44  C   UNL A   1      41.823  27.652  28.961  1.00  0.00    -0.014 A 
BRANCH  44  45
ATOM     45  C   UNL A   1      41.522  28.444  30.174  1.00  0.00     0.031 A 
ATOM     46  C   UNL A   1      42.337  28.308  31.419  1.00  0.00     0.074 A 
ATOM     47  C   UNL A   1      40.449  29.258  30.136  1.00  0.00     0.049 A 
ATOM     48  N   UNL A   1      42.222  28.966  32.542  1.00  0.00    -0.248 NA
ATOM     49  C   UNL A   1      43.410  27.301  31.416  1.00  0.00     0.031 C 
ATOM     50  C   UNL A   1      39.564  29.416  28.978  1.00  0.00     0.029 A 
ATOM     51  N   UNL A   1      39.924  30.105  31.076  1.00  0.00    -0.354 N 
ATOM     52  C   UNL A   1      43.211  28.465  33.379  1.00  0.00     0.074 A 
ATOM     53  C   UNL A   1      43.887  27.414  32.650  1.00  0.00     0.031 C 
ATOM     54  C   UNL A   1      38.632  30.336  29.262  1.00  0.00     0.029 A 
ATOM     55  C   UNL A   1      38.822  30.800  30.632  1.00  0.00     0.049 A 
ATOM     56  H   UNL A   1      40.297  30.207  31.981  1.00  0.00     0.167 HD
ATOM     57  C   UNL A   1      43.526  28.868  34.632  1.00  0.00     0.031 A 
ATOM     58  C   UNL A   1      38.051  31.713  31.254  1.00  0.00     0.031 A 
ATOM     59  C   UNL A   1      42.823  29.910  35.338  1.00  0.00     0.049 A 
ATOM     60  C   UNL A   1      38.413  32.130  32.649  1.00  0.00     0.074 A 
ATOM     61  C   UNL A   1      43.103  30.434  36.588  1.00  0.00     0.029 A 
ATOM     62  N   UNL A   1      41.700  30.579  34.870  1.00  0.00    -0.354 N 
ATOM     63  N   UNL A   1      39.415  31.720  33.391  1.00  0.00    -0.248 NA
ATOM     64  C   UNL A   1      37.559  33.138  33.288  1.00  0.00     0.031 C 
ATOM     65  C   UNL A   1      42.101  31.350  36.912  1.00  0.00     0.029 A 
ATOM     66  C   UNL A   1      41.247  31.474  35.826  1.00  0.00     0.049 A 
ATOM     67  H   UNL A   1      41.286  30.437  33.988  1.00  0.00     0.167 HD
ATOM     68  C   UNL A   1      39.317  32.427  34.583  1.00  0.00     0.074 A 
ATOM     69  C   UNL A   1      38.178  33.313  34.450  1.00  0.00     0.031 C 
ATOM     70  C   UNL A   1      40.098  32.340  35.689  1.00  0.00     0.031 A 
BRANCH  57  71
ATOM     71  C   UNL A   1      44.685  28.202  35.332  1.00  0.00    -0.014 A 
ATOM     72  C   UNL A   1      45.995  28.674  35.124  1.00  0.00     0.010 A 
ATOM     73  C   UNL A   1      44.498  27.026  36.082  1.00  0.00     0.010 A 
ATOM     74  C   UNL A   1      47.096  27.964  35.615  1.00  0.00     0.020 A 
ATOM     75  C   UNL A   1      45.594  26.329  36.603  1.00  0.00     0.020 A 
ATOM     76  C   UNL A   1      46.887  26.789  36.342  1.00  0.00     0.054 A 
BRANCH  76  77
ATOM     77  S   UNL A   1      48.328  25.855  36.927  1.00  0.00     0.124 S 
ATOM     78  O   UNL A   1      48.597  26.479  38.219  1.00  0.00    -0.237 OA
ATOM     79  O   UNL A   1      47.820  24.487  36.979  1.00  0.00    -0.237 OA
ATOM     80  O   UNL A   1      49.335  26.097  35.895  1.00  0.00    -0.744 OA
ENDBRANCH  76  77
ENDBRANCH  57  71
BRANCH  58  81
ATOM     81  C   UNL A   1      36.912  32.316  30.507  1.00  0.00    -0.014 A 
ATOM     82  C   UNL A   1      37.147  33.295  29.521  1.00  0.00     0.010 A 
ATOM     83  C   UNL A   1      35.587  32.019  30.870  1.00  0.00     0.010 A 
ATOM     84  C   UNL A   1      36.087  34.022  28.974  1.00  0.00     0.020 A 
ATOM     85  C   UNL A   1      34.520  32.719  30.298  1.00  0.00     0.020 A 
ATOM     86  C   UNL A   1      34.780  33.742  29.382  1.00  0.00     0.054 A 
BRANCH  86  87
ATOM     87  S   UNL A   1      33.431  34.767  28.735  1.00  0.00     0.124 S 
ATOM     88  O   UNL A   1      32.890  33.917  27.677  1.00  0.00    -0.237 OA
ATOM     89  O   UNL A   1      32.574  34.939  29.905  1.00  0.00    -0.237 OA
ATOM     90  O   UNL A   1      34.109  35.978  28.277  1.00  0.00    -0.744 OA
ENDBRANCH  86  87
ENDBRANCH  58  81
BRANCH  70  91
ATOM     91  C   UNL A   1      39.745  33.205  36.874  1.00  0.00    -0.014 A 
ATOM     92  C   UNL A   1      40.444  34.405  37.101  1.00  0.00     0.010 A 
ATOM     93  C   UNL A   1      38.815  32.766  37.833  1.00  0.00     0.010 A 
ATOM     94  C   UNL A   1      40.257  35.124  38.284  1.00  0.00     0.020 A 
ATOM     95  C   UNL A   1      38.596  33.502  39.001  1.00  0.00     0.020 A 
ATOM     96  C   UNL A   1      39.341  34.660  39.232  1.00  0.00     0.054 A 
BRANCH  96  97
ATOM     97  S   UNL A   1      39.144  35.584  40.780  1.00  0.00     0.124 S 
ATOM     98  O   UNL A   1      40.487  35.515  41.351  1.00  0.00    -0.237 OA
ATOM     99  O   UNL A   1      38.725  36.904  40.314  1.00  0.00    -0.237 OA
ATOM    100  O   UNL A   1      38.120  34.833  41.501  1.00  0.00    -0.744 OA
ENDBRANCH  96  97
ENDBRANCH  70  91
ENDBRANCH  44  45
ENDBRANCH  37  39
ENDBRANCH  36  37
ENDBRANCH  35  36
ENDBRANCH  34  35
ENDBRANCH  33  34
ENDBRANCH   1  33
TORSDOF 22
ENDMDL
MODEL 2
REMARK VINA RESULT:     -10.4      4.370     10.986
REMARK SMILES CC1=C(CC(=O)OCCOCCOC(=O)c2ccc(-c3c4nc(c(-c5ccc(S(=O)(=O)[O-])cc5)c5ccc([nH]5)c(-c5ccc(S(=O)(=O)[O-])cc5)c5nc(c(-c6ccc(S(=O)(=O)[O-])cc6)c6ccc3[nH]6)C=C5)C=C4)cc2)c2cc(F)ccc2/C1=C\c1cccc(OCc2ccccc2)c1
REMARK SMILES IDX 9 1 8 2 7 3 5 4 6 5 4 6 3 7 1 8 2 9 83 10 76 11 82 12 84 13
REMARK SMILES IDX 77 14 81 15 78 16 80 17 79 18 85 19 86 20 98 21 87 22 89 23
REMARK SMILES IDX 88 24 90 25 91 26 92 27 93 28 97 29 94 30 96 31 95 32 10 33
REMARK SMILES IDX 11 34 12 35 13 36 14 37 15 38 16 39 17 40 75 41 18 42 74 43
REMARK SMILES IDX 19 44 20 45 21 46 68 47 22 48 73 49 67 50 69 51 23 52 72 53
REMARK SMILES IDX 66 54 65 55 24 57 54 58 35 59 53 60 36 61 39 62 52 63 70 64
REMARK SMILES IDX 37 65 38 66 51 68 71 69 40 70 25 71 26 72 34 73 27 74 33 75
REMARK SMILES IDX 28 76 29 77 30 78 31 79 32 80 55 81 56 82 64 83 57 84 63 85
REMARK SMILES IDX 58 86 59 87 60 88 61 89 62 90 41 91 42 92 50 93 43 94 49 95
REMARK SMILES IDX 44 96 45 97 46 98 47 99 48 100
REMARK H PARENT 69 56 39 67
REMARK Flexibility Score: inf
ROOT
ATOM      1  C   UNL A   1      44.417  21.657  24.425  1.00  0.00     0.202 C 
ENDROOT
BRANCH   1   2
ATOM      2  C   UNL A   1      45.836  21.979  24.924  1.00  0.00     0.261 C 
BRANCH   2   3
ATOM      3  O   UNL A   1      45.947  22.181  26.348  1.00  0.00    -0.463 OA
BRANCH   3   4
ATOM      4  C   UNL A   1      45.607  23.424  26.786  1.00  0.00     0.310 C 
ATOM      5  O   UNL A   1      45.155  23.664  27.904  1.00  0.00    -0.252 OA
BRANCH   4   6
ATOM      6  C   UNL A   1      45.837  24.556  25.788  1.00  0.00     0.159 C 
BRANCH   6   7
ATOM      7  C   UNL A   1      45.980  25.964  26.270  1.00  0.00    -0.025 C 
ATOM      8  C   UNL A   1      48.455  26.007  26.868  1.00  0.00     0.045 C 
ATOM      9  C   UNL A   1      47.086  26.590  26.741  1.00  0.00    -0.039 C 
ATOM     10  C   UNL A   1      46.767  27.993  27.057  1.00  0.00    -0.014 C 
ATOM     11  C   UNL A   1      44.906  26.971  26.180  1.00  0.00    -0.011 A 
ATOM     12  C   UNL A   1      45.347  28.194  26.714  1.00  0.00    -0.010 A 
ATOM     13  C   UNL A   1      47.646  28.902  27.520  1.00  0.00     0.017 C 
ATOM     14  C   UNL A   1      43.625  26.860  25.654  1.00  0.00     0.048 A 
ATOM     15  C   UNL A   1      44.482  29.280  26.813  1.00  0.00     0.012 A 
ATOM     16  C   UNL A   1      42.769  27.959  25.749  1.00  0.00     0.123 A 
ATOM     17  C   UNL A   1      43.176  29.153  26.341  1.00  0.00     0.040 A 
ATOM     18  F   UNL A   1      41.507  27.846  25.311  1.00  0.00    -0.207 F 
BRANCH  13  19
ATOM     19  C   UNL A   1      47.338  30.314  27.761  1.00  0.00    -0.021 A 
ATOM     20  C   UNL A   1      48.173  31.309  27.245  1.00  0.00     0.008 A 
ATOM     21  C   UNL A   1      46.261  30.661  28.592  1.00  0.00     0.054 A 
ATOM     22  C   UNL A   1      47.974  32.640  27.608  1.00  0.00     0.004 A 
ATOM     23  C   UNL A   1      46.039  31.998  28.924  1.00  0.00     0.120 A 
ATOM     24  C   UNL A   1      46.919  32.978  28.456  1.00  0.00     0.046 A 
BRANCH  23  25
ATOM     25  O   UNL A   1      44.994  32.483  29.665  1.00  0.00    -0.489 OA
BRANCH  25  26
ATOM     26  C   UNL A   1      43.686  32.494  29.081  1.00  0.00     0.265 C 
BRANCH  26  27
ATOM     27  C   UNL A   1      43.229  33.822  28.505  1.00  0.00    -0.011 A 
ATOM     28  C   UNL A   1      42.225  34.595  29.106  1.00  0.00     0.007 A 
ATOM     29  C   UNL A   1      43.828  34.299  27.328  1.00  0.00     0.007 A 
ATOM     30  C   UNL A   1      41.883  35.845  28.591  1.00  0.00     0.000 A 
ATOM     31  C   UNL A   1      43.469  35.541  26.802  1.00  0.00     0.000 A 
ATOM     32  C   UNL A   1      42.509  36.321  27.443  1.00  0.00     0.000 A 
ENDBRANCH  26  27
ENDBRANCH  25  26
ENDBRANCH  23  25
ENDBRANCH  13  19
ENDBRANCH   6   7
ENDBRANCH   4   6
ENDBRANCH   3   4
ENDBRANCH   2   3
ENDBRANCH   1   2
BRANCH   1  33
ATOM     33  O   UNL A   1      43.641  20.703  25.141  1.00  0.00    -0.374 OA
BRANCH  33  34
ATOM     34  C   UNL A   1      42.746  21.186  26.137  1.00  0.00     0.202 C 
BRANCH  34  35
ATOM     35  C   UNL A   1      41.312  20.643  26.157  1.00  0.00     0.261 C 
BRANCH  35  36
ATOM     36  O   UNL A   1      40.451  21.306  27.083  1.00  0.00    -0.460 OA
BRANCH  36  37
ATOM     37  C   UNL A   1      39.601  22.190  26.510  1.00  0.00     0.338 C 
ATOM     38  O   UNL A   1      38.627  21.948  25.812  1.00  0.00    -0.246 OA
BRANCH  37  39
ATOM     39  C   UNL A   1      39.917  23.535  27.005  1.00  0.00     0.060 A 
ATOM     40  C   UNL A   1      38.907  24.402  27.422  1.00  0.00     0.016 A 
ATOM     41  C   UNL A   1      41.266  23.898  27.085  1.00  0.00     0.016 A 
ATOM     42  C   UNL A   1      39.260  25.637  27.964  1.00  0.00     0.010 A 
ATOM     43  C   UNL A   1      41.615  25.127  27.632  1.00  0.00     0.010 A 
ATOM     44  C   UNL A   1      40.616  25.991  28.101  1.00  0.00    -0.014 A 
BRANCH  44  45
ATOM     45  C   UNL A   1      40.997  27.183  28.890  1.00  0.00     0.031 A 
ATOM     46  C   UNL A   1      40.080  28.357  29.024  1.00  0.00     0.074 A 
ATOM     47  C   UNL A   1      42.225  27.199  29.441  1.00  0.00     0.049 A 
ATOM     48  N   UNL A   1      40.257  29.450  29.717  1.00  0.00    -0.248 NA
ATOM     49  C   UNL A   1      38.810  28.309  28.282  1.00  0.00     0.031 C 
ATOM     50  C   UNL A   1      43.208  26.118  29.318  1.00  0.00     0.029 A 
ATOM     51  N   UNL A   1      42.857  28.138  30.215  1.00  0.00    -0.354 N 
ATOM     52  C   UNL A   1      39.120  30.220  29.507  1.00  0.00     0.074 A 
ATOM     53  C   UNL A   1      38.280  29.489  28.583  1.00  0.00     0.031 C 
ATOM     54  C   UNL A   1      44.299  26.436  30.027  1.00  0.00     0.029 A 
ATOM     55  C   UNL A   1      44.117  27.759  30.615  1.00  0.00     0.049 A 
ATOM     56  H   UNL A   1      42.449  28.999  30.460  1.00  0.00     0.167 HD
ATOM     57  C   UNL A   1      38.811  31.418  30.056  1.00  0.00     0.031 A 
ATOM     58  C   UNL A   1      45.026  28.399  31.377  1.00  0.00     0.031 A 
ATOM     59  C   UNL A   1      39.677  32.129  30.964  1.00  0.00     0.049 A 
ATOM     60  C   UNL A   1      44.664  29.733  31.960  1.00  0.00     0.074 A 
ATOM     61  C   UNL A   1      39.429  33.321  31.622  1.00  0.00     0.029 A 
ATOM     62  N   UNL A   1      40.954  31.729  31.333  1.00  0.00    -0.354 N 
ATOM     63  N   UNL A   1      43.542  30.403  31.835  1.00  0.00    -0.248 NA
ATOM     64  C   UNL A   1      45.673  30.393  32.796  1.00  0.00     0.031 C 
ATOM     65  C   UNL A   1      40.585  33.685  32.315  1.00  0.00     0.029 A 
ATOM     66  C   UNL A   1      41.524  32.675  32.170  1.00  0.00     0.049 A 
ATOM     67  H   UNL A   1      41.390  30.896  31.042  1.00  0.00     0.167 HD
ATOM     68  C   UNL A   1      43.707  31.562  32.583  1.00  0.00     0.074 A 
ATOM     69  C   UNL A   1      45.024  31.485  33.184  1.00  0.00     0.031 C 
ATOM     70  C   UNL A   1      42.846  32.597  32.749  1.00  0.00     0.031 A 
BRANCH  57  71
ATOM     71  C   UNL A   1      37.482  32.046  29.714  1.00  0.00    -0.014 A 
ATOM     72  C   UNL A   1      37.404  33.012  28.693  1.00  0.00     0.010 A 
ATOM     73  C   UNL A   1      36.338  31.787  30.492  1.00  0.00     0.010 A 
ATOM     74  C   UNL A   1      36.226  33.735  28.483  1.00  0.00     0.020 A 
ATOM     75  C   UNL A   1      35.147  32.484  30.265  1.00  0.00     0.020 A 
ATOM     76  C   UNL A   1      35.108  33.473  29.279  1.00  0.00     0.054 A 
BRANCH  76  77
ATOM     77  S   UNL A   1      33.604  34.456  29.026  1.00  0.00     0.124 S 
ATOM     78  O   UNL A   1      34.131  35.676  28.422  1.00  0.00    -0.237 OA
ATOM     79  O   UNL A   1      32.812  33.604  28.143  1.00  0.00    -0.237 OA
ATOM     80  O   UNL A   1      33.065  34.611  30.376  1.00  0.00    -0.744 OA
ENDBRANCH  76  77
ENDBRANCH  57  71
BRANCH  58  81
ATOM     81  C   UNL A   1      46.324  27.726  31.659  1.00  0.00    -0.014 A 
ATOM     82  C   UNL A   1      47.404  27.859  30.764  1.00  0.00     0.010 A 
ATOM     83  C   UNL A   1      46.445  26.842  32.745  1.00  0.00     0.010 A 
ATOM     84  C   UNL A   1      48.544  27.063  30.901  1.00  0.00     0.020 A 
ATOM     85  C   UNL A   1      47.600  26.070  32.908  1.00  0.00     0.020 A 
ATOM     86  C   UNL A   1      48.625  26.158  31.962  1.00  0.00     0.054 A 
BRANCH  86  87
ATOM     87  S   UNL A   1      50.068  25.064  32.060  1.00  0.00     0.124 S 
ATOM     88  O   UNL A   1      50.172  24.582  30.684  1.00  0.00    -0.237 OA
ATOM     89  O   UNL A   1      51.127  25.972  32.491  1.00  0.00    -0.237 OA
ATOM     90  O   UNL A   1      49.671  24.059  33.044  1.00  0.00    -0.744 OA
ENDBRANCH  86  87
ENDBRANCH  58  81
BRANCH  70  91
ATOM     91  C   UNL A   1      43.296  33.763  33.595  1.00  0.00    -0.014 A 
ATOM     92  C   UNL A   1      42.961  33.810  34.961  1.00  0.00     0.010 A 
ATOM     93  C   UNL A   1      43.934  34.871  33.010  1.00  0.00     0.010 A 
ATOM     94  C   UNL A   1      43.210  34.959  35.714  1.00  0.00     0.020 A 
ATOM     95  C   UNL A   1      44.220  36.009  33.770  1.00  0.00     0.020 A 
ATOM     96  C   UNL A   1      43.829  36.056  35.110  1.00  0.00     0.054 A 
BRANCH  96  97
ATOM     97  S   UNL A   1      44.105  37.554  36.093  1.00  0.00     0.124 S 
ATOM     98  O   UNL A   1      43.200  37.351  37.222  1.00  0.00    -0.237 OA
ATOM     99  O   UNL A   1      45.530  37.475  36.406  1.00  0.00    -0.237 OA
ATOM    100  O   UNL A   1      43.734  38.636  35.184  1.00  0.00    -0.744 OA
ENDBRANCH  96  97
ENDBRANCH  70  91
ENDBRANCH  44  45
ENDBRANCH  37  39
ENDBRANCH  36  37
ENDBRANCH  35  36
ENDBRANCH  34  35
ENDBRANCH  33  34
ENDBRANCH   1  33
TORSDOF 22
ENDMDL
MODEL 3
REMARK VINA RESULT:     -10.3      4.507      6.170
REMARK SMILES CC1=C(CC(=O)OCCOCCOC(=O)c2ccc(-c3c4nc(c(-c5ccc(S(=O)(=O)[O-])cc5)c5ccc([nH]5)c(-c5ccc(S(=O)(=O)[O-])cc5)c5nc(c(-c6ccc(S(=O)(=O)[O-])cc6)c6ccc3[nH]6)C=C5)C=C4)cc2)c2cc(F)ccc2/C1=C\c1cccc(OCc2ccccc2)c1
REMARK SMILES IDX 9 1 8 2 7 3 5 4 6 5 4 6 3 7 1 8 2 9 83 10 76 11 82 12 84 13
REMARK SMILES IDX 77 14 81 15 78 16 80 17 79 18 85 19 86 20 98 21 87 22 89 23
REMARK SMILES IDX 88 24 90 25 91 26 92 27 93 28 97 29 94 30 96 31 95 32 10 33
REMARK SMILES IDX 11 34 12 35 13 36 14 37 15 38 16 39 17 40 75 41 18 42 74 43
REMARK SMILES IDX 19 44 20 45 21 46 68 47 22 48 73 49 67 50 69 51 23 52 72 53
REMARK SMILES IDX 66 54 65 55 24 57 54 58 35 59 53 60 36 61 39 62 52 63 70 64
REMARK SMILES IDX 37 65 38 66 51 68 71 69 40 70 25 71 26 72 34 73 27 74 33 75
REMARK SMILES IDX 28 76 29 77 30 78 31 79 32 80 55 81 56 82 64 83 57 84 63 85
REMARK SMILES IDX 58 86 59 87 60 88 61 89 62 90 41 91 42 92 50 93 43 94 49 95
REMARK SMILES IDX 44 96 45 97 46 98 47 99 48 100
REMARK H PARENT 69 56 39 67
REMARK Flexibility Score: inf
ROOT
ATOM      1  C   UNL A   1      45.804  19.878  25.392  1.00  0.00     0.202 C 
ENDROOT
BRANCH   1   2
ATOM      2  C   UNL A   1      44.373  19.663  24.872  1.00  0.00     0.261 C 
BRANCH   2   3
ATOM      3  O   UNL A   1      43.338  20.269  25.673  1.00  0.00    -0.463 OA
BRANCH   3   4
ATOM      4  C   UNL A   1      42.419  19.404  26.185  1.00  0.00     0.310 C 
ATOM      5  O   UNL A   1      42.392  18.200  25.943  1.00  0.00    -0.252 OA
BRANCH   4   6
ATOM      6  C   UNL A   1      41.388  20.025  27.124  1.00  0.00     0.159 C 
BRANCH   6   7
ATOM      7  C   UNL A   1      41.208  21.509  27.165  1.00  0.00    -0.025 C 
ATOM      8  C   UNL A   1      39.028  21.754  25.872  1.00  0.00     0.045 C 
ATOM      9  C   UNL A   1      40.213  22.257  26.628  1.00  0.00    -0.039 C 
ATOM     10  C   UNL A   1      40.425  23.677  26.960  1.00  0.00    -0.014 C 
ATOM     11  C   UNL A   1      42.069  22.414  27.949  1.00  0.00    -0.011 A 
ATOM     12  C   UNL A   1      41.646  23.744  27.784  1.00  0.00    -0.010 A 
ATOM     13  C   UNL A   1      39.607  24.685  26.604  1.00  0.00     0.017 C 
ATOM     14  C   UNL A   1      43.147  22.122  28.777  1.00  0.00     0.048 A 
ATOM     15  C   UNL A   1      42.354  24.793  28.364  1.00  0.00     0.012 A 
ATOM     16  C   UNL A   1      43.843  23.181  29.362  1.00  0.00     0.123 A 
ATOM     17  C   UNL A   1      43.472  24.507  29.146  1.00  0.00     0.040 A 
ATOM     18  F   UNL A   1      44.927  22.920  30.105  1.00  0.00    -0.207 F 
BRANCH  13  19
ATOM     19  C   UNL A   1      39.784  26.085  27.001  1.00  0.00    -0.021 A 
ATOM     20  C   UNL A   1      40.668  26.905  26.292  1.00  0.00     0.008 A 
ATOM     21  C   UNL A   1      39.141  26.571  28.149  1.00  0.00     0.054 A 
ATOM     22  C   UNL A   1      40.958  28.184  26.765  1.00  0.00     0.004 A 
ATOM     23  C   UNL A   1      39.403  27.865  28.601  1.00  0.00     0.120 A 
ATOM     24  C   UNL A   1      40.337  28.653  27.923  1.00  0.00     0.046 A 
BRANCH  23  25
ATOM     25  O   UNL A   1      38.800  28.489  29.661  1.00  0.00    -0.489 OA
BRANCH  25  26
ATOM     26  C   UNL A   1      37.766  29.444  29.397  1.00  0.00     0.265 C 
BRANCH  26  27
ATOM     27  C   UNL A   1      38.161  30.903  29.535  1.00  0.00    -0.011 A 
ATOM     28  C   UNL A   1      37.451  31.936  28.905  1.00  0.00     0.007 A 
ATOM     29  C   UNL A   1      39.274  31.239  30.322  1.00  0.00     0.007 A 
ATOM     30  C   UNL A   1      37.797  33.271  29.115  1.00  0.00     0.000 A 
ATOM     31  C   UNL A   1      39.632  32.574  30.514  1.00  0.00     0.000 A 
ATOM     32  C   UNL A   1      38.884  33.590  29.924  1.00  0.00     0.000 A 
ENDBRANCH  26  27
ENDBRANCH  25  26
ENDBRANCH  23  25
ENDBRANCH  13  19
ENDBRANCH   6   7
ENDBRANCH   4   6
ENDBRANCH   3   4
ENDBRANCH   2   3
ENDBRANCH   1   2
BRANCH   1  33
ATOM     33  O   UNL A   1      46.495  21.066  25.019  1.00  0.00    -0.374 OA
BRANCH  33  34
ATOM     34  C   UNL A   1      45.730  22.138  24.477  1.00  0.00     0.202 C 
BRANCH  34  35
ATOM     35  C   UNL A   1      45.418  23.340  25.376  1.00  0.00     0.261 C 
BRANCH  35  36
ATOM     36  O   UNL A   1      45.359  24.586  24.682  1.00  0.00    -0.460 OA
BRANCH  36  37
ATOM     37  C   UNL A   1      46.415  25.399  24.914  1.00  0.00     0.338 C 
ATOM     38  O   UNL A   1      47.469  25.452  24.297  1.00  0.00    -0.246 OA
BRANCH  37  39
ATOM     39  C   UNL A   1      46.041  26.373  25.946  1.00  0.00     0.060 A 
ATOM     40  C   UNL A   1      44.709  26.741  26.136  1.00  0.00     0.016 A 
ATOM     41  C   UNL A   1      47.060  26.883  26.759  1.00  0.00     0.016 A 
ATOM     42  C   UNL A   1      44.392  27.605  27.183  1.00  0.00     0.010 A 
ATOM     43  C   UNL A   1      46.740  27.738  27.806  1.00  0.00     0.010 A 
ATOM     44  C   UNL A   1      45.402  28.081  28.042  1.00  0.00    -0.014 A 
BRANCH  44  45
ATOM     45  C   UNL A   1      45.042  28.794  29.288  1.00  0.00     0.031 A 
ATOM     46  C   UNL A   1      45.054  28.104  30.614  1.00  0.00     0.074 A 
ATOM     47  C   UNL A   1      44.650  30.077  29.180  1.00  0.00     0.049 A 
ATOM     48  N   UNL A   1      44.808  28.609  31.795  1.00  0.00    -0.248 NA
ATOM     49  C   UNL A   1      45.369  26.667  30.624  1.00  0.00     0.031 C 
ATOM     50  C   UNL A   1      44.558  30.817  27.917  1.00  0.00     0.029 A 
ATOM     51  N   UNL A   1      44.266  30.989  30.129  1.00  0.00    -0.354 N 
ATOM     52  C   UNL A   1      44.947  27.558  32.693  1.00  0.00     0.074 A 
ATOM     53  C   UNL A   1      45.253  26.377  31.915  1.00  0.00     0.031 C 
ATOM     54  C   UNL A   1      44.187  32.078  28.175  1.00  0.00     0.029 A 
ATOM     55  C   UNL A   1      43.969  32.227  29.611  1.00  0.00     0.049 A 
ATOM     56  H   UNL A   1      44.209  30.777  31.089  1.00  0.00     0.167 HD
ATOM     57  C   UNL A   1      44.844  27.595  34.041  1.00  0.00     0.031 A 
ATOM     58  C   UNL A   1      43.569  33.361  30.219  1.00  0.00     0.031 A 
ATOM     59  C   UNL A   1      44.523  28.787  34.787  1.00  0.00     0.049 A 
ATOM     60  C   UNL A   1      43.446  33.370  31.715  1.00  0.00     0.074 A 
ATOM     61  C   UNL A   1      44.454  28.941  36.160  1.00  0.00     0.029 A 
ATOM     62  N   UNL A   1      44.207  30.019  34.232  1.00  0.00    -0.354 N 
ATOM     63  N   UNL A   1      43.681  32.394  32.560  1.00  0.00    -0.248 NA
ATOM     64  C   UNL A   1      43.024  34.627  32.343  1.00  0.00     0.031 C 
ATOM     65  C   UNL A   1      44.010  30.237  36.431  1.00  0.00     0.029 A 
ATOM     66  C   UNL A   1      43.894  30.925  35.233  1.00  0.00     0.049 A 
ATOM     67  H   UNL A   1      44.204  30.220  33.268  1.00  0.00     0.167 HD
ATOM     68  C   UNL A   1      43.443  32.921  33.823  1.00  0.00     0.074 A 
ATOM     69  C   UNL A   1      43.077  34.311  33.632  1.00  0.00     0.031 C 
ATOM     70  C   UNL A   1      43.513  32.304  35.030  1.00  0.00     0.031 A 
BRANCH  57  71
ATOM     71  C   UNL A   1      45.089  26.324  34.817  1.00  0.00    -0.014 A 
ATOM     72  C   UNL A   1      46.384  26.024  35.283  1.00  0.00     0.010 A 
ATOM     73  C   UNL A   1      44.075  25.360  34.964  1.00  0.00     0.010 A 
ATOM     74  C   UNL A   1      46.670  24.774  35.841  1.00  0.00     0.020 A 
ATOM     75  C   UNL A   1      44.348  24.120  35.552  1.00  0.00     0.020 A 
ATOM     76  C   UNL A   1      45.651  23.826  35.962  1.00  0.00     0.054 A 
BRANCH  76  77
ATOM     77  S   UNL A   1      46.053  22.193  36.642  1.00  0.00     0.124 S 
ATOM     78  O   UNL A   1      45.238  21.306  35.817  1.00  0.00    -0.237 OA
ATOM     79  O   UNL A   1      47.495  22.106  36.431  1.00  0.00    -0.237 OA
ATOM     80  O   UNL A   1      45.642  22.296  38.042  1.00  0.00    -0.744 OA
ENDBRANCH  76  77
ENDBRANCH  57  71
BRANCH  58  81
ATOM     81  C   UNL A   1      43.328  34.573  29.388  1.00  0.00    -0.014 A 
ATOM     82  C   UNL A   1      44.401  35.413  29.027  1.00  0.00     0.010 A 
ATOM     83  C   UNL A   1      42.018  34.968  29.070  1.00  0.00     0.010 A 
ATOM     84  C   UNL A   1      44.163  36.659  28.442  1.00  0.00     0.020 A 
ATOM     85  C   UNL A   1      41.777  36.199  28.450  1.00  0.00     0.020 A 
ATOM     86  C   UNL A   1      42.848  37.052  28.176  1.00  0.00     0.054 A 
BRANCH  86  87
ATOM     87  S   UNL A   1      42.559  38.714  27.510  1.00  0.00     0.124 S 
ATOM     88  O   UNL A   1      41.856  38.419  26.264  1.00  0.00    -0.237 OA
ATOM     89  O   UNL A   1      41.753  39.339  28.555  1.00  0.00    -0.237 OA
ATOM     90  O   UNL A   1      43.905  39.261  27.353  1.00  0.00    -0.744 OA
ENDBRANCH  86  87
ENDBRANCH  58  81
BRANCH  70  91
ATOM     91  C   UNL A   1      43.162  33.109  36.257  1.00  0.00    -0.014 A 
ATOM     92  C   UNL A   1      41.813  33.294  36.612  1.00  0.00     0.010 A 
ATOM     93  C   UNL A   1      44.158  33.789  36.980  1.00  0.00     0.010 A 
ATOM     94  C   UNL A   1      41.463  34.180  37.633  1.00  0.00     0.020 A 
ATOM     95  C   UNL A   1      43.814  34.647  38.028  1.00  0.00     0.020 A 
ATOM     96  C   UNL A   1      42.467  34.860  38.328  1.00  0.00     0.054 A 
BRANCH  96  97
ATOM     97  S   UNL A   1      41.990  36.038  39.621  1.00  0.00     0.124 S 
ATOM     98  O   UNL A   1      40.562  35.769  39.770  1.00  0.00    -0.237 OA
ATOM     99  O   UNL A   1      42.828  35.635  40.748  1.00  0.00    -0.237 OA
ATOM    100  O   UNL A   1      42.322  37.338  39.042  1.00  0.00    -0.744 OA
ENDBRANCH  96  97
ENDBRANCH  70  91
ENDBRANCH  44  45
ENDBRANCH  37  39
ENDBRANCH  36  37
ENDBRANCH  35  36
ENDBRANCH  34  35
ENDBRANCH  33  34
ENDBRANCH   1  33
TORSDOF 22
ENDMDL
