MODEL 1
REMARK VINA RESULT:     -11.5      0.000      0.000
REMARK SMILES O=C(Nc1ccccc1C(=O)OCCOCCOC(=O)c1ccc(-c2c3nc(c(-c4ccc(S(=O)(=O)[O-])cc4)c4ccc([nH]4)c(-c4ccc(S(=O)(=O)[O-])cc4)c4nc(c(-c5ccc(S(=O)(=O)[O-])cc5)c5ccc2[nH]5)C=C4)C=C3)cc1)c1ccc(N2C(=O)[C@H]3CC=CC[C@H]3C2=O)cc1
REMARK SMILES IDX 15 1 14 2 13 3 12 4 10 5 11 6 9 7 4 8 5 9 6 10 8 11 7 12
REMARK SMILES IDX 3 13 1 14 2 15 81 17 82 18 97 19 83 20 96 21 84 22 85 23
REMARK SMILES IDX 86 24 94 25 87 26 88 27 93 28 95 29 89 30 92 31 90 32 91 33
REMARK SMILES IDX 16 34 17 35 18 36 19 37 20 38 21 39 22 40 80 41 23 42 79 43
REMARK SMILES IDX 24 44 25 45 26 46 73 47 27 48 78 49 72 50 74 51 28 52 77 53
REMARK SMILES IDX 71 54 70 55 29 57 59 58 40 59 58 60 41 61 44 62 57 63 75 64
REMARK SMILES IDX 42 65 43 66 56 68 76 69 45 70 30 71 31 72 39 73 32 74 38 75
REMARK SMILES IDX 33 76 34 77 35 78 36 79 37 80 60 81 61 82 69 83 62 84 68 85
REMARK SMILES IDX 63 86 64 87 65 88 66 89 67 90 46 91 47 92 55 93 48 94 54 95
REMARK SMILES IDX 49 96 50 97 51 98 52 99 53 100
REMARK H PARENT 3 16 74 56 44 67
REMARK Flexibility Score: inf
ROOT
ATOM      1  O   UNL A   1      40.404  20.965  27.248  1.00  0.00    -0.374 OA
ENDROOT
BRANCH   1   2
ATOM      2  C   UNL A   1      40.605  19.890  26.340  1.00  0.00     0.202 C 
BRANCH   2   3
ATOM      3  C   UNL A   1      39.370  19.247  25.702  1.00  0.00     0.261 C 
BRANCH   3   4
ATOM      4  O   UNL A   1      38.606  20.113  24.842  1.00  0.00    -0.460 OA
BRANCH   4   5
ATOM      5  C   UNL A   1      37.260  19.953  24.933  1.00  0.00     0.340 C 
ATOM      6  O   UNL A   1      36.644  18.902  24.807  1.00  0.00    -0.246 OA
BRANCH   5   7
ATOM      7  C   UNL A   1      36.577  21.184  25.405  1.00  0.00     0.083 A 
ATOM      8  C   UNL A   1      35.198  21.383  25.600  1.00  0.00     0.056 A 
ATOM      9  C   UNL A   1      34.758  22.689  25.904  1.00  0.00     0.027 A 
ATOM     10  C   UNL A   1      35.653  23.743  26.103  1.00  0.00     0.002 A 
ATOM     11  C   UNL A   1      37.470  22.261  25.613  1.00  0.00     0.018 A 
ATOM     12  C   UNL A   1      37.015  23.527  25.971  1.00  0.00     0.001 A 
BRANCH   8  13
ATOM     13  N   UNL A   1      34.152  20.434  25.560  1.00  0.00    -0.321 N 
ATOM     14  O   UNL A   1      32.081  19.555  25.527  1.00  0.00    -0.269 OA
ATOM     15  C   UNL A   1      32.806  20.521  25.298  1.00  0.00     0.255 C 
ATOM     16  H   UNL A   1      34.451  19.518  25.764  1.00  0.00     0.170 HD
BRANCH  15  17
ATOM     17  C   UNL A   1      32.219  21.730  24.693  1.00  0.00     0.040 A 
ATOM     18  C   UNL A   1      32.331  22.010  23.330  1.00  0.00     0.016 A 
ATOM     19  C   UNL A   1      31.619  22.647  25.549  1.00  0.00     0.016 A 
ATOM     20  C   UNL A   1      32.030  23.294  22.864  1.00  0.00     0.027 A 
ATOM     21  C   UNL A   1      31.349  23.933  25.085  1.00  0.00     0.027 A 
ATOM     22  C   UNL A   1      31.634  24.298  23.760  1.00  0.00     0.052 A 
BRANCH  22  23
ATOM     23  N   UNL A   1      31.605  25.665  23.380  1.00  0.00    -0.250 N 
ATOM     24  C   UNL A   1      30.485  26.457  23.347  1.00  0.00     0.238 C 
ATOM     25  C   UNL A   1      32.706  26.318  22.866  1.00  0.00     0.238 C 
ATOM     26  O   UNL A   1      29.320  26.158  23.583  1.00  0.00    -0.274 OA
ATOM     27  C   UNL A   1      30.896  27.873  23.024  1.00  0.00     0.096 C 
ATOM     28  C   UNL A   1      32.311  27.721  22.475  1.00  0.00     0.096 C 
ATOM     29  O   UNL A   1      33.828  25.877  22.645  1.00  0.00    -0.274 OA
ATOM     30  C   UNL A   1      30.757  28.741  24.284  1.00  0.00     0.041 C 
ATOM     31  C   UNL A   1      33.346  28.704  23.019  1.00  0.00     0.041 C 
ATOM     32  C   UNL A   1      32.016  28.851  25.092  1.00  0.00    -0.030 C 
ATOM     33  C   UNL A   1      33.220  28.854  24.504  1.00  0.00    -0.030 C 
ENDBRANCH  22  23
ENDBRANCH  15  17
ENDBRANCH   8  13
ENDBRANCH   5   7
ENDBRANCH   4   5
ENDBRANCH   3   4
ENDBRANCH   2   3
ENDBRANCH   1   2
BRANCH   1  34
ATOM     34  C   UNL A   1      41.557  21.618  27.772  1.00  0.00     0.202 C 
BRANCH  34  35
ATOM     35  C   UNL A   1      42.400  22.477  26.819  1.00  0.00     0.261 C 
BRANCH  35  36
ATOM     36  O   UNL A   1      41.674  23.551  26.195  1.00  0.00    -0.460 OA
BRANCH  36  37
ATOM     37  C   UNL A   1      42.380  24.702  26.048  1.00  0.00     0.338 C 
ATOM     38  O   UNL A   1      43.301  24.901  25.259  1.00  0.00    -0.246 OA
BRANCH  37  39
ATOM     39  C   UNL A   1      41.847  25.776  26.895  1.00  0.00     0.060 A 
ATOM     40  C   UNL A   1      42.519  27.004  26.916  1.00  0.00     0.016 A 
ATOM     41  C   UNL A   1      40.830  25.508  27.809  1.00  0.00     0.016 A 
ATOM     42  C   UNL A   1      42.211  27.952  27.895  1.00  0.00     0.010 A 
ATOM     43  C   UNL A   1      40.524  26.456  28.792  1.00  0.00     0.010 A 
ATOM     44  C   UNL A   1      41.243  27.663  28.867  1.00  0.00    -0.014 A 
BRANCH  44  45
ATOM     45  C   UNL A   1      41.079  28.553  30.044  1.00  0.00     0.031 A 
ATOM     46  C   UNL A   1      41.983  28.376  31.235  1.00  0.00     0.074 A 
ATOM     47  C   UNL A   1      40.135  29.511  30.054  1.00  0.00     0.049 A 
ATOM     48  N   UNL A   1      41.975  29.004  32.383  1.00  0.00    -0.248 NA
ATOM     49  C   UNL A   1      43.034  27.351  31.117  1.00  0.00     0.031 C 
ATOM     50  C   UNL A   1      39.220  29.807  28.953  1.00  0.00     0.029 A 
ATOM     51  N   UNL A   1      39.787  30.406  31.035  1.00  0.00    -0.354 N 
ATOM     52  C   UNL A   1      43.005  28.444  33.130  1.00  0.00     0.074 A 
ATOM     53  C   UNL A   1      43.604  27.411  32.312  1.00  0.00     0.031 C 
ATOM     54  C   UNL A   1      38.406  30.810  29.324  1.00  0.00     0.029 A 
ATOM     55  C   UNL A   1      38.719  31.201  30.698  1.00  0.00     0.049 A 
ATOM     56  H   UNL A   1      40.258  30.471  31.897  1.00  0.00     0.167 HD
ATOM     57  C   UNL A   1      43.417  28.760  34.382  1.00  0.00     0.031 A 
ATOM     58  C   UNL A   1      38.051  32.121  31.422  1.00  0.00     0.031 A 
ATOM     59  C   UNL A   1      42.812  29.776  35.201  1.00  0.00     0.049 A 
ATOM     60  C   UNL A   1      38.485  32.414  32.834  1.00  0.00     0.074 A 
ATOM     61  C   UNL A   1      43.171  30.182  36.477  1.00  0.00     0.029 A 
ATOM     62  N   UNL A   1      41.716  30.542  34.833  1.00  0.00    -0.354 N 
ATOM     63  N   UNL A   1      39.475  31.890  33.518  1.00  0.00    -0.248 NA
ATOM     64  C   UNL A   1      37.712  33.424  33.569  1.00  0.00     0.031 C 
ATOM     65  C   UNL A   1      42.260  31.158  36.897  1.00  0.00     0.029 A 
ATOM     66  C   UNL A   1      41.368  31.399  35.864  1.00  0.00     0.049 A 
ATOM     67  H   UNL A   1      41.255  30.485  33.966  1.00  0.00     0.167 HD
ATOM     68  C   UNL A   1      39.456  32.525  34.756  1.00  0.00     0.074 A 
ATOM     69  C   UNL A   1      38.365  33.477  34.723  1.00  0.00     0.031 C 
ATOM     70  C   UNL A   1      40.274  32.337  35.822  1.00  0.00     0.031 A 
BRANCH  57  71
ATOM     71  C   UNL A   1      44.558  27.960  34.955  1.00  0.00    -0.014 A 
ATOM     72  C   UNL A   1      44.330  26.768  35.666  1.00  0.00     0.010 A 
ATOM     73  C   UNL A   1      45.880  28.400  34.765  1.00  0.00     0.010 A 
ATOM     74  C   UNL A   1      45.399  26.059  36.221  1.00  0.00     0.020 A 
ATOM     75  C   UNL A   1      46.954  27.681  35.297  1.00  0.00     0.020 A 
ATOM     76  C   UNL A   1      46.705  26.526  36.041  1.00  0.00     0.054 A 
BRANCH  76  77
ATOM     77  S   UNL A   1      48.077  25.592  36.775  1.00  0.00     0.124 S 
ATOM     78  O   UNL A   1      48.253  26.273  38.055  1.00  0.00    -0.237 OA
ATOM     79  O   UNL A   1      47.538  24.236  36.854  1.00  0.00    -0.237 OA
ATOM     80  O   UNL A   1      49.168  25.769  35.819  1.00  0.00    -0.744 OA
ENDBRANCH  76  77
ENDBRANCH  57  71
BRANCH  58  81
ATOM     81  C   UNL A   1      36.885  32.822  30.819  1.00  0.00    -0.014 A 
ATOM     82  C   UNL A   1      37.077  33.866  29.898  1.00  0.00     0.010 A 
ATOM     83  C   UNL A   1      35.575  32.423  31.143  1.00  0.00     0.010 A 
ATOM     84  C   UNL A   1      35.977  34.501  29.313  1.00  0.00     0.020 A 
ATOM     85  C   UNL A   1      34.475  33.040  30.541  1.00  0.00     0.020 A 
ATOM     86  C   UNL A   1      34.683  34.079  29.634  1.00  0.00     0.054 A 
BRANCH  86  87
ATOM     87  S   UNL A   1      33.274  34.868  28.804  1.00  0.00     0.124 S 
ATOM     88  O   UNL A   1      32.389  35.165  29.926  1.00  0.00    -0.237 OA
ATOM     89  O   UNL A   1      33.893  36.025  28.162  1.00  0.00    -0.237 OA
ATOM     90  O   UNL A   1      32.797  33.837  27.886  1.00  0.00    -0.744 OA
ENDBRANCH  86  87
ENDBRANCH  58  81
BRANCH  70  91
ATOM     91  C   UNL A   1      40.041  33.197  37.037  1.00  0.00    -0.014 A 
ATOM     92  C   UNL A   1      40.719  34.416  37.208  1.00  0.00     0.010 A 
ATOM     93  C   UNL A   1      39.086  32.804  37.993  1.00  0.00     0.010 A 
ATOM     94  C   UNL A   1      40.466  35.215  38.328  1.00  0.00     0.020 A 
ATOM     95  C   UNL A   1      38.813  33.611  39.101  1.00  0.00     0.020 A 
ATOM     96  C   UNL A   1      39.516  34.805  39.269  1.00  0.00     0.054 A 
BRANCH  96  97
ATOM     97  S   UNL A   1      39.171  35.879  40.691  1.00  0.00     0.124 S 
ATOM     98  O   UNL A   1      38.680  37.092  40.042  1.00  0.00    -0.237 OA
ATOM     99  O   UNL A   1      38.173  35.117  41.437  1.00  0.00    -0.237 OA
ATOM    100  O   UNL A   1      40.468  36.007  41.350  1.00  0.00    -0.744 OA
ENDBRANCH  96  97
ENDBRANCH  70  91
ENDBRANCH  44  45
ENDBRANCH  37  39
ENDBRANCH  36  37
ENDBRANCH  35  36
ENDBRANCH  34  35
ENDBRANCH   1  34
TORSDOF 20
ENDMDL
MODEL 2
REMARK VINA RESULT:     -11.4      3.536      8.316
REMARK SMILES O=C(Nc1ccccc1C(=O)OCCOCCOC(=O)c1ccc(-c2c3nc(c(-c4ccc(S(=O)(=O)[O-])cc4)c4ccc([nH]4)c(-c4ccc(S(=O)(=O)[O-])cc4)c4nc(c(-c5ccc(S(=O)(=O)[O-])cc5)c5ccc2[nH]5)C=C4)C=C3)cc1)c1ccc(N2C(=O)[C@H]3CC=CC[C@H]3C2=O)cc1
REMARK SMILES IDX 15 1 14 2 13 3 12 4 10 5 11 6 9 7 4 8 5 9 6 10 8 11 7 12
REMARK SMILES IDX 3 13 1 14 2 15 81 17 82 18 97 19 83 20 96 21 84 22 85 23
REMARK SMILES IDX 86 24 94 25 87 26 88 27 93 28 95 29 89 30 92 31 90 32 91 33
REMARK SMILES IDX 16 34 17 35 18 36 19 37 20 38 21 39 22 40 80 41 23 42 79 43
REMARK SMILES IDX 24 44 25 45 26 46 73 47 27 48 78 49 72 50 74 51 28 52 77 53
REMARK SMILES IDX 71 54 70 55 29 57 59 58 40 59 58 60 41 61 44 62 57 63 75 64
REMARK SMILES IDX 42 65 43 66 56 68 76 69 45 70 30 71 31 72 39 73 32 74 38 75
REMARK SMILES IDX 33 76 34 77 35 78 36 79 37 80 60 81 61 82 69 83 62 84 68 85
REMARK SMILES IDX 63 86 64 87 65 88 66 89 67 90 46 91 47 92 55 93 48 94 54 95
REMARK SMILES IDX 49 96 50 97 51 98 52 99 53 100
REMARK H PARENT 3 16 74 56 44 67
REMARK Flexibility Score: inf
ROOT
ATOM      1  O   UNL A   1      31.644  27.017  27.289  1.00  0.00    -0.374 OA
ENDROOT
BRANCH   1   2
ATOM      2  C   UNL A   1      31.945  25.914  26.445  1.00  0.00     0.202 C 
BRANCH   2   3
ATOM      3  C   UNL A   1      32.431  24.618  27.100  1.00  0.00     0.261 C 
BRANCH   3   4
ATOM      4  O   UNL A   1      33.741  24.182  26.694  1.00  0.00    -0.460 OA
BRANCH   4   5
ATOM      5  C   UNL A   1      34.053  22.912  27.062  1.00  0.00     0.340 C 
ATOM      6  O   UNL A   1      33.451  22.226  27.880  1.00  0.00    -0.246 OA
BRANCH   5   7
ATOM      7  C   UNL A   1      35.123  22.327  26.217  1.00  0.00     0.083 A 
ATOM      8  C   UNL A   1      35.159  21.045  25.637  1.00  0.00     0.056 A 
ATOM      9  C   UNL A   1      36.352  20.643  25.001  1.00  0.00     0.027 A 
ATOM     10  C   UNL A   1      37.442  21.506  24.859  1.00  0.00     0.002 A 
ATOM     11  C   UNL A   1      36.233  23.189  26.062  1.00  0.00     0.018 A 
ATOM     12  C   UNL A   1      37.378  22.789  25.378  1.00  0.00     0.001 A 
BRANCH   8  13
ATOM     13  N   UNL A   1      34.134  20.075  25.570  1.00  0.00    -0.321 N 
ATOM     14  O   UNL A   1      32.090  19.153  25.371  1.00  0.00    -0.269 OA
ATOM     15  C   UNL A   1      32.831  20.104  25.132  1.00  0.00     0.255 C 
ATOM     16  H   UNL A   1      34.410  19.193  25.909  1.00  0.00     0.170 HD
BRANCH  15  17
ATOM     17  C   UNL A   1      32.318  21.228  24.328  1.00  0.00     0.040 A 
ATOM     18  C   UNL A   1      32.801  21.512  23.050  1.00  0.00     0.016 A 
ATOM     19  C   UNL A   1      31.386  22.070  24.927  1.00  0.00     0.016 A 
ATOM     20  C   UNL A   1      32.509  22.747  22.461  1.00  0.00     0.027 A 
ATOM     21  C   UNL A   1      31.121  23.310  24.349  1.00  0.00     0.027 A 
ATOM     22  C   UNL A   1      31.747  23.699  23.155  1.00  0.00     0.052 A 
BRANCH  22  23
ATOM     23  N   UNL A   1      31.676  25.050  22.725  1.00  0.00    -0.250 N 
ATOM     24  C   UNL A   1      30.648  25.917  22.998  1.00  0.00     0.238 C 
ATOM     25  C   UNL A   1      32.593  25.604  21.857  1.00  0.00     0.238 C 
ATOM     26  O   UNL A   1      29.603  25.710  23.603  1.00  0.00    -0.274 OA
ATOM     27  C   UNL A   1      31.015  27.288  22.483  1.00  0.00     0.096 C 
ATOM     28  C   UNL A   1      32.174  27.016  21.530  1.00  0.00     0.096 C 
ATOM     29  O   UNL A   1      33.562  25.077  21.322  1.00  0.00    -0.274 OA
ATOM     30  C   UNL A   1      31.328  28.209  23.672  1.00  0.00     0.041 C 
ATOM     31  C   UNL A   1      33.380  27.943  21.666  1.00  0.00     0.041 C 
ATOM     32  C   UNL A   1      32.782  28.259  24.038  1.00  0.00    -0.030 C 
ATOM     33  C   UNL A   1      33.738  28.156  23.105  1.00  0.00    -0.030 C 
ENDBRANCH  22  23
ENDBRANCH  15  17
ENDBRANCH   8  13
ENDBRANCH   5   7
ENDBRANCH   4   5
ENDBRANCH   3   4
ENDBRANCH   2   3
ENDBRANCH   1   2
BRANCH   1  34
ATOM     34  C   UNL A   1      32.689  27.942  27.576  1.00  0.00     0.202 C 
BRANCH  34  35
ATOM     35  C   UNL A   1      32.428  29.434  27.322  1.00  0.00     0.261 C 
BRANCH  35  36
ATOM     36  O   UNL A   1      33.575  30.161  26.850  1.00  0.00    -0.460 OA
BRANCH  36  37
ATOM     37  C   UNL A   1      34.285  30.793  27.820  1.00  0.00     0.338 C 
ATOM     38  O   UNL A   1      33.908  31.741  28.504  1.00  0.00    -0.246 OA
BRANCH  37  39
ATOM     39  C   UNL A   1      35.578  30.140  28.057  1.00  0.00     0.060 A 
ATOM     40  C   UNL A   1      35.888  29.728  29.358  1.00  0.00     0.016 A 
ATOM     41  C   UNL A   1      36.549  30.127  27.058  1.00  0.00     0.016 A 
ATOM     42  C   UNL A   1      37.196  29.353  29.679  1.00  0.00     0.010 A 
ATOM     43  C   UNL A   1      37.860  29.755  27.379  1.00  0.00     0.010 A 
ATOM     44  C   UNL A   1      38.198  29.409  28.701  1.00  0.00    -0.014 A 
BRANCH  44  45
ATOM     45  C   UNL A   1      39.624  29.248  29.083  1.00  0.00     0.031 A 
ATOM     46  C   UNL A   1      40.324  27.947  28.792  1.00  0.00     0.074 A 
ATOM     47  C   UNL A   1      40.291  30.249  29.684  1.00  0.00     0.049 A 
ATOM     48  N   UNL A   1      41.543  27.576  29.091  1.00  0.00    -0.248 NA
ATOM     49  C   UNL A   1      39.544  26.927  28.072  1.00  0.00     0.031 C 
ATOM     50  C   UNL A   1      39.739  31.568  29.990  1.00  0.00     0.029 A 
ATOM     51  N   UNL A   1      41.580  30.304  30.152  1.00  0.00    -0.354 N 
ATOM     52  C   UNL A   1      41.674  26.279  28.610  1.00  0.00     0.074 A 
ATOM     53  C   UNL A   1      40.402  25.919  28.018  1.00  0.00     0.031 C 
ATOM     54  C   UNL A   1      40.683  32.301  30.606  1.00  0.00     0.029 A 
ATOM     55  C   UNL A   1      41.890  31.492  30.768  1.00  0.00     0.049 A 
ATOM     56  H   UNL A   1      42.221  29.563  30.055  1.00  0.00     0.167 HD
ATOM     57  C   UNL A   1      42.753  25.459  28.655  1.00  0.00     0.031 A 
ATOM     58  C   UNL A   1      43.010  31.876  31.413  1.00  0.00     0.031 A 
ATOM     59  C   UNL A   1      44.012  25.810  29.257  1.00  0.00     0.049 A 
ATOM     60  C   UNL A   1      44.176  30.929  31.507  1.00  0.00     0.074 A 
ATOM     61  C   UNL A   1      45.170  25.054  29.336  1.00  0.00     0.029 A 
ATOM     62  N   UNL A   1      44.277  27.014  29.893  1.00  0.00    -0.354 N 
ATOM     63  N   UNL A   1      44.292  29.713  31.028  1.00  0.00    -0.248 NA
ATOM     64  C   UNL A   1      45.364  31.409  32.226  1.00  0.00     0.031 C 
ATOM     65  C   UNL A   1      46.119  25.783  30.064  1.00  0.00     0.029 A 
ATOM     66  C   UNL A   1      45.570  27.013  30.390  1.00  0.00     0.049 A 
ATOM     67  H   UNL A   1      43.640  27.759  29.977  1.00  0.00     0.167 HD
ATOM     68  C   UNL A   1      45.573  29.291  31.369  1.00  0.00     0.074 A 
ATOM     69  C   UNL A   1      46.197  30.385  32.085  1.00  0.00     0.031 C 
ATOM     70  C   UNL A   1      46.178  28.105  31.108  1.00  0.00     0.031 A 
BRANCH  57  71
ATOM     71  C   UNL A   1      42.597  24.081  28.068  1.00  0.00    -0.014 A 
ATOM     72  C   UNL A   1      42.896  23.823  26.718  1.00  0.00     0.010 A 
ATOM     73  C   UNL A   1      42.161  23.022  28.885  1.00  0.00     0.010 A 
ATOM     74  C   UNL A   1      42.711  22.545  26.183  1.00  0.00     0.020 A 
ATOM     75  C   UNL A   1      41.999  21.737  28.360  1.00  0.00     0.020 A 
ATOM     76  C   UNL A   1      42.254  21.511  27.007  1.00  0.00     0.054 A 
BRANCH  76  77
ATOM     77  S   UNL A   1      42.017  19.861  26.289  1.00  0.00     0.124 S 
ATOM     78  O   UNL A   1      42.933  19.895  25.152  1.00  0.00    -0.237 OA
ATOM     79  O   UNL A   1      42.405  18.975  27.383  1.00  0.00    -0.237 OA
ATOM     80  O   UNL A   1      40.597  19.834  25.944  1.00  0.00    -0.744 OA
ENDBRANCH  76  77
ENDBRANCH  57  71
BRANCH  58  81
ATOM     81  C   UNL A   1      43.069  33.227  32.034  1.00  0.00    -0.014 A 
ATOM     82  C   UNL A   1      42.653  33.423  33.361  1.00  0.00     0.010 A 
ATOM     83  C   UNL A   1      43.574  34.320  31.305  1.00  0.00     0.010 A 
ATOM     84  C   UNL A   1      42.739  34.689  33.949  1.00  0.00     0.020 A 
ATOM     85  C   UNL A   1      43.683  35.581  31.897  1.00  0.00     0.020 A 
ATOM     86  C   UNL A   1      43.259  35.758  33.214  1.00  0.00     0.054 A 
BRANCH  86  87
ATOM     87  S   UNL A   1      43.431  37.375  34.022  1.00  0.00     0.124 S 
ATOM     88  O   UNL A   1      44.552  37.144  34.927  1.00  0.00    -0.237 OA
ATOM     89  O   UNL A   1      43.701  38.265  32.895  1.00  0.00    -0.237 OA
ATOM     90  O   UNL A   1      42.136  37.575  34.667  1.00  0.00    -0.744 OA
ENDBRANCH  86  87
ENDBRANCH  58  81
BRANCH  70  91
ATOM     91  C   UNL A   1      47.600  27.933  31.574  1.00  0.00    -0.014 A 
ATOM     92  C   UNL A   1      48.684  28.155  30.707  1.00  0.00     0.010 A 
ATOM     93  C   UNL A   1      47.855  27.599  32.918  1.00  0.00     0.010 A 
ATOM     94  C   UNL A   1      49.997  28.019  31.167  1.00  0.00     0.020 A 
ATOM     95  C   UNL A   1      49.166  27.486  33.387  1.00  0.00     0.020 A 
ATOM     96  C   UNL A   1      50.230  27.683  32.505  1.00  0.00     0.054 A 
BRANCH  96  97
ATOM     97  S   UNL A   1      51.943  27.556  33.092  1.00  0.00     0.124 S 
ATOM     98  O   UNL A   1      51.785  27.761  34.530  1.00  0.00    -0.237 OA
ATOM     99  O   UNL A   1      52.324  26.207  32.687  1.00  0.00    -0.237 OA
ATOM    100  O   UNL A   1      52.631  28.631  32.382  1.00  0.00    -0.744 OA
ENDBRANCH  96  97
ENDBRANCH  70  91
ENDBRANCH  44  45
ENDBRANCH  37  39
ENDBRANCH  36  37
ENDBRANCH  35  36
ENDBRANCH  34  35
ENDBRANCH   1  34
TORSDOF 20
ENDMDL
MODEL 3
REMARK VINA RESULT:     -11.4      2.563      8.736
REMARK SMILES O=C(Nc1ccccc1C(=O)OCCOCCOC(=O)c1ccc(-c2c3nc(c(-c4ccc(S(=O)(=O)[O-])cc4)c4ccc([nH]4)c(-c4ccc(S(=O)(=O)[O-])cc4)c4nc(c(-c5ccc(S(=O)(=O)[O-])cc5)c5ccc2[nH]5)C=C4)C=C3)cc1)c1ccc(N2C(=O)[C@H]3CC=CC[C@H]3C2=O)cc1
REMARK SMILES IDX 15 1 14 2 13 3 12 4 10 5 11 6 9 7 4 8 5 9 6 10 8 11 7 12
REMARK SMILES IDX 3 13 1 14 2 15 81 17 82 18 97 19 83 20 96 21 84 22 85 23
REMARK SMILES IDX 86 24 94 25 87 26 88 27 93 28 95 29 89 30 92 31 90 32 91 33
REMARK SMILES IDX 16 34 17 35 18 36 19 37 20 38 21 39 22 40 80 41 23 42 79 43
REMARK SMILES IDX 24 44 25 45 26 46 73 47 27 48 78 49 72 50 74 51 28 52 77 53
REMARK SMILES IDX 71 54 70 55 29 57 59 58 40 59 58 60 41 61 44 62 57 63 75 64
REMARK SMILES IDX 42 65 43 66 56 68 76 69 45 70 30 71 31 72 39 73 32 74 38 75
REMARK SMILES IDX 33 76 34 77 35 78 36 79 37 80 60 81 61 82 69 83 62 84 68 85
REMARK SMILES IDX 63 86 64 87 65 88 66 89 67 90 46 91 47 92 55 93 48 94 54 95
REMARK SMILES IDX 49 96 50 97 51 98 52 99 53 100
REMARK H PARENT 3 16 74 56 44 67
REMARK Flexibility Score: inf
ROOT
ATOM      1  O   UNL A   1      31.674  27.279  27.334  1.00  0.00    -0.374 OA
ENDROOT
BRANCH   1   2
ATOM      2  C   UNL A   1      31.986  26.222  26.436  1.00  0.00     0.202 C 
BRANCH   2   3
ATOM      3  C   UNL A   1      32.426  24.881  27.030  1.00  0.00     0.261 C 
BRANCH   3   4
ATOM      4  O   UNL A   1      33.630  24.329  26.467  1.00  0.00    -0.460 OA
BRANCH   4   5
ATOM      5  C   UNL A   1      33.999  23.130  26.989  1.00  0.00     0.340 C 
ATOM      6  O   UNL A   1      33.428  22.524  27.887  1.00  0.00    -0.246 OA
BRANCH   5   7
ATOM      7  C   UNL A   1      35.097  22.495  26.219  1.00  0.00     0.083 A 
ATOM      8  C   UNL A   1      35.137  21.191  25.691  1.00  0.00     0.056 A 
ATOM      9  C   UNL A   1      36.351  20.745  25.129  1.00  0.00     0.027 A 
ATOM     10  C   UNL A   1      37.462  21.584  25.006  1.00  0.00     0.002 A 
ATOM     11  C   UNL A   1      36.229  23.333  26.084  1.00  0.00     0.018 A 
ATOM     12  C   UNL A   1      37.397  22.888  25.472  1.00  0.00     0.001 A 
BRANCH   8  13
ATOM     13  N   UNL A   1      34.099  20.236  25.612  1.00  0.00    -0.321 N 
ATOM     14  O   UNL A   1      32.046  19.343  25.379  1.00  0.00    -0.269 OA
ATOM     15  C   UNL A   1      32.807  20.280  25.145  1.00  0.00     0.255 C 
ATOM     16  H   UNL A   1      34.354  19.354  25.968  1.00  0.00     0.170 HD
BRANCH  15  17
ATOM     17  C   UNL A   1      32.329  21.402  24.317  1.00  0.00     0.040 A 
ATOM     18  C   UNL A   1      32.904  21.717  23.085  1.00  0.00     0.016 A 
ATOM     19  C   UNL A   1      31.330  22.210  24.850  1.00  0.00     0.016 A 
ATOM     20  C   UNL A   1      32.626  22.952  22.490  1.00  0.00     0.027 A 
ATOM     21  C   UNL A   1      31.079  23.451  24.269  1.00  0.00     0.027 A 
ATOM     22  C   UNL A   1      31.787  23.874  23.133  1.00  0.00     0.052 A 
BRANCH  22  23
ATOM     23  N   UNL A   1      31.713  25.229  22.716  1.00  0.00    -0.250 N 
ATOM     24  C   UNL A   1      30.690  26.096  23.009  1.00  0.00     0.238 C 
ATOM     25  C   UNL A   1      32.621  25.789  21.842  1.00  0.00     0.238 C 
ATOM     26  O   UNL A   1      29.652  25.885  23.625  1.00  0.00    -0.274 OA
ATOM     27  C   UNL A   1      31.054  27.470  22.502  1.00  0.00     0.096 C 
ATOM     28  C   UNL A   1      32.201  27.204  21.532  1.00  0.00     0.096 C 
ATOM     29  O   UNL A   1      33.582  25.264  21.291  1.00  0.00    -0.274 OA
ATOM     30  C   UNL A   1      31.384  28.380  23.695  1.00  0.00     0.041 C 
ATOM     31  C   UNL A   1      33.410  28.128  21.662  1.00  0.00     0.041 C 
ATOM     32  C   UNL A   1      32.842  28.424  24.044  1.00  0.00    -0.030 C 
ATOM     33  C   UNL A   1      33.786  28.326  23.099  1.00  0.00    -0.030 C 
ENDBRANCH  22  23
ENDBRANCH  15  17
ENDBRANCH   8  13
ENDBRANCH   5   7
ENDBRANCH   4   5
ENDBRANCH   3   4
ENDBRANCH   2   3
ENDBRANCH   1   2
BRANCH   1  34
ATOM     34  C   UNL A   1      32.710  28.200  27.664  1.00  0.00     0.202 C 
BRANCH  34  35
ATOM     35  C   UNL A   1      32.524  29.672  27.270  1.00  0.00     0.261 C 
BRANCH  35  36
ATOM     36  O   UNL A   1      33.713  30.302  26.763  1.00  0.00    -0.460 OA
BRANCH  36  37
ATOM     37  C   UNL A   1      34.436  30.979  27.692  1.00  0.00     0.338 C 
ATOM     38  O   UNL A   1      34.137  32.051  28.215  1.00  0.00    -0.246 OA
BRANCH  37  39
ATOM     39  C   UNL A   1      35.625  30.226  28.109  1.00  0.00     0.060 A 
ATOM     40  C   UNL A   1      35.661  29.703  29.406  1.00  0.00     0.016 A 
ATOM     41  C   UNL A   1      36.765  30.220  27.308  1.00  0.00     0.016 A 
ATOM     42  C   UNL A   1      36.863  29.219  29.931  1.00  0.00     0.010 A 
ATOM     43  C   UNL A   1      37.970  29.738  27.834  1.00  0.00     0.010 A 
ATOM     44  C   UNL A   1      38.034  29.277  29.162  1.00  0.00    -0.014 A 
BRANCH  44  45
ATOM     45  C   UNL A   1      39.350  28.994  29.786  1.00  0.00     0.031 A 
ATOM     46  C   UNL A   1      39.804  29.818  30.962  1.00  0.00     0.074 A 
ATOM     47  C   UNL A   1      40.137  28.010  29.313  1.00  0.00     0.049 A 
ATOM     48  N   UNL A   1      40.935  29.776  31.618  1.00  0.00    -0.248 NA
ATOM     49  C   UNL A   1      38.856  30.828  31.461  1.00  0.00     0.031 C 
ATOM     50  C   UNL A   1      39.800  27.119  28.205  1.00  0.00     0.029 A 
ATOM     51  N   UNL A   1      41.389  27.607  29.706  1.00  0.00    -0.354 N 
ATOM     52  C   UNL A   1      40.844  30.758  32.597  1.00  0.00     0.074 A 
ATOM     53  C   UNL A   1      39.554  31.396  32.435  1.00  0.00     0.031 C 
ATOM     54  C   UNL A   1      40.827  26.277  27.998  1.00  0.00     0.029 A 
ATOM     55  C   UNL A   1      41.905  26.594  28.936  1.00  0.00     0.049 A 
ATOM     56  H   UNL A   1      41.871  28.005  30.467  1.00  0.00     0.167 HD
ATOM     57  C   UNL A   1      41.750  31.102  33.545  1.00  0.00     0.031 A 
ATOM     58  C   UNL A   1      43.117  26.004  28.963  1.00  0.00     0.031 A 
ATOM     59  C   UNL A   1      43.039  30.480  33.697  1.00  0.00     0.049 A 
ATOM     60  C   UNL A   1      44.133  26.442  29.984  1.00  0.00     0.074 A 
ATOM     61  C   UNL A   1      44.018  30.746  34.639  1.00  0.00     0.029 A 
ATOM     62  N   UNL A   1      43.533  29.475  32.880  1.00  0.00    -0.354 N 
ATOM     63  N   UNL A   1      44.023  27.359  30.917  1.00  0.00    -0.248 NA
ATOM     64  C   UNL A   1      45.436  25.762  29.957  1.00  0.00     0.031 C 
ATOM     65  C   UNL A   1      45.125  29.935  34.360  1.00  0.00     0.029 A 
ATOM     66  C   UNL A   1      44.814  29.126  33.279  1.00  0.00     0.049 A 
ATOM     67  H   UNL A   1      43.046  29.068  32.128  1.00  0.00     0.167 HD
ATOM     68  C   UNL A   1      45.235  27.350  31.601  1.00  0.00     0.074 A 
ATOM     69  C   UNL A   1      46.057  26.330  30.983  1.00  0.00     0.031 C 
ATOM     70  C   UNL A   1      45.626  28.115  32.651  1.00  0.00     0.031 A 
BRANCH  57  71
ATOM     71  C   UNL A   1      41.387  32.235  34.468  1.00  0.00    -0.014 A 
ATOM     72  C   UNL A   1      40.769  31.998  35.710  1.00  0.00     0.010 A 
ATOM     73  C   UNL A   1      41.682  33.559  34.095  1.00  0.00     0.010 A 
ATOM     74  C   UNL A   1      40.407  33.065  36.536  1.00  0.00     0.020 A 
ATOM     75  C   UNL A   1      41.345  34.628  34.930  1.00  0.00     0.020 A 
ATOM     76  C   UNL A   1      40.689  34.375  36.136  1.00  0.00     0.054 A 
BRANCH  76  77
ATOM     77  S   UNL A   1      40.206  35.745  37.224  1.00  0.00     0.124 S 
ATOM     78  O   UNL A   1      41.449  36.010  37.943  1.00  0.00    -0.237 OA
ATOM     79  O   UNL A   1      39.795  36.779  36.277  1.00  0.00    -0.237 OA
ATOM     80  O   UNL A   1      39.126  35.182  38.031  1.00  0.00    -0.744 OA
ENDBRANCH  76  77
ENDBRANCH  57  71
BRANCH  58  81
ATOM     81  C   UNL A   1      43.436  24.940  27.973  1.00  0.00    -0.014 A 
ATOM     82  C   UNL A   1      44.174  25.238  26.815  1.00  0.00     0.010 A 
ATOM     83  C   UNL A   1      43.027  23.614  28.203  1.00  0.00     0.010 A 
ATOM     84  C   UNL A   1      44.496  24.228  25.904  1.00  0.00     0.020 A 
ATOM     85  C   UNL A   1      43.367  22.598  27.306  1.00  0.00     0.020 A 
ATOM     86  C   UNL A   1      44.095  22.913  26.159  1.00  0.00     0.054 A 
BRANCH  86  87
ATOM     87  S   UNL A   1      44.590  21.606  24.999  1.00  0.00     0.124 S 
ATOM     88  O   UNL A   1      45.994  21.411  25.343  1.00  0.00    -0.237 OA
ATOM     89  O   UNL A   1      43.692  20.510  25.357  1.00  0.00    -0.237 OA
ATOM     90  O   UNL A   1      44.342  22.200  23.688  1.00  0.00    -0.744 OA
ENDBRANCH  86  87
ENDBRANCH  58  81
BRANCH  70  91
ATOM     91  C   UNL A   1      46.998  27.864  33.220  1.00  0.00    -0.014 A 
ATOM     92  C   UNL A   1      48.118  28.584  32.768  1.00  0.00     0.010 A 
ATOM     93  C   UNL A   1      47.158  26.933  34.263  1.00  0.00     0.010 A 
ATOM     94  C   UNL A   1      49.378  28.358  33.331  1.00  0.00     0.020 A 
ATOM     95  C   UNL A   1      48.411  26.722  34.844  1.00  0.00     0.020 A 
ATOM     96  C   UNL A   1      49.517  27.426  34.364  1.00  0.00     0.054 A 
BRANCH  96  97
ATOM     97  S   UNL A   1      51.153  27.181  35.110  1.00  0.00     0.124 S 
ATOM     98  O   UNL A   1      51.377  28.463  35.774  1.00  0.00    -0.237 OA
ATOM     99  O   UNL A   1      50.936  26.043  35.999  1.00  0.00    -0.237 OA
ATOM    100  O   UNL A   1      52.019  26.914  33.965  1.00  0.00    -0.744 OA
ENDBRANCH  96  97
ENDBRANCH  70  91
ENDBRANCH  44  45
ENDBRANCH  37  39
ENDBRANCH  36  37
ENDBRANCH  35  36
ENDBRANCH  34  35
ENDBRANCH   1  34
TORSDOF 20
ENDMDL
