MODEL 1
REMARK VINA RESULT:     -10.0      0.000      0.000
REMARK SMILES CC(C)(C)OC(=O)N1CC[N@H+](Cc2ccc(Cl)nc2)[C@H](C(=O)OCCOCCOC(=O)c2ccc(-c3c4nc(c(-c5ccc(S(=O)(=O)[O-])cc5)c5ccc([nH]5)c(-c5ccc(S(=O)(=O)[O-])cc5)c5nc(c(-c6ccc(S(=O)(=O)[O-])cc6)c6ccc3[nH]6)C=C5)C=C4)cc2)C1
REMARK SMILES IDX 26 1 25 2 24 3 23 4 21 5 22 6 20 7 8 8 9 9 92 10 10 11 11 12
REMARK SMILES IDX 6 14 7 15 5 16 2 17 1 18 3 19 4 20 12 21 13 22 14 23 19 24
REMARK SMILES IDX 15 25 18 26 16 27 17 28 27 29 28 30 29 31 30 32 31 33 32 34
REMARK SMILES IDX 33 35 91 36 34 37 90 38 35 39 36 40 37 41 84 42 38 43 89 44
REMARK SMILES IDX 83 45 85 46 39 47 88 48 82 49 81 50 40 52 70 53 51 54 69 55
REMARK SMILES IDX 52 56 55 57 68 58 86 59 53 60 54 61 67 63 87 64 56 65 41 66
REMARK SMILES IDX 42 67 50 68 43 69 49 70 44 71 45 72 46 73 47 74 48 75 71 76
REMARK SMILES IDX 72 77 80 78 73 79 79 80 74 81 75 82 76 83 77 84 78 85 57 86
REMARK SMILES IDX 58 87 66 88 59 89 65 90 60 91 61 92 62 93 63 94 64 95
REMARK H PARENT 11 13 85 51 55 62
REMARK Flexibility Score: inf
ROOT
ATOM      1  O   UNL A   1      36.964  21.895  25.314  1.00  0.00    -0.374 OA
ENDROOT
BRANCH   1   2
ATOM      2  C   UNL A   1      37.032  22.995  24.419  1.00  0.00     0.202 C 
BRANCH   2   3
ATOM      3  C   UNL A   1      36.161  22.981  23.163  1.00  0.00     0.261 C 
BRANCH   3   4
ATOM      4  O   UNL A   1      35.176  24.038  23.084  1.00  0.00    -0.459 OA
BRANCH   4   5
ATOM      5  C   UNL A   1      33.906  23.630  22.810  1.00  0.00     0.366 C 
ATOM      6  O   UNL A   1      33.557  23.173  21.724  1.00  0.00    -0.245 OA
BRANCH   5   7
ATOM      7  C   UNL A   1      32.909  23.904  23.941  1.00  0.00     0.315 C 
ATOM      8  N   UNL A   1      31.948  25.316  25.746  1.00  0.00    -0.296 N 
ATOM      9  C   UNL A   1      31.134  24.184  26.171  1.00  0.00     0.184 C 
ATOM     10  C   UNL A   1      33.132  25.093  24.884  1.00  0.00     0.200 C 
ATOM     11  C   UNL A   1      31.202  22.911  25.309  1.00  0.00     0.285 C 
ATOM     12  N   UNL A   1      32.479  22.660  24.647  1.00  0.00    -0.316 N 
ATOM     13  H   UNL A   1      32.363  21.973  23.904  1.00  0.00     0.349 HD
BRANCH   8  14
ATOM     14  C   UNL A   1      31.744  26.479  26.464  1.00  0.00     0.410 C 
ATOM     15  O   UNL A   1      30.621  26.877  26.753  1.00  0.00    -0.224 OA
BRANCH  14  16
ATOM     16  O   UNL A   1      32.885  27.190  26.635  1.00  0.00    -0.444 OA
BRANCH  16  17
ATOM     17  C   UNL A   1      32.894  28.592  26.242  1.00  0.00     0.106 C 
ATOM     18  C   UNL A   1      34.367  29.019  26.309  1.00  0.00     0.056 C 
ATOM     19  C   UNL A   1      32.076  29.421  27.235  1.00  0.00     0.056 C 
ATOM     20  C   UNL A   1      32.419  28.818  24.792  1.00  0.00     0.056 C 
ENDBRANCH  16  17
ENDBRANCH  14  16
ENDBRANCH   8  14
BRANCH  12  21
ATOM     21  C   UNL A   1      33.449  21.812  25.359  1.00  0.00     0.301 C 
BRANCH  21  22
ATOM     22  C   UNL A   1      33.631  20.360  24.970  1.00  0.00     0.025 A 
ATOM     23  C   UNL A   1      34.850  19.686  24.989  1.00  0.00     0.014 A 
ATOM     24  C   UNL A   1      32.535  19.561  24.665  1.00  0.00     0.122 A 
ATOM     25  C   UNL A   1      34.966  18.406  24.444  1.00  0.00     0.041 A 
ATOM     26  N   UNL A   1      32.590  18.310  24.152  1.00  0.00    -0.244 NA
ATOM     27  C   UNL A   1      33.817  17.787  24.000  1.00  0.00     0.129 A 
ATOM     28  Cl  UNL A   1      33.868  16.257  23.235  1.00  0.00    -0.062 Cl
ENDBRANCH  21  22
ENDBRANCH  12  21
ENDBRANCH   5   7
ENDBRANCH   4   5
ENDBRANCH   3   4
ENDBRANCH   2   3
ENDBRANCH   1   2
BRANCH   1  29
ATOM     29  C   UNL A   1      38.035  20.973  25.381  1.00  0.00     0.202 C 
BRANCH  29  30
ATOM     30  C   UNL A   1      39.297  21.311  26.185  1.00  0.00     0.261 C 
BRANCH  30  31
ATOM     31  O   UNL A   1      39.944  20.249  26.858  1.00  0.00    -0.460 OA
BRANCH  31  32
ATOM     32  C   UNL A   1      41.185  19.973  26.413  1.00  0.00     0.338 C 
ATOM     33  O   UNL A   1      41.584  18.956  25.872  1.00  0.00    -0.246 OA
BRANCH  32  34
ATOM     34  C   UNL A   1      41.948  21.209  26.586  1.00  0.00     0.060 A 
ATOM     35  C   UNL A   1      42.252  21.613  27.887  1.00  0.00     0.016 A 
ATOM     36  C   UNL A   1      42.396  21.926  25.471  1.00  0.00     0.016 A 
ATOM     37  C   UNL A   1      42.978  22.780  28.080  1.00  0.00     0.010 A 
ATOM     38  C   UNL A   1      43.124  23.095  25.667  1.00  0.00     0.010 A 
ATOM     39  C   UNL A   1      43.385  23.540  26.973  1.00  0.00    -0.014 A 
BRANCH  39  40
ATOM     40  C   UNL A   1      43.962  24.878  27.200  1.00  0.00     0.031 A 
ATOM     41  C   UNL A   1      43.062  25.976  27.684  1.00  0.00     0.074 A 
ATOM     42  C   UNL A   1      45.274  25.090  27.006  1.00  0.00     0.049 A 
ATOM     43  N   UNL A   1      43.360  27.204  28.011  1.00  0.00    -0.248 NA
ATOM     44  C   UNL A   1      41.633  25.642  27.815  1.00  0.00     0.031 C 
ATOM     45  C   UNL A   1      46.230  24.086  26.538  1.00  0.00     0.029 A 
ATOM     46  N   UNL A   1      46.026  26.221  27.179  1.00  0.00    -0.354 N 
ATOM     47  C   UNL A   1      42.158  27.793  28.385  1.00  0.00     0.074 A 
ATOM     48  C   UNL A   1      41.123  26.799  28.209  1.00  0.00     0.031 C 
ATOM     49  C   UNL A   1      47.446  24.650  26.457  1.00  0.00     0.029 A 
ATOM     50  C   UNL A   1      47.348  26.054  26.848  1.00  0.00     0.049 A 
ATOM     51  H   UNL A   1      45.655  27.071  27.508  1.00  0.00     0.167 HD
ATOM     52  C   UNL A   1      41.942  29.049  28.842  1.00  0.00     0.031 A 
ATOM     53  C   UNL A   1      48.360  26.942  26.851  1.00  0.00     0.031 A 
ATOM     54  C   UNL A   1      42.979  30.035  28.980  1.00  0.00     0.049 A 
ATOM     55  C   UNL A   1      48.097  28.342  27.330  1.00  0.00     0.074 A 
ATOM     56  C   UNL A   1      42.882  31.329  29.454  1.00  0.00     0.029 A 
ATOM     57  N   UNL A   1      44.306  29.836  28.621  1.00  0.00    -0.354 N 
ATOM     58  N   UNL A   1      46.968  28.870  27.743  1.00  0.00    -0.248 NA
ATOM     59  C   UNL A   1      49.242  29.260  27.361  1.00  0.00     0.031 C 
ATOM     60  C   UNL A   1      44.140  31.932  29.330  1.00  0.00     0.029 A 
ATOM     61  C   UNL A   1      45.034  30.994  28.834  1.00  0.00     0.049 A 
ATOM     62  H   UNL A   1      44.676  28.994  28.268  1.00  0.00     0.167 HD
ATOM     63  C   UNL A   1      47.267  30.180  28.097  1.00  0.00     0.074 A 
ATOM     64  C   UNL A   1      48.688  30.357  27.864  1.00  0.00     0.031 C 
ATOM     65  C   UNL A   1      46.445  31.148  28.573  1.00  0.00     0.031 A 
BRANCH  52  66
ATOM     66  C   UNL A   1      40.519  29.421  29.166  1.00  0.00    -0.014 A 
ATOM     67  C   UNL A   1      39.618  29.820  28.162  1.00  0.00     0.010 A 
ATOM     68  C   UNL A   1      40.086  29.401  30.504  1.00  0.00     0.010 A 
ATOM     69  C   UNL A   1      38.332  30.253  28.496  1.00  0.00     0.020 A 
ATOM     70  C   UNL A   1      38.791  29.807  30.839  1.00  0.00     0.020 A 
ATOM     71  C   UNL A   1      37.932  30.257  29.836  1.00  0.00     0.054 A 
BRANCH  71  72
ATOM     72  S   UNL A   1      36.268  30.851  30.248  1.00  0.00     0.124 S 
ATOM     73  O   UNL A   1      35.902  29.972  31.357  1.00  0.00    -0.237 OA
ATOM     74  O   UNL A   1      36.502  32.247  30.606  1.00  0.00    -0.237 OA
ATOM     75  O   UNL A   1      35.511  30.646  29.015  1.00  0.00    -0.744 OA
ENDBRANCH  71  72
ENDBRANCH  52  66
BRANCH  53  76
ATOM     76  C   UNL A   1      49.702  26.510  26.377  1.00  0.00    -0.014 A 
ATOM     77  C   UNL A   1      50.067  26.632  25.026  1.00  0.00     0.010 A 
ATOM     78  C   UNL A   1      50.655  26.051  27.306  1.00  0.00     0.010 A 
ATOM     79  C   UNL A   1      51.366  26.315  24.615  1.00  0.00     0.020 A 
ATOM     80  C   UNL A   1      51.960  25.757  26.903  1.00  0.00     0.020 A 
ATOM     81  C   UNL A   1      52.308  25.892  25.559  1.00  0.00     0.054 A 
BRANCH  81  82
ATOM     82  S   UNL A   1      54.018  25.600  25.023  1.00  0.00     0.124 S 
ATOM     83  O   UNL A   1      53.977  24.197  24.624  1.00  0.00    -0.237 OA
ATOM     84  O   UNL A   1      54.177  26.564  23.938  1.00  0.00    -0.237 OA
ATOM     85  O   UNL A   1      54.804  25.889  26.220  1.00  0.00    -0.744 OA
ENDBRANCH  81  82
ENDBRANCH  53  76
BRANCH  65  86
ATOM     86  C   UNL A   1      47.062  32.486  28.880  1.00  0.00    -0.014 A 
ATOM     87  C   UNL A   1      47.304  33.425  27.863  1.00  0.00     0.010 A 
ATOM     88  C   UNL A   1      47.350  32.827  30.214  1.00  0.00     0.010 A 
ATOM     89  C   UNL A   1      47.849  34.673  28.170  1.00  0.00     0.020 A 
ATOM     90  C   UNL A   1      47.871  34.084  30.529  1.00  0.00     0.020 A 
ATOM     91  C   UNL A   1      48.131  34.995  29.503  1.00  0.00     0.054 A 
BRANCH  91  92
ATOM     92  S   UNL A   1      48.798  36.638  29.883  1.00  0.00     0.124 S 
ATOM     93  O   UNL A   1      48.986  36.561  31.329  1.00  0.00    -0.237 OA
ATOM     94  O   UNL A   1      50.025  36.679  29.091  1.00  0.00    -0.237 OA
ATOM     95  O   UNL A   1      47.746  37.549  29.438  1.00  0.00    -0.744 OA
ENDBRANCH  91  92
ENDBRANCH  65  86
ENDBRANCH  39  40
ENDBRANCH  32  34
ENDBRANCH  31  32
ENDBRANCH  30  31
ENDBRANCH  29  30
ENDBRANCH   1  29
TORSDOF 22
ENDMDL
MODEL 2
REMARK VINA RESULT:      -8.6      3.686      9.378
REMARK SMILES CC(C)(C)OC(=O)N1CC[N@H+](Cc2ccc(Cl)nc2)[C@H](C(=O)OCCOCCOC(=O)c2ccc(-c3c4nc(c(-c5ccc(S(=O)(=O)[O-])cc5)c5ccc([nH]5)c(-c5ccc(S(=O)(=O)[O-])cc5)c5nc(c(-c6ccc(S(=O)(=O)[O-])cc6)c6ccc3[nH]6)C=C5)C=C4)cc2)C1
REMARK SMILES IDX 26 1 25 2 24 3 23 4 21 5 22 6 20 7 8 8 9 9 92 10 10 11 11 12
REMARK SMILES IDX 6 14 7 15 5 16 2 17 1 18 3 19 4 20 12 21 13 22 14 23 19 24
REMARK SMILES IDX 15 25 18 26 16 27 17 28 27 29 28 30 29 31 30 32 31 33 32 34
REMARK SMILES IDX 33 35 91 36 34 37 90 38 35 39 36 40 37 41 84 42 38 43 89 44
REMARK SMILES IDX 83 45 85 46 39 47 88 48 82 49 81 50 40 52 70 53 51 54 69 55
REMARK SMILES IDX 52 56 55 57 68 58 86 59 53 60 54 61 67 63 87 64 56 65 41 66
REMARK SMILES IDX 42 67 50 68 43 69 49 70 44 71 45 72 46 73 47 74 48 75 71 76
REMARK SMILES IDX 72 77 80 78 73 79 79 80 74 81 75 82 76 83 77 84 78 85 57 86
REMARK SMILES IDX 58 87 66 88 59 89 65 90 60 91 61 92 62 93 63 94 64 95
REMARK H PARENT 11 13 85 51 55 62
REMARK Flexibility Score: inf
ROOT
ATOM      1  O   UNL A   1      39.755  24.770  26.132  1.00  0.00    -0.374 OA
ENDROOT
BRANCH   1   2
ATOM      2  C   UNL A   1      38.560  24.259  26.703  1.00  0.00     0.202 C 
BRANCH   2   3
ATOM      3  C   UNL A   1      37.846  23.098  26.009  1.00  0.00     0.261 C 
BRANCH   3   4
ATOM      4  O   UNL A   1      36.497  23.379  25.570  1.00  0.00    -0.459 OA
BRANCH   4   5
ATOM      5  C   UNL A   1      36.185  22.926  24.324  1.00  0.00     0.366 C 
ATOM      6  O   UNL A   1      36.817  22.048  23.740  1.00  0.00    -0.245 OA
BRANCH   5   7
ATOM      7  C   UNL A   1      35.042  23.694  23.653  1.00  0.00     0.315 C 
ATOM      8  N   UNL A   1      33.609  25.701  23.345  1.00  0.00    -0.296 N 
ATOM      9  C   UNL A   1      32.740  24.923  22.472  1.00  0.00     0.184 C 
ATOM     10  C   UNL A   1      34.546  25.012  24.261  1.00  0.00     0.200 C 
ATOM     11  C   UNL A   1      33.181  23.484  22.148  1.00  0.00     0.285 C 
ATOM     12  N   UNL A   1      33.935  22.801  23.194  1.00  0.00    -0.316 N 
ATOM     13  H   UNL A   1      34.411  21.984  22.811  1.00  0.00     0.349 HD
BRANCH   8  14
ATOM     14  C   UNL A   1      33.249  27.027  23.489  1.00  0.00     0.410 C 
ATOM     15  O   UNL A   1      34.068  27.937  23.409  1.00  0.00    -0.224 OA
BRANCH  14  16
ATOM     16  O   UNL A   1      31.967  27.174  23.901  1.00  0.00    -0.444 OA
BRANCH  16  17
ATOM     17  C   UNL A   1      31.723  27.652  25.255  1.00  0.00     0.106 C 
ATOM     18  C   UNL A   1      30.574  26.785  25.787  1.00  0.00     0.056 C 
ATOM     19  C   UNL A   1      31.286  29.118  25.224  1.00  0.00     0.056 C 
ATOM     20  C   UNL A   1      32.927  27.441  26.197  1.00  0.00     0.056 C 
ENDBRANCH  16  17
ENDBRANCH  14  16
ENDBRANCH   8  14
BRANCH  12  21
ATOM     21  C   UNL A   1      33.171  21.981  24.148  1.00  0.00     0.301 C 
BRANCH  21  22
ATOM     22  C   UNL A   1      33.185  20.470  24.047  1.00  0.00     0.025 A 
ATOM     23  C   UNL A   1      32.314  19.724  23.256  1.00  0.00     0.014 A 
ATOM     24  C   UNL A   1      34.174  19.723  24.677  1.00  0.00     0.122 A 
ATOM     25  C   UNL A   1      32.272  18.333  23.357  1.00  0.00     0.041 A 
ATOM     26  N   UNL A   1      34.193  18.375  24.789  1.00  0.00    -0.244 NA
ATOM     27  C   UNL A   1      33.199  17.717  24.170  1.00  0.00     0.129 A 
ATOM     28  Cl  UNL A   1      33.172  16.026  24.430  1.00  0.00    -0.062 Cl
ENDBRANCH  21  22
ENDBRANCH  12  21
ENDBRANCH   5   7
ENDBRANCH   4   5
ENDBRANCH   3   4
ENDBRANCH   2   3
ENDBRANCH   1   2
BRANCH   1  29
ATOM     29  C   UNL A   1      40.572  25.651  26.878  1.00  0.00     0.202 C 
BRANCH  29  30
ATOM     30  C   UNL A   1      40.491  25.671  28.410  1.00  0.00     0.261 C 
BRANCH  30  31
ATOM     31  O   UNL A   1      41.466  26.424  29.104  1.00  0.00    -0.460 OA
BRANCH  31  32
ATOM     32  C   UNL A   1      42.719  25.939  29.016  1.00  0.00     0.338 C 
ATOM     33  O   UNL A   1      43.081  24.774  29.030  1.00  0.00    -0.246 OA
BRANCH  32  34
ATOM     34  C   UNL A   1      43.572  27.100  28.761  1.00  0.00     0.060 A 
ATOM     35  C   UNL A   1      43.605  27.617  27.465  1.00  0.00     0.016 A 
ATOM     36  C   UNL A   1      44.288  27.694  29.807  1.00  0.00     0.016 A 
ATOM     37  C   UNL A   1      44.403  28.719  27.197  1.00  0.00     0.010 A 
ATOM     38  C   UNL A   1      45.087  28.801  29.536  1.00  0.00     0.010 A 
ATOM     39  C   UNL A   1      45.171  29.292  28.223  1.00  0.00    -0.014 A 
BRANCH  39  40
ATOM     40  C   UNL A   1      46.171  30.319  27.877  1.00  0.00     0.031 A 
ATOM     41  C   UNL A   1      47.537  29.874  27.445  1.00  0.00     0.074 A 
ATOM     42  C   UNL A   1      45.845  31.621  27.919  1.00  0.00     0.049 A 
ATOM     43  N   UNL A   1      48.547  30.592  27.036  1.00  0.00    -0.248 NA
ATOM     44  C   UNL A   1      47.798  28.425  27.484  1.00  0.00     0.031 C 
ATOM     45  C   UNL A   1      44.542  32.150  28.324  1.00  0.00     0.029 A 
ATOM     46  N   UNL A   1      46.585  32.732  27.617  1.00  0.00    -0.354 N 
ATOM     47  C   UNL A   1      49.565  29.685  26.768  1.00  0.00     0.074 A 
ATOM     48  C   UNL A   1      49.063  28.370  27.098  1.00  0.00     0.031 C 
ATOM     49  C   UNL A   1      44.578  33.491  28.249  1.00  0.00     0.029 A 
ATOM     50  C   UNL A   1      45.907  33.910  27.810  1.00  0.00     0.049 A 
ATOM     51  H   UNL A   1      47.513  32.690  27.292  1.00  0.00     0.167 HD
ATOM     52  C   UNL A   1      50.806  29.930  26.283  1.00  0.00     0.031 A 
ATOM     53  C   UNL A   1      46.320  35.182  27.659  1.00  0.00     0.031 A 
ATOM     54  C   UNL A   1      51.300  31.247  25.991  1.00  0.00     0.049 A 
ATOM     55  C   UNL A   1      47.711  35.438  27.150  1.00  0.00     0.074 A 
ATOM     56  C   UNL A   1      52.528  31.614  25.474  1.00  0.00     0.029 A 
ATOM     57  N   UNL A   1      50.590  32.420  26.212  1.00  0.00    -0.354 N 
ATOM     58  N   UNL A   1      48.645  34.569  26.839  1.00  0.00    -0.248 NA
ATOM     59  C   UNL A   1      48.101  36.840  26.957  1.00  0.00     0.031 C 
ATOM     60  C   UNL A   1      52.582  33.013  25.435  1.00  0.00     0.029 A 
ATOM     61  C   UNL A   1      51.365  33.516  25.873  1.00  0.00     0.049 A 
ATOM     62  H   UNL A   1      49.669  32.467  26.560  1.00  0.00     0.167 HD
ATOM     63  C   UNL A   1      49.730  35.317  26.399  1.00  0.00     0.074 A 
ATOM     64  C   UNL A   1      49.329  36.709  26.469  1.00  0.00     0.031 C 
ATOM     65  C   UNL A   1      50.946  34.893  25.972  1.00  0.00     0.031 A 
BRANCH  52  66
ATOM     66  C   UNL A   1      51.712  28.741  26.098  1.00  0.00    -0.014 A 
ATOM     67  C   UNL A   1      51.736  28.019  24.890  1.00  0.00     0.010 A 
ATOM     68  C   UNL A   1      52.529  28.320  27.162  1.00  0.00     0.010 A 
ATOM     69  C   UNL A   1      52.511  26.862  24.773  1.00  0.00     0.020 A 
ATOM     70  C   UNL A   1      53.328  27.180  27.038  1.00  0.00     0.020 A 
ATOM     71  C   UNL A   1      53.293  26.443  25.854  1.00  0.00     0.054 A 
BRANCH  71  72
ATOM     72  S   UNL A   1      54.269  24.923  25.688  1.00  0.00     0.124 S 
ATOM     73  O   UNL A   1      55.123  25.238  24.546  1.00  0.00    -0.237 OA
ATOM     74  O   UNL A   1      54.951  24.834  26.976  1.00  0.00    -0.237 OA
ATOM     75  O   UNL A   1      53.263  23.890  25.447  1.00  0.00    -0.744 OA
ENDBRANCH  71  72
ENDBRANCH  52  66
BRANCH  53  76
ATOM     76  C   UNL A   1      45.390  36.290  28.004  1.00  0.00    -0.014 A 
ATOM     77  C   UNL A   1      45.353  36.827  29.301  1.00  0.00     0.010 A 
ATOM     78  C   UNL A   1      44.594  36.870  26.998  1.00  0.00     0.010 A 
ATOM     79  C   UNL A   1      44.547  37.936  29.583  1.00  0.00     0.020 A 
ATOM     80  C   UNL A   1      43.805  37.991  27.270  1.00  0.00     0.020 A 
ATOM     81  C   UNL A   1      43.787  38.517  28.562  1.00  0.00     0.054 A 
BRANCH  81  82
ATOM     82  S   UNL A   1      42.840  40.023  28.922  1.00  0.00     0.124 S 
ATOM     83  O   UNL A   1      43.003  40.147  30.368  1.00  0.00    -0.237 OA
ATOM     84  O   UNL A   1      43.529  41.029  28.118  1.00  0.00    -0.237 OA
ATOM     85  O   UNL A   1      41.491  39.695  28.469  1.00  0.00    -0.744 OA
ENDBRANCH  81  82
ENDBRANCH  53  76
BRANCH  65  86
ATOM     86  C   UNL A   1      51.930  35.948  25.543  1.00  0.00    -0.014 A 
ATOM     87  C   UNL A   1      52.752  36.599  26.479  1.00  0.00     0.010 A 
ATOM     88  C   UNL A   1      52.074  36.247  24.176  1.00  0.00     0.010 A 
ATOM     89  C   UNL A   1      53.681  37.553  26.058  1.00  0.00     0.020 A 
ATOM     90  C   UNL A   1      53.020  37.181  23.749  1.00  0.00     0.020 A 
ATOM     91  C   UNL A   1      53.808  37.839  24.694  1.00  0.00     0.054 A 
BRANCH  91  92
ATOM     92  S   UNL A   1      55.052  39.051  24.168  1.00  0.00     0.124 S 
ATOM     93  O   UNL A   1      56.177  38.728  25.042  1.00  0.00    -0.237 OA
ATOM     94  O   UNL A   1      55.239  38.728  22.756  1.00  0.00    -0.237 OA
ATOM     95  O   UNL A   1      54.411  40.337  24.427  1.00  0.00    -0.744 OA
ENDBRANCH  91  92
ENDBRANCH  65  86
ENDBRANCH  39  40
ENDBRANCH  32  34
ENDBRANCH  31  32
ENDBRANCH  30  31
ENDBRANCH  29  30
ENDBRANCH   1  29
TORSDOF 22
ENDMDL
MODEL 3
REMARK VINA RESULT:      -8.6      3.414      5.070
REMARK SMILES CC(C)(C)OC(=O)N1CC[N@H+](Cc2ccc(Cl)nc2)[C@H](C(=O)OCCOCCOC(=O)c2ccc(-c3c4nc(c(-c5ccc(S(=O)(=O)[O-])cc5)c5ccc([nH]5)c(-c5ccc(S(=O)(=O)[O-])cc5)c5nc(c(-c6ccc(S(=O)(=O)[O-])cc6)c6ccc3[nH]6)C=C5)C=C4)cc2)C1
REMARK SMILES IDX 26 1 25 2 24 3 23 4 21 5 22 6 20 7 8 8 9 9 92 10 10 11 11 12
REMARK SMILES IDX 6 14 7 15 5 16 2 17 1 18 3 19 4 20 12 21 13 22 14 23 19 24
REMARK SMILES IDX 15 25 18 26 16 27 17 28 27 29 28 30 29 31 30 32 31 33 32 34
REMARK SMILES IDX 33 35 91 36 34 37 90 38 35 39 36 40 37 41 84 42 38 43 89 44
REMARK SMILES IDX 83 45 85 46 39 47 88 48 82 49 81 50 40 52 70 53 51 54 69 55
REMARK SMILES IDX 52 56 55 57 68 58 86 59 53 60 54 61 67 63 87 64 56 65 41 66
REMARK SMILES IDX 42 67 50 68 43 69 49 70 44 71 45 72 46 73 47 74 48 75 71 76
REMARK SMILES IDX 72 77 80 78 73 79 79 80 74 81 75 82 76 83 77 84 78 85 57 86
REMARK SMILES IDX 58 87 66 88 59 89 65 90 60 91 61 92 62 93 63 94 64 95
REMARK H PARENT 11 13 85 51 55 62
REMARK Flexibility Score: inf
ROOT
ATOM      1  O   UNL A   1      37.144  23.466  25.908  1.00  0.00    -0.374 OA
ENDROOT
BRANCH   1   2
ATOM      2  C   UNL A   1      37.113  23.469  24.488  1.00  0.00     0.202 C 
BRANCH   2   3
ATOM      3  C   UNL A   1      35.854  22.972  23.776  1.00  0.00     0.261 C 
BRANCH   3   4
ATOM      4  O   UNL A   1      35.099  23.990  23.079  1.00  0.00    -0.459 OA
BRANCH   4   5
ATOM      5  C   UNL A   1      33.817  23.652  22.767  1.00  0.00     0.366 C 
ATOM      6  O   UNL A   1      33.490  23.122  21.707  1.00  0.00    -0.245 OA
BRANCH   5   7
ATOM      7  C   UNL A   1      32.786  24.101  23.808  1.00  0.00     0.315 C 
ATOM      8  N   UNL A   1      31.948  25.648  25.563  1.00  0.00    -0.296 N 
ATOM      9  C   UNL A   1      30.890  24.694  25.870  1.00  0.00     0.184 C 
ATOM     10  C   UNL A   1      33.144  25.208  24.808  1.00  0.00     0.200 C 
ATOM     11  C   UNL A   1      30.792  23.446  24.975  1.00  0.00     0.285 C 
ATOM     12  N   UNL A   1      32.053  22.957  24.428  1.00  0.00    -0.316 N 
ATOM     13  H   UNL A   1      31.879  22.317  23.653  1.00  0.00     0.349 HD
BRANCH   8  14
ATOM     14  C   UNL A   1      31.906  26.817  26.298  1.00  0.00     0.410 C 
ATOM     15  O   UNL A   1      31.081  26.998  27.188  1.00  0.00    -0.224 OA
BRANCH  14  16
ATOM     16  O   UNL A   1      32.734  27.770  25.805  1.00  0.00    -0.444 OA
BRANCH  16  17
ATOM     17  C   UNL A   1      32.171  28.795  24.937  1.00  0.00     0.106 C 
ATOM     18  C   UNL A   1      30.873  28.189  24.386  1.00  0.00     0.056 C 
ATOM     19  C   UNL A   1      33.130  29.089  23.781  1.00  0.00     0.056 C 
ATOM     20  C   UNL A   1      31.787  30.084  25.693  1.00  0.00     0.056 C 
ENDBRANCH  16  17
ENDBRANCH  14  16
ENDBRANCH   8  14
BRANCH  12  21
ATOM     21  C   UNL A   1      32.763  21.922  25.198  1.00  0.00     0.301 C 
BRANCH  21  22
ATOM     22  C   UNL A   1      33.064  20.574  24.578  1.00  0.00     0.025 A 
ATOM     23  C   UNL A   1      32.296  19.976  23.581  1.00  0.00     0.014 A 
ATOM     24  C   UNL A   1      34.224  19.882  24.904  1.00  0.00     0.122 A 
ATOM     25  C   UNL A   1      32.533  18.656  23.193  1.00  0.00     0.041 A 
ATOM     26  N   UNL A   1      34.513  18.611  24.541  1.00  0.00    -0.244 NA
ATOM     27  C   UNL A   1      33.622  18.010  23.736  1.00  0.00     0.129 A 
ATOM     28  Cl  UNL A   1      33.945  16.365  23.392  1.00  0.00    -0.062 Cl
ENDBRANCH  21  22
ENDBRANCH  12  21
ENDBRANCH   5   7
ENDBRANCH   4   5
ENDBRANCH   3   4
ENDBRANCH   2   3
ENDBRANCH   1   2
BRANCH   1  29
ATOM     29  C   UNL A   1      38.366  23.689  26.586  1.00  0.00     0.202 C 
BRANCH  29  30
ATOM     30  C   UNL A   1      39.020  25.076  26.566  1.00  0.00     0.261 C 
BRANCH  30  31
ATOM     31  O   UNL A   1      40.075  25.311  27.478  1.00  0.00    -0.460 OA
BRANCH  31  32
ATOM     32  C   UNL A   1      41.305  25.302  26.929  1.00  0.00     0.338 C 
ATOM     33  O   UNL A   1      41.790  24.475  26.175  1.00  0.00    -0.246 OA
BRANCH  32  34
ATOM     34  C   UNL A   1      41.917  26.573  27.316  1.00  0.00     0.060 A 
ATOM     35  C   UNL A   1      42.789  26.575  28.407  1.00  0.00     0.016 A 
ATOM     36  C   UNL A   1      41.666  27.733  26.575  1.00  0.00     0.016 A 
ATOM     37  C   UNL A   1      43.385  27.766  28.793  1.00  0.00     0.010 A 
ATOM     38  C   UNL A   1      42.267  28.926  26.964  1.00  0.00     0.010 A 
ATOM     39  C   UNL A   1      43.099  28.949  28.094  1.00  0.00    -0.014 A 
BRANCH  39  40
ATOM     40  C   UNL A   1      43.567  30.234  28.646  1.00  0.00     0.031 A 
ATOM     41  C   UNL A   1      42.652  31.002  29.554  1.00  0.00     0.074 A 
ATOM     42  C   UNL A   1      44.801  30.682  28.362  1.00  0.00     0.049 A 
ATOM     43  N   UNL A   1      42.875  32.114  30.200  1.00  0.00    -0.248 NA
ATOM     44  C   UNL A   1      41.306  30.440  29.755  1.00  0.00     0.031 C 
ATOM     45  C   UNL A   1      45.763  30.006  27.491  1.00  0.00     0.029 A 
ATOM     46  N   UNL A   1      45.453  31.812  28.777  1.00  0.00    -0.354 N 
ATOM     47  C   UNL A   1      41.697  32.388  30.886  1.00  0.00     0.074 A 
ATOM     48  C   UNL A   1      40.753  31.347  30.546  1.00  0.00     0.031 C 
ATOM     49  C   UNL A   1      46.886  30.740  27.434  1.00  0.00     0.029 A 
ATOM     50  C   UNL A   1      46.713  31.943  28.247  1.00  0.00     0.049 A 
ATOM     51  H   UNL A   1      45.057  32.467  29.395  1.00  0.00     0.167 HD
ATOM     52  C   UNL A   1      41.433  33.414  31.730  1.00  0.00     0.031 A 
ATOM     53  C   UNL A   1      47.616  32.929  28.394  1.00  0.00     0.031 A 
ATOM     54  C   UNL A   1      42.373  34.458  32.031  1.00  0.00     0.049 A 
ATOM     55  C   UNL A   1      47.296  34.078  29.309  1.00  0.00     0.074 A 
ATOM     56  C   UNL A   1      42.226  35.532  32.888  1.00  0.00     0.029 A 
ATOM     57  N   UNL A   1      43.636  34.566  31.464  1.00  0.00    -0.354 N 
ATOM     58  N   UNL A   1      46.202  34.294  30.003  1.00  0.00    -0.248 NA
ATOM     59  C   UNL A   1      48.330  35.105  29.474  1.00  0.00     0.031 C 
ATOM     60  C   UNL A   1      43.378  36.322  32.797  1.00  0.00     0.029 A 
ATOM     61  C   UNL A   1      44.269  35.707  31.928  1.00  0.00     0.049 A 
ATOM     62  H   UNL A   1      44.027  33.925  30.826  1.00  0.00     0.167 HD
ATOM     63  C   UNL A   1      46.421  35.476  30.700  1.00  0.00     0.074 A 
ATOM     64  C   UNL A   1      47.759  35.918  30.355  1.00  0.00     0.031 C 
ATOM     65  C   UNL A   1      45.594  36.134  31.551  1.00  0.00     0.031 A 
BRANCH  52  66
ATOM     66  C   UNL A   1      40.053  33.464  32.330  1.00  0.00    -0.014 A 
ATOM     67  C   UNL A   1      39.017  34.200  31.725  1.00  0.00     0.010 A 
ATOM     68  C   UNL A   1      39.797  32.791  33.538  1.00  0.00     0.010 A 
ATOM     69  C   UNL A   1      37.771  34.313  32.349  1.00  0.00     0.020 A 
ATOM     70  C   UNL A   1      38.544  32.878  34.150  1.00  0.00     0.020 A 
ATOM     71  C   UNL A   1      37.548  33.662  33.566  1.00  0.00     0.054 A 
BRANCH  71  72
ATOM     72  S   UNL A   1      35.933  33.846  34.371  1.00  0.00     0.124 S 
ATOM     73  O   UNL A   1      35.564  35.209  33.995  1.00  0.00    -0.237 OA
ATOM     74  O   UNL A   1      35.139  32.788  33.752  1.00  0.00    -0.237 OA
ATOM     75  O   UNL A   1      36.228  33.650  35.789  1.00  0.00    -0.744 OA
ENDBRANCH  71  72
ENDBRANCH  52  66
BRANCH  53  76
ATOM     76  C   UNL A   1      48.899  32.853  27.644  1.00  0.00    -0.014 A 
ATOM     77  C   UNL A   1      49.047  33.480  26.397  1.00  0.00     0.010 A 
ATOM     78  C   UNL A   1      50.010  32.216  28.229  1.00  0.00     0.010 A 
ATOM     79  C   UNL A   1      50.289  33.484  25.752  1.00  0.00     0.020 A 
ATOM     80  C   UNL A   1      51.258  32.238  27.599  1.00  0.00     0.020 A 
ATOM     81  C   UNL A   1      51.389  32.874  26.364  1.00  0.00     0.054 A 
BRANCH  81  82
ATOM     82  S   UNL A   1      53.015  32.993  25.566  1.00  0.00     0.124 S 
ATOM     83  O   UNL A   1      53.922  32.778  26.689  1.00  0.00    -0.237 OA
ATOM     84  O   UNL A   1      52.962  31.919  24.578  1.00  0.00    -0.237 OA
ATOM     85  O   UNL A   1      53.021  34.342  25.005  1.00  0.00    -0.744 OA
ENDBRANCH  81  82
ENDBRANCH  53  76
BRANCH  65  86
ATOM     86  C   UNL A   1      46.116  37.402  32.172  1.00  0.00    -0.014 A 
ATOM     87  C   UNL A   1      46.840  37.376  33.376  1.00  0.00     0.010 A 
ATOM     88  C   UNL A   1      45.926  38.628  31.510  1.00  0.00     0.010 A 
ATOM     89  C   UNL A   1      47.343  38.559  33.922  1.00  0.00     0.020 A 
ATOM     90  C   UNL A   1      46.450  39.810  32.039  1.00  0.00     0.020 A 
ATOM     91  C   UNL A   1      47.143  39.770  33.250  1.00  0.00     0.054 A 
BRANCH  91  92
ATOM     92  S   UNL A   1      47.842  41.287  33.957  1.00  0.00     0.124 S 
ATOM     93  O   UNL A   1      46.659  42.135  34.084  1.00  0.00    -0.237 OA
ATOM     94  O   UNL A   1      48.419  40.821  35.216  1.00  0.00    -0.237 OA
ATOM     95  O   UNL A   1      48.813  41.719  32.955  1.00  0.00    -0.744 OA
ENDBRANCH  91  92
ENDBRANCH  65  86
ENDBRANCH  39  40
ENDBRANCH  32  34
ENDBRANCH  31  32
ENDBRANCH  30  31
ENDBRANCH  29  30
ENDBRANCH   1  29
TORSDOF 22
ENDMDL
