MODEL 1
REMARK VINA RESULT:     -10.8      0.000      0.000
REMARK SMILES CC1(C)CCC[C@@H]1NC(=O)CC1(C(=O)OCCOCCOC(=O)c2ccc(-c3c4nc(c(-c5ccc(S(=O)(=O)[O-])cc5)c5ccc([nH]5)c(-c5ccc(S(=O)(=O)[O-])cc5)c5nc(c(-c6ccc(S(=O)(=O)[O-])cc6)c6ccc3[nH]6)C=C5)C=C4)cc2)CCCCC1
REMARK SMILES IDX 18 1 17 2 16 3 15 4 13 5 14 6 12 7 84 8 88 9 85 10 87 11
REMARK SMILES IDX 86 12 11 13 9 14 8 15 10 17 7 18 1 19 2 20 3 21 4 22 5 23
REMARK SMILES IDX 6 24 19 25 20 26 21 27 22 28 23 29 24 30 25 31 83 32 26 33
REMARK SMILES IDX 82 34 27 35 28 36 29 37 76 38 30 39 81 40 75 41 77 42 31 43
REMARK SMILES IDX 80 44 74 45 73 46 32 48 62 49 43 50 61 51 44 52 47 53 60 54
REMARK SMILES IDX 78 55 45 56 46 57 59 59 79 60 48 61 33 62 34 63 42 64 35 65
REMARK SMILES IDX 41 66 36 67 37 68 38 69 39 70 40 71 63 72 64 73 72 74 65 75
REMARK SMILES IDX 71 76 66 77 67 78 68 79 69 80 70 81 49 82 50 83 58 84 51 85
REMARK SMILES IDX 57 86 52 87 53 88 54 89 55 90 56 91
REMARK H PARENT 8 16 77 47 47 58
REMARK Flexibility Score: inf
ROOT
ATOM      1  O   UNL A   1      38.222  22.215  25.908  1.00  0.00    -0.374 OA
ENDROOT
BRANCH   1   2
ATOM      2  C   UNL A   1      37.451  21.454  24.976  1.00  0.00     0.202 C 
BRANCH   2   3
ATOM      3  C   UNL A   1      36.046  21.064  25.446  1.00  0.00     0.261 C 
BRANCH   3   4
ATOM      4  O   UNL A   1      35.304  22.190  25.946  1.00  0.00    -0.463 OA
BRANCH   4   5
ATOM      5  C   UNL A   1      33.955  22.051  26.019  1.00  0.00     0.312 C 
ATOM      6  O   UNL A   1      33.386  21.125  26.589  1.00  0.00    -0.252 OA
BRANCH   5   7
ATOM      7  C   UNL A   1      33.189  23.205  25.343  1.00  0.00     0.077 C 
ATOM      8  C   UNL A   1      32.096  22.555  24.464  1.00  0.00     0.019 C 
ATOM      9  C   UNL A   1      34.082  24.118  24.482  1.00  0.00     0.019 C 
ATOM     10  C   UNL A   1      32.676  21.900  23.205  1.00  0.00     0.001 C 
ATOM     11  C   UNL A   1      34.565  23.548  23.152  1.00  0.00     0.001 C 
ATOM     12  C   UNL A   1      33.434  22.913  22.359  1.00  0.00     0.000 C 
BRANCH   7  13
ATOM     13  C   UNL A   1      32.583  24.014  26.533  1.00  0.00     0.118 C 
BRANCH  13  14
ATOM     14  C   UNL A   1      31.081  23.913  26.734  1.00  0.00     0.221 C 
ATOM     15  N   UNL A   1      30.244  24.955  26.453  1.00  0.00    -0.353 N 
ATOM     16  H   UNL A   1      29.313  24.799  26.729  1.00  0.00     0.163 HD
ATOM     17  O   UNL A   1      30.577  22.880  27.180  1.00  0.00    -0.275 OA
BRANCH  15  18
ATOM     18  C   UNL A   1      30.461  26.255  25.820  1.00  0.00     0.087 C 
ATOM     19  C   UNL A   1      28.556  26.433  24.107  1.00  0.00     0.013 C 
ATOM     20  C   UNL A   1      30.067  26.310  24.316  1.00  0.00    -0.015 C 
ATOM     21  C   UNL A   1      30.590  25.113  23.495  1.00  0.00     0.013 C 
ATOM     22  C   UNL A   1      30.784  27.594  23.859  1.00  0.00     0.008 C 
ATOM     23  C   UNL A   1      32.110  27.611  24.611  1.00  0.00     0.003 C 
ATOM     24  C   UNL A   1      31.949  26.642  25.779  1.00  0.00     0.025 C 
ENDBRANCH  15  18
ENDBRANCH  13  14
ENDBRANCH   7  13
ENDBRANCH   5   7
ENDBRANCH   4   5
ENDBRANCH   3   4
ENDBRANCH   2   3
ENDBRANCH   1   2
BRANCH   1  25
ATOM     25  C   UNL A   1      39.560  21.782  26.154  1.00  0.00     0.202 C 
BRANCH  25  26
ATOM     26  C   UNL A   1      40.581  22.903  26.331  1.00  0.00     0.261 C 
BRANCH  26  27
ATOM     27  O   UNL A   1      39.914  24.153  26.565  1.00  0.00    -0.460 OA
BRANCH  27  28
ATOM     28  C   UNL A   1      40.713  25.227  26.386  1.00  0.00     0.338 C 
ATOM     29  O   UNL A   1      41.237  25.586  25.343  1.00  0.00    -0.246 OA
BRANCH  28  30
ATOM     30  C   UNL A   1      40.775  25.997  27.636  1.00  0.00     0.060 A 
ATOM     31  C   UNL A   1      39.721  25.884  28.549  1.00  0.00     0.016 A 
ATOM     32  C   UNL A   1      41.805  26.916  27.842  1.00  0.00     0.016 A 
ATOM     33  C   UNL A   1      39.670  26.735  29.654  1.00  0.00     0.010 A 
ATOM     34  C   UNL A   1      41.757  27.758  28.959  1.00  0.00     0.010 A 
ATOM     35  C   UNL A   1      40.671  27.699  29.851  1.00  0.00    -0.014 A 
BRANCH  35  36
ATOM     36  C   UNL A   1      40.522  28.715  30.923  1.00  0.00     0.031 A 
ATOM     37  C   UNL A   1      41.396  28.636  32.148  1.00  0.00     0.074 A 
ATOM     38  C   UNL A   1      39.625  29.709  30.801  1.00  0.00     0.049 A 
ATOM     39  N   UNL A   1      41.434  29.429  33.188  1.00  0.00    -0.248 NA
ATOM     40  C   UNL A   1      42.353  27.519  32.209  1.00  0.00     0.031 C 
ATOM     41  C   UNL A   1      38.729  29.904  29.661  1.00  0.00     0.029 A 
ATOM     42  N   UNL A   1      39.316  30.742  31.651  1.00  0.00    -0.354 N 
ATOM     43  C   UNL A   1      42.411  28.907  34.028  1.00  0.00     0.074 A 
ATOM     44  C   UNL A   1      42.924  27.714  33.389  1.00  0.00     0.031 C 
ATOM     45  C   UNL A   1      37.969  30.990  29.885  1.00  0.00     0.029 A 
ATOM     46  C   UNL A   1      38.306  31.552  31.191  1.00  0.00     0.049 A 
ATOM     47  H   UNL A   1      39.777  30.889  32.509  1.00  0.00     0.167 HD
ATOM     48  C   UNL A   1      42.847  29.379  35.221  1.00  0.00     0.031 A 
ATOM     49  C   UNL A   1      37.709  32.618  31.762  1.00  0.00     0.031 A 
ATOM     50  C   UNL A   1      42.332  30.559  35.863  1.00  0.00     0.049 A 
ATOM     51  C   UNL A   1      38.177  33.096  33.109  1.00  0.00     0.074 A 
ATOM     52  C   UNL A   1      42.738  31.137  37.054  1.00  0.00     0.029 A 
ATOM     53  N   UNL A   1      41.293  31.336  35.375  1.00  0.00    -0.354 N 
ATOM     54  N   UNL A   1      39.140  32.620  33.862  1.00  0.00    -0.248 NA
ATOM     55  C   UNL A   1      37.485  34.261  33.680  1.00  0.00     0.031 C 
ATOM     56  C   UNL A   1      41.908  32.234  37.312  1.00  0.00     0.029 A 
ATOM     57  C   UNL A   1      41.021  32.369  36.256  1.00  0.00     0.049 A 
ATOM     58  H   UNL A   1      40.819  31.176  34.527  1.00  0.00     0.167 HD
ATOM     59  C   UNL A   1      39.180  33.439  34.987  1.00  0.00     0.074 A 
ATOM     60  C   UNL A   1      38.156  34.447  34.809  1.00  0.00     0.031 C 
ATOM     61  C   UNL A   1      39.994  33.361  36.069  1.00  0.00     0.031 A 
BRANCH  48  62
ATOM     62  C   UNL A   1      43.925  28.600  35.926  1.00  0.00    -0.014 A 
ATOM     63  C   UNL A   1      45.282  28.936  35.775  1.00  0.00     0.010 A 
ATOM     64  C   UNL A   1      43.572  27.543  36.786  1.00  0.00     0.010 A 
ATOM     65  C   UNL A   1      46.270  28.207  36.445  1.00  0.00     0.020 A 
ATOM     66  C   UNL A   1      44.554  26.825  37.473  1.00  0.00     0.020 A 
ATOM     67  C   UNL A   1      45.899  27.152  37.285  1.00  0.00     0.054 A 
BRANCH  67  68
ATOM     68  S   UNL A   1      47.198  26.233  38.156  1.00  0.00     0.124 S 
ATOM     69  O   UNL A   1      47.608  27.191  39.180  1.00  0.00    -0.237 OA
ATOM     70  O   UNL A   1      46.487  25.056  38.647  1.00  0.00    -0.237 OA
ATOM     71  O   UNL A   1      48.191  25.969  37.118  1.00  0.00    -0.744 OA
ENDBRANCH  67  68
ENDBRANCH  48  62
BRANCH  49  72
ATOM     72  C   UNL A   1      36.585  33.296  31.062  1.00  0.00    -0.014 A 
ATOM     73  C   UNL A   1      35.265  33.166  31.527  1.00  0.00     0.010 A 
ATOM     74  C   UNL A   1      36.837  34.091  29.928  1.00  0.00     0.010 A 
ATOM     75  C   UNL A   1      34.215  33.809  30.865  1.00  0.00     0.020 A 
ATOM     76  C   UNL A   1      35.794  34.754  29.278  1.00  0.00     0.020 A 
ATOM     77  C   UNL A   1      34.488  34.602  29.745  1.00  0.00     0.054 A 
BRANCH  77  78
ATOM     78  S   UNL A   1      33.121  35.482  28.938  1.00  0.00     0.124 S 
ATOM     79  O   UNL A   1      33.831  36.457  28.117  1.00  0.00    -0.237 OA
ATOM     80  O   UNL A   1      32.442  34.415  28.208  1.00  0.00    -0.237 OA
ATOM     81  O   UNL A   1      32.366  36.037  30.059  1.00  0.00    -0.744 OA
ENDBRANCH  77  78
ENDBRANCH  49  72
BRANCH  61  82
ATOM     82  C   UNL A   1      39.823  34.404  37.141  1.00  0.00    -0.014 A 
ATOM     83  C   UNL A   1      39.043  34.149  38.283  1.00  0.00     0.010 A 
ATOM     84  C   UNL A   1      40.500  35.633  37.032  1.00  0.00     0.010 A 
ATOM     85  C   UNL A   1      38.924  35.114  39.286  1.00  0.00     0.020 A 
ATOM     86  C   UNL A   1      40.399  36.592  38.043  1.00  0.00     0.020 A 
ATOM     87  C   UNL A   1      39.601  36.330  39.159  1.00  0.00     0.054 A 
BRANCH  87  88
ATOM     88  S   UNL A   1      39.469  37.550  40.495  1.00  0.00     0.124 S 
ATOM     89  O   UNL A   1      38.619  38.572  39.891  1.00  0.00    -0.237 OA
ATOM     90  O   UNL A   1      38.855  36.781  41.576  1.00  0.00    -0.237 OA
ATOM     91  O   UNL A   1      40.853  37.952  40.734  1.00  0.00    -0.744 OA
ENDBRANCH  87  88
ENDBRANCH  61  82
ENDBRANCH  35  36
ENDBRANCH  28  30
ENDBRANCH  27  28
ENDBRANCH  26  27
ENDBRANCH  25  26
ENDBRANCH   1  25
TORSDOF 20
ENDMDL
MODEL 2
REMARK VINA RESULT:     -10.8      6.451     11.918
REMARK SMILES CC1(C)CCC[C@@H]1NC(=O)CC1(C(=O)OCCOCCOC(=O)c2ccc(-c3c4nc(c(-c5ccc(S(=O)(=O)[O-])cc5)c5ccc([nH]5)c(-c5ccc(S(=O)(=O)[O-])cc5)c5nc(c(-c6ccc(S(=O)(=O)[O-])cc6)c6ccc3[nH]6)C=C5)C=C4)cc2)CCCCC1
REMARK SMILES IDX 18 1 17 2 16 3 15 4 13 5 14 6 12 7 84 8 88 9 85 10 87 11
REMARK SMILES IDX 86 12 11 13 9 14 8 15 10 17 7 18 1 19 2 20 3 21 4 22 5 23
REMARK SMILES IDX 6 24 19 25 20 26 21 27 22 28 23 29 24 30 25 31 83 32 26 33
REMARK SMILES IDX 82 34 27 35 28 36 29 37 76 38 30 39 81 40 75 41 77 42 31 43
REMARK SMILES IDX 80 44 74 45 73 46 32 48 62 49 43 50 61 51 44 52 47 53 60 54
REMARK SMILES IDX 78 55 45 56 46 57 59 59 79 60 48 61 33 62 34 63 42 64 35 65
REMARK SMILES IDX 41 66 36 67 37 68 38 69 39 70 40 71 63 72 64 73 72 74 65 75
REMARK SMILES IDX 71 76 66 77 67 78 68 79 69 80 70 81 49 82 50 83 58 84 51 85
REMARK SMILES IDX 57 86 52 87 53 88 54 89 55 90 56 91
REMARK H PARENT 8 16 77 47 47 58
REMARK Flexibility Score: inf
ROOT
ATOM      1  O   UNL A   1      33.734  31.763  27.836  1.00  0.00    -0.374 OA
ENDROOT
BRANCH   1   2
ATOM      2  C   UNL A   1      33.610  30.610  27.002  1.00  0.00     0.202 C 
BRANCH   2   3
ATOM      3  C   UNL A   1      32.220  30.376  26.402  1.00  0.00     0.261 C 
BRANCH   3   4
ATOM      4  O   UNL A   1      31.852  28.985  26.401  1.00  0.00    -0.463 OA
BRANCH   4   5
ATOM      5  C   UNL A   1      31.491  28.448  25.206  1.00  0.00     0.312 C 
ATOM      6  O   UNL A   1      30.730  28.986  24.409  1.00  0.00    -0.252 OA
BRANCH   5   7
ATOM      7  C   UNL A   1      32.171  27.095  24.920  1.00  0.00     0.077 C 
ATOM      8  C   UNL A   1      33.635  27.408  24.533  1.00  0.00     0.019 C 
ATOM      9  C   UNL A   1      31.491  26.287  23.799  1.00  0.00     0.019 C 
ATOM     10  C   UNL A   1      33.746  28.018  23.130  1.00  0.00     0.001 C 
ATOM     11  C   UNL A   1      31.698  26.786  22.372  1.00  0.00     0.001 C 
ATOM     12  C   UNL A   1      33.159  27.087  22.079  1.00  0.00     0.000 C 
BRANCH   7  13
ATOM     13  C   UNL A   1      32.074  26.322  26.273  1.00  0.00     0.118 C 
BRANCH  13  14
ATOM     14  C   UNL A   1      31.402  24.960  26.236  1.00  0.00     0.221 C 
ATOM     15  N   UNL A   1      32.084  23.830  25.888  1.00  0.00    -0.353 N 
ATOM     16  H   UNL A   1      31.510  23.035  25.796  1.00  0.00     0.163 HD
ATOM     17  O   UNL A   1      30.204  24.845  26.503  1.00  0.00    -0.275 OA
BRANCH  15  18
ATOM     18  C   UNL A   1      33.498  23.568  25.627  1.00  0.00     0.087 C 
ATOM     19  C   UNL A   1      33.639  23.445  23.065  1.00  0.00     0.013 C 
ATOM     20  C   UNL A   1      33.765  22.674  24.381  1.00  0.00    -0.015 C 
ATOM     21  C   UNL A   1      32.868  21.420  24.315  1.00  0.00     0.013 C 
ATOM     22  C   UNL A   1      35.225  22.244  24.621  1.00  0.00     0.008 C 
ATOM     23  C   UNL A   1      35.346  22.034  26.125  1.00  0.00     0.003 C 
ATOM     24  C   UNL A   1      34.159  22.757  26.754  1.00  0.00     0.025 C 
ENDBRANCH  15  18
ENDBRANCH  13  14
ENDBRANCH   7  13
ENDBRANCH   5   7
ENDBRANCH   4   5
ENDBRANCH   3   4
ENDBRANCH   2   3
ENDBRANCH   1   2
BRANCH   1  25
ATOM     25  C   UNL A   1      34.990  31.968  28.483  1.00  0.00     0.202 C 
BRANCH  25  26
ATOM     26  C   UNL A   1      34.927  32.056  30.006  1.00  0.00     0.261 C 
BRANCH  26  27
ATOM     27  O   UNL A   1      36.236  31.884  30.571  1.00  0.00    -0.460 OA
BRANCH  27  28
ATOM     28  C   UNL A   1      36.622  30.592  30.644  1.00  0.00     0.338 C 
ATOM     29  O   UNL A   1      35.927  29.634  30.946  1.00  0.00    -0.246 OA
BRANCH  28  30
ATOM     30  C   UNL A   1      38.013  30.476  30.184  1.00  0.00     0.060 A 
ATOM     31  C   UNL A   1      38.255  30.255  28.824  1.00  0.00     0.016 A 
ATOM     32  C   UNL A   1      39.058  30.461  31.109  1.00  0.00     0.016 A 
ATOM     33  C   UNL A   1      39.550  29.966  28.391  1.00  0.00     0.010 A 
ATOM     34  C   UNL A   1      40.356  30.183  30.669  1.00  0.00     0.010 A 
ATOM     35  C   UNL A   1      40.605  29.897  29.314  1.00  0.00    -0.014 A 
BRANCH  35  36
ATOM     36  C   UNL A   1      41.941  29.416  28.879  1.00  0.00     0.031 A 
ATOM     37  C   UNL A   1      43.093  30.385  28.812  1.00  0.00     0.074 A 
ATOM     38  C   UNL A   1      42.130  28.123  28.561  1.00  0.00     0.049 A 
ATOM     39  N   UNL A   1      44.337  30.165  28.472  1.00  0.00    -0.248 NA
ATOM     40  C   UNL A   1      42.806  31.782  29.175  1.00  0.00     0.031 C 
ATOM     41  C   UNL A   1      41.101  27.084  28.597  1.00  0.00     0.029 A 
ATOM     42  N   UNL A   1      43.258  27.464  28.139  1.00  0.00    -0.354 N 
ATOM     43  C   UNL A   1      44.980  31.393  28.574  1.00  0.00     0.074 A 
ATOM     44  C   UNL A   1      43.984  32.360  28.982  1.00  0.00     0.031 C 
ATOM     45  C   UNL A   1      41.646  25.918  28.211  1.00  0.00     0.029 A 
ATOM     46  C   UNL A   1      43.052  26.132  27.876  1.00  0.00     0.049 A 
ATOM     47  H   UNL A   1      44.132  27.905  28.035  1.00  0.00     0.167 HD
ATOM     48  C   UNL A   1      46.284  31.691  28.355  1.00  0.00     0.031 A 
ATOM     49  C   UNL A   1      43.896  25.191  27.405  1.00  0.00     0.031 A 
ATOM     50  C   UNL A   1      47.275  30.734  27.939  1.00  0.00     0.049 A 
ATOM     51  C   UNL A   1      45.328  25.554  27.122  1.00  0.00     0.074 A 
ATOM     52  C   UNL A   1      48.629  30.934  27.727  1.00  0.00     0.029 A 
ATOM     53  N   UNL A   1      47.020  29.401  27.660  1.00  0.00    -0.354 N 
ATOM     54  N   UNL A   1      45.930  26.710  27.277  1.00  0.00    -0.248 NA
ATOM     55  C   UNL A   1      46.198  24.486  26.609  1.00  0.00     0.031 C 
ATOM     56  C   UNL A   1      49.181  29.732  27.271  1.00  0.00     0.029 A 
ATOM     57  C   UNL A   1      48.183  28.772  27.247  1.00  0.00     0.049 A 
ATOM     58  H   UNL A   1      46.141  28.965  27.744  1.00  0.00     0.167 HD
ATOM     59  C   UNL A   1      47.252  26.502  26.898  1.00  0.00     0.074 A 
ATOM     60  C   UNL A   1      47.366  25.109  26.520  1.00  0.00     0.031 C 
ATOM     61  C   UNL A   1      48.279  27.386  26.867  1.00  0.00     0.031 A 
BRANCH  48  62
ATOM     62  C   UNL A   1      46.712  33.122  28.536  1.00  0.00    -0.014 A 
ATOM     63  C   UNL A   1      47.182  33.589  29.776  1.00  0.00     0.010 A 
ATOM     64  C   UNL A   1      46.683  34.003  27.438  1.00  0.00     0.010 A 
ATOM     65  C   UNL A   1      47.584  34.920  29.924  1.00  0.00     0.020 A 
ATOM     66  C   UNL A   1      47.103  35.329  27.577  1.00  0.00     0.020 A 
ATOM     67  C   UNL A   1      47.535  35.783  28.824  1.00  0.00     0.054 A 
BRANCH  67  68
ATOM     68  S   UNL A   1      48.078  37.501  29.039  1.00  0.00     0.124 S 
ATOM     69  O   UNL A   1      49.470  37.327  29.447  1.00  0.00    -0.237 OA
ATOM     70  O   UNL A   1      47.881  38.070  27.709  1.00  0.00    -0.237 OA
ATOM     71  O   UNL A   1      47.186  38.019  30.073  1.00  0.00    -0.744 OA
ENDBRANCH  67  68
ENDBRANCH  48  62
BRANCH  49  72
ATOM     72  C   UNL A   1      43.398  23.811  27.156  1.00  0.00    -0.014 A 
ATOM     73  C   UNL A   1      43.099  22.951  28.227  1.00  0.00     0.010 A 
ATOM     74  C   UNL A   1      43.207  23.357  25.838  1.00  0.00     0.010 A 
ATOM     75  C   UNL A   1      42.629  21.657  27.984  1.00  0.00     0.020 A 
ATOM     76  C   UNL A   1      42.714  22.074  25.592  1.00  0.00     0.020 A 
ATOM     77  C   UNL A   1      42.436  21.228  26.667  1.00  0.00     0.054 A 
BRANCH  77  78
ATOM     78  S   UNL A   1      41.762  19.569  26.372  1.00  0.00     0.124 S 
ATOM     79  O   UNL A   1      42.393  19.205  25.108  1.00  0.00    -0.237 OA
ATOM     80  O   UNL A   1      42.219  18.827  27.544  1.00  0.00    -0.237 OA
ATOM     81  O   UNL A   1      40.319  19.794  26.312  1.00  0.00    -0.744 OA
ENDBRANCH  77  78
ENDBRANCH  49  72
BRANCH  61  82
ATOM     82  C   UNL A   1      49.623  26.873  26.424  1.00  0.00    -0.014 A 
ATOM     83  C   UNL A   1      50.532  26.328  27.347  1.00  0.00     0.010 A 
ATOM     84  C   UNL A   1      49.956  26.883  25.056  1.00  0.00     0.010 A 
ATOM     85  C   UNL A   1      51.761  25.823  26.915  1.00  0.00     0.020 A 
ATOM     86  C   UNL A   1      51.175  26.360  24.618  1.00  0.00     0.020 A 
ATOM     87  C   UNL A   1      52.076  25.844  25.553  1.00  0.00     0.054 A 
BRANCH  87  88
ATOM     88  S   UNL A   1      53.657  25.141  25.008  1.00  0.00     0.124 S 
ATOM     89  O   UNL A   1      53.725  25.588  23.620  1.00  0.00    -0.237 OA
ATOM     90  O   UNL A   1      54.618  25.764  25.916  1.00  0.00    -0.237 OA
ATOM     91  O   UNL A   1      53.477  23.703  25.192  1.00  0.00    -0.744 OA
ENDBRANCH  87  88
ENDBRANCH  61  82
ENDBRANCH  35  36
ENDBRANCH  28  30
ENDBRANCH  27  28
ENDBRANCH  26  27
ENDBRANCH  25  26
ENDBRANCH   1  25
TORSDOF 20
ENDMDL
MODEL 3
REMARK VINA RESULT:     -10.7      1.241      2.090
REMARK SMILES CC1(C)CCC[C@@H]1NC(=O)CC1(C(=O)OCCOCCOC(=O)c2ccc(-c3c4nc(c(-c5ccc(S(=O)(=O)[O-])cc5)c5ccc([nH]5)c(-c5ccc(S(=O)(=O)[O-])cc5)c5nc(c(-c6ccc(S(=O)(=O)[O-])cc6)c6ccc3[nH]6)C=C5)C=C4)cc2)CCCCC1
REMARK SMILES IDX 18 1 17 2 16 3 15 4 13 5 14 6 12 7 84 8 88 9 85 10 87 11
REMARK SMILES IDX 86 12 11 13 9 14 8 15 10 17 7 18 1 19 2 20 3 21 4 22 5 23
REMARK SMILES IDX 6 24 19 25 20 26 21 27 22 28 23 29 24 30 25 31 83 32 26 33
REMARK SMILES IDX 82 34 27 35 28 36 29 37 76 38 30 39 81 40 75 41 77 42 31 43
REMARK SMILES IDX 80 44 74 45 73 46 32 48 62 49 43 50 61 51 44 52 47 53 60 54
REMARK SMILES IDX 78 55 45 56 46 57 59 59 79 60 48 61 33 62 34 63 42 64 35 65
REMARK SMILES IDX 41 66 36 67 37 68 38 69 39 70 40 71 63 72 64 73 72 74 65 75
REMARK SMILES IDX 71 76 66 77 67 78 68 79 69 80 70 81 49 82 50 83 58 84 51 85
REMARK SMILES IDX 57 86 52 87 53 88 54 89 55 90 56 91
REMARK H PARENT 8 16 77 47 47 58
REMARK Flexibility Score: inf
ROOT
ATOM      1  O   UNL A   1      37.837  21.582  25.106  1.00  0.00    -0.374 OA
ENDROOT
BRANCH   1   2
ATOM      2  C   UNL A   1      36.638  22.008  24.458  1.00  0.00     0.202 C 
BRANCH   2   3
ATOM      3  C   UNL A   1      36.407  23.521  24.426  1.00  0.00     0.261 C 
BRANCH   3   4
ATOM      4  O   UNL A   1      35.010  23.861  24.361  1.00  0.00    -0.463 OA
BRANCH   4   5
ATOM      5  C   UNL A   1      34.328  23.442  23.263  1.00  0.00     0.312 C 
ATOM      6  O   UNL A   1      34.856  23.133  22.199  1.00  0.00    -0.252 OA
BRANCH   5   7
ATOM      7  C   UNL A   1      32.808  23.353  23.492  1.00  0.00     0.077 C 
ATOM      8  C   UNL A   1      32.590  23.358  25.023  1.00  0.00     0.019 C 
ATOM      9  C   UNL A   1      32.162  22.098  22.873  1.00  0.00     0.019 C 
ATOM     10  C   UNL A   1      32.996  22.029  25.671  1.00  0.00     0.001 C 
ATOM     11  C   UNL A   1      32.430  20.772  23.577  1.00  0.00     0.001 C 
ATOM     12  C   UNL A   1      32.211  20.867  25.078  1.00  0.00     0.000 C 
BRANCH   7  13
ATOM     13  C   UNL A   1      32.239  24.639  22.813  1.00  0.00     0.118 C 
BRANCH  13  14
ATOM     14  C   UNL A   1      33.180  25.826  22.701  1.00  0.00     0.221 C 
ATOM     15  N   UNL A   1      33.342  26.716  23.722  1.00  0.00    -0.353 N 
ATOM     16  H   UNL A   1      33.893  27.496  23.483  1.00  0.00     0.163 HD
ATOM     17  O   UNL A   1      33.813  26.026  21.662  1.00  0.00    -0.275 OA
BRANCH  15  18
ATOM     18  C   UNL A   1      32.860  26.738  25.102  1.00  0.00     0.087 C 
ATOM     19  C   UNL A   1      30.304  26.644  24.863  1.00  0.00     0.013 C 
ATOM     20  C   UNL A   1      31.508  27.484  25.297  1.00  0.00    -0.015 C 
ATOM     21  C   UNL A   1      31.447  28.851  24.585  1.00  0.00     0.013 C 
ATOM     22  C   UNL A   1      31.496  27.702  26.821  1.00  0.00     0.008 C 
ATOM     23  C   UNL A   1      32.941  28.005  27.201  1.00  0.00     0.003 C 
ATOM     24  C   UNL A   1      33.799  27.521  26.036  1.00  0.00     0.025 C 
ENDBRANCH  15  18
ENDBRANCH  13  14
ENDBRANCH   7  13
ENDBRANCH   5   7
ENDBRANCH   4   5
ENDBRANCH   3   4
ENDBRANCH   2   3
ENDBRANCH   1   2
BRANCH   1  25
ATOM     25  C   UNL A   1      38.214  22.273  26.298  1.00  0.00     0.202 C 
BRANCH  25  26
ATOM     26  C   UNL A   1      39.695  22.629  26.398  1.00  0.00     0.261 C 
BRANCH  26  27
ATOM     27  O   UNL A   1      39.866  24.055  26.414  1.00  0.00    -0.460 OA
BRANCH  27  28
ATOM     28  C   UNL A   1      41.009  24.450  27.014  1.00  0.00     0.338 C 
ATOM     29  O   UNL A   1      42.126  23.982  26.849  1.00  0.00    -0.246 OA
BRANCH  28  30
ATOM     30  C   UNL A   1      40.738  25.636  27.838  1.00  0.00     0.060 A 
ATOM     31  C   UNL A   1      41.732  26.615  27.957  1.00  0.00     0.016 A 
ATOM     32  C   UNL A   1      39.562  25.717  28.585  1.00  0.00     0.016 A 
ATOM     33  C   UNL A   1      41.569  27.658  28.869  1.00  0.00     0.010 A 
ATOM     34  C   UNL A   1      39.396  26.772  29.488  1.00  0.00     0.010 A 
ATOM     35  C   UNL A   1      40.414  27.727  29.665  1.00  0.00    -0.014 A 
BRANCH  35  36
ATOM     36  C   UNL A   1      40.323  28.731  30.754  1.00  0.00     0.031 A 
ATOM     37  C   UNL A   1      41.223  28.606  31.956  1.00  0.00     0.074 A 
ATOM     38  C   UNL A   1      39.456  29.756  30.667  1.00  0.00     0.049 A 
ATOM     39  N   UNL A   1      41.312  29.383  33.006  1.00  0.00    -0.248 NA
ATOM     40  C   UNL A   1      42.144  27.458  31.979  1.00  0.00     0.031 C 
ATOM     41  C   UNL A   1      38.541  29.997  29.552  1.00  0.00     0.029 A 
ATOM     42  N   UNL A   1      39.202  30.786  31.539  1.00  0.00    -0.354 N 
ATOM     43  C   UNL A   1      42.290  28.817  33.815  1.00  0.00     0.074 A 
ATOM     44  C   UNL A   1      42.748  27.617  33.148  1.00  0.00     0.031 C 
ATOM     45  C   UNL A   1      37.823  31.104  29.809  1.00  0.00     0.029 A 
ATOM     46  C   UNL A   1      38.209  31.635  31.114  1.00  0.00     0.049 A 
ATOM     47  H   UNL A   1      39.687  30.906  32.387  1.00  0.00     0.167 HD
ATOM     48  C   UNL A   1      42.770  29.257  35.004  1.00  0.00     0.031 A 
ATOM     49  C   UNL A   1      37.660  32.711  31.714  1.00  0.00     0.031 A 
ATOM     50  C   UNL A   1      42.309  30.444  35.674  1.00  0.00     0.049 A 
ATOM     51  C   UNL A   1      38.176  33.155  33.056  1.00  0.00     0.074 A 
ATOM     52  C   UNL A   1      42.761  30.991  36.863  1.00  0.00     0.029 A 
ATOM     53  N   UNL A   1      41.285  31.261  35.222  1.00  0.00    -0.354 N 
ATOM     54  N   UNL A   1      39.140  32.636  33.779  1.00  0.00    -0.248 NA
ATOM     55  C   UNL A   1      37.535  34.333  33.659  1.00  0.00     0.031 C 
ATOM     56  C   UNL A   1      41.974  32.110  37.156  1.00  0.00     0.029 A 
ATOM     57  C   UNL A   1      41.067  32.290  36.124  1.00  0.00     0.049 A 
ATOM     58  H   UNL A   1      40.785  31.129  34.384  1.00  0.00     0.167 HD
ATOM     59  C   UNL A   1      39.233  33.437  34.914  1.00  0.00     0.074 A 
ATOM     60  C   UNL A   1      38.239  34.480  34.774  1.00  0.00     0.031 C 
ATOM     61  C   UNL A   1      40.069  33.317  35.975  1.00  0.00     0.031 A 
BRANCH  48  62
ATOM     62  C   UNL A   1      43.838  28.434  35.672  1.00  0.00    -0.014 A 
ATOM     63  C   UNL A   1      45.201  28.668  35.420  1.00  0.00     0.010 A 
ATOM     64  C   UNL A   1      43.472  27.439  36.598  1.00  0.00     0.010 A 
ATOM     65  C   UNL A   1      46.180  27.899  36.056  1.00  0.00     0.020 A 
ATOM     66  C   UNL A   1      44.449  26.682  37.252  1.00  0.00     0.020 A 
ATOM     67  C   UNL A   1      45.796  26.906  36.964  1.00  0.00     0.054 A 
BRANCH  67  68
ATOM     68  S   UNL A   1      47.087  25.934  37.790  1.00  0.00     0.124 S 
ATOM     69  O   UNL A   1      46.541  25.795  39.138  1.00  0.00    -0.237 OA
ATOM     70  O   UNL A   1      47.122  24.707  36.998  1.00  0.00    -0.237 OA
ATOM     71  O   UNL A   1      48.276  26.775  37.683  1.00  0.00    -0.744 OA
ENDBRANCH  67  68
ENDBRANCH  48  62
BRANCH  49  72
ATOM     72  C   UNL A   1      36.544  33.436  31.050  1.00  0.00    -0.014 A 
ATOM     73  C   UNL A   1      36.710  34.000  29.773  1.00  0.00     0.010 A 
ATOM     74  C   UNL A   1      35.297  33.552  31.693  1.00  0.00     0.010 A 
ATOM     75  C   UNL A   1      35.654  34.676  29.156  1.00  0.00     0.020 A 
ATOM     76  C   UNL A   1      34.233  34.207  31.070  1.00  0.00     0.020 A 
ATOM     77  C   UNL A   1      34.421  34.773  29.808  1.00  0.00     0.054 A 
BRANCH  77  78
ATOM     78  S   UNL A   1      33.042  35.597  28.963  1.00  0.00     0.124 S 
ATOM     79  O   UNL A   1      32.460  34.503  28.193  1.00  0.00    -0.237 OA
ATOM     80  O   UNL A   1      32.234  36.088  30.077  1.00  0.00    -0.237 OA
ATOM     81  O   UNL A   1      33.700  36.638  28.176  1.00  0.00    -0.744 OA
ENDBRANCH  77  78
ENDBRANCH  49  72
BRANCH  61  82
ATOM     82  C   UNL A   1      39.958  34.349  37.065  1.00  0.00    -0.014 A 
ATOM     83  C   UNL A   1      40.590  35.599  36.948  1.00  0.00     0.010 A 
ATOM     84  C   UNL A   1      39.160  34.086  38.195  1.00  0.00     0.010 A 
ATOM     85  C   UNL A   1      40.448  36.560  37.952  1.00  0.00     0.020 A 
ATOM     86  C   UNL A   1      38.998  35.052  39.190  1.00  0.00     0.020 A 
ATOM     87  C   UNL A   1      39.654  36.279  39.069  1.00  0.00     0.054 A 
BRANCH  87  88
ATOM     88  S   UNL A   1      39.445  37.558  40.338  1.00  0.00     0.124 S 
ATOM     89  O   UNL A   1      38.787  36.817  41.410  1.00  0.00    -0.237 OA
ATOM     90  O   UNL A   1      40.821  37.969  40.613  1.00  0.00    -0.237 OA
ATOM     91  O   UNL A   1      38.620  38.567  39.680  1.00  0.00    -0.744 OA
ENDBRANCH  87  88
ENDBRANCH  61  82
ENDBRANCH  35  36
ENDBRANCH  28  30
ENDBRANCH  27  28
ENDBRANCH  26  27
ENDBRANCH  25  26
ENDBRANCH   1  25
TORSDOF 20
ENDMDL
