MODEL 1
REMARK VINA RESULT:      -9.7      0.000      0.000
REMARK SMILES O=C(OCCOCCOC(=O)c1cccc(N[C@H]2CCCC[C@@H]2O)c1)c1ccc(-c2c3nc(c(-c4ccc(S(=O)(=O)[O-])cc4)c4ccc([nH]4)c(-c4ccc(S(=O)(=O)[O-])cc4)c4nc(c(-c5ccc(S(=O)(=O)[O-])cc5)c5ccc2[nH]5)C=C4)C=C3)cc1
REMARK SMILES IDX 6 1 5 2 4 3 3 4 2 5 1 6 26 7 27 8 85 9 28 10 84 11 29 12
REMARK SMILES IDX 30 13 31 14 78 15 32 16 83 17 77 18 79 19 33 20 82 21 76 22
REMARK SMILES IDX 75 23 34 25 64 26 45 27 63 28 46 29 49 30 62 31 80 32 47 33
REMARK SMILES IDX 48 34 61 36 81 37 50 38 35 39 36 40 44 41 37 42 43 43 38 44
REMARK SMILES IDX 39 45 40 46 41 47 42 48 65 49 66 50 74 51 67 52 73 53 68 54
REMARK SMILES IDX 69 55 70 56 71 57 72 58 51 59 52 60 60 61 53 62 59 63 54 64
REMARK SMILES IDX 55 65 56 66 57 67 58 68 7 69 8 70 9 71 10 72 11 73 12 74
REMARK SMILES IDX 13 75 25 76 14 77 16 78 15 79 17 80 18 82 19 83 23 84 20 85
REMARK SMILES IDX 22 86 21 87 24 88
REMARK H PARENT 79 24 49 35 17 81 24 89
REMARK Flexibility Score: inf
ROOT
ATOM      1  O   UNL A   1      32.487  28.427  24.058  1.00  0.00    -0.374 OA
ENDROOT
BRANCH   1   2
ATOM      2  C   UNL A   1      32.729  28.464  25.464  1.00  0.00     0.202 C 
BRANCH   2   3
ATOM      3  C   UNL A   1      33.063  29.846  26.028  1.00  0.00     0.261 C 
BRANCH   3   4
ATOM      4  O   UNL A   1      33.622  29.727  27.346  1.00  0.00    -0.460 OA
BRANCH   4   5
ATOM      5  C   UNL A   1      34.548  30.521  27.933  1.00  0.00     0.338 C 
ATOM      6  O   UNL A   1      34.240  31.679  28.206  1.00  0.00    -0.246 OA
BRANCH   5   7
ATOM      7  C   UNL A   1      35.930  30.064  28.272  1.00  0.00     0.060 A 
ATOM      8  C   UNL A   1      36.290  29.441  29.468  1.00  0.00     0.016 A 
ATOM      9  C   UNL A   1      36.912  30.194  27.277  1.00  0.00     0.016 A 
ATOM     10  C   UNL A   1      37.588  29.028  29.712  1.00  0.00     0.010 A 
ATOM     11  C   UNL A   1      38.216  29.735  27.492  1.00  0.00     0.010 A 
ATOM     12  C   UNL A   1      38.556  29.166  28.724  1.00  0.00    -0.014 A 
BRANCH  12  13
ATOM     13  C   UNL A   1      39.935  28.797  29.079  1.00  0.00     0.031 A 
ATOM     14  C   UNL A   1      40.708  29.721  29.966  1.00  0.00     0.074 A 
ATOM     15  C   UNL A   1      40.393  27.576  28.745  1.00  0.00     0.049 A 
ATOM     16  N   UNL A   1      41.921  29.597  30.430  1.00  0.00    -0.248 NA
ATOM     17  C   UNL A   1      40.013  30.944  30.408  1.00  0.00     0.031 C 
ATOM     18  C   UNL A   1      39.631  26.562  28.006  1.00  0.00     0.029 A 
ATOM     19  N   UNL A   1      41.581  26.958  29.024  1.00  0.00    -0.354 N 
ATOM     20  C   UNL A   1      42.148  30.739  31.188  1.00  0.00     0.074 A 
ATOM     21  C   UNL A   1      40.951  31.545  31.124  1.00  0.00     0.031 C 
ATOM     22  C   UNL A   1      40.356  25.435  27.931  1.00  0.00     0.029 A 
ATOM     23  C   UNL A   1      41.657  25.671  28.546  1.00  0.00     0.049 A 
ATOM     24  H   UNL A   1      42.311  27.393  29.521  1.00  0.00     0.167 HD
ATOM     25  C   UNL A   1      43.269  31.082  31.863  1.00  0.00     0.031 A 
ATOM     26  C   UNL A   1      42.680  24.797  28.584  1.00  0.00     0.031 A 
ATOM     27  C   UNL A   1      44.446  30.259  31.887  1.00  0.00     0.049 A 
ATOM     28  C   UNL A   1      43.953  25.250  29.245  1.00  0.00     0.074 A 
ATOM     29  C   UNL A   1      45.674  30.518  32.464  1.00  0.00     0.029 A 
ATOM     30  N   UNL A   1      44.533  29.004  31.296  1.00  0.00    -0.354 N 
ATOM     31  N   UNL A   1      44.191  26.370  29.891  1.00  0.00    -0.248 NA
ATOM     32  C   UNL A   1      45.099  24.336  29.172  1.00  0.00     0.031 C 
ATOM     33  C   UNL A   1      46.519  29.441  32.176  1.00  0.00     0.029 A 
ATOM     34  C   UNL A   1      45.800  28.483  31.474  1.00  0.00     0.049 A 
ATOM     35  H   UNL A   1      43.799  28.552  30.819  1.00  0.00     0.167 HD
ATOM     36  C   UNL A   1      45.510  26.288  30.318  1.00  0.00     0.074 A 
ATOM     37  C   UNL A   1      46.008  25.000  29.872  1.00  0.00     0.031 C 
ATOM     38  C   UNL A   1      46.248  27.192  31.011  1.00  0.00     0.031 A 
BRANCH  25  39
ATOM     39  C   UNL A   1      43.282  32.435  32.521  1.00  0.00    -0.014 A 
ATOM     40  C   UNL A   1      43.122  32.586  33.912  1.00  0.00     0.010 A 
ATOM     41  C   UNL A   1      43.400  33.584  31.719  1.00  0.00     0.010 A 
ATOM     42  C   UNL A   1      43.024  33.863  34.477  1.00  0.00     0.020 A 
ATOM     43  C   UNL A   1      43.330  34.861  32.283  1.00  0.00     0.020 A 
ATOM     44  C   UNL A   1      43.117  34.991  33.656  1.00  0.00     0.054 A 
BRANCH  44  45
ATOM     45  S   UNL A   1      42.958  36.635  34.407  1.00  0.00     0.124 S 
ATOM     46  O   UNL A   1      41.555  36.644  34.817  1.00  0.00    -0.237 OA
ATOM     47  O   UNL A   1      43.928  36.585  35.498  1.00  0.00    -0.237 OA
ATOM     48  O   UNL A   1      43.293  37.549  33.319  1.00  0.00    -0.744 OA
ENDBRANCH  44  45
ENDBRANCH  25  39
BRANCH  26  49
ATOM     49  C   UNL A   1      42.561  23.459  27.936  1.00  0.00    -0.014 A 
ATOM     50  C   UNL A   1      41.912  22.394  28.584  1.00  0.00     0.010 A 
ATOM     51  C   UNL A   1      43.105  23.242  26.656  1.00  0.00     0.010 A 
ATOM     52  C   UNL A   1      41.824  21.137  27.973  1.00  0.00     0.020 A 
ATOM     53  C   UNL A   1      42.993  21.997  26.029  1.00  0.00     0.020 A 
ATOM     54  C   UNL A   1      42.366  20.947  26.698  1.00  0.00     0.054 A 
BRANCH  54  55
ATOM     55  S   UNL A   1      42.218  19.317  25.912  1.00  0.00     0.124 S 
ATOM     56  O   UNL A   1      40.775  19.200  25.729  1.00  0.00    -0.237 OA
ATOM     57  O   UNL A   1      43.000  19.483  24.690  1.00  0.00    -0.237 OA
ATOM     58  O   UNL A   1      42.799  18.408  26.897  1.00  0.00    -0.744 OA
ENDBRANCH  54  55
ENDBRANCH  26  49
BRANCH  38  59
ATOM     59  C   UNL A   1      47.654  26.792  31.357  1.00  0.00    -0.014 A 
ATOM     60  C   UNL A   1      47.947  26.130  32.562  1.00  0.00     0.010 A 
ATOM     61  C   UNL A   1      48.684  27.035  30.431  1.00  0.00     0.010 A 
ATOM     62  C   UNL A   1      49.258  25.746  32.849  1.00  0.00     0.020 A 
ATOM     63  C   UNL A   1      49.989  26.627  30.702  1.00  0.00     0.020 A 
ATOM     64  C   UNL A   1      50.270  25.998  31.916  1.00  0.00     0.054 A 
BRANCH  64  65
ATOM     65  S   UNL A   1      51.956  25.448  32.290  1.00  0.00     0.124 S 
ATOM     66  O   UNL A   1      52.169  26.011  33.621  1.00  0.00    -0.237 OA
ATOM     67  O   UNL A   1      51.841  23.993  32.232  1.00  0.00    -0.237 OA
ATOM     68  O   UNL A   1      52.759  26.046  31.225  1.00  0.00    -0.744 OA
ENDBRANCH  64  65
ENDBRANCH  38  59
ENDBRANCH  12  13
ENDBRANCH   5   7
ENDBRANCH   4   5
ENDBRANCH   3   4
ENDBRANCH   2   3
ENDBRANCH   1   2
BRANCH   1  69
ATOM     69  C   UNL A   1      31.135  28.651  23.642  1.00  0.00     0.202 C 
BRANCH  69  70
ATOM     70  C   UNL A   1      30.814  27.749  22.444  1.00  0.00     0.261 C 
BRANCH  70  71
ATOM     71  O   UNL A   1      31.007  26.384  22.845  1.00  0.00    -0.460 OA
BRANCH  71  72
ATOM     72  C   UNL A   1      31.776  25.656  21.995  1.00  0.00     0.338 C 
ATOM     73  O   UNL A   1      32.205  25.990  20.904  1.00  0.00    -0.246 OA
BRANCH  72  74
ATOM     74  C   UNL A   1      32.238  24.471  22.741  1.00  0.00     0.062 A 
ATOM     75  C   UNL A   1      31.283  23.675  23.376  1.00  0.00     0.016 A 
ATOM     76  C   UNL A   1      33.586  24.094  22.729  1.00  0.00     0.041 A 
ATOM     77  C   UNL A   1      31.667  22.456  23.914  1.00  0.00     0.003 A 
ATOM     78  C   UNL A   1      34.005  22.912  23.340  1.00  0.00     0.035 A 
ATOM     79  C   UNL A   1      33.013  22.077  23.877  1.00  0.00     0.026 A 
BRANCH  78  80
ATOM     80  N   UNL A   1      35.364  22.663  23.419  1.00  0.00    -0.380 N 
ATOM     81  H   UNL A   1      35.854  22.583  22.569  1.00  0.00     0.160 HD
BRANCH  80  82
ATOM     82  C   UNL A   1      36.144  22.509  24.656  1.00  0.00     0.107 C 
ATOM     83  C   UNL A   1      37.249  21.447  24.519  1.00  0.00     0.027 C 
ATOM     84  C   UNL A   1      36.594  23.890  25.182  1.00  0.00     0.136 C 
ATOM     85  C   UNL A   1      38.225  21.449  25.687  1.00  0.00     0.002 C 
ATOM     86  C   UNL A   1      37.591  23.782  26.329  1.00  0.00     0.034 C 
ATOM     87  C   UNL A   1      38.744  22.853  25.974  1.00  0.00     0.003 C 
BRANCH  84  88
ATOM     88  O   UNL A   1      35.445  24.617  25.641  1.00  0.00    -0.391 OA
ATOM     89  H   UNL A   1      35.160  25.239  24.954  1.00  0.00     0.211 HD
ENDBRANCH  84  88
ENDBRANCH  80  82
ENDBRANCH  78  80
ENDBRANCH  72  74
ENDBRANCH  71  72
ENDBRANCH  70  71
ENDBRANCH  69  70
ENDBRANCH   1  69
TORSDOF 20
ENDMDL
MODEL 2
REMARK VINA RESULT:      -9.7      3.807     10.880
REMARK SMILES O=C(OCCOCCOC(=O)c1cccc(N[C@H]2CCCC[C@@H]2O)c1)c1ccc(-c2c3nc(c(-c4ccc(S(=O)(=O)[O-])cc4)c4ccc([nH]4)c(-c4ccc(S(=O)(=O)[O-])cc4)c4nc(c(-c5ccc(S(=O)(=O)[O-])cc5)c5ccc2[nH]5)C=C4)C=C3)cc1
REMARK SMILES IDX 6 1 5 2 4 3 3 4 2 5 1 6 26 7 27 8 85 9 28 10 84 11 29 12
REMARK SMILES IDX 30 13 31 14 78 15 32 16 83 17 77 18 79 19 33 20 82 21 76 22
REMARK SMILES IDX 75 23 34 25 64 26 45 27 63 28 46 29 49 30 62 31 80 32 47 33
REMARK SMILES IDX 48 34 61 36 81 37 50 38 35 39 36 40 44 41 37 42 43 43 38 44
REMARK SMILES IDX 39 45 40 46 41 47 42 48 65 49 66 50 74 51 67 52 73 53 68 54
REMARK SMILES IDX 69 55 70 56 71 57 72 58 51 59 52 60 60 61 53 62 59 63 54 64
REMARK SMILES IDX 55 65 56 66 57 67 58 68 7 69 8 70 9 71 10 72 11 73 12 74
REMARK SMILES IDX 13 75 25 76 14 77 16 78 15 79 17 80 18 82 19 83 23 84 20 85
REMARK SMILES IDX 22 86 21 87 24 88
REMARK H PARENT 79 24 49 35 17 81 24 89
REMARK Flexibility Score: inf
ROOT
ATOM      1  O   UNL A   1      41.004  18.938  25.683  1.00  0.00    -0.374 OA
ENDROOT
BRANCH   1   2
ATOM      2  C   UNL A   1      39.817  19.701  25.892  1.00  0.00     0.202 C 
BRANCH   2   3
ATOM      3  C   UNL A   1      40.043  21.191  26.162  1.00  0.00     0.261 C 
BRANCH   3   4
ATOM      4  O   UNL A   1      38.785  21.872  26.287  1.00  0.00    -0.460 OA
BRANCH   4   5
ATOM      5  C   UNL A   1      38.506  23.167  26.005  1.00  0.00     0.338 C 
ATOM      6  O   UNL A   1      37.781  23.415  25.043  1.00  0.00    -0.246 OA
BRANCH   5   7
ATOM      7  C   UNL A   1      39.033  24.316  26.802  1.00  0.00     0.060 A 
ATOM      8  C   UNL A   1      38.801  24.511  28.164  1.00  0.00     0.016 A 
ATOM      9  C   UNL A   1      39.893  25.212  26.147  1.00  0.00     0.016 A 
ATOM     10  C   UNL A   1      39.332  25.591  28.846  1.00  0.00     0.010 A 
ATOM     11  C   UNL A   1      40.478  26.279  26.837  1.00  0.00     0.010 A 
ATOM     12  C   UNL A   1      40.178  26.477  28.190  1.00  0.00    -0.014 A 
BRANCH  12  13
ATOM     13  C   UNL A   1      40.632  27.655  28.943  1.00  0.00     0.031 A 
ATOM     14  C   UNL A   1      42.065  27.710  29.372  1.00  0.00     0.074 A 
ATOM     15  C   UNL A   1      39.805  28.709  29.074  1.00  0.00     0.049 A 
ATOM     16  N   UNL A   1      42.696  28.650  30.020  1.00  0.00    -0.248 NA
ATOM     17  C   UNL A   1      42.907  26.559  29.001  1.00  0.00     0.031 C 
ATOM     18  C   UNL A   1      38.438  28.779  28.545  1.00  0.00     0.029 A 
ATOM     19  N   UNL A   1      40.005  29.939  29.638  1.00  0.00    -0.354 N 
ATOM     20  C   UNL A   1      43.999  28.189  30.166  1.00  0.00     0.074 A 
ATOM     21  C   UNL A   1      44.070  26.889  29.540  1.00  0.00     0.031 C 
ATOM     22  C   UNL A   1      37.940  30.005  28.773  1.00  0.00     0.029 A 
ATOM     23  C   UNL A   1      38.920  30.777  29.527  1.00  0.00     0.049 A 
ATOM     24  H   UNL A   1      40.844  30.200  30.080  1.00  0.00     0.167 HD
ATOM     25  C   UNL A   1      45.035  28.802  30.784  1.00  0.00     0.031 A 
ATOM     26  C   UNL A   1      38.740  32.021  30.010  1.00  0.00     0.031 A 
ATOM     27  C   UNL A   1      44.917  30.090  31.411  1.00  0.00     0.049 A 
ATOM     28  C   UNL A   1      39.871  32.632  30.789  1.00  0.00     0.074 A 
ATOM     29  C   UNL A   1      45.860  30.790  32.136  1.00  0.00     0.029 A 
ATOM     30  N   UNL A   1      43.767  30.870  31.379  1.00  0.00    -0.354 N 
ATOM     31  N   UNL A   1      41.078  32.155  30.998  1.00  0.00    -0.248 NA
ATOM     32  C   UNL A   1      39.619  33.936  31.413  1.00  0.00     0.031 C 
ATOM     33  C   UNL A   1      45.262  31.971  32.589  1.00  0.00     0.029 A 
ATOM     34  C   UNL A   1      43.968  32.037  32.092  1.00  0.00     0.049 A 
ATOM     35  H   UNL A   1      42.932  30.626  30.918  1.00  0.00     0.167 HD
ATOM     36  C   UNL A   1      41.737  33.109  31.761  1.00  0.00     0.074 A 
ATOM     37  C   UNL A   1      40.797  34.197  31.960  1.00  0.00     0.031 C 
ATOM     38  C   UNL A   1      42.999  33.093  32.260  1.00  0.00     0.031 A 
BRANCH  25  39
ATOM     39  C   UNL A   1      46.321  28.028  30.889  1.00  0.00    -0.014 A 
ATOM     40  C   UNL A   1      46.564  27.130  31.946  1.00  0.00     0.010 A 
ATOM     41  C   UNL A   1      47.331  28.248  29.936  1.00  0.00     0.010 A 
ATOM     42  C   UNL A   1      47.813  26.513  32.077  1.00  0.00     0.020 A 
ATOM     43  C   UNL A   1      48.571  27.613  30.047  1.00  0.00     0.020 A 
ATOM     44  C   UNL A   1      48.812  26.769  31.131  1.00  0.00     0.054 A 
BRANCH  44  45
ATOM     45  S   UNL A   1      50.433  25.980  31.338  1.00  0.00     0.124 S 
ATOM     46  O   UNL A   1      50.762  25.603  29.965  1.00  0.00    -0.237 OA
ATOM     47  O   UNL A   1      51.243  27.056  31.904  1.00  0.00    -0.237 OA
ATOM     48  O   UNL A   1      50.165  24.865  32.241  1.00  0.00    -0.744 OA
ENDBRANCH  44  45
ENDBRANCH  25  39
BRANCH  26  49
ATOM     49  C   UNL A   1      37.440  32.728  29.822  1.00  0.00    -0.014 A 
ATOM     50  C   UNL A   1      37.224  33.569  28.717  1.00  0.00     0.010 A 
ATOM     51  C   UNL A   1      36.402  32.562  30.759  1.00  0.00     0.010 A 
ATOM     52  C   UNL A   1      36.005  34.242  28.564  1.00  0.00     0.020 A 
ATOM     53  C   UNL A   1      35.174  33.207  30.594  1.00  0.00     0.020 A 
ATOM     54  C   UNL A   1      34.988  34.057  29.504  1.00  0.00     0.054 A 
BRANCH  54  55
ATOM     55  S   UNL A   1      33.406  34.917  29.272  1.00  0.00     0.124 S 
ATOM     56  O   UNL A   1      32.723  34.044  28.322  1.00  0.00    -0.237 OA
ATOM     57  O   UNL A   1      32.855  34.937  30.624  1.00  0.00    -0.237 OA
ATOM     58  O   UNL A   1      33.800  36.223  28.749  1.00  0.00    -0.744 OA
ENDBRANCH  54  55
ENDBRANCH  26  49
BRANCH  38  59
ATOM     59  C   UNL A   1      43.436  34.306  33.030  1.00  0.00    -0.014 A 
ATOM     60  C   UNL A   1      43.901  35.457  32.371  1.00  0.00     0.010 A 
ATOM     61  C   UNL A   1      43.325  34.306  34.431  1.00  0.00     0.010 A 
ATOM     62  C   UNL A   1      44.279  36.581  33.108  1.00  0.00     0.020 A 
ATOM     63  C   UNL A   1      43.674  35.437  35.168  1.00  0.00     0.020 A 
ATOM     64  C   UNL A   1      44.162  36.562  34.502  1.00  0.00     0.054 A 
BRANCH  64  65
ATOM     65  S   UNL A   1      44.614  38.049  35.434  1.00  0.00     0.124 S 
ATOM     66  O   UNL A   1      44.292  39.111  34.485  1.00  0.00    -0.237 OA
ATOM     67  O   UNL A   1      43.748  37.969  36.608  1.00  0.00    -0.237 OA
ATOM     68  O   UNL A   1      46.039  37.868  35.706  1.00  0.00    -0.744 OA
ENDBRANCH  64  65
ENDBRANCH  38  59
ENDBRANCH  12  13
ENDBRANCH   5   7
ENDBRANCH   4   5
ENDBRANCH   3   4
ENDBRANCH   2   3
ENDBRANCH   1   2
BRANCH   1  69
ATOM     69  C   UNL A   1      42.185  19.411  26.342  1.00  0.00     0.202 C 
BRANCH  69  70
ATOM     70  C   UNL A   1      43.424  18.864  25.622  1.00  0.00     0.261 C 
BRANCH  70  71
ATOM     71  O   UNL A   1      44.471  19.840  25.725  1.00  0.00    -0.460 OA
BRANCH  71  72
ATOM     72  C   UNL A   1      44.595  20.644  24.638  1.00  0.00     0.338 C 
ATOM     73  O   UNL A   1      44.518  20.328  23.463  1.00  0.00    -0.246 OA
BRANCH  72  74
ATOM     74  C   UNL A   1      44.570  22.036  25.127  1.00  0.00     0.062 A 
ATOM     75  C   UNL A   1      43.371  22.746  25.040  1.00  0.00     0.016 A 
ATOM     76  C   UNL A   1      45.687  22.597  25.756  1.00  0.00     0.041 A 
ATOM     77  C   UNL A   1      43.268  23.979  25.667  1.00  0.00     0.003 A 
ATOM     78  C   UNL A   1      45.626  23.872  26.319  1.00  0.00     0.035 A 
ATOM     79  C   UNL A   1      44.383  24.522  26.313  1.00  0.00     0.026 A 
BRANCH  78  80
ATOM     80  N   UNL A   1      46.799  24.430  26.800  1.00  0.00    -0.380 N 
ATOM     81  H   UNL A   1      46.873  24.542  27.775  1.00  0.00     0.160 HD
BRANCH  80  82
ATOM     82  C   UNL A   1      47.942  24.871  25.988  1.00  0.00     0.107 C 
ATOM     83  C   UNL A   1      47.516  25.795  24.835  1.00  0.00     0.027 C 
ATOM     84  C   UNL A   1      49.073  25.401  26.898  1.00  0.00     0.136 C 
ATOM     85  C   UNL A   1      48.694  26.466  24.141  1.00  0.00     0.002 C 
ATOM     86  C   UNL A   1      50.187  26.078  26.111  1.00  0.00     0.034 C 
ATOM     87  C   UNL A   1      49.631  27.120  25.150  1.00  0.00     0.003 C 
BRANCH  84  88
ATOM     88  O   UNL A   1      49.635  24.308  27.638  1.00  0.00    -0.391 OA
ATOM     89  H   UNL A   1      49.144  23.495  27.437  1.00  0.00     0.211 HD
ENDBRANCH  84  88
ENDBRANCH  80  82
ENDBRANCH  78  80
ENDBRANCH  72  74
ENDBRANCH  71  72
ENDBRANCH  70  71
ENDBRANCH  69  70
ENDBRANCH   1  69
TORSDOF 20
ENDMDL
MODEL 3
REMARK VINA RESULT:      -9.5      4.715     10.213
REMARK SMILES O=C(OCCOCCOC(=O)c1cccc(N[C@H]2CCCC[C@@H]2O)c1)c1ccc(-c2c3nc(c(-c4ccc(S(=O)(=O)[O-])cc4)c4ccc([nH]4)c(-c4ccc(S(=O)(=O)[O-])cc4)c4nc(c(-c5ccc(S(=O)(=O)[O-])cc5)c5ccc2[nH]5)C=C4)C=C3)cc1
REMARK SMILES IDX 6 1 5 2 4 3 3 4 2 5 1 6 26 7 27 8 85 9 28 10 84 11 29 12
REMARK SMILES IDX 30 13 31 14 78 15 32 16 83 17 77 18 79 19 33 20 82 21 76 22
REMARK SMILES IDX 75 23 34 25 64 26 45 27 63 28 46 29 49 30 62 31 80 32 47 33
REMARK SMILES IDX 48 34 61 36 81 37 50 38 35 39 36 40 44 41 37 42 43 43 38 44
REMARK SMILES IDX 39 45 40 46 41 47 42 48 65 49 66 50 74 51 67 52 73 53 68 54
REMARK SMILES IDX 69 55 70 56 71 57 72 58 51 59 52 60 60 61 53 62 59 63 54 64
REMARK SMILES IDX 55 65 56 66 57 67 58 68 7 69 8 70 9 71 10 72 11 73 12 74
REMARK SMILES IDX 13 75 25 76 14 77 16 78 15 79 17 80 18 82 19 83 23 84 20 85
REMARK SMILES IDX 22 86 21 87 24 88
REMARK H PARENT 79 24 49 35 17 81 24 89
REMARK Flexibility Score: inf
ROOT
ATOM      1  O   UNL A   1      35.358  32.436  27.957  1.00  0.00    -0.374 OA
ENDROOT
BRANCH   1   2
ATOM      2  C   UNL A   1      34.090  33.045  27.714  1.00  0.00     0.202 C 
BRANCH   2   3
ATOM      3  C   UNL A   1      34.008  34.533  28.063  1.00  0.00     0.261 C 
BRANCH   3   4
ATOM      4  O   UNL A   1      33.048  34.750  29.108  1.00  0.00    -0.460 OA
BRANCH   4   5
ATOM      5  C   UNL A   1      33.268  34.814  30.442  1.00  0.00     0.338 C 
ATOM      6  O   UNL A   1      32.425  35.361  31.150  1.00  0.00    -0.246 OA
BRANCH   5   7
ATOM      7  C   UNL A   1      34.484  34.253  31.105  1.00  0.00     0.060 A 
ATOM      8  C   UNL A   1      35.637  34.983  31.398  1.00  0.00     0.016 A 
ATOM      9  C   UNL A   1      34.422  32.920  31.541  1.00  0.00     0.016 A 
ATOM     10  C   UNL A   1      36.724  34.405  32.029  1.00  0.00     0.010 A 
ATOM     11  C   UNL A   1      35.494  32.338  32.225  1.00  0.00     0.010 A 
ATOM     12  C   UNL A   1      36.657  33.082  32.451  1.00  0.00    -0.014 A 
BRANCH  12  13
ATOM     13  C   UNL A   1      37.878  32.499  33.028  1.00  0.00     0.031 A 
ATOM     14  C   UNL A   1      38.766  31.691  32.135  1.00  0.00     0.074 A 
ATOM     15  C   UNL A   1      38.244  32.847  34.276  1.00  0.00     0.049 A 
ATOM     16  N   UNL A   1      39.897  31.103  32.409  1.00  0.00    -0.248 NA
ATOM     17  C   UNL A   1      38.330  31.541  30.735  1.00  0.00     0.031 C 
ATOM     18  C   UNL A   1      37.496  33.756  35.152  1.00  0.00     0.029 A 
ATOM     19  N   UNL A   1      39.357  32.527  35.005  1.00  0.00    -0.354 N 
ATOM     20  C   UNL A   1      40.291  30.486  31.229  1.00  0.00     0.074 A 
ATOM     21  C   UNL A   1      39.281  30.768  30.235  1.00  0.00     0.031 C 
ATOM     22  C   UNL A   1      38.195  33.953  36.281  1.00  0.00     0.029 A 
ATOM     23  C   UNL A   1      39.396  33.128  36.240  1.00  0.00     0.049 A 
ATOM     24  H   UNL A   1      40.062  31.924  34.676  1.00  0.00     0.167 HD
ATOM     25  C   UNL A   1      41.396  29.737  31.009  1.00  0.00     0.031 A 
ATOM     26  C   UNL A   1      40.296  32.998  37.233  1.00  0.00     0.031 A 
ATOM     27  C   UNL A   1      42.369  29.464  32.031  1.00  0.00     0.049 A 
ATOM     28  C   UNL A   1      41.456  32.070  36.999  1.00  0.00     0.074 A 
ATOM     29  C   UNL A   1      43.490  28.661  31.968  1.00  0.00     0.029 A 
ATOM     30  N   UNL A   1      42.324  29.998  33.313  1.00  0.00    -0.354 N 
ATOM     31  N   UNL A   1      41.781  31.419  35.904  1.00  0.00    -0.248 NA
ATOM     32  C   UNL A   1      42.362  31.844  38.130  1.00  0.00     0.031 C 
ATOM     33  C   UNL A   1      44.094  28.668  33.230  1.00  0.00     0.029 A 
ATOM     34  C   UNL A   1      43.386  29.526  34.060  1.00  0.00     0.049 A 
ATOM     35  H   UNL A   1      41.635  30.621  33.641  1.00  0.00     0.167 HD
ATOM     36  C   UNL A   1      42.940  30.719  36.208  1.00  0.00     0.074 A 
ATOM     37  C   UNL A   1      43.268  31.043  37.585  1.00  0.00     0.031 C 
ATOM     38  C   UNL A   1      43.669  29.880  35.430  1.00  0.00     0.031 A 
BRANCH  25  39
ATOM     39  C   UNL A   1      41.526  29.095  29.654  1.00  0.00    -0.014 A 
ATOM     40  C   UNL A   1      41.054  27.794  29.399  1.00  0.00     0.010 A 
ATOM     41  C   UNL A   1      42.189  29.793  28.628  1.00  0.00     0.010 A 
ATOM     42  C   UNL A   1      41.293  27.184  28.163  1.00  0.00     0.020 A 
ATOM     43  C   UNL A   1      42.406  29.198  27.382  1.00  0.00     0.020 A 
ATOM     44  C   UNL A   1      41.978  27.887  27.166  1.00  0.00     0.054 A 
BRANCH  44  45
ATOM     45  S   UNL A   1      42.302  27.066  25.582  1.00  0.00     0.124 S 
ATOM     46  O   UNL A   1      43.562  26.375  25.852  1.00  0.00    -0.237 OA
ATOM     47  O   UNL A   1      41.135  26.201  25.424  1.00  0.00    -0.237 OA
ATOM     48  O   UNL A   1      42.391  28.169  24.629  1.00  0.00    -0.744 OA
ENDBRANCH  44  45
ENDBRANCH  25  39
BRANCH  26  49
ATOM     49  C   UNL A   1      40.103  33.706  38.531  1.00  0.00    -0.014 A 
ATOM     50  C   UNL A   1      40.767  34.914  38.805  1.00  0.00     0.010 A 
ATOM     51  C   UNL A   1      39.246  33.168  39.511  1.00  0.00     0.010 A 
ATOM     52  C   UNL A   1      40.592  35.559  40.036  1.00  0.00     0.020 A 
ATOM     53  C   UNL A   1      39.044  33.824  40.728  1.00  0.00     0.020 A 
ATOM     54  C   UNL A   1      39.731  35.008  40.990  1.00  0.00     0.054 A 
BRANCH  54  55
ATOM     55  S   UNL A   1      39.496  35.874  42.569  1.00  0.00     0.124 S 
ATOM     56  O   UNL A   1      38.154  35.449  42.951  1.00  0.00    -0.237 OA
ATOM     57  O   UNL A   1      40.586  35.345  43.385  1.00  0.00    -0.237 OA
ATOM     58  O   UNL A   1      39.627  37.284  42.208  1.00  0.00    -0.744 OA
ENDBRANCH  54  55
ENDBRANCH  26  49
BRANCH  38  59
ATOM     59  C   UNL A   1      44.908  29.295  36.044  1.00  0.00    -0.014 A 
ATOM     60  C   UNL A   1      46.143  29.964  35.973  1.00  0.00     0.010 A 
ATOM     61  C   UNL A   1      44.817  28.083  36.751  1.00  0.00     0.010 A 
ATOM     62  C   UNL A   1      47.275  29.411  36.573  1.00  0.00     0.020 A 
ATOM     63  C   UNL A   1      45.939  27.543  37.377  1.00  0.00     0.020 A 
ATOM     64  C   UNL A   1      47.164  28.204  37.272  1.00  0.00     0.054 A 
BRANCH  64  65
ATOM     65  S   UNL A   1      48.638  27.529  38.084  1.00  0.00     0.124 S 
ATOM     66  O   UNL A   1      48.551  26.113  37.738  1.00  0.00    -0.237 OA
ATOM     67  O   UNL A   1      49.724  28.268  37.445  1.00  0.00    -0.237 OA
ATOM     68  O   UNL A   1      48.427  27.840  39.496  1.00  0.00    -0.744 OA
ENDBRANCH  64  65
ENDBRANCH  38  59
ENDBRANCH  12  13
ENDBRANCH   5   7
ENDBRANCH   4   5
ENDBRANCH   3   4
ENDBRANCH   2   3
ENDBRANCH   1   2
BRANCH   1  69
ATOM     69  C   UNL A   1      35.370  31.005  28.025  1.00  0.00     0.202 C 
BRANCH  69  70
ATOM     70  C   UNL A   1      33.986  30.464  27.647  1.00  0.00     0.261 C 
BRANCH  70  71
ATOM     71  O   UNL A   1      34.160  29.424  26.674  1.00  0.00    -0.460 OA
BRANCH  71  72
ATOM     72  C   UNL A   1      33.058  28.654  26.476  1.00  0.00     0.338 C 
ATOM     73  O   UNL A   1      32.180  28.388  27.277  1.00  0.00    -0.246 OA
BRANCH  72  74
ATOM     74  C   UNL A   1      32.961  28.409  25.024  1.00  0.00     0.062 A 
ATOM     75  C   UNL A   1      33.691  27.351  24.481  1.00  0.00     0.016 A 
ATOM     76  C   UNL A   1      32.080  29.150  24.228  1.00  0.00     0.041 A 
ATOM     77  C   UNL A   1      33.466  26.978  23.164  1.00  0.00     0.003 A 
ATOM     78  C   UNL A   1      31.904  28.843  22.878  1.00  0.00     0.035 A 
ATOM     79  C   UNL A   1      32.568  27.711  22.382  1.00  0.00     0.026 A 
BRANCH  78  80
ATOM     80  N   UNL A   1      31.132  29.697  22.110  1.00  0.00    -0.380 N 
ATOM     81  H   UNL A   1      31.610  30.329  21.525  1.00  0.00     0.160 HD
BRANCH  80  82
ATOM     82  C   UNL A   1      29.663  29.748  22.086  1.00  0.00     0.107 C 
ATOM     83  C   UNL A   1      29.027  28.516  22.754  1.00  0.00     0.027 C 
ATOM     84  C   UNL A   1      29.165  31.122  22.588  1.00  0.00     0.136 C 
ATOM     85  C   UNL A   1      27.527  28.663  22.970  1.00  0.00     0.002 C 
ATOM     86  C   UNL A   1      27.657  31.156  22.800  1.00  0.00     0.034 C 
ATOM     87  C   UNL A   1      27.192  29.983  23.653  1.00  0.00     0.003 C 
BRANCH  84  88
ATOM     88  O   UNL A   1      29.515  32.129  21.628  1.00  0.00    -0.391 OA
ATOM     89  H   UNL A   1      29.774  31.706  20.795  1.00  0.00     0.211 HD
ENDBRANCH  84  88
ENDBRANCH  80  82
ENDBRANCH  78  80
ENDBRANCH  72  74
ENDBRANCH  71  72
ENDBRANCH  70  71
ENDBRANCH  69  70
ENDBRANCH   1  69
TORSDOF 20
ENDMDL
