MODEL 1
REMARK VINA RESULT:      -8.8      0.000      0.000
REMARK SMILES Cc1ccccc1N[C@H](C(=O)OCCOCCOC(=O)c1ccc(-c2c3nc(c(-c4ccc(S(=O)(=O)[O-])cc4)c4ccc([nH]4)c(-c4ccc(S(=O)(=O)[O-])cc4)c4nc(c(-c5ccc(S(=O)(=O)[O-])cc5)c5ccc2[nH]5)C=C4)C=C3)cc1)c1cccc(C2CC2)c1
REMARK SMILES IDX 16 1 15 2 14 3 13 4 12 5 10 6 11 7 9 8 8 9 7 11 1 12 2 13
REMARK SMILES IDX 3 14 4 15 6 16 5 17 81 18 82 19 89 20 83 21 85 22 84 23
REMARK SMILES IDX 86 24 87 25 88 26 17 27 18 28 19 29 20 30 21 31 22 32 80 33
REMARK SMILES IDX 23 34 79 35 24 36 25 37 26 38 73 39 27 40 78 41 72 42 74 43
REMARK SMILES IDX 28 44 77 45 71 46 70 47 29 49 59 50 40 51 58 52 41 53 44 54
REMARK SMILES IDX 57 55 75 56 42 57 43 58 56 60 76 61 45 62 30 63 31 64 39 65
REMARK SMILES IDX 32 66 38 67 33 68 34 69 35 70 36 71 37 72 60 73 61 74 69 75
REMARK SMILES IDX 62 76 68 77 63 78 64 79 65 80 66 81 67 82 46 83 47 84 55 85
REMARK SMILES IDX 48 86 54 87 49 88 50 89 51 90 52 91 53 92
REMARK H PARENT 8 10 74 48 44 59
REMARK Flexibility Score: inf
ROOT
ATOM      1  C   UNL A   1      34.338  33.031  30.377  1.00  0.00     0.202 C 
ENDROOT
BRANCH   1   2
ATOM      2  O   UNL A   1      35.674  33.043  30.791  1.00  0.00    -0.374 OA
BRANCH   2   3
ATOM      3  C   UNL A   1      36.006  32.156  31.856  1.00  0.00     0.202 C 
BRANCH   3   4
ATOM      4  C   UNL A   1      36.023  33.127  32.975  1.00  0.00     0.261 C 
BRANCH   4   5
ATOM      5  O   UNL A   1      37.155  32.750  33.757  1.00  0.00    -0.461 OA
BRANCH   5   6
ATOM      6  C   UNL A   1      38.020  33.784  33.888  1.00  0.00     0.333 C 
ATOM      7  O   UNL A   1      37.733  34.890  34.335  1.00  0.00    -0.249 OA
BRANCH   6   8
ATOM      8  C   UNL A   1      39.432  33.275  33.630  1.00  0.00     0.221 C 
BRANCH   8   9
ATOM      9  N   UNL A   1      39.217  31.837  33.497  1.00  0.00    -0.368 N 
ATOM     10  H   UNL A   1      38.268  31.632  33.328  1.00  0.00     0.161 HD
BRANCH   9  11
ATOM     11  C   UNL A   1      39.964  30.707  33.543  1.00  0.00     0.038 A 
ATOM     12  C   UNL A   1      37.867  29.284  33.165  1.00  0.00     0.046 C 
ATOM     13  C   UNL A   1      39.364  29.501  33.137  1.00  0.00    -0.028 A 
ATOM     14  C   UNL A   1      40.178  28.460  32.685  1.00  0.00     0.005 A 
ATOM     15  C   UNL A   1      41.563  28.569  32.768  1.00  0.00     0.000 A 
ATOM     16  C   UNL A   1      41.312  30.693  33.875  1.00  0.00     0.026 A 
ATOM     17  C   UNL A   1      42.126  29.652  33.435  1.00  0.00     0.002 A 
ENDBRANCH   9  11
ENDBRANCH   8   9
BRANCH   8  18
ATOM     18  C   UNL A   1      40.173  33.931  32.438  1.00  0.00    -0.014 A 
ATOM     19  C   UNL A   1      39.080  34.015  30.963  1.00  0.00     0.006 A 
ATOM     20  C   UNL A   1      41.998  34.314  32.190  1.00  0.00     0.010 A 
ATOM     21  C   UNL A   1      39.686  34.665  29.411  1.00  0.00     0.001 A 
ATOM     22  C   UNL A   1      42.642  34.742  30.509  1.00  0.00    -0.045 A 
ATOM     23  C   UNL A   1      41.422  35.059  29.188  1.00  0.00     0.004 A 
BRANCH  22  24
ATOM     24  C   UNL A   1      44.078  34.933  30.076  1.00  0.00     0.019 C 
ATOM     25  C   UNL A   1      44.517  35.999  29.130  1.00  0.00     0.009 C 
ATOM     26  C   UNL A   1      44.861  36.103  30.592  1.00  0.00     0.009 C 
ENDBRANCH  22  24
ENDBRANCH   8  18
ENDBRANCH   6   8
ENDBRANCH   5   6
ENDBRANCH   4   5
ENDBRANCH   3   4
ENDBRANCH   2   3
ENDBRANCH   1   2
BRANCH   1  27
ATOM     27  C   UNL A   1      34.338  33.336  28.888  1.00  0.00     0.261 C 
BRANCH  27  28
ATOM     28  O   UNL A   1      35.311  32.491  28.207  1.00  0.00    -0.460 OA
BRANCH  28  29
ATOM     29  C   UNL A   1      34.929  31.194  27.978  1.00  0.00     0.338 C 
ATOM     30  O   UNL A   1      33.790  30.861  27.693  1.00  0.00    -0.246 OA
BRANCH  29  31
ATOM     31  C   UNL A   1      36.066  30.229  28.181  1.00  0.00     0.060 A 
ATOM     32  C   UNL A   1      36.324  29.686  29.454  1.00  0.00     0.016 A 
ATOM     33  C   UNL A   1      37.035  30.114  27.182  1.00  0.00     0.016 A 
ATOM     34  C   UNL A   1      37.585  29.133  29.738  1.00  0.00     0.010 A 
ATOM     35  C   UNL A   1      38.324  29.720  27.520  1.00  0.00     0.010 A 
ATOM     36  C   UNL A   1      38.614  29.221  28.794  1.00  0.00    -0.014 A 
BRANCH  36  37
ATOM     37  C   UNL A   1      39.923  28.560  28.942  1.00  0.00     0.031 A 
ATOM     38  C   UNL A   1      41.028  29.497  29.182  1.00  0.00     0.074 A 
ATOM     39  C   UNL A   1      40.156  27.226  28.954  1.00  0.00     0.049 A 
ATOM     40  N   UNL A   1      42.208  29.394  28.675  1.00  0.00    -0.248 NA
ATOM     41  C   UNL A   1      40.841  30.720  29.975  1.00  0.00     0.031 C 
ATOM     42  C   UNL A   1      41.314  26.425  29.313  1.00  0.00     0.029 A 
ATOM     43  N   UNL A   1      39.278  26.213  28.643  1.00  0.00    -0.354 N 
ATOM     44  C   UNL A   1      42.979  30.213  29.467  1.00  0.00     0.074 A 
ATOM     45  C   UNL A   1      42.081  31.202  30.003  1.00  0.00     0.031 C 
ATOM     46  C   UNL A   1      41.193  25.171  28.797  1.00  0.00     0.029 A 
ATOM     47  C   UNL A   1      39.962  25.118  27.980  1.00  0.00     0.049 A 
ATOM     48  H   UNL A   1      38.314  26.229  28.843  1.00  0.00     0.167 HD
ATOM     49  C   UNL A   1      44.171  29.755  29.944  1.00  0.00     0.031 A 
ATOM     50  C   UNL A   1      39.567  24.407  26.679  1.00  0.00     0.031 A 
ATOM     51  C   UNL A   1      44.455  28.386  29.475  1.00  0.00     0.049 A 
ATOM     52  C   UNL A   1      41.256  24.549  26.171  1.00  0.00     0.074 A 
ATOM     53  C   UNL A   1      44.586  27.165  30.121  1.00  0.00     0.029 A 
ATOM     54  N   UNL A   1      44.328  28.079  28.116  1.00  0.00    -0.354 N 
ATOM     55  N   UNL A   1      41.994  25.603  26.489  1.00  0.00    -0.248 NA
ATOM     56  C   UNL A   1      42.090  23.594  25.393  1.00  0.00     0.031 C 
ATOM     57  C   UNL A   1      44.522  26.131  29.146  1.00  0.00     0.029 A 
ATOM     58  C   UNL A   1      44.310  26.714  27.906  1.00  0.00     0.049 A 
ATOM     59  H   UNL A   1      44.260  28.750  27.400  1.00  0.00     0.167 HD
ATOM     60  C   UNL A   1      43.296  25.416  26.121  1.00  0.00     0.074 A 
ATOM     61  C   UNL A   1      43.273  24.226  25.299  1.00  0.00     0.031 C 
ATOM     62  C   UNL A   1      44.347  26.170  26.558  1.00  0.00     0.031 A 
BRANCH  49  63
ATOM     63  C   UNL A   1      44.841  30.422  31.132  1.00  0.00    -0.014 A 
ATOM     64  C   UNL A   1      45.253  29.661  32.239  1.00  0.00     0.010 A 
ATOM     65  C   UNL A   1      45.093  31.810  31.214  1.00  0.00     0.010 A 
ATOM     66  C   UNL A   1      45.827  30.242  33.377  1.00  0.00     0.020 A 
ATOM     67  C   UNL A   1      45.620  32.416  32.365  1.00  0.00     0.020 A 
ATOM     68  C   UNL A   1      46.004  31.620  33.435  1.00  0.00     0.054 A 
BRANCH  68  69
ATOM     69  S   UNL A   1      46.828  32.337  34.878  1.00  0.00     0.124 S 
ATOM     70  O   UNL A   1      46.570  33.765  34.715  1.00  0.00    -0.237 OA
ATOM     71  O   UNL A   1      46.124  31.692  35.983  1.00  0.00    -0.237 OA
ATOM     72  O   UNL A   1      48.224  31.939  34.715  1.00  0.00    -0.744 OA
ENDBRANCH  68  69
ENDBRANCH  49  63
BRANCH  50  73
ATOM     73  C   UNL A   1      37.740  24.080  25.640  1.00  0.00    -0.014 A 
ATOM     74  C   UNL A   1      37.378  23.119  24.476  1.00  0.00     0.010 A 
ATOM     75  C   UNL A   1      36.249  24.359  26.040  1.00  0.00     0.010 A 
ATOM     76  C   UNL A   1      36.250  22.225  24.369  1.00  0.00     0.020 A 
ATOM     77  C   UNL A   1      35.125  23.469  25.991  1.00  0.00     0.020 A 
ATOM     78  C   UNL A   1      35.197  22.321  25.245  1.00  0.00     0.054 A 
BRANCH  78  79
ATOM     79  S   UNL A   1      34.107  20.906  25.582  1.00  0.00     0.124 S 
ATOM     80  O   UNL A   1      32.906  21.227  24.823  1.00  0.00    -0.237 OA
ATOM     81  O   UNL A   1      34.882  19.765  25.091  1.00  0.00    -0.237 OA
ATOM     82  O   UNL A   1      33.968  20.939  27.037  1.00  0.00    -0.744 OA
ENDBRANCH  78  79
ENDBRANCH  50  73
BRANCH  62  83
ATOM     83  C   UNL A   1      45.631  26.351  25.796  1.00  0.00    -0.014 A 
ATOM     84  C   UNL A   1      45.891  27.481  25.011  1.00  0.00     0.010 A 
ATOM     85  C   UNL A   1      46.704  25.457  26.036  1.00  0.00     0.010 A 
ATOM     86  C   UNL A   1      47.145  27.665  24.422  1.00  0.00     0.020 A 
ATOM     87  C   UNL A   1      47.971  25.662  25.503  1.00  0.00     0.020 A 
ATOM     88  C   UNL A   1      48.170  26.747  24.663  1.00  0.00     0.054 A 
BRANCH  88  89
ATOM     89  S   UNL A   1      49.777  26.993  23.881  1.00  0.00     0.124 S 
ATOM     90  O   UNL A   1      50.628  26.114  24.678  1.00  0.00    -0.237 OA
ATOM     91  O   UNL A   1      49.536  26.559  22.507  1.00  0.00    -0.237 OA
ATOM     92  O   UNL A   1      50.028  28.423  24.042  1.00  0.00    -0.744 OA
ENDBRANCH  88  89
ENDBRANCH  62  83
ENDBRANCH  36  37
ENDBRANCH  29  31
ENDBRANCH  28  29
ENDBRANCH  27  28
ENDBRANCH   1  27
TORSDOF 21
ENDMDL
MODEL 2
REMARK VINA RESULT:      -8.7      3.416     11.121
REMARK SMILES Cc1ccccc1N[C@H](C(=O)OCCOCCOC(=O)c1ccc(-c2c3nc(c(-c4ccc(S(=O)(=O)[O-])cc4)c4ccc([nH]4)c(-c4ccc(S(=O)(=O)[O-])cc4)c4nc(c(-c5ccc(S(=O)(=O)[O-])cc5)c5ccc2[nH]5)C=C4)C=C3)cc1)c1cccc(C2CC2)c1
REMARK SMILES IDX 16 1 15 2 14 3 13 4 12 5 10 6 11 7 9 8 8 9 7 11 1 12 2 13
REMARK SMILES IDX 3 14 4 15 6 16 5 17 81 18 82 19 89 20 83 21 85 22 84 23
REMARK SMILES IDX 86 24 87 25 88 26 17 27 18 28 19 29 20 30 21 31 22 32 80 33
REMARK SMILES IDX 23 34 79 35 24 36 25 37 26 38 73 39 27 40 78 41 72 42 74 43
REMARK SMILES IDX 28 44 77 45 71 46 70 47 29 49 59 50 40 51 58 52 41 53 44 54
REMARK SMILES IDX 57 55 75 56 42 57 43 58 56 60 76 61 45 62 30 63 31 64 39 65
REMARK SMILES IDX 32 66 38 67 33 68 34 69 35 70 36 71 37 72 60 73 61 74 69 75
REMARK SMILES IDX 62 76 68 77 63 78 64 79 65 80 66 81 67 82 46 83 47 84 55 85
REMARK SMILES IDX 48 86 54 87 49 88 50 89 51 90 52 91 53 92
REMARK H PARENT 8 10 74 48 44 59
REMARK Flexibility Score: inf
ROOT
ATOM      1  C   UNL A   1      37.576  23.130  25.662  1.00  0.00     0.202 C 
ENDROOT
BRANCH   1   2
ATOM      2  O   UNL A   1      37.738  22.103  24.725  1.00  0.00    -0.374 OA
BRANCH   2   3
ATOM      3  C   UNL A   1      36.727  21.099  24.717  1.00  0.00     0.202 C 
BRANCH   3   4
ATOM      4  C   UNL A   1      35.618  21.876  25.319  1.00  0.00     0.261 C 
BRANCH   4   5
ATOM      5  O   UNL A   1      35.098  21.024  26.338  1.00  0.00    -0.461 OA
BRANCH   5   6
ATOM      6  C   UNL A   1      33.835  21.384  26.671  1.00  0.00     0.333 C 
ATOM      7  O   UNL A   1      33.462  21.682  27.801  1.00  0.00    -0.249 OA
BRANCH   6   8
ATOM      8  C   UNL A   1      33.036  21.598  25.392  1.00  0.00     0.221 C 
BRANCH   8   9
ATOM      9  N   UNL A   1      32.266  20.361  25.303  1.00  0.00    -0.368 N 
ATOM     10  H   UNL A   1      31.344  20.490  25.624  1.00  0.00     0.161 HD
BRANCH   9  11
ATOM     11  C   UNL A   1      32.474  19.083  24.901  1.00  0.00     0.038 A 
ATOM     12  C   UNL A   1      32.112  19.775  22.460  1.00  0.00     0.046 C 
ATOM     13  C   UNL A   1      32.648  18.844  23.525  1.00  0.00    -0.028 A 
ATOM     14  C   UNL A   1      33.347  17.704  23.121  1.00  0.00     0.005 A 
ATOM     15  C   UNL A   1      33.740  16.755  24.061  1.00  0.00     0.000 A 
ATOM     16  C   UNL A   1      32.620  18.018  25.779  1.00  0.00     0.026 A 
ATOM     17  C   UNL A   1      33.308  16.874  25.377  1.00  0.00     0.002 A 
ENDBRANCH   9  11
ENDBRANCH   8   9
BRANCH   8  18
ATOM     18  C   UNL A   1      32.185  22.893  25.344  1.00  0.00    -0.014 A 
ATOM     19  C   UNL A   1      31.373  23.074  23.706  1.00  0.00     0.006 A 
ATOM     20  C   UNL A   1      32.137  24.372  26.506  1.00  0.00     0.010 A 
ATOM     21  C   UNL A   1      30.376  24.511  23.333  1.00  0.00     0.001 A 
ATOM     22  C   UNL A   1      31.308  25.942  25.985  1.00  0.00    -0.045 A 
ATOM     23  C   UNL A   1      30.307  25.907  24.458  1.00  0.00     0.004 A 
BRANCH  22  24
ATOM     24  C   UNL A   1      31.290  27.274  26.700  1.00  0.00     0.019 C 
ATOM     25  C   UNL A   1      32.524  28.023  27.074  1.00  0.00     0.009 C 
ATOM     26  C   UNL A   1      31.652  28.523  25.953  1.00  0.00     0.009 C 
ENDBRANCH  22  24
ENDBRANCH   8  18
ENDBRANCH   6   8
ENDBRANCH   5   6
ENDBRANCH   4   5
ENDBRANCH   3   4
ENDBRANCH   2   3
ENDBRANCH   1   2
BRANCH   1  27
ATOM     27  C   UNL A   1      38.833  23.147  26.516  1.00  0.00     0.261 C 
BRANCH  27  28
ATOM     28  O   UNL A   1      39.717  22.058  26.122  1.00  0.00    -0.460 OA
BRANCH  28  29
ATOM     29  C   UNL A   1      40.603  21.624  27.075  1.00  0.00     0.338 C 
ATOM     30  O   UNL A   1      40.458  20.600  27.723  1.00  0.00    -0.246 OA
BRANCH  29  31
ATOM     31  C   UNL A   1      41.740  22.592  27.266  1.00  0.00     0.060 A 
ATOM     32  C   UNL A   1      41.984  23.167  28.527  1.00  0.00     0.016 A 
ATOM     33  C   UNL A   1      42.352  23.141  26.137  1.00  0.00     0.016 A 
ATOM     34  C   UNL A   1      42.747  24.344  28.626  1.00  0.00     0.010 A 
ATOM     35  C   UNL A   1      42.962  24.386  26.225  1.00  0.00     0.010 A 
ATOM     36  C   UNL A   1      43.171  25.000  27.465  1.00  0.00    -0.014 A 
BRANCH  36  37
ATOM     37  C   UNL A   1      44.082  26.158  27.462  1.00  0.00     0.031 A 
ATOM     38  C   UNL A   1      45.474  25.809  27.777  1.00  0.00     0.074 A 
ATOM     39  C   UNL A   1      43.766  27.432  27.131  1.00  0.00     0.049 A 
ATOM     40  N   UNL A   1      46.266  26.515  28.508  1.00  0.00    -0.248 NA
ATOM     41  C   UNL A   1      46.065  24.536  27.343  1.00  0.00     0.031 C 
ATOM     42  C   UNL A   1      44.566  28.613  26.856  1.00  0.00     0.029 A 
ATOM     43  N   UNL A   1      42.513  27.962  26.916  1.00  0.00    -0.354 N 
ATOM     44  C   UNL A   1      47.517  26.036  28.195  1.00  0.00     0.074 A 
ATOM     45  C   UNL A   1      47.321  24.679  27.758  1.00  0.00     0.031 C 
ATOM     46  C   UNL A   1      43.796  29.732  26.949  1.00  0.00     0.029 A 
ATOM     47  C   UNL A   1      42.442  29.333  27.388  1.00  0.00     0.049 A 
ATOM     48  H   UNL A   1      41.766  27.476  26.498  1.00  0.00     0.167 HD
ATOM     49  C   UNL A   1      48.521  26.916  27.916  1.00  0.00     0.031 A 
ATOM     50  C   UNL A   1      41.379  29.965  28.296  1.00  0.00     0.031 A 
ATOM     51  C   UNL A   1      48.068  28.314  28.032  1.00  0.00     0.049 A 
ATOM     52  C   UNL A   1      42.700  30.690  29.222  1.00  0.00     0.074 A 
ATOM     53  C   UNL A   1      47.927  29.349  27.120  1.00  0.00     0.029 A 
ATOM     54  N   UNL A   1      47.371  28.723  29.174  1.00  0.00    -0.354 N 
ATOM     55  N   UNL A   1      43.851  30.059  29.407  1.00  0.00    -0.248 NA
ATOM     56  C   UNL A   1      42.771  32.024  29.877  1.00  0.00     0.031 C 
ATOM     57  C   UNL A   1      47.132  30.368  27.715  1.00  0.00     0.029 A 
ATOM     58  C   UNL A   1      46.751  29.941  28.977  1.00  0.00     0.049 A 
ATOM     59  H   UNL A   1      47.327  28.208  30.011  1.00  0.00     0.167 HD
ATOM     60  C   UNL A   1      44.762  30.875  30.015  1.00  0.00     0.074 A 
ATOM     61  C   UNL A   1      43.995  32.027  30.434  1.00  0.00     0.031 C 
ATOM     62  C   UNL A   1      46.104  30.633  30.082  1.00  0.00     0.031 A 
BRANCH  49  63
ATOM     63  C   UNL A   1      49.763  26.464  27.169  1.00  0.00    -0.014 A 
ATOM     64  C   UNL A   1      50.847  25.899  27.863  1.00  0.00     0.010 A 
ATOM     65  C   UNL A   1      49.921  26.572  25.770  1.00  0.00     0.010 A 
ATOM     66  C   UNL A   1      52.032  25.517  27.220  1.00  0.00     0.020 A 
ATOM     67  C   UNL A   1      51.117  26.242  25.115  1.00  0.00     0.020 A 
ATOM     68  C   UNL A   1      52.162  25.695  25.847  1.00  0.00     0.054 A 
BRANCH  68  69
ATOM     69  S   UNL A   1      53.667  25.112  25.028  1.00  0.00     0.124 S 
ATOM     70  O   UNL A   1      54.721  25.783  25.784  1.00  0.00    -0.237 OA
ATOM     71  O   UNL A   1      53.577  23.668  25.218  1.00  0.00    -0.237 OA
ATOM     72  O   UNL A   1      53.510  25.569  23.649  1.00  0.00    -0.744 OA
ENDBRANCH  68  69
ENDBRANCH  49  63
BRANCH  50  73
ATOM     73  C   UNL A   1      39.333  29.565  28.718  1.00  0.00    -0.014 A 
ATOM     74  C   UNL A   1      38.437  29.952  29.925  1.00  0.00     0.010 A 
ATOM     75  C   UNL A   1      38.127  29.199  27.781  1.00  0.00     0.010 A 
ATOM     76  C   UNL A   1      37.117  30.534  29.913  1.00  0.00     0.020 A 
ATOM     77  C   UNL A   1      36.826  29.799  27.717  1.00  0.00     0.020 A 
ATOM     78  C   UNL A   1      36.387  30.586  28.751  1.00  0.00     0.054 A 
BRANCH  78  79
ATOM     79  S   UNL A   1      35.069  31.814  28.509  1.00  0.00     0.124 S 
ATOM     80  O   UNL A   1      35.688  32.793  27.626  1.00  0.00    -0.237 OA
ATOM     81  O   UNL A   1      33.985  31.025  27.921  1.00  0.00    -0.237 OA
ATOM     82  O   UNL A   1      34.793  32.270  29.870  1.00  0.00    -0.744 OA
ENDBRANCH  78  79
ENDBRANCH  50  73
BRANCH  62  83
ATOM     83  C   UNL A   1      47.008  31.175  31.154  1.00  0.00    -0.014 A 
ATOM     84  C   UNL A   1      47.653  32.413  31.044  1.00  0.00     0.010 A 
ATOM     85  C   UNL A   1      47.052  30.522  32.411  1.00  0.00     0.010 A 
ATOM     86  C   UNL A   1      48.383  32.933  32.117  1.00  0.00     0.020 A 
ATOM     87  C   UNL A   1      47.727  31.059  33.501  1.00  0.00     0.020 A 
ATOM     88  C   UNL A   1      48.423  32.246  33.332  1.00  0.00     0.054 A 
BRANCH  88  89
ATOM     89  S   UNL A   1      49.384  32.925  34.699  1.00  0.00     0.124 S 
ATOM     90  O   UNL A   1      49.871  31.709  35.346  1.00  0.00    -0.237 OA
ATOM     91  O   UNL A   1      50.398  33.724  34.015  1.00  0.00    -0.237 OA
ATOM     92  O   UNL A   1      48.406  33.693  35.465  1.00  0.00    -0.744 OA
ENDBRANCH  88  89
ENDBRANCH  62  83
ENDBRANCH  36  37
ENDBRANCH  29  31
ENDBRANCH  28  29
ENDBRANCH  27  28
ENDBRANCH   1  27
TORSDOF 21
ENDMDL
MODEL 3
REMARK VINA RESULT:      -8.7      4.388     12.484
REMARK SMILES Cc1ccccc1N[C@H](C(=O)OCCOCCOC(=O)c1ccc(-c2c3nc(c(-c4ccc(S(=O)(=O)[O-])cc4)c4ccc([nH]4)c(-c4ccc(S(=O)(=O)[O-])cc4)c4nc(c(-c5ccc(S(=O)(=O)[O-])cc5)c5ccc2[nH]5)C=C4)C=C3)cc1)c1cccc(C2CC2)c1
REMARK SMILES IDX 16 1 15 2 14 3 13 4 12 5 10 6 11 7 9 8 8 9 7 11 1 12 2 13
REMARK SMILES IDX 3 14 4 15 6 16 5 17 81 18 82 19 89 20 83 21 85 22 84 23
REMARK SMILES IDX 86 24 87 25 88 26 17 27 18 28 19 29 20 30 21 31 22 32 80 33
REMARK SMILES IDX 23 34 79 35 24 36 25 37 26 38 73 39 27 40 78 41 72 42 74 43
REMARK SMILES IDX 28 44 77 45 71 46 70 47 29 49 59 50 40 51 58 52 41 53 44 54
REMARK SMILES IDX 57 55 75 56 42 57 43 58 56 60 76 61 45 62 30 63 31 64 39 65
REMARK SMILES IDX 32 66 38 67 33 68 34 69 35 70 36 71 37 72 60 73 61 74 69 75
REMARK SMILES IDX 62 76 68 77 63 78 64 79 65 80 66 81 67 82 46 83 47 84 55 85
REMARK SMILES IDX 48 86 54 87 49 88 50 89 51 90 52 91 53 92
REMARK H PARENT 8 10 74 48 44 59
REMARK Flexibility Score: inf
ROOT
ATOM      1  C   UNL A   1      39.073  21.921  26.012  1.00  0.00     0.202 C 
ENDROOT
BRANCH   1   2
ATOM      2  O   UNL A   1      38.015  21.717  25.119  1.00  0.00    -0.374 OA
BRANCH   2   3
ATOM      3  C   UNL A   1      37.415  20.425  25.146  1.00  0.00     0.202 C 
BRANCH   3   4
ATOM      4  C   UNL A   1      35.997  20.819  24.968  1.00  0.00     0.261 C 
BRANCH   4   5
ATOM      5  O   UNL A   1      35.654  21.474  26.187  1.00  0.00    -0.461 OA
BRANCH   5   6
ATOM      6  C   UNL A   1      34.317  21.422  26.404  1.00  0.00     0.333 C 
ATOM      7  O   UNL A   1      33.771  21.612  27.486  1.00  0.00    -0.249 OA
BRANCH   6   8
ATOM      8  C   UNL A   1      33.608  21.344  25.059  1.00  0.00     0.221 C 
BRANCH   8   9
ATOM      9  N   UNL A   1      32.707  20.213  25.255  1.00  0.00    -0.368 N 
ATOM     10  H   UNL A   1      31.906  20.477  25.765  1.00  0.00     0.161 HD
BRANCH   9  11
ATOM     11  C   UNL A   1      32.670  18.898  24.929  1.00  0.00     0.038 A 
ATOM     12  C   UNL A   1      32.205  19.500  22.482  1.00  0.00     0.046 C 
ATOM     13  C   UNL A   1      32.679  18.555  23.564  1.00  0.00    -0.028 A 
ATOM     14  C   UNL A   1      33.147  17.295  23.187  1.00  0.00     0.005 A 
ATOM     15  C   UNL A   1      33.466  16.349  24.157  1.00  0.00     0.000 A 
ATOM     16  C   UNL A   1      32.722  17.874  25.865  1.00  0.00     0.026 A 
ATOM     17  C   UNL A   1      33.179  16.612  25.492  1.00  0.00     0.002 A 
ENDBRANCH   9  11
ENDBRANCH   8   9
BRANCH   8  18
ATOM     18  C   UNL A   1      32.914  22.649  24.592  1.00  0.00    -0.014 A 
ATOM     19  C   UNL A   1      33.435  23.084  22.884  1.00  0.00     0.006 A 
ATOM     20  C   UNL A   1      31.954  23.943  25.565  1.00  0.00     0.010 A 
ATOM     21  C   UNL A   1      32.846  24.581  22.101  1.00  0.00     0.001 A 
ATOM     22  C   UNL A   1      31.576  25.589  24.808  1.00  0.00    -0.045 A 
ATOM     23  C   UNL A   1      31.903  25.798  23.023  1.00  0.00     0.004 A 
BRANCH  22  24
ATOM     24  C   UNL A   1      30.957  26.802  25.464  1.00  0.00     0.019 C 
ATOM     25  C   UNL A   1      31.350  27.296  26.816  1.00  0.00     0.009 C 
ATOM     26  C   UNL A   1      31.753  28.067  25.587  1.00  0.00     0.009 C 
ENDBRANCH  22  24
ENDBRANCH   8  18
ENDBRANCH   6   8
ENDBRANCH   5   6
ENDBRANCH   4   5
ENDBRANCH   3   4
ENDBRANCH   2   3
ENDBRANCH   1   2
BRANCH   1  27
ATOM     27  C   UNL A   1      38.828  23.262  26.682  1.00  0.00     0.261 C 
BRANCH  27  28
ATOM     28  O   UNL A   1      39.801  24.240  26.209  1.00  0.00    -0.460 OA
BRANCH  28  29
ATOM     29  C   UNL A   1      40.936  24.377  26.966  1.00  0.00     0.338 C 
ATOM     30  O   UNL A   1      41.989  23.809  26.722  1.00  0.00    -0.246 OA
BRANCH  29  31
ATOM     31  C   UNL A   1      40.710  25.260  28.164  1.00  0.00     0.060 A 
ATOM     32  C   UNL A   1      39.422  25.405  28.711  1.00  0.00     0.016 A 
ATOM     33  C   UNL A   1      41.713  26.158  28.535  1.00  0.00     0.016 A 
ATOM     34  C   UNL A   1      39.130  26.507  29.535  1.00  0.00     0.010 A 
ATOM     35  C   UNL A   1      41.374  27.324  29.210  1.00  0.00     0.010 A 
ATOM     36  C   UNL A   1      40.085  27.511  29.722  1.00  0.00    -0.014 A 
BRANCH  36  37
ATOM     37  C   UNL A   1      39.926  28.631  30.666  1.00  0.00     0.031 A 
ATOM     38  C   UNL A   1      39.399  29.852  30.043  1.00  0.00     0.074 A 
ATOM     39  C   UNL A   1      40.141  28.596  32.003  1.00  0.00     0.049 A 
ATOM     40  N   UNL A   1      39.789  31.049  30.316  1.00  0.00    -0.248 NA
ATOM     41  C   UNL A   1      38.415  29.796  28.953  1.00  0.00     0.031 C 
ATOM     42  C   UNL A   1      39.819  29.512  33.083  1.00  0.00     0.029 A 
ATOM     43  N   UNL A   1      40.729  27.590  32.737  1.00  0.00    -0.354 N 
ATOM     44  C   UNL A   1      38.779  31.844  29.824  1.00  0.00     0.074 A 
ATOM     45  C   UNL A   1      38.165  31.089  28.763  1.00  0.00     0.031 C 
ATOM     46  C   UNL A   1      40.571  29.223  34.181  1.00  0.00     0.029 A 
ATOM     47  C   UNL A   1      41.509  28.135  33.832  1.00  0.00     0.049 A 
ATOM     48  H   UNL A   1      40.632  26.629  32.544  1.00  0.00     0.167 HD
ATOM     49  C   UNL A   1      38.274  32.843  30.601  1.00  0.00     0.031 A 
ATOM     50  C   UNL A   1      42.955  27.800  34.220  1.00  0.00     0.031 A 
ATOM     51  C   UNL A   1      38.959  32.919  31.905  1.00  0.00     0.049 A 
ATOM     52  C   UNL A   1      43.246  29.539  34.368  1.00  0.00     0.074 A 
ATOM     53  C   UNL A   1      38.544  32.715  33.213  1.00  0.00     0.029 A 
ATOM     54  N   UNL A   1      40.356  32.930  31.953  1.00  0.00    -0.354 N 
ATOM     55  N   UNL A   1      42.658  30.415  33.566  1.00  0.00    -0.248 NA
ATOM     56  C   UNL A   1      44.096  30.272  35.343  1.00  0.00     0.031 C 
ATOM     57  C   UNL A   1      39.697  32.591  34.037  1.00  0.00     0.029 A 
ATOM     58  C   UNL A   1      40.820  32.676  33.229  1.00  0.00     0.049 A 
ATOM     59  H   UNL A   1      40.937  33.097  31.176  1.00  0.00     0.167 HD
ATOM     60  C   UNL A   1      42.915  31.694  33.969  1.00  0.00     0.074 A 
ATOM     61  C   UNL A   1      43.944  31.557  34.976  1.00  0.00     0.031 C 
ATOM     62  C   UNL A   1      42.235  32.799  33.543  1.00  0.00     0.031 A 
BRANCH  49  63
ATOM     63  C   UNL A   1      36.917  33.454  30.296  1.00  0.00    -0.014 A 
ATOM     64  C   UNL A   1      36.744  34.279  29.172  1.00  0.00     0.010 A 
ATOM     65  C   UNL A   1      35.766  33.247  31.089  1.00  0.00     0.010 A 
ATOM     66  C   UNL A   1      35.524  34.904  28.882  1.00  0.00     0.020 A 
ATOM     67  C   UNL A   1      34.550  33.903  30.843  1.00  0.00     0.020 A 
ATOM     68  C   UNL A   1      34.432  34.715  29.724  1.00  0.00     0.054 A 
BRANCH  68  69
ATOM     69  S   UNL A   1      32.845  35.461  29.280  1.00  0.00     0.124 S 
ATOM     70  O   UNL A   1      33.240  36.773  28.774  1.00  0.00    -0.237 OA
ATOM     71  O   UNL A   1      32.339  34.527  28.278  1.00  0.00    -0.237 OA
ATOM     72  O   UNL A   1      32.106  35.482  30.540  1.00  0.00    -0.744 OA
ENDBRANCH  68  69
ENDBRANCH  49  63
BRANCH  50  73
ATOM     73  C   UNL A   1      44.225  26.112  33.970  1.00  0.00    -0.014 A 
ATOM     74  C   UNL A   1      45.772  25.984  33.948  1.00  0.00     0.010 A 
ATOM     75  C   UNL A   1      43.976  24.578  34.192  1.00  0.00     0.010 A 
ATOM     76  C   UNL A   1      46.604  25.044  34.661  1.00  0.00     0.020 A 
ATOM     77  C   UNL A   1      44.763  23.640  34.939  1.00  0.00     0.020 A 
ATOM     78  C   UNL A   1      46.051  23.954  35.286  1.00  0.00     0.054 A 
BRANCH  78  79
ATOM     79  S   UNL A   1      46.884  23.129  36.674  1.00  0.00     0.124 S 
ATOM     80  O   UNL A   1      47.621  22.053  36.024  1.00  0.00    -0.237 OA
ATOM     81  O   UNL A   1      47.700  24.196  37.254  1.00  0.00    -0.237 OA
ATOM     82  O   UNL A   1      45.769  22.713  37.523  1.00  0.00    -0.744 OA
ENDBRANCH  78  79
ENDBRANCH  50  73
BRANCH  62  83
ATOM     83  C   UNL A   1      42.809  34.188  33.524  1.00  0.00    -0.014 A 
ATOM     84  C   UNL A   1      43.845  34.567  32.661  1.00  0.00     0.010 A 
ATOM     85  C   UNL A   1      42.152  35.213  34.250  1.00  0.00     0.010 A 
ATOM     86  C   UNL A   1      44.261  35.900  32.591  1.00  0.00     0.020 A 
ATOM     87  C   UNL A   1      42.520  36.549  34.143  1.00  0.00     0.020 A 
ATOM     88  C   UNL A   1      43.603  36.877  33.341  1.00  0.00     0.054 A 
BRANCH  88  89
ATOM     89  S   UNL A   1      44.166  38.587  33.250  1.00  0.00     0.124 S 
ATOM     90  O   UNL A   1      42.967  39.312  33.665  1.00  0.00    -0.237 OA
ATOM     91  O   UNL A   1      45.277  38.613  34.199  1.00  0.00    -0.237 OA
ATOM     92  O   UNL A   1      44.546  38.756  31.850  1.00  0.00    -0.744 OA
ENDBRANCH  88  89
ENDBRANCH  62  83
ENDBRANCH  36  37
ENDBRANCH  29  31
ENDBRANCH  28  29
ENDBRANCH  27  28
ENDBRANCH   1  27
TORSDOF 21
ENDMDL
