MODEL 1
REMARK VINA RESULT:      -9.4      0.000      0.000
REMARK SMILES O=C(Cc1cccn(C(F)F)c1=O)OCCOCCOC(=O)c1ccc(-c2c3nc(c(-c4ccc(S(=O)(=O)[O-])cc4)c4ccc([nH]4)c(-c4ccc(S(=O)(=O)[O-])cc4)c4nc(c(-c5ccc(S(=O)(=O)[O-])cc5)c5ccc2[nH]5)C=C4)C=C3)cc1
REMARK SMILES IDX 18 1 17 2 16 3 15 4 14 5 2 6 1 7 3 8 4 9 5 10 12 11 6 12
REMARK SMILES IDX 8 13 13 14 7 15 9 16 10 17 11 18 19 19 20 20 21 21 22 22
REMARK SMILES IDX 23 23 24 24 82 25 25 26 81 27 26 28 27 29 28 30 75 31 29 32
REMARK SMILES IDX 80 33 74 34 76 35 30 36 79 37 73 38 72 39 31 41 61 42 42 43
REMARK SMILES IDX 60 44 43 45 46 46 59 47 77 48 44 49 45 50 58 52 78 53 47 54
REMARK SMILES IDX 32 55 33 56 41 57 34 58 40 59 35 60 36 61 37 62 38 63 39 64
REMARK SMILES IDX 62 65 63 66 71 67 64 68 70 69 65 70 66 71 67 72 68 73 69 74
REMARK SMILES IDX 48 75 49 76 57 77 50 78 56 79 51 80 52 81 53 82 54 83 55 84
REMARK H PARENT 76 40 46 51
REMARK Flexibility Score: inf
ROOT
ATOM      1  C   UNL A   1      41.373  19.714  26.430  1.00  0.00     0.202 C 
ENDROOT
BRANCH   1   2
ATOM      2  O   UNL A   1      42.246  19.602  25.298  1.00  0.00    -0.374 OA
BRANCH   2   3
ATOM      3  C   UNL A   1      43.493  18.954  25.510  1.00  0.00     0.202 C 
BRANCH   3   4
ATOM      4  C   UNL A   1      44.675  19.468  24.698  1.00  0.00     0.261 C 
BRANCH   4   5
ATOM      5  O   UNL A   1      45.136  20.773  25.075  1.00  0.00    -0.463 OA
BRANCH   5   6
ATOM      6  C   UNL A   1      44.540  21.948  24.759  1.00  0.00     0.310 C 
ATOM      7  O   UNL A   1      44.529  22.330  23.588  1.00  0.00    -0.252 OA
BRANCH   6   8
ATOM      8  C   UNL A   1      44.053  22.879  25.863  1.00  0.00     0.164 C 
BRANCH   8   9
ATOM      9  C   UNL A   1      44.518  24.305  25.906  1.00  0.00     0.029 A 
ATOM     10  C   UNL A   1      43.759  25.306  25.423  1.00  0.00     0.011 A 
ATOM     11  C   UNL A   1      45.924  24.617  26.335  1.00  0.00     0.258 A 
ATOM     12  C   UNL A   1      44.283  26.639  25.276  1.00  0.00     0.019 A 
ATOM     13  N   UNL A   1      46.408  25.848  25.936  1.00  0.00    -0.258 N 
ATOM     14  O   UNL A   1      46.602  23.768  26.901  1.00  0.00    -0.269 OA
ATOM     15  C   UNL A   1      45.586  26.859  25.477  1.00  0.00     0.095 A 
BRANCH  13  16
ATOM     16  C   UNL A   1      47.828  26.075  26.062  1.00  0.00     0.451 C 
ATOM     17  F   UNL A   1      48.478  25.377  25.090  1.00  0.00    -0.185 F 
ATOM     18  F   UNL A   1      48.099  27.384  25.840  1.00  0.00    -0.185 F 
ENDBRANCH  13  16
ENDBRANCH   8   9
ENDBRANCH   6   8
ENDBRANCH   5   6
ENDBRANCH   4   5
ENDBRANCH   3   4
ENDBRANCH   2   3
ENDBRANCH   1   2
BRANCH   1  19
ATOM     19  C   UNL A   1      40.073  20.508  26.241  1.00  0.00     0.261 C 
BRANCH  19  20
ATOM     20  O   UNL A   1      40.287  21.922  26.394  1.00  0.00    -0.460 OA
BRANCH  20  21
ATOM     21  C   UNL A   1      39.220  22.715  26.126  1.00  0.00     0.338 C 
ATOM     22  O   UNL A   1      38.149  22.370  25.655  1.00  0.00    -0.246 OA
BRANCH  21  23
ATOM     23  C   UNL A   1      39.454  24.043  26.729  1.00  0.00     0.060 A 
ATOM     24  C   UNL A   1      39.030  24.334  28.026  1.00  0.00     0.016 A 
ATOM     25  C   UNL A   1      40.132  25.009  25.969  1.00  0.00     0.016 A 
ATOM     26  C   UNL A   1      39.322  25.581  28.579  1.00  0.00     0.010 A 
ATOM     27  C   UNL A   1      40.421  26.256  26.522  1.00  0.00     0.010 A 
ATOM     28  C   UNL A   1      40.043  26.538  27.841  1.00  0.00    -0.014 A 
BRANCH  28  29
ATOM     29  C   UNL A   1      40.559  27.752  28.519  1.00  0.00     0.031 A 
ATOM     30  C   UNL A   1      41.988  27.872  28.949  1.00  0.00     0.074 A 
ATOM     31  C   UNL A   1      39.689  28.755  28.744  1.00  0.00     0.049 A 
ATOM     32  N   UNL A   1      42.598  28.909  29.459  1.00  0.00    -0.248 NA
ATOM     33  C   UNL A   1      42.840  26.684  28.793  1.00  0.00     0.031 C 
ATOM     34  C   UNL A   1      38.268  28.720  28.387  1.00  0.00     0.029 A 
ATOM     35  N   UNL A   1      39.863  29.997  29.298  1.00  0.00    -0.354 N 
ATOM     36  C   UNL A   1      43.914  28.515  29.662  1.00  0.00     0.074 A 
ATOM     37  C   UNL A   1      44.000  27.123  29.270  1.00  0.00     0.031 C 
ATOM     38  C   UNL A   1      37.712  29.901  28.689  1.00  0.00     0.029 A 
ATOM     39  C   UNL A   1      38.723  30.766  29.293  1.00  0.00     0.049 A 
ATOM     40  H   UNL A   1      40.722  30.309  29.665  1.00  0.00     0.167 HD
ATOM     41  C   UNL A   1      44.950  29.259  30.115  1.00  0.00     0.031 A 
ATOM     42  C   UNL A   1      38.510  32.029  29.709  1.00  0.00     0.031 A 
ATOM     43  C   UNL A   1      44.833  30.639  30.519  1.00  0.00     0.049 A 
ATOM     44  C   UNL A   1      39.669  32.822  30.241  1.00  0.00     0.074 A 
ATOM     45  C   UNL A   1      45.833  31.488  30.960  1.00  0.00     0.029 A 
ATOM     46  N   UNL A   1      43.654  31.371  30.538  1.00  0.00    -0.354 N 
ATOM     47  N   UNL A   1      40.924  32.458  30.357  1.00  0.00    -0.248 NA
ATOM     48  C   UNL A   1      39.396  34.195  30.682  1.00  0.00     0.031 C 
ATOM     49  C   UNL A   1      45.249  32.703  31.321  1.00  0.00     0.029 A 
ATOM     50  C   UNL A   1      43.897  32.648  31.020  1.00  0.00     0.049 A 
ATOM     51  H   UNL A   1      42.775  31.034  30.253  1.00  0.00     0.167 HD
ATOM     52  C   UNL A   1      41.596  33.565  30.862  1.00  0.00     0.074 A 
ATOM     53  C   UNL A   1      40.610  34.616  31.015  1.00  0.00     0.031 C 
ATOM     54  C   UNL A   1      42.910  33.691  31.171  1.00  0.00     0.031 A 
BRANCH  41  55
ATOM     55  C   UNL A   1      46.317  28.624  30.188  1.00  0.00    -0.014 A 
ATOM     56  C   UNL A   1      46.869  28.282  31.437  1.00  0.00     0.010 A 
ATOM     57  C   UNL A   1      47.116  28.505  29.036  1.00  0.00     0.010 A 
ATOM     58  C   UNL A   1      48.201  27.871  31.538  1.00  0.00     0.020 A 
ATOM     59  C   UNL A   1      48.440  28.065  29.129  1.00  0.00     0.020 A 
ATOM     60  C   UNL A   1      48.983  27.777  30.383  1.00  0.00     0.054 A 
BRANCH  60  61
ATOM     61  S   UNL A   1      50.722  27.286  30.542  1.00  0.00     0.124 S 
ATOM     62  O   UNL A   1      50.802  26.878  31.940  1.00  0.00    -0.237 OA
ATOM     63  O   UNL A   1      50.839  26.210  29.561  1.00  0.00    -0.237 OA
ATOM     64  O   UNL A   1      51.454  28.506  30.204  1.00  0.00    -0.744 OA
ENDBRANCH  60  61
ENDBRANCH  41  55
BRANCH  42  65
ATOM     65  C   UNL A   1      37.148  32.616  29.564  1.00  0.00    -0.014 A 
ATOM     66  C   UNL A   1      36.698  33.066  28.309  1.00  0.00     0.010 A 
ATOM     67  C   UNL A   1      36.343  32.833  30.696  1.00  0.00     0.010 A 
ATOM     68  C   UNL A   1      35.502  33.779  28.196  1.00  0.00     0.020 A 
ATOM     69  C   UNL A   1      35.127  33.517  30.582  1.00  0.00     0.020 A 
ATOM     70  C   UNL A   1      34.732  34.014  29.338  1.00  0.00     0.054 A 
BRANCH  70  71
ATOM     71  S   UNL A   1      33.219  35.003  29.178  1.00  0.00     0.124 S 
ATOM     72  O   UNL A   1      33.750  36.289  28.731  1.00  0.00    -0.237 OA
ATOM     73  O   UNL A   1      32.456  34.257  28.180  1.00  0.00    -0.237 OA
ATOM     74  O   UNL A   1      32.658  34.991  30.526  1.00  0.00    -0.744 OA
ENDBRANCH  70  71
ENDBRANCH  42  65
BRANCH  54  75
ATOM     75  C   UNL A   1      43.392  35.014  31.713  1.00  0.00    -0.014 A 
ATOM     76  C   UNL A   1      43.316  35.271  33.095  1.00  0.00     0.010 A 
ATOM     77  C   UNL A   1      43.777  36.051  30.846  1.00  0.00     0.010 A 
ATOM     78  C   UNL A   1      43.566  36.551  33.596  1.00  0.00     0.020 A 
ATOM     79  C   UNL A   1      44.063  37.325  31.347  1.00  0.00     0.020 A 
ATOM     80  C   UNL A   1      43.925  37.573  32.715  1.00  0.00     0.054 A 
BRANCH  80  81
ATOM     81  S   UNL A   1      44.190  39.241  33.377  1.00  0.00     0.124 S 
ATOM     82  O   UNL A   1      45.338  39.702  32.601  1.00  0.00    -0.237 OA
ATOM     83  O   UNL A   1      42.923  39.907  33.086  1.00  0.00    -0.237 OA
ATOM     84  O   UNL A   1      44.451  39.010  34.796  1.00  0.00    -0.744 OA
ENDBRANCH  80  81
ENDBRANCH  54  75
ENDBRANCH  28  29
ENDBRANCH  21  23
ENDBRANCH  20  21
ENDBRANCH  19  20
ENDBRANCH   1  19
TORSDOF 19
ENDMDL
MODEL 2
REMARK VINA RESULT:      -9.2      3.308     11.078
REMARK SMILES O=C(Cc1cccn(C(F)F)c1=O)OCCOCCOC(=O)c1ccc(-c2c3nc(c(-c4ccc(S(=O)(=O)[O-])cc4)c4ccc([nH]4)c(-c4ccc(S(=O)(=O)[O-])cc4)c4nc(c(-c5ccc(S(=O)(=O)[O-])cc5)c5ccc2[nH]5)C=C4)C=C3)cc1
REMARK SMILES IDX 18 1 17 2 16 3 15 4 14 5 2 6 1 7 3 8 4 9 5 10 12 11 6 12
REMARK SMILES IDX 8 13 13 14 7 15 9 16 10 17 11 18 19 19 20 20 21 21 22 22
REMARK SMILES IDX 23 23 24 24 82 25 25 26 81 27 26 28 27 29 28 30 75 31 29 32
REMARK SMILES IDX 80 33 74 34 76 35 30 36 79 37 73 38 72 39 31 41 61 42 42 43
REMARK SMILES IDX 60 44 43 45 46 46 59 47 77 48 44 49 45 50 58 52 78 53 47 54
REMARK SMILES IDX 32 55 33 56 41 57 34 58 40 59 35 60 36 61 37 62 38 63 39 64
REMARK SMILES IDX 62 65 63 66 71 67 64 68 70 69 65 70 66 71 67 72 68 73 69 74
REMARK SMILES IDX 48 75 49 76 57 77 50 78 56 79 51 80 52 81 53 82 54 83 55 84
REMARK H PARENT 76 40 46 51
REMARK Flexibility Score: inf
ROOT
ATOM      1  C   UNL A   1      33.156  33.884  28.286  1.00  0.00     0.202 C 
ENDROOT
BRANCH   1   2
ATOM      2  O   UNL A   1      32.519  34.709  29.270  1.00  0.00    -0.374 OA
BRANCH   2   3
ATOM      3  C   UNL A   1      33.092  35.989  29.503  1.00  0.00     0.202 C 
BRANCH   3   4
ATOM      4  C   UNL A   1      33.508  36.298  30.935  1.00  0.00     0.261 C 
BRANCH   4   5
ATOM      5  O   UNL A   1      34.392  35.333  31.523  1.00  0.00    -0.463 OA
BRANCH   5   6
ATOM      6  C   UNL A   1      34.728  35.259  32.834  1.00  0.00     0.310 C 
ATOM      7  O   UNL A   1      34.497  36.215  33.576  1.00  0.00    -0.252 OA
BRANCH   6   8
ATOM      8  C   UNL A   1      35.552  34.084  33.347  1.00  0.00     0.164 C 
BRANCH   8   9
ATOM      9  C   UNL A   1      37.045  34.096  33.213  1.00  0.00     0.029 A 
ATOM     10  C   UNL A   1      37.839  34.461  34.238  1.00  0.00     0.011 A 
ATOM     11  C   UNL A   1      37.675  33.864  31.869  1.00  0.00     0.258 A 
ATOM     12  C   UNL A   1      39.252  34.670  34.052  1.00  0.00     0.019 A 
ATOM     13  N   UNL A   1      38.974  34.318  31.734  1.00  0.00    -0.258 N 
ATOM     14  O   UNL A   1      37.014  33.404  30.946  1.00  0.00    -0.269 OA
ATOM     15  C   UNL A   1      39.763  34.651  32.818  1.00  0.00     0.095 A 
BRANCH  13  16
ATOM     16  C   UNL A   1      39.515  34.388  30.398  1.00  0.00     0.451 C 
ATOM     17  F   UNL A   1      38.937  35.430  29.738  1.00  0.00    -0.185 F 
ATOM     18  F   UNL A   1      40.842  34.664  30.461  1.00  0.00    -0.185 F 
ENDBRANCH  13  16
ENDBRANCH   8   9
ENDBRANCH   6   8
ENDBRANCH   5   6
ENDBRANCH   4   5
ENDBRANCH   3   4
ENDBRANCH   2   3
ENDBRANCH   1   2
BRANCH   1  19
ATOM     19  C   UNL A   1      34.546  33.328  28.626  1.00  0.00     0.261 C 
BRANCH  19  20
ATOM     20  O   UNL A   1      35.011  32.409  27.622  1.00  0.00    -0.460 OA
BRANCH  20  21
ATOM     21  C   UNL A   1      34.719  31.102  27.834  1.00  0.00     0.338 C 
ATOM     22  O   UNL A   1      33.660  30.540  27.605  1.00  0.00    -0.246 OA
BRANCH  21  23
ATOM     23  C   UNL A   1      35.970  30.384  28.154  1.00  0.00     0.060 A 
ATOM     24  C   UNL A   1      37.032  30.342  27.250  1.00  0.00     0.016 A 
ATOM     25  C   UNL A   1      36.073  29.753  29.404  1.00  0.00     0.016 A 
ATOM     26  C   UNL A   1      38.217  29.702  27.616  1.00  0.00     0.010 A 
ATOM     27  C   UNL A   1      37.257  29.111  29.766  1.00  0.00     0.010 A 
ATOM     28  C   UNL A   1      38.345  29.108  28.886  1.00  0.00    -0.014 A 
BRANCH  28  29
ATOM     29  C   UNL A   1      39.678  28.654  29.352  1.00  0.00     0.031 A 
ATOM     30  C   UNL A   1      40.236  27.318  28.974  1.00  0.00     0.074 A 
ATOM     31  C   UNL A   1      40.379  29.492  30.140  1.00  0.00     0.049 A 
ATOM     32  N   UNL A   1      41.424  26.834  29.224  1.00  0.00    -0.248 NA
ATOM     33  C   UNL A   1      39.356  26.406  28.227  1.00  0.00     0.031 C 
ATOM     34  C   UNL A   1      39.906  30.805  30.586  1.00  0.00     0.029 A 
ATOM     35  N   UNL A   1      41.632  29.386  30.685  1.00  0.00    -0.354 N 
ATOM     36  C   UNL A   1      41.451  25.573  28.644  1.00  0.00     0.074 A 
ATOM     37  C   UNL A   1      40.139  25.344  28.075  1.00  0.00     0.031 C 
ATOM     38  C   UNL A   1      40.874  31.399  31.298  1.00  0.00     0.029 A 
ATOM     39  C   UNL A   1      42.021  30.500  31.391  1.00  0.00     0.049 A 
ATOM     40  H   UNL A   1      42.199  28.587  30.583  1.00  0.00     0.167 HD
ATOM     41  C   UNL A   1      42.487  24.703  28.580  1.00  0.00     0.031 A 
ATOM     42  C   UNL A   1      43.174  30.781  32.029  1.00  0.00     0.031 A 
ATOM     43  C   UNL A   1      43.779  24.945  29.173  1.00  0.00     0.049 A 
ATOM     44  C   UNL A   1      44.295  29.784  31.973  1.00  0.00     0.074 A 
ATOM     45  C   UNL A   1      44.903  24.139  29.134  1.00  0.00     0.029 A 
ATOM     46  N   UNL A   1      44.122  26.068  29.914  1.00  0.00    -0.354 N 
ATOM     47  N   UNL A   1      44.330  28.626  31.356  1.00  0.00    -0.248 NA
ATOM     48  C   UNL A   1      45.535  30.129  32.679  1.00  0.00     0.031 C 
ATOM     49  C   UNL A   1      45.896  24.733  29.914  1.00  0.00     0.029 A 
ATOM     50  C   UNL A   1      45.427  25.955  30.368  1.00  0.00     0.049 A 
ATOM     51  H   UNL A   1      43.527  26.831  30.092  1.00  0.00     0.167 HD
ATOM     52  C   UNL A   1      45.603  28.115  31.579  1.00  0.00     0.074 A 
ATOM     53  C   UNL A   1      46.313  29.096  32.375  1.00  0.00     0.031 C 
ATOM     54  C   UNL A   1      46.129  26.937  31.162  1.00  0.00     0.031 A 
BRANCH  41  55
ATOM     55  C   UNL A   1      42.296  23.407  27.831  1.00  0.00    -0.014 A 
ATOM     56  C   UNL A   1      41.634  22.328  28.446  1.00  0.00     0.010 A 
ATOM     57  C   UNL A   1      42.902  23.207  26.577  1.00  0.00     0.010 A 
ATOM     58  C   UNL A   1      41.615  21.067  27.843  1.00  0.00     0.020 A 
ATOM     59  C   UNL A   1      42.859  21.954  25.956  1.00  0.00     0.020 A 
ATOM     60  C   UNL A   1      42.238  20.885  26.606  1.00  0.00     0.054 A 
BRANCH  60  61
ATOM     61  S   UNL A   1      42.241  19.230  25.864  1.00  0.00     0.124 S 
ATOM     62  O   UNL A   1      43.121  19.408  24.714  1.00  0.00    -0.237 OA
ATOM     63  O   UNL A   1      42.771  18.399  26.942  1.00  0.00    -0.237 OA
ATOM     64  O   UNL A   1      40.835  18.995  25.543  1.00  0.00    -0.744 OA
ENDBRANCH  60  61
ENDBRANCH  41  55
BRANCH  42  65
ATOM     65  C   UNL A   1      43.319  32.099  32.708  1.00  0.00    -0.014 A 
ATOM     66  C   UNL A   1      42.902  32.260  34.043  1.00  0.00     0.010 A 
ATOM     67  C   UNL A   1      43.766  33.223  31.992  1.00  0.00     0.010 A 
ATOM     68  C   UNL A   1      42.867  33.528  34.629  1.00  0.00     0.020 A 
ATOM     69  C   UNL A   1      43.763  34.491  32.587  1.00  0.00     0.020 A 
ATOM     70  C   UNL A   1      43.283  34.638  33.890  1.00  0.00     0.054 A 
BRANCH  70  71
ATOM     71  S   UNL A   1      43.160  36.282  34.647  1.00  0.00     0.124 S 
ATOM     72  O   UNL A   1      44.464  36.412  35.292  1.00  0.00    -0.237 OA
ATOM     73  O   UNL A   1      42.942  37.148  33.491  1.00  0.00    -0.237 OA
ATOM     74  O   UNL A   1      42.022  36.158  35.554  1.00  0.00    -0.744 OA
ENDBRANCH  70  71
ENDBRANCH  42  65
BRANCH  54  75
ATOM     75  C   UNL A   1      47.551  26.615  31.546  1.00  0.00    -0.014 A 
ATOM     76  C   UNL A   1      48.601  26.934  30.663  1.00  0.00     0.010 A 
ATOM     77  C   UNL A   1      47.835  25.868  32.703  1.00  0.00     0.010 A 
ATOM     78  C   UNL A   1      49.897  26.470  30.902  1.00  0.00     0.020 A 
ATOM     79  C   UNL A   1      49.138  25.432  32.963  1.00  0.00     0.020 A 
ATOM     80  C   UNL A   1      50.153  25.710  32.045  1.00  0.00     0.054 A 
BRANCH  80  81
ATOM     81  S   UNL A   1      51.830  25.069  32.308  1.00  0.00     0.124 S 
ATOM     82  O   UNL A   1      51.642  23.632  32.130  1.00  0.00    -0.237 OA
ATOM     83  O   UNL A   1      52.598  25.740  31.262  1.00  0.00    -0.237 OA
ATOM     84  O   UNL A   1      52.149  25.491  33.670  1.00  0.00    -0.744 OA
ENDBRANCH  80  81
ENDBRANCH  54  75
ENDBRANCH  28  29
ENDBRANCH  21  23
ENDBRANCH  20  21
ENDBRANCH  19  20
ENDBRANCH   1  19
TORSDOF 19
ENDMDL
MODEL 3
REMARK VINA RESULT:      -9.1      4.527      5.787
REMARK SMILES O=C(Cc1cccn(C(F)F)c1=O)OCCOCCOC(=O)c1ccc(-c2c3nc(c(-c4ccc(S(=O)(=O)[O-])cc4)c4ccc([nH]4)c(-c4ccc(S(=O)(=O)[O-])cc4)c4nc(c(-c5ccc(S(=O)(=O)[O-])cc5)c5ccc2[nH]5)C=C4)C=C3)cc1
REMARK SMILES IDX 18 1 17 2 16 3 15 4 14 5 2 6 1 7 3 8 4 9 5 10 12 11 6 12
REMARK SMILES IDX 8 13 13 14 7 15 9 16 10 17 11 18 19 19 20 20 21 21 22 22
REMARK SMILES IDX 23 23 24 24 82 25 25 26 81 27 26 28 27 29 28 30 75 31 29 32
REMARK SMILES IDX 80 33 74 34 76 35 30 36 79 37 73 38 72 39 31 41 61 42 42 43
REMARK SMILES IDX 60 44 43 45 46 46 59 47 77 48 44 49 45 50 58 52 78 53 47 54
REMARK SMILES IDX 32 55 33 56 41 57 34 58 40 59 35 60 36 61 37 62 38 63 39 64
REMARK SMILES IDX 62 65 63 66 71 67 64 68 70 69 65 70 66 71 67 72 68 73 69 74
REMARK SMILES IDX 48 75 49 76 57 77 50 78 56 79 51 80 52 81 53 82 54 83 55 84
REMARK H PARENT 76 40 46 51
REMARK Flexibility Score: inf
ROOT
ATOM      1  C   UNL A   1      44.332  23.470  24.566  1.00  0.00     0.202 C 
ENDROOT
BRANCH   1   2
ATOM      2  O   UNL A   1      44.026  22.111  24.230  1.00  0.00    -0.374 OA
BRANCH   2   3
ATOM      3  C   UNL A   1      45.024  21.139  24.512  1.00  0.00     0.202 C 
BRANCH   3   4
ATOM      4  C   UNL A   1      44.563  19.688  24.576  1.00  0.00     0.261 C 
BRANCH   4   5
ATOM      5  O   UNL A   1      43.146  19.517  24.717  1.00  0.00    -0.463 OA
BRANCH   5   6
ATOM      6  C   UNL A   1      42.511  19.014  25.804  1.00  0.00     0.310 C 
ATOM      7  O   UNL A   1      42.387  17.795  25.927  1.00  0.00    -0.252 OA
BRANCH   6   8
ATOM      8  C   UNL A   1      41.793  19.949  26.770  1.00  0.00     0.164 C 
BRANCH   8   9
ATOM      9  C   UNL A   1      40.415  20.449  26.451  1.00  0.00     0.029 A 
ATOM     10  C   UNL A   1      39.615  19.799  25.586  1.00  0.00     0.011 A 
ATOM     11  C   UNL A   1      39.971  21.788  26.967  1.00  0.00     0.258 A 
ATOM     12  C   UNL A   1      38.381  20.381  25.124  1.00  0.00     0.019 A 
ATOM     13  N   UNL A   1      38.911  22.364  26.293  1.00  0.00    -0.258 N 
ATOM     14  O   UNL A   1      40.602  22.351  27.854  1.00  0.00    -0.269 OA
ATOM     15  C   UNL A   1      38.096  21.648  25.437  1.00  0.00     0.095 A 
BRANCH  13  16
ATOM     16  C   UNL A   1      38.639  23.757  26.550  1.00  0.00     0.451 C 
ATOM     17  F   UNL A   1      39.498  24.521  25.820  1.00  0.00    -0.185 F 
ATOM     18  F   UNL A   1      37.391  24.064  26.117  1.00  0.00    -0.185 F 
ENDBRANCH  13  16
ENDBRANCH   8   9
ENDBRANCH   6   8
ENDBRANCH   5   6
ENDBRANCH   4   5
ENDBRANCH   3   4
ENDBRANCH   2   3
ENDBRANCH   1   2
BRANCH   1  19
ATOM     19  C   UNL A   1      44.045  23.921  26.005  1.00  0.00     0.261 C 
BRANCH  19  20
ATOM     20  O   UNL A   1      42.696  24.396  26.154  1.00  0.00    -0.460 OA
BRANCH  20  21
ATOM     21  C   UNL A   1      42.507  25.722  25.936  1.00  0.00     0.338 C 
ATOM     22  O   UNL A   1      42.270  26.264  24.869  1.00  0.00    -0.246 OA
BRANCH  21  23
ATOM     23  C   UNL A   1      42.378  26.401  27.242  1.00  0.00     0.060 A 
ATOM     24  C   UNL A   1      43.182  27.492  27.572  1.00  0.00     0.016 A 
ATOM     25  C   UNL A   1      41.410  25.932  28.143  1.00  0.00     0.016 A 
ATOM     26  C   UNL A   1      42.988  28.141  28.792  1.00  0.00     0.010 A 
ATOM     27  C   UNL A   1      41.219  26.580  29.363  1.00  0.00     0.010 A 
ATOM     28  C   UNL A   1      41.987  27.706  29.681  1.00  0.00    -0.014 A 
BRANCH  28  29
ATOM     29  C   UNL A   1      41.628  28.546  30.849  1.00  0.00     0.031 A 
ATOM     30  C   UNL A   1      42.423  28.521  32.117  1.00  0.00     0.074 A 
ATOM     31  C   UNL A   1      40.547  29.342  30.733  1.00  0.00     0.049 A 
ATOM     32  N   UNL A   1      42.285  29.274  33.177  1.00  0.00    -0.248 NA
ATOM     33  C   UNL A   1      43.504  27.529  32.215  1.00  0.00     0.031 C 
ATOM     34  C   UNL A   1      39.691  29.414  29.546  1.00  0.00     0.029 A 
ATOM     35  N   UNL A   1      39.994  30.250  31.599  1.00  0.00    -0.354 N 
ATOM     36  C   UNL A   1      43.276  28.870  34.062  1.00  0.00     0.074 A 
ATOM     37  C   UNL A   1      43.975  27.768  33.434  1.00  0.00     0.031 C 
ATOM     38  C   UNL A   1      38.751  30.349  29.741  1.00  0.00     0.029 A 
ATOM     39  C   UNL A   1      38.911  30.917  31.077  1.00  0.00     0.049 A 
ATOM     40  H   UNL A   1      40.338  30.407  32.508  1.00  0.00     0.167 HD
ATOM     41  C   UNL A   1      43.579  29.392  35.273  1.00  0.00     0.031 A 
ATOM     42  C   UNL A   1      38.140  31.889  31.601  1.00  0.00     0.031 A 
ATOM     43  C   UNL A   1      42.854  30.479  35.886  1.00  0.00     0.049 A 
ATOM     44  C   UNL A   1      38.475  32.427  32.963  1.00  0.00     0.074 A 
ATOM     45  C   UNL A   1      43.106  31.099  37.097  1.00  0.00     0.029 A 
ATOM     46  N   UNL A   1      41.738  31.102  35.345  1.00  0.00    -0.354 N 
ATOM     47  N   UNL A   1      39.463  32.086  33.756  1.00  0.00    -0.248 NA
ATOM     48  C   UNL A   1      37.612  33.487  33.496  1.00  0.00     0.031 C 
ATOM     49  C   UNL A   1      42.100  32.040  37.325  1.00  0.00     0.029 A 
ATOM     50  C   UNL A   1      41.269  32.074  36.216  1.00  0.00     0.049 A 
ATOM     51  H   UNL A   1      41.338  30.887  34.472  1.00  0.00     0.167 HD
ATOM     52  C   UNL A   1      39.354  32.904  34.873  1.00  0.00     0.074 A 
ATOM     53  C   UNL A   1      38.214  33.770  34.646  1.00  0.00     0.031 C 
ATOM     54  C   UNL A   1      40.131  32.932  35.984  1.00  0.00     0.031 A 
BRANCH  41  55
ATOM     55  C   UNL A   1      44.755  28.825  36.030  1.00  0.00    -0.014 A 
ATOM     56  C   UNL A   1      44.556  27.808  36.983  1.00  0.00     0.010 A 
ATOM     57  C   UNL A   1      46.033  29.401  35.908  1.00  0.00     0.010 A 
ATOM     58  C   UNL A   1      45.597  27.405  37.823  1.00  0.00     0.020 A 
ATOM     59  C   UNL A   1      47.086  28.980  36.727  1.00  0.00     0.020 A 
ATOM     60  C   UNL A   1      46.854  28.003  37.698  1.00  0.00     0.054 A 
BRANCH  60  61
ATOM     61  S   UNL A   1      48.179  27.498  38.829  1.00  0.00     0.124 S 
ATOM     62  O   UNL A   1      48.506  26.161  38.347  1.00  0.00    -0.237 OA
ATOM     63  O   UNL A   1      49.199  28.520  38.600  1.00  0.00    -0.237 OA
ATOM     64  O   UNL A   1      47.544  27.550  40.145  1.00  0.00    -0.744 OA
ENDBRANCH  60  61
ENDBRANCH  41  55
BRANCH  42  65
ATOM     65  C   UNL A   1      37.024  32.444  30.784  1.00  0.00    -0.014 A 
ATOM     66  C   UNL A   1      37.280  33.411  29.794  1.00  0.00     0.010 A 
ATOM     67  C   UNL A   1      35.692  32.094  31.068  1.00  0.00     0.010 A 
ATOM     68  C   UNL A   1      36.227  34.065  29.150  1.00  0.00     0.020 A 
ATOM     69  C   UNL A   1      34.635  32.723  30.401  1.00  0.00     0.020 A 
ATOM     70  C   UNL A   1      34.910  33.727  29.470  1.00  0.00     0.054 A 
BRANCH  70  71
ATOM     71  S   UNL A   1      33.560  34.641  28.673  1.00  0.00     0.124 S 
ATOM     72  O   UNL A   1      32.648  34.862  29.793  1.00  0.00    -0.237 OA
ATOM     73  O   UNL A   1      34.237  35.833  28.170  1.00  0.00    -0.237 OA
ATOM     74  O   UNL A   1      33.080  33.719  27.648  1.00  0.00    -0.744 OA
ENDBRANCH  70  71
ENDBRANCH  42  65
BRANCH  54  75
ATOM     75  C   UNL A   1      39.795  33.927  37.066  1.00  0.00    -0.014 A 
ATOM     76  C   UNL A   1      40.461  35.168  37.104  1.00  0.00     0.010 A 
ATOM     77  C   UNL A   1      38.936  33.582  38.123  1.00  0.00     0.010 A 
ATOM     78  C   UNL A   1      40.315  36.020  38.201  1.00  0.00     0.020 A 
ATOM     79  C   UNL A   1      38.760  34.448  39.207  1.00  0.00     0.020 A 
ATOM     80  C   UNL A   1      39.475  35.647  39.252  1.00  0.00     0.054 A 
BRANCH  80  81
ATOM     81  S   UNL A   1      39.344  36.741  40.693  1.00  0.00     0.124 S 
ATOM     82  O   UNL A   1      38.281  37.657  40.289  1.00  0.00    -0.237 OA
ATOM     83  O   UNL A   1      39.003  35.814  41.769  1.00  0.00    -0.237 OA
ATOM     84  O   UNL A   1      40.674  37.337  40.794  1.00  0.00    -0.744 OA
ENDBRANCH  80  81
ENDBRANCH  54  75
ENDBRANCH  28  29
ENDBRANCH  21  23
ENDBRANCH  20  21
ENDBRANCH  19  20
ENDBRANCH   1  19
TORSDOF 19
ENDMDL
