MODEL 1
REMARK VINA RESULT:     -10.2      0.000      0.000
REMARK SMILES O=C(OCCOCCOC(=O)c1ccc(-c2c3nc(c(-c4ccc(S(=O)(=O)[O-])cc4)c4ccc([nH]4)c(-c4ccc(S(=O)(=O)[O-])cc4)c4nc(c(-c5ccc(S(=O)(=O)[O-])cc5)c5ccc2[nH]5)C=C4)C=C3)cc1)c1ccc(NS(=O)(=O)Cc2c(Cl)cccc2Cl)cc1
REMARK SMILES IDX 5 1 4 2 3 3 2 4 1 5 72 6 73 7 90 8 74 9 89 10 75 11 76 12
REMARK SMILES IDX 77 14 78 15 79 16 80 17 81 18 82 19 87 20 83 21 84 22 86 23
REMARK SMILES IDX 88 24 85 25 6 26 7 27 8 28 9 29 10 30 11 31 12 32 13 33
REMARK SMILES IDX 71 34 14 35 70 36 15 37 16 38 17 39 64 40 18 41 69 42 63 43
REMARK SMILES IDX 65 44 19 45 68 46 62 47 61 48 20 50 50 51 31 52 49 53 32 54
REMARK SMILES IDX 35 55 48 56 66 57 33 58 34 59 47 61 67 62 36 63 21 64 22 65
REMARK SMILES IDX 30 66 23 67 29 68 24 69 25 70 26 71 27 72 28 73 51 74 52 75
REMARK SMILES IDX 60 76 53 77 59 78 54 79 55 80 56 81 57 82 58 83 37 84 38 85
REMARK SMILES IDX 46 86 39 87 45 88 40 89 41 90 42 91 43 92 44 93
REMARK H PARENT 76 13 65 49 35 60
REMARK Flexibility Score: inf
ROOT
ATOM      1  C   UNL A   1      32.230  28.643  24.208  1.00  0.00     0.202 C 
ENDROOT
BRANCH   1   2
ATOM      2  C   UNL A   1      31.418  27.881  23.166  1.00  0.00     0.261 C 
BRANCH   2   3
ATOM      3  O   UNL A   1      30.023  27.863  23.541  1.00  0.00    -0.460 OA
BRANCH   3   4
ATOM      4  C   UNL A   1      29.308  26.743  23.812  1.00  0.00     0.338 C 
ATOM      5  O   UNL A   1      28.113  26.654  23.561  1.00  0.00    -0.246 OA
BRANCH   4   6
ATOM      6  C   UNL A   1      30.016  25.572  24.360  1.00  0.00     0.060 A 
ATOM      7  C   UNL A   1      30.385  24.496  23.548  1.00  0.00     0.018 A 
ATOM      8  C   UNL A   1      30.348  25.572  25.713  1.00  0.00     0.018 A 
ATOM      9  C   UNL A   1      30.972  23.362  24.105  1.00  0.00     0.027 A 
ATOM     10  C   UNL A   1      30.940  24.437  26.266  1.00  0.00     0.027 A 
ATOM     11  C   UNL A   1      31.184  23.304  25.478  1.00  0.00     0.049 A 
BRANCH  11  12
ATOM     12  N   UNL A   1      31.639  22.149  26.158  1.00  0.00    -0.283 N 
ATOM     13  H   UNL A   1      31.216  21.950  27.023  1.00  0.00     0.180 HD
BRANCH  12  14
ATOM     14  S   UNL A   1      32.807  21.102  25.645  1.00  0.00     0.237 S 
ATOM     15  O   UNL A   1      33.553  20.674  26.813  1.00  0.00    -0.206 OA
ATOM     16  O   UNL A   1      32.090  20.108  24.869  1.00  0.00    -0.206 OA
BRANCH  14  17
ATOM     17  C   UNL A   1      33.953  21.925  24.526  1.00  0.00     0.198 C 
BRANCH  17  18
ATOM     18  C   UNL A   1      35.394  22.196  24.912  1.00  0.00     0.006 A 
ATOM     19  C   UNL A   1      35.718  23.494  25.397  1.00  0.00     0.046 A 
ATOM     20  C   UNL A   1      36.418  21.237  25.012  1.00  0.00     0.046 A 
ATOM     21  Cl  UNL A   1      34.533  24.752  25.563  1.00  0.00    -0.084 Cl
ATOM     22  C   UNL A   1      37.002  23.829  25.851  1.00  0.00     0.021 A 
ATOM     23  C   UNL A   1      37.719  21.592  25.418  1.00  0.00     0.021 A 
ATOM     24  Cl  UNL A   1      36.164  19.544  24.782  1.00  0.00    -0.084 Cl
ATOM     25  C   UNL A   1      38.014  22.885  25.834  1.00  0.00     0.003 A 
ENDBRANCH  17  18
ENDBRANCH  14  17
ENDBRANCH  12  14
ENDBRANCH  11  12
ENDBRANCH   4   6
ENDBRANCH   3   4
ENDBRANCH   2   3
ENDBRANCH   1   2
BRANCH   1  26
ATOM     26  O   UNL A   1      31.436  28.981  25.344  1.00  0.00    -0.374 OA
BRANCH  26  27
ATOM     27  C   UNL A   1      32.150  29.004  26.588  1.00  0.00     0.202 C 
BRANCH  27  28
ATOM     28  C   UNL A   1      32.360  30.457  27.015  1.00  0.00     0.261 C 
BRANCH  28  29
ATOM     29  O   UNL A   1      33.765  30.741  26.937  1.00  0.00    -0.460 OA
BRANCH  29  30
ATOM     30  C   UNL A   1      34.177  31.810  27.663  1.00  0.00     0.338 C 
ATOM     31  O   UNL A   1      33.542  32.821  27.915  1.00  0.00    -0.246 OA
BRANCH  30  32
ATOM     32  C   UNL A   1      35.465  31.452  28.299  1.00  0.00     0.060 A 
ATOM     33  C   UNL A   1      35.567  30.213  28.947  1.00  0.00     0.016 A 
ATOM     34  C   UNL A   1      36.580  32.291  28.201  1.00  0.00     0.016 A 
ATOM     35  C   UNL A   1      36.781  29.816  29.507  1.00  0.00     0.010 A 
ATOM     36  C   UNL A   1      37.793  31.893  28.757  1.00  0.00     0.010 A 
ATOM     37  C   UNL A   1      37.893  30.665  29.429  1.00  0.00    -0.014 A 
BRANCH  37  38
ATOM     38  C   UNL A   1      39.142  30.360  30.157  1.00  0.00     0.031 A 
ATOM     39  C   UNL A   1      39.983  29.214  29.673  1.00  0.00     0.074 A 
ATOM     40  C   UNL A   1      39.474  31.046  31.266  1.00  0.00     0.049 A 
ATOM     41  N   UNL A   1      41.038  28.675  30.221  1.00  0.00    -0.248 NA
ATOM     42  C   UNL A   1      39.567  28.580  28.409  1.00  0.00     0.031 C 
ATOM     43  C   UNL A   1      38.731  32.181  31.816  1.00  0.00     0.029 A 
ATOM     44  N   UNL A   1      40.511  30.865  32.146  1.00  0.00    -0.354 N 
ATOM     45  C   UNL A   1      41.402  27.629  29.381  1.00  0.00     0.074 A 
ATOM     46  C   UNL A   1      40.447  27.596  28.298  1.00  0.00     0.031 C 
ATOM     47  C   UNL A   1      39.325  32.579  32.955  1.00  0.00     0.029 A 
ATOM     48  C   UNL A   1      40.463  31.706  33.231  1.00  0.00     0.049 A 
ATOM     49  H   UNL A   1      41.220  30.197  32.012  1.00  0.00     0.167 HD
ATOM     50  C   UNL A   1      42.443  26.775  29.507  1.00  0.00     0.031 A 
ATOM     51  C   UNL A   1      41.232  31.740  34.338  1.00  0.00     0.031 A 
ATOM     52  C   UNL A   1      43.381  26.813  30.595  1.00  0.00     0.049 A 
ATOM     53  C   UNL A   1      42.352  30.740  34.480  1.00  0.00     0.074 A 
ATOM     54  C   UNL A   1      44.498  26.022  30.794  1.00  0.00     0.029 A 
ATOM     55  N   UNL A   1      43.304  27.682  31.674  1.00  0.00    -0.354 N 
ATOM     56  N   UNL A   1      42.724  29.797  33.645  1.00  0.00    -0.248 NA
ATOM     57  C   UNL A   1      43.154  30.808  35.708  1.00  0.00     0.031 C 
ATOM     58  C   UNL A   1      45.063  26.373  32.025  1.00  0.00     0.029 A 
ATOM     59  C   UNL A   1      44.332  27.422  32.560  1.00  0.00     0.049 A 
ATOM     60  H   UNL A   1      42.619  28.378  31.789  1.00  0.00     0.167 HD
ATOM     61  C   UNL A   1      43.815  29.174  34.242  1.00  0.00     0.074 A 
ATOM     62  C   UNL A   1      44.057  29.861  35.494  1.00  0.00     0.031 C 
ATOM     63  C   UNL A   1      44.550  28.123  33.800  1.00  0.00     0.031 A 
BRANCH  50  64
ATOM     64  C   UNL A   1      42.611  25.711  28.458  1.00  0.00    -0.014 A 
ATOM     65  C   UNL A   1      43.427  25.923  27.332  1.00  0.00     0.010 A 
ATOM     66  C   UNL A   1      41.998  24.457  28.636  1.00  0.00     0.010 A 
ATOM     67  C   UNL A   1      43.616  24.903  26.396  1.00  0.00     0.020 A 
ATOM     68  C   UNL A   1      42.205  23.427  27.714  1.00  0.00     0.020 A 
ATOM     69  C   UNL A   1      43.008  23.659  26.597  1.00  0.00     0.054 A 
BRANCH  69  70
ATOM     70  S   UNL A   1      43.326  22.335  25.398  1.00  0.00     0.124 S 
ATOM     71  O   UNL A   1      42.197  21.438  25.632  1.00  0.00    -0.237 OA
ATOM     72  O   UNL A   1      43.308  23.048  24.124  1.00  0.00    -0.237 OA
ATOM     73  O   UNL A   1      44.630  21.811  25.798  1.00  0.00    -0.744 OA
ENDBRANCH  69  70
ENDBRANCH  50  64
BRANCH  51  74
ATOM     74  C   UNL A   1      40.953  32.723  35.423  1.00  0.00    -0.014 A 
ATOM     75  C   UNL A   1      41.533  34.003  35.399  1.00  0.00     0.010 A 
ATOM     76  C   UNL A   1      40.125  32.370  36.504  1.00  0.00     0.010 A 
ATOM     77  C   UNL A   1      41.316  34.901  36.449  1.00  0.00     0.020 A 
ATOM     78  C   UNL A   1      39.881  33.276  37.542  1.00  0.00     0.020 A 
ATOM     79  C   UNL A   1      40.492  34.529  37.515  1.00  0.00     0.054 A 
BRANCH  79  80
ATOM     80  S   UNL A   1      40.201  35.720  38.854  1.00  0.00     0.124 S 
ATOM     81  O   UNL A   1      41.503  35.761  39.512  1.00  0.00    -0.237 OA
ATOM     82  O   UNL A   1      39.823  36.928  38.124  1.00  0.00    -0.237 OA
ATOM     83  O   UNL A   1      39.124  35.106  39.627  1.00  0.00    -0.744 OA
ENDBRANCH  79  80
ENDBRANCH  51  74
BRANCH  63  84
ATOM     84  C   UNL A   1      45.696  27.668  34.662  1.00  0.00    -0.014 A 
ATOM     85  C   UNL A   1      46.968  28.254  34.544  1.00  0.00     0.010 A 
ATOM     86  C   UNL A   1      45.478  26.687  35.648  1.00  0.00     0.010 A 
ATOM     87  C   UNL A   1      48.011  27.845  35.379  1.00  0.00     0.020 A 
ATOM     88  C   UNL A   1      46.511  26.298  36.504  1.00  0.00     0.020 A 
ATOM     89  C   UNL A   1      47.775  26.871  36.354  1.00  0.00     0.054 A 
BRANCH  89  90
ATOM     90  S   UNL A   1      49.134  26.394  37.457  1.00  0.00     0.124 S 
ATOM     91  O   UNL A   1      49.631  25.180  36.817  1.00  0.00    -0.237 OA
ATOM     92  O   UNL A   1      50.023  27.551  37.388  1.00  0.00    -0.237 OA
ATOM     93  O   UNL A   1      48.479  26.195  38.747  1.00  0.00    -0.744 OA
ENDBRANCH  89  90
ENDBRANCH  63  84
ENDBRANCH  37  38
ENDBRANCH  30  32
ENDBRANCH  29  30
ENDBRANCH  28  29
ENDBRANCH  27  28
ENDBRANCH  26  27
ENDBRANCH   1  26
TORSDOF 21
ENDMDL
MODEL 2
REMARK VINA RESULT:      -9.9      2.317      8.476
REMARK SMILES O=C(OCCOCCOC(=O)c1ccc(-c2c3nc(c(-c4ccc(S(=O)(=O)[O-])cc4)c4ccc([nH]4)c(-c4ccc(S(=O)(=O)[O-])cc4)c4nc(c(-c5ccc(S(=O)(=O)[O-])cc5)c5ccc2[nH]5)C=C4)C=C3)cc1)c1ccc(NS(=O)(=O)Cc2c(Cl)cccc2Cl)cc1
REMARK SMILES IDX 5 1 4 2 3 3 2 4 1 5 72 6 73 7 90 8 74 9 89 10 75 11 76 12
REMARK SMILES IDX 77 14 78 15 79 16 80 17 81 18 82 19 87 20 83 21 84 22 86 23
REMARK SMILES IDX 88 24 85 25 6 26 7 27 8 28 9 29 10 30 11 31 12 32 13 33
REMARK SMILES IDX 71 34 14 35 70 36 15 37 16 38 17 39 64 40 18 41 69 42 63 43
REMARK SMILES IDX 65 44 19 45 68 46 62 47 61 48 20 50 50 51 31 52 49 53 32 54
REMARK SMILES IDX 35 55 48 56 66 57 33 58 34 59 47 61 67 62 36 63 21 64 22 65
REMARK SMILES IDX 30 66 23 67 29 68 24 69 25 70 26 71 27 72 28 73 51 74 52 75
REMARK SMILES IDX 60 76 53 77 59 78 54 79 55 80 56 81 57 82 58 83 37 84 38 85
REMARK SMILES IDX 46 86 39 87 45 88 40 89 41 90 42 91 43 92 44 93
REMARK H PARENT 76 13 65 49 35 60
REMARK Flexibility Score: inf
ROOT
ATOM      1  C   UNL A   1      39.941  21.115  26.033  1.00  0.00     0.202 C 
ENDROOT
BRANCH   1   2
ATOM      2  C   UNL A   1      38.711  22.011  26.129  1.00  0.00     0.261 C 
BRANCH   2   3
ATOM      3  O   UNL A   1      37.795  21.714  25.051  1.00  0.00    -0.460 OA
BRANCH   3   4
ATOM      4  C   UNL A   1      36.607  21.077  25.196  1.00  0.00     0.338 C 
ATOM      5  O   UNL A   1      36.456  19.901  24.893  1.00  0.00    -0.246 OA
BRANCH   4   6
ATOM      6  C   UNL A   1      35.486  21.811  25.810  1.00  0.00     0.060 A 
ATOM      7  C   UNL A   1      34.508  21.155  26.562  1.00  0.00     0.018 A 
ATOM      8  C   UNL A   1      35.438  23.195  25.656  1.00  0.00     0.018 A 
ATOM      9  C   UNL A   1      33.409  21.858  27.054  1.00  0.00     0.027 A 
ATOM     10  C   UNL A   1      34.340  23.895  26.154  1.00  0.00     0.027 A 
ATOM     11  C   UNL A   1      33.289  23.217  26.788  1.00  0.00     0.049 A 
BRANCH  11  12
ATOM     12  N   UNL A   1      32.149  23.987  27.118  1.00  0.00    -0.283 N 
ATOM     13  H   UNL A   1      32.188  24.496  27.959  1.00  0.00     0.180 HD
BRANCH  12  14
ATOM     14  S   UNL A   1      30.761  24.119  26.235  1.00  0.00     0.237 S 
ATOM     15  O   UNL A   1      30.905  23.275  25.065  1.00  0.00    -0.206 OA
ATOM     16  O   UNL A   1      29.700  23.830  27.182  1.00  0.00    -0.206 OA
BRANCH  14  17
ATOM     17  C   UNL A   1      30.523  25.813  25.672  1.00  0.00     0.198 C 
BRANCH  17  18
ATOM     18  C   UNL A   1      31.695  26.730  25.377  1.00  0.00     0.006 A 
ATOM     19  C   UNL A   1      32.250  26.696  24.067  1.00  0.00     0.046 A 
ATOM     20  C   UNL A   1      32.180  27.749  26.216  1.00  0.00     0.046 A 
ATOM     21  Cl  UNL A   1      31.632  25.660  22.818  1.00  0.00    -0.084 Cl
ATOM     22  C   UNL A   1      33.284  27.553  23.665  1.00  0.00     0.021 A 
ATOM     23  C   UNL A   1      33.255  28.571  25.826  1.00  0.00     0.021 A 
ATOM     24  Cl  UNL A   1      31.444  28.178  27.719  1.00  0.00    -0.084 Cl
ATOM     25  C   UNL A   1      33.809  28.474  24.555  1.00  0.00     0.003 A 
ENDBRANCH  17  18
ENDBRANCH  14  17
ENDBRANCH  12  14
ENDBRANCH  11  12
ENDBRANCH   4   6
ENDBRANCH   3   4
ENDBRANCH   2   3
ENDBRANCH   1   2
BRANCH   1  26
ATOM     26  O   UNL A   1      40.417  20.739  27.324  1.00  0.00    -0.374 OA
BRANCH  26  27
ATOM     27  C   UNL A   1      41.657  20.017  27.319  1.00  0.00     0.202 C 
BRANCH  27  28
ATOM     28  C   UNL A   1      42.469  20.431  26.091  1.00  0.00     0.261 C 
BRANCH  28  29
ATOM     29  O   UNL A   1      43.311  21.529  26.469  1.00  0.00    -0.460 OA
BRANCH  29  30
ATOM     30  C   UNL A   1      43.150  22.658  25.735  1.00  0.00     0.338 C 
ATOM     31  O   UNL A   1      42.964  22.736  24.532  1.00  0.00    -0.246 OA
BRANCH  30  32
ATOM     32  C   UNL A   1      43.011  23.791  26.677  1.00  0.00     0.060 A 
ATOM     33  C   UNL A   1      43.678  24.989  26.382  1.00  0.00     0.016 A 
ATOM     34  C   UNL A   1      42.182  23.704  27.800  1.00  0.00     0.016 A 
ATOM     35  C   UNL A   1      43.525  26.097  27.216  1.00  0.00     0.010 A 
ATOM     36  C   UNL A   1      42.025  24.811  28.629  1.00  0.00     0.010 A 
ATOM     37  C   UNL A   1      42.711  26.003  28.353  1.00  0.00    -0.014 A 
BRANCH  37  38
ATOM     38  C   UNL A   1      42.661  27.093  29.350  1.00  0.00     0.031 A 
ATOM     39  C   UNL A   1      43.663  27.077  30.468  1.00  0.00     0.074 A 
ATOM     40  C   UNL A   1      41.695  28.028  29.294  1.00  0.00     0.049 A 
ATOM     41  N   UNL A   1      43.732  27.839  31.526  1.00  0.00    -0.248 NA
ATOM     42  C   UNL A   1      44.721  26.053  30.391  1.00  0.00     0.031 C 
ATOM     43  C   UNL A   1      40.678  28.136  28.247  1.00  0.00     0.029 A 
ATOM     44  N   UNL A   1      41.395  29.047  30.162  1.00  0.00    -0.354 N 
ATOM     45  C   UNL A   1      44.825  27.378  32.249  1.00  0.00     0.074 A 
ATOM     46  C   UNL A   1      45.380  26.259  31.522  1.00  0.00     0.031 C 
ATOM     47  C   UNL A   1      39.852  29.154  28.547  1.00  0.00     0.029 A 
ATOM     48  C   UNL A   1      40.258  29.741  29.822  1.00  0.00     0.049 A 
ATOM     49  H   UNL A   1      41.942  29.262  30.950  1.00  0.00     0.167 HD
ATOM     50  C   UNL A   1      45.320  27.850  33.416  1.00  0.00     0.031 A 
ATOM     51  C   UNL A   1      39.603  30.714  30.486  1.00  0.00     0.031 A 
ATOM     52  C   UNL A   1      44.752  28.957  34.134  1.00  0.00     0.049 A 
ATOM     53  C   UNL A   1      40.145  31.183  31.813  1.00  0.00     0.074 A 
ATOM     54  C   UNL A   1      45.202  29.544  35.303  1.00  0.00     0.029 A 
ATOM     55  N   UNL A   1      43.604  29.638  33.757  1.00  0.00    -0.354 N 
ATOM     56  N   UNL A   1      41.218  30.780  32.454  1.00  0.00    -0.248 NA
ATOM     57  C   UNL A   1      39.390  32.236  32.505  1.00  0.00     0.031 C 
ATOM     58  C   UNL A   1      44.292  30.542  35.665  1.00  0.00     0.029 A 
ATOM     59  C   UNL A   1      43.309  30.615  34.690  1.00  0.00     0.049 A 
ATOM     60  H   UNL A   1      43.078  29.452  32.947  1.00  0.00     0.167 HD
ATOM     61  C   UNL A   1      41.274  31.545  33.614  1.00  0.00     0.074 A 
ATOM     62  C   UNL A   1      40.143  32.449  33.576  1.00  0.00     0.031 C 
ATOM     63  C   UNL A   1      42.176  31.502  34.627  1.00  0.00     0.031 A 
BRANCH  50  64
ATOM     64  C   UNL A   1      46.517  27.156  34.004  1.00  0.00    -0.014 A 
ATOM     65  C   UNL A   1      46.367  26.061  34.874  1.00  0.00     0.010 A 
ATOM     66  C   UNL A   1      47.810  27.561  33.625  1.00  0.00     0.010 A 
ATOM     67  C   UNL A   1      47.492  25.393  35.367  1.00  0.00     0.020 A 
ATOM     68  C   UNL A   1      48.935  26.880  34.096  1.00  0.00     0.020 A 
ATOM     69  C   UNL A   1      48.769  25.803  34.969  1.00  0.00     0.054 A 
BRANCH  69  70
ATOM     70  S   UNL A   1      50.205  24.874  35.573  1.00  0.00     0.124 S 
ATOM     71  O   UNL A   1      51.047  25.938  36.116  1.00  0.00    -0.237 OA
ATOM     72  O   UNL A   1      49.611  23.978  36.562  1.00  0.00    -0.237 OA
ATOM     73  O   UNL A   1      50.724  24.220  34.375  1.00  0.00    -0.744 OA
ENDBRANCH  69  70
ENDBRANCH  50  64
BRANCH  51  74
ATOM     74  C   UNL A   1      38.342  31.286  29.938  1.00  0.00    -0.014 A 
ATOM     75  C   UNL A   1      38.324  32.571  29.369  1.00  0.00     0.010 A 
ATOM     76  C   UNL A   1      37.141  30.556  30.010  1.00  0.00     0.010 A 
ATOM     77  C   UNL A   1      37.126  33.128  28.910  1.00  0.00     0.020 A 
ATOM     78  C   UNL A   1      35.946  31.097  29.525  1.00  0.00     0.020 A 
ATOM     79  C   UNL A   1      35.943  32.387  28.993  1.00  0.00     0.054 A 
BRANCH  79  80
ATOM     80  S   UNL A   1      34.405  33.117  28.366  1.00  0.00     0.124 S 
ATOM     81  O   UNL A   1      34.904  34.099  27.408  1.00  0.00    -0.237 OA
ATOM     82  O   UNL A   1      33.720  31.963  27.790  1.00  0.00    -0.237 OA
ATOM     83  O   UNL A   1      33.778  33.670  29.564  1.00  0.00    -0.744 OA
ENDBRANCH  79  80
ENDBRANCH  51  74
BRANCH  63  84
ATOM     84  C   UNL A   1      41.990  32.472  35.761  1.00  0.00    -0.014 A 
ATOM     85  C   UNL A   1      42.580  33.747  35.728  1.00  0.00     0.010 A 
ATOM     86  C   UNL A   1      41.159  32.126  36.844  1.00  0.00     0.010 A 
ATOM     87  C   UNL A   1      42.366  34.649  36.773  1.00  0.00     0.020 A 
ATOM     88  C   UNL A   1      40.919  33.037  37.875  1.00  0.00     0.020 A 
ATOM     89  C   UNL A   1      41.536  34.288  37.838  1.00  0.00     0.054 A 
BRANCH  89  90
ATOM     90  S   UNL A   1      41.235  35.497  39.158  1.00  0.00     0.124 S 
ATOM     91  O   UNL A   1      40.255  34.801  39.988  1.00  0.00    -0.237 OA
ATOM     92  O   UNL A   1      42.560  35.659  39.751  1.00  0.00    -0.237 OA
ATOM     93  O   UNL A   1      40.730  36.668  38.446  1.00  0.00    -0.744 OA
ENDBRANCH  89  90
ENDBRANCH  63  84
ENDBRANCH  37  38
ENDBRANCH  30  32
ENDBRANCH  29  30
ENDBRANCH  28  29
ENDBRANCH  27  28
ENDBRANCH  26  27
ENDBRANCH   1  26
TORSDOF 21
ENDMDL
MODEL 3
REMARK VINA RESULT:      -9.9      2.426      8.596
REMARK SMILES O=C(OCCOCCOC(=O)c1ccc(-c2c3nc(c(-c4ccc(S(=O)(=O)[O-])cc4)c4ccc([nH]4)c(-c4ccc(S(=O)(=O)[O-])cc4)c4nc(c(-c5ccc(S(=O)(=O)[O-])cc5)c5ccc2[nH]5)C=C4)C=C3)cc1)c1ccc(NS(=O)(=O)Cc2c(Cl)cccc2Cl)cc1
REMARK SMILES IDX 5 1 4 2 3 3 2 4 1 5 72 6 73 7 90 8 74 9 89 10 75 11 76 12
REMARK SMILES IDX 77 14 78 15 79 16 80 17 81 18 82 19 87 20 83 21 84 22 86 23
REMARK SMILES IDX 88 24 85 25 6 26 7 27 8 28 9 29 10 30 11 31 12 32 13 33
REMARK SMILES IDX 71 34 14 35 70 36 15 37 16 38 17 39 64 40 18 41 69 42 63 43
REMARK SMILES IDX 65 44 19 45 68 46 62 47 61 48 20 50 50 51 31 52 49 53 32 54
REMARK SMILES IDX 35 55 48 56 66 57 33 58 34 59 47 61 67 62 36 63 21 64 22 65
REMARK SMILES IDX 30 66 23 67 29 68 24 69 25 70 26 71 27 72 28 73 51 74 52 75
REMARK SMILES IDX 60 76 53 77 59 78 54 79 55 80 56 81 57 82 58 83 37 84 38 85
REMARK SMILES IDX 46 86 39 87 45 88 40 89 41 90 42 91 43 92 44 93
REMARK H PARENT 76 13 65 49 35 60
REMARK Flexibility Score: inf
ROOT
ATOM      1  C   UNL A   1      39.684  21.338  26.076  1.00  0.00     0.202 C 
ENDROOT
BRANCH   1   2
ATOM      2  C   UNL A   1      38.723  22.515  26.208  1.00  0.00     0.261 C 
BRANCH   2   3
ATOM      3  O   UNL A   1      37.695  22.431  25.196  1.00  0.00    -0.460 OA
BRANCH   3   4
ATOM      4  C   UNL A   1      36.379  22.214  25.443  1.00  0.00     0.338 C 
ATOM      5  O   UNL A   1      35.998  21.454  26.324  1.00  0.00    -0.246 OA
BRANCH   4   6
ATOM      6  C   UNL A   1      35.383  22.978  24.671  1.00  0.00     0.060 A 
ATOM      7  C   UNL A   1      34.527  23.894  25.288  1.00  0.00     0.018 A 
ATOM      8  C   UNL A   1      35.333  22.795  23.291  1.00  0.00     0.018 A 
ATOM      9  C   UNL A   1      33.533  24.536  24.551  1.00  0.00     0.027 A 
ATOM     10  C   UNL A   1      34.341  23.443  22.556  1.00  0.00     0.027 A 
ATOM     11  C   UNL A   1      33.395  24.255  23.196  1.00  0.00     0.049 A 
BRANCH  11  12
ATOM     12  N   UNL A   1      32.335  24.741  22.395  1.00  0.00    -0.283 N 
ATOM     13  H   UNL A   1      31.549  24.158  22.300  1.00  0.00     0.180 HD
BRANCH  12  14
ATOM     14  S   UNL A   1      32.285  26.188  21.602  1.00  0.00     0.237 S 
ATOM     15  O   UNL A   1      33.653  26.598  21.351  1.00  0.00    -0.206 OA
ATOM     16  O   UNL A   1      31.405  25.953  20.472  1.00  0.00    -0.206 OA
BRANCH  14  17
ATOM     17  C   UNL A   1      31.508  27.448  22.628  1.00  0.00     0.198 C 
BRANCH  17  18
ATOM     18  C   UNL A   1      31.818  27.580  24.107  1.00  0.00     0.006 A 
ATOM     19  C   UNL A   1      32.888  28.439  24.486  1.00  0.00     0.046 A 
ATOM     20  C   UNL A   1      31.038  27.078  25.164  1.00  0.00     0.046 A 
ATOM     21  Cl  UNL A   1      33.826  29.329  23.327  1.00  0.00    -0.084 Cl
ATOM     22  C   UNL A   1      33.211  28.691  25.826  1.00  0.00     0.021 A 
ATOM     23  C   UNL A   1      31.399  27.292  26.508  1.00  0.00     0.021 A 
ATOM     24  Cl  UNL A   1      29.522  26.283  24.936  1.00  0.00    -0.084 Cl
ATOM     25  C   UNL A   1      32.484  28.093  26.842  1.00  0.00     0.003 A 
ENDBRANCH  17  18
ENDBRANCH  14  17
ENDBRANCH  12  14
ENDBRANCH  11  12
ENDBRANCH   4   6
ENDBRANCH   3   4
ENDBRANCH   2   3
ENDBRANCH   1   2
BRANCH   1  26
ATOM     26  O   UNL A   1      40.118  20.872  27.352  1.00  0.00    -0.374 OA
BRANCH  26  27
ATOM     27  C   UNL A   1      41.379  20.188  27.343  1.00  0.00     0.202 C 
BRANCH  27  28
ATOM     28  C   UNL A   1      42.185  20.644  26.127  1.00  0.00     0.261 C 
BRANCH  28  29
ATOM     29  O   UNL A   1      43.100  21.661  26.560  1.00  0.00    -0.460 OA
BRANCH  29  30
ATOM     30  C   UNL A   1      43.067  22.810  25.841  1.00  0.00     0.338 C 
ATOM     31  O   UNL A   1      43.008  22.922  24.628  1.00  0.00    -0.246 OA
BRANCH  30  32
ATOM     32  C   UNL A   1      42.884  23.930  26.792  1.00  0.00     0.060 A 
ATOM     33  C   UNL A   1      43.595  25.118  26.567  1.00  0.00     0.016 A 
ATOM     34  C   UNL A   1      41.976  23.842  27.852  1.00  0.00     0.016 A 
ATOM     35  C   UNL A   1      43.406  26.215  27.408  1.00  0.00     0.010 A 
ATOM     36  C   UNL A   1      41.784  24.938  28.689  1.00  0.00     0.010 A 
ATOM     37  C   UNL A   1      42.512  26.120  28.483  1.00  0.00    -0.014 A 
BRANCH  37  38
ATOM     38  C   UNL A   1      42.413  27.193  29.494  1.00  0.00     0.031 A 
ATOM     39  C   UNL A   1      43.362  27.159  30.658  1.00  0.00     0.074 A 
ATOM     40  C   UNL A   1      41.451  28.129  29.408  1.00  0.00     0.049 A 
ATOM     41  N   UNL A   1      43.379  27.905  31.730  1.00  0.00    -0.248 NA
ATOM     42  C   UNL A   1      44.422  26.137  30.615  1.00  0.00     0.031 C 
ATOM     43  C   UNL A   1      40.485  28.255  28.315  1.00  0.00     0.029 A 
ATOM     44  N   UNL A   1      41.109  29.135  30.276  1.00  0.00    -0.354 N 
ATOM     45  C   UNL A   1      44.437  27.431  32.497  1.00  0.00     0.074 A 
ATOM     46  C   UNL A   1      45.027  26.325  31.779  1.00  0.00     0.031 C 
ATOM     47  C   UNL A   1      39.644  29.268  28.592  1.00  0.00     0.029 A 
ATOM     48  C   UNL A   1      39.990  29.834  29.893  1.00  0.00     0.049 A 
ATOM     49  H   UNL A   1      41.618  29.337  31.093  1.00  0.00     0.167 HD
ATOM     50  C   UNL A   1      44.875  27.884  33.694  1.00  0.00     0.031 A 
ATOM     51  C   UNL A   1      39.303  30.796  30.541  1.00  0.00     0.031 A 
ATOM     52  C   UNL A   1      44.274  28.980  34.402  1.00  0.00     0.049 A 
ATOM     53  C   UNL A   1      39.781  31.243  31.900  1.00  0.00     0.074 A 
ATOM     54  C   UNL A   1      44.668  29.548  35.600  1.00  0.00     0.029 A 
ATOM     55  N   UNL A   1      43.144  29.667  33.982  1.00  0.00    -0.354 N 
ATOM     56  N   UNL A   1      40.822  30.830  32.585  1.00  0.00    -0.248 NA
ATOM     57  C   UNL A   1      38.993  32.285  32.572  1.00  0.00     0.031 C 
ATOM     58  C   UNL A   1      43.740  30.540  35.934  1.00  0.00     0.029 A 
ATOM     59  C   UNL A   1      42.805  30.629  34.914  1.00  0.00     0.049 A 
ATOM     60  H   UNL A   1      42.658  29.494  33.144  1.00  0.00     0.167 HD
ATOM     61  C   UNL A   1      40.823  31.576  33.758  1.00  0.00     0.074 A 
ATOM     62  C   UNL A   1      39.695  32.481  33.680  1.00  0.00     0.031 C 
ATOM     63  C   UNL A   1      41.675  31.517  34.812  1.00  0.00     0.031 A 
BRANCH  50  64
ATOM     64  C   UNL A   1      46.044  27.182  34.327  1.00  0.00    -0.014 A 
ATOM     65  C   UNL A   1      47.361  27.623  34.109  1.00  0.00     0.010 A 
ATOM     66  C   UNL A   1      45.816  26.107  35.206  1.00  0.00     0.010 A 
ATOM     67  C   UNL A   1      48.432  26.993  34.751  1.00  0.00     0.020 A 
ATOM     68  C   UNL A   1      46.881  25.491  35.867  1.00  0.00     0.020 A 
ATOM     69  C   UNL A   1      48.183  25.934  35.631  1.00  0.00     0.054 A 
BRANCH  69  70
ATOM     70  S   UNL A   1      49.587  25.180  36.498  1.00  0.00     0.124 S 
ATOM     71  O   UNL A   1      48.937  24.110  37.250  1.00  0.00    -0.237 OA
ATOM     72  O   UNL A   1      50.443  24.744  35.398  1.00  0.00    -0.237 OA
ATOM     73  O   UNL A   1      50.123  26.273  37.306  1.00  0.00    -0.744 OA
ENDBRANCH  69  70
ENDBRANCH  50  64
BRANCH  51  74
ATOM     74  C   UNL A   1      38.069  31.377  29.943  1.00  0.00    -0.014 A 
ATOM     75  C   UNL A   1      38.117  32.589  29.232  1.00  0.00     0.010 A 
ATOM     76  C   UNL A   1      36.828  30.733  30.108  1.00  0.00     0.010 A 
ATOM     77  C   UNL A   1      36.946  33.161  28.724  1.00  0.00     0.020 A 
ATOM     78  C   UNL A   1      35.660  31.286  29.575  1.00  0.00     0.020 A 
ATOM     79  C   UNL A   1      35.724  32.505  28.901  1.00  0.00     0.054 A 
BRANCH  79  80
ATOM     80  S   UNL A   1      34.221  33.251  28.209  1.00  0.00     0.124 S 
ATOM     81  O   UNL A   1      34.771  34.207  27.252  1.00  0.00    -0.237 OA
ATOM     82  O   UNL A   1      33.536  32.098  27.629  1.00  0.00    -0.237 OA
ATOM     83  O   UNL A   1      33.563  33.836  29.375  1.00  0.00    -0.744 OA
ENDBRANCH  79  80
ENDBRANCH  51  74
BRANCH  63  84
ATOM     84  C   UNL A   1      41.435  32.469  35.952  1.00  0.00    -0.014 A 
ATOM     85  C   UNL A   1      40.568  32.132  37.006  1.00  0.00     0.010 A 
ATOM     86  C   UNL A   1      42.136  33.688  36.000  1.00  0.00     0.010 A 
ATOM     87  C   UNL A   1      40.386  33.013  38.075  1.00  0.00     0.020 A 
ATOM     88  C   UNL A   1      41.979  34.557  37.081  1.00  0.00     0.020 A 
ATOM     89  C   UNL A   1      41.093  34.219  38.106  1.00  0.00     0.054 A 
BRANCH  89  90
ATOM     90  S   UNL A   1      40.875  35.321  39.530  1.00  0.00     0.124 S 
ATOM     91  O   UNL A   1      39.719  34.729  40.197  1.00  0.00    -0.237 OA
ATOM     92  O   UNL A   1      42.147  35.186  40.237  1.00  0.00    -0.237 OA
ATOM     93  O   UNL A   1      40.642  36.629  38.923  1.00  0.00    -0.744 OA
ENDBRANCH  89  90
ENDBRANCH  63  84
ENDBRANCH  37  38
ENDBRANCH  30  32
ENDBRANCH  29  30
ENDBRANCH  28  29
ENDBRANCH  27  28
ENDBRANCH  26  27
ENDBRANCH   1  26
TORSDOF 21
ENDMDL
