MODEL 1
REMARK VINA RESULT:     -11.4      0.000      0.000
REMARK SMILES CC(C)Cc1ccc(-c2cc(Cl)cc3c2O[C@@H](C(F)(F)F)C(C(=O)OCCOCCOC(=O)c2ccc(-c4c5nc(c(-c6ccc(S(=O)(=O)[O-])cc6)c6ccc([nH]6)c(-c6ccc(S(=O)(=O)[O-])cc6)c6nc(c(-c7ccc(S(=O)(=O)[O-])cc7)c7ccc4[nH]7)C=C6)C=C5)cc2)=C3)cc1
REMARK SMILES IDX 28 1 27 2 26 3 25 4 23 5 24 6 22 7 9 8 10 9 15 10 11 11
REMARK SMILES IDX 14 12 16 13 12 14 13 15 94 16 17 17 8 18 5 19 6 20 96 21
REMARK SMILES IDX 7 22 95 23 4 24 2 25 1 26 3 27 18 28 19 29 20 30 21 31 29 32
REMARK SMILES IDX 30 33 31 34 32 35 33 36 34 37 35 38 93 39 36 40 92 41 37 42
REMARK SMILES IDX 38 43 39 44 86 45 40 46 91 47 85 48 87 49 41 50 90 51 84 52
REMARK SMILES IDX 83 53 42 55 72 56 53 57 71 58 54 59 57 60 70 61 88 62 55 63
REMARK SMILES IDX 56 64 69 66 89 67 58 68 43 69 44 70 52 71 45 72 51 73 46 74
REMARK SMILES IDX 47 75 48 76 49 77 50 78 73 79 74 80 82 81 75 82 81 83 76 84
REMARK SMILES IDX 77 85 78 86 79 87 80 88 59 89 60 90 68 91 61 92 67 93 62 94
REMARK SMILES IDX 63 95 64 96 65 97 66 98
REMARK H PARENT 87 54 57 65
REMARK Flexibility Score: inf
ROOT
ATOM      1  O   UNL A   1      31.320  30.139  24.802  1.00  0.00    -0.374 OA
ENDROOT
BRANCH   1   2
ATOM      2  C   UNL A   1      30.678  28.994  24.254  1.00  0.00     0.202 C 
BRANCH   2   3
ATOM      3  C   UNL A   1      31.479  28.079  23.313  1.00  0.00     0.261 C 
BRANCH   3   4
ATOM      4  O   UNL A   1      32.833  27.870  23.742  1.00  0.00    -0.460 OA
BRANCH   4   5
ATOM      5  C   UNL A   1      33.020  26.881  24.637  1.00  0.00     0.338 C 
ATOM      6  O   UNL A   1      33.471  27.023  25.765  1.00  0.00    -0.246 OA
BRANCH   5   7
ATOM      7  C   UNL A   1      32.446  25.590  24.186  1.00  0.00     0.087 C 
ATOM      8  C   UNL A   1      34.141  22.196  25.879  1.00  0.00     0.026 A 
ATOM      9  C   UNL A   1      35.433  22.599  26.285  1.00  0.00     0.033 A 
ATOM     10  C   UNL A   1      33.406  23.170  25.168  1.00  0.00     0.135 A 
ATOM     11  C   UNL A   1      36.055  23.705  25.707  1.00  0.00     0.042 A 
ATOM     12  C   UNL A   1      34.103  24.109  24.391  1.00  0.00     0.019 A 
ATOM     13  O   UNL A   1      32.107  23.515  25.587  1.00  0.00    -0.475 OA
ATOM     14  Cl  UNL A   1      37.649  24.132  26.183  1.00  0.00    -0.084 Cl
ATOM     15  C   UNL A   1      35.431  24.399  24.681  1.00  0.00     0.032 A 
ATOM     16  C   UNL A   1      33.344  24.936  23.430  1.00  0.00     0.027 C 
ATOM     17  C   UNL A   1      31.473  24.689  24.919  1.00  0.00     0.316 C 
BRANCH   8  18
ATOM     18  C   UNL A   1      34.052  20.710  25.612  1.00  0.00    -0.015 A 
ATOM     19  C   UNL A   1      33.681  18.155  24.332  1.00  0.00    -0.048 A 
ATOM     20  C   UNL A   1      34.946  18.745  24.413  1.00  0.00     0.004 A 
ATOM     21  C   UNL A   1      32.611  18.823  24.939  1.00  0.00     0.004 A 
ATOM     22  C   UNL A   1      35.127  19.992  25.048  1.00  0.00     0.009 A 
ATOM     23  C   UNL A   1      32.795  20.069  25.573  1.00  0.00     0.009 A 
BRANCH  19  24
ATOM     24  C   UNL A   1      33.479  16.833  23.613  1.00  0.00     0.038 C 
BRANCH  24  25
ATOM     25  C   UNL A   1      33.808  15.606  24.486  1.00  0.00    -0.013 C 
ATOM     26  C   UNL A   1      35.077  15.822  25.313  1.00  0.00     0.008 C 
ATOM     27  C   UNL A   1      32.646  15.267  25.429  1.00  0.00     0.008 C 
ENDBRANCH  24  25
ENDBRANCH  19  24
ENDBRANCH   8  18
BRANCH  17  28
ATOM     28  C   UNL A   1      30.362  25.425  25.704  1.00  0.00     0.430 C 
ATOM     29  F   UNL A   1      30.933  26.378  26.493  1.00  0.00    -0.167 F 
ATOM     30  F   UNL A   1      29.514  26.078  24.876  1.00  0.00    -0.167 F 
ATOM     31  F   UNL A   1      29.615  24.650  26.509  1.00  0.00    -0.167 F 
ENDBRANCH  17  28
ENDBRANCH   5   7
ENDBRANCH   4   5
ENDBRANCH   3   4
ENDBRANCH   2   3
ENDBRANCH   1   2
BRANCH   1  32
ATOM     32  C   UNL A   1      31.797  30.067  26.143  1.00  0.00     0.202 C 
BRANCH  32  33
ATOM     33  C   UNL A   1      33.252  30.443  26.437  1.00  0.00     0.261 C 
BRANCH  33  34
ATOM     34  O   UNL A   1      33.696  30.063  27.748  1.00  0.00    -0.460 OA
BRANCH  34  35
ATOM     35  C   UNL A   1      34.621  30.891  28.288  1.00  0.00     0.338 C 
ATOM     36  O   UNL A   1      34.433  32.010  28.753  1.00  0.00    -0.246 OA
BRANCH  35  37
ATOM     37  C   UNL A   1      35.913  30.202  28.399  1.00  0.00     0.060 A 
ATOM     38  C   UNL A   1      36.271  29.680  29.648  1.00  0.00     0.016 A 
ATOM     39  C   UNL A   1      36.803  30.165  27.325  1.00  0.00     0.016 A 
ATOM     40  C   UNL A   1      37.547  29.157  29.841  1.00  0.00     0.010 A 
ATOM     41  C   UNL A   1      38.085  29.646  27.523  1.00  0.00     0.010 A 
ATOM     42  C   UNL A   1      38.473  29.174  28.790  1.00  0.00    -0.014 A 
BRANCH  42  43
ATOM     43  C   UNL A   1      39.888  28.824  29.061  1.00  0.00     0.031 A 
ATOM     44  C   UNL A   1      40.787  29.852  29.692  1.00  0.00     0.074 A 
ATOM     45  C   UNL A   1      40.351  27.595  28.776  1.00  0.00     0.049 A 
ATOM     46  N   UNL A   1      42.055  29.765  30.000  1.00  0.00    -0.248 NA
ATOM     47  C   UNL A   1      40.177  31.152  30.017  1.00  0.00     0.031 C 
ATOM     48  C   UNL A   1      39.561  26.507  28.198  1.00  0.00     0.029 A 
ATOM     49  N   UNL A   1      41.603  27.056  28.930  1.00  0.00    -0.354 N 
ATOM     50  C   UNL A   1      42.399  30.998  30.541  1.00  0.00     0.074 A 
ATOM     51  C   UNL A   1      41.215  31.827  30.491  1.00  0.00     0.031 C 
ATOM     52  C   UNL A   1      40.350  25.431  28.043  1.00  0.00     0.029 A 
ATOM     53  C   UNL A   1      41.705  25.765  28.475  1.00  0.00     0.049 A 
ATOM     54  H   UNL A   1      42.357  27.549  29.329  1.00  0.00     0.167 HD
ATOM     55  C   UNL A   1      43.593  31.402  31.038  1.00  0.00     0.031 A 
ATOM     56  C   UNL A   1      42.776  24.950  28.395  1.00  0.00     0.031 A 
ATOM     57  C   UNL A   1      44.770  30.572  31.070  1.00  0.00     0.049 A 
ATOM     58  C   UNL A   1      44.109  25.442  28.897  1.00  0.00     0.074 A 
ATOM     59  C   UNL A   1      46.023  30.877  31.571  1.00  0.00     0.029 A 
ATOM     60  N   UNL A   1      44.842  29.279  30.572  1.00  0.00    -0.354 N 
ATOM     61  N   UNL A   1      44.412  26.601  29.434  1.00  0.00    -0.248 NA
ATOM     62  C   UNL A   1      45.241  24.512  28.791  1.00  0.00     0.031 C 
ATOM     63  C   UNL A   1      46.870  29.794  31.316  1.00  0.00     0.029 A 
ATOM     64  C   UNL A   1      46.127  28.784  30.725  1.00  0.00     0.049 A 
ATOM     65  H   UNL A   1      44.091  28.787  30.169  1.00  0.00     0.167 HD
ATOM     66  C   UNL A   1      45.763  26.527  29.759  1.00  0.00     0.074 A 
ATOM     67  C   UNL A   1      46.211  25.205  29.372  1.00  0.00     0.031 C 
ATOM     68  C   UNL A   1      46.560  27.467  30.327  1.00  0.00     0.031 A 
BRANCH  55  69
ATOM     69  C   UNL A   1      43.696  32.817  31.547  1.00  0.00    -0.014 A 
ATOM     70  C   UNL A   1      43.368  33.145  32.875  1.00  0.00     0.010 A 
ATOM     71  C   UNL A   1      44.161  33.830  30.690  1.00  0.00     0.010 A 
ATOM     72  C   UNL A   1      43.464  34.467  33.323  1.00  0.00     0.020 A 
ATOM     73  C   UNL A   1      44.289  35.146  31.142  1.00  0.00     0.020 A 
ATOM     74  C   UNL A   1      43.923  35.460  32.452  1.00  0.00     0.054 A 
BRANCH  74  75
ATOM     75  S   UNL A   1      44.057  37.161  33.066  1.00  0.00     0.124 S 
ATOM     76  O   UNL A   1      43.149  37.141  34.209  1.00  0.00    -0.237 OA
ATOM     77  O   UNL A   1      45.477  37.272  33.393  1.00  0.00    -0.237 OA
ATOM     78  O   UNL A   1      43.617  37.974  31.934  1.00  0.00    -0.744 OA
ENDBRANCH  74  75
ENDBRANCH  55  69
BRANCH  56  79
ATOM     79  C   UNL A   1      42.633  23.593  27.802  1.00  0.00    -0.014 A 
ATOM     80  C   UNL A   1      42.992  23.348  26.465  1.00  0.00     0.010 A 
ATOM     81  C   UNL A   1      42.139  22.530  28.581  1.00  0.00     0.010 A 
ATOM     82  C   UNL A   1      42.845  22.070  25.915  1.00  0.00     0.020 A 
ATOM     83  C   UNL A   1      42.020  21.244  28.044  1.00  0.00     0.020 A 
ATOM     84  C   UNL A   1      42.364  21.026  26.710  1.00  0.00     0.054 A 
BRANCH  84  85
ATOM     85  S   UNL A   1      42.233  19.366  25.990  1.00  0.00     0.124 S 
ATOM     86  O   UNL A   1      40.798  19.249  25.756  1.00  0.00    -0.237 OA
ATOM     87  O   UNL A   1      43.063  19.476  24.793  1.00  0.00    -0.237 OA
ATOM     88  O   UNL A   1      42.770  18.495  27.034  1.00  0.00    -0.744 OA
ENDBRANCH  84  85
ENDBRANCH  56  79
BRANCH  68  89
ATOM     89  C   UNL A   1      47.991  27.086  30.605  1.00  0.00    -0.014 A 
ATOM     90  C   UNL A   1      49.043  27.538  29.788  1.00  0.00     0.010 A 
ATOM     91  C   UNL A   1      48.292  26.297  31.731  1.00  0.00     0.010 A 
ATOM     92  C   UNL A   1      50.363  27.173  30.068  1.00  0.00     0.020 A 
ATOM     93  C   UNL A   1      49.613  25.958  32.034  1.00  0.00     0.020 A 
ATOM     94  C   UNL A   1      50.639  26.384  31.189  1.00  0.00     0.054 A 
BRANCH  94  95
ATOM     95  S   UNL A   1      52.363  25.948  31.548  1.00  0.00     0.124 S 
ATOM     96  O   UNL A   1      52.947  25.895  30.210  1.00  0.00    -0.237 OA
ATOM     97  O   UNL A   1      52.807  27.060  32.384  1.00  0.00    -0.237 OA
ATOM     98  O   UNL A   1      52.261  24.662  32.233  1.00  0.00    -0.744 OA
ENDBRANCH  94  95
ENDBRANCH  68  89
ENDBRANCH  42  43
ENDBRANCH  35  37
ENDBRANCH  34  35
ENDBRANCH  33  34
ENDBRANCH  32  33
ENDBRANCH   1  32
TORSDOF 21
ENDMDL
MODEL 2
REMARK VINA RESULT:     -10.9      2.323      2.866
REMARK SMILES CC(C)Cc1ccc(-c2cc(Cl)cc3c2O[C@@H](C(F)(F)F)C(C(=O)OCCOCCOC(=O)c2ccc(-c4c5nc(c(-c6ccc(S(=O)(=O)[O-])cc6)c6ccc([nH]6)c(-c6ccc(S(=O)(=O)[O-])cc6)c6nc(c(-c7ccc(S(=O)(=O)[O-])cc7)c7ccc4[nH]7)C=C6)C=C5)cc2)=C3)cc1
REMARK SMILES IDX 28 1 27 2 26 3 25 4 23 5 24 6 22 7 9 8 10 9 15 10 11 11
REMARK SMILES IDX 14 12 16 13 12 14 13 15 94 16 17 17 8 18 5 19 6 20 96 21
REMARK SMILES IDX 7 22 95 23 4 24 2 25 1 26 3 27 18 28 19 29 20 30 21 31 29 32
REMARK SMILES IDX 30 33 31 34 32 35 33 36 34 37 35 38 93 39 36 40 92 41 37 42
REMARK SMILES IDX 38 43 39 44 86 45 40 46 91 47 85 48 87 49 41 50 90 51 84 52
REMARK SMILES IDX 83 53 42 55 72 56 53 57 71 58 54 59 57 60 70 61 88 62 55 63
REMARK SMILES IDX 56 64 69 66 89 67 58 68 43 69 44 70 52 71 45 72 51 73 46 74
REMARK SMILES IDX 47 75 48 76 49 77 50 78 73 79 74 80 82 81 75 82 81 83 76 84
REMARK SMILES IDX 77 85 78 86 79 87 80 88 59 89 60 90 68 91 61 92 67 93 62 94
REMARK SMILES IDX 63 95 64 96 65 97 66 98
REMARK H PARENT 87 54 57 65
REMARK Flexibility Score: inf
ROOT
ATOM      1  O   UNL A   1      31.909  29.955  24.661  1.00  0.00    -0.374 OA
ENDROOT
BRANCH   1   2
ATOM      2  C   UNL A   1      30.885  29.693  23.709  1.00  0.00     0.202 C 
BRANCH   2   3
ATOM      3  C   UNL A   1      31.159  28.673  22.591  1.00  0.00     0.261 C 
BRANCH   3   4
ATOM      4  O   UNL A   1      32.480  28.115  22.645  1.00  0.00    -0.460 OA
BRANCH   4   5
ATOM      5  C   UNL A   1      32.663  27.126  23.540  1.00  0.00     0.338 C 
ATOM      6  O   UNL A   1      33.330  27.210  24.562  1.00  0.00    -0.246 OA
BRANCH   5   7
ATOM      7  C   UNL A   1      31.813  25.942  23.262  1.00  0.00     0.087 C 
ATOM      8  C   UNL A   1      33.108  22.378  24.961  1.00  0.00     0.026 A 
ATOM      9  C   UNL A   1      34.495  22.556  25.165  1.00  0.00     0.033 A 
ATOM     10  C   UNL A   1      32.462  23.436  24.284  1.00  0.00     0.135 A 
ATOM     11  C   UNL A   1      35.213  23.500  24.433  1.00  0.00     0.042 A 
ATOM     12  C   UNL A   1      33.197  24.193  23.357  1.00  0.00     0.019 A 
ATOM     13  O   UNL A   1      31.317  24.034  24.843  1.00  0.00    -0.475 OA
ATOM     14  Cl  UNL A   1      36.909  23.648  24.665  1.00  0.00    -0.084 Cl
ATOM     15  C   UNL A   1      34.582  24.248  23.450  1.00  0.00     0.032 A 
ATOM     16  C   UNL A   1      32.466  25.098  22.446  1.00  0.00     0.027 C 
ATOM     17  C   UNL A   1      30.811  25.272  24.180  1.00  0.00     0.316 C 
BRANCH   8  18
ATOM     18  C   UNL A   1      32.722  20.924  24.817  1.00  0.00    -0.015 A 
ATOM     19  C   UNL A   1      32.811  18.077  24.376  1.00  0.00    -0.048 A 
ATOM     20  C   UNL A   1      32.934  18.613  25.662  1.00  0.00     0.004 A 
ATOM     21  C   UNL A   1      32.592  18.968  23.319  1.00  0.00     0.004 A 
ATOM     22  C   UNL A   1      32.881  20.006  25.877  1.00  0.00     0.009 A 
ATOM     23  C   UNL A   1      32.540  20.359  23.537  1.00  0.00     0.009 A 
BRANCH  19  24
ATOM     24  C   UNL A   1      32.909  16.581  24.139  1.00  0.00     0.038 C 
BRANCH  24  25
ATOM     25  C   UNL A   1      33.473  15.806  25.348  1.00  0.00    -0.013 C 
ATOM     26  C   UNL A   1      32.820  14.430  25.493  1.00  0.00     0.008 C 
ATOM     27  C   UNL A   1      34.992  15.631  25.236  1.00  0.00     0.008 C 
ENDBRANCH  24  25
ENDBRANCH  19  24
ENDBRANCH   8  18
BRANCH  17  28
ATOM     28  C   UNL A   1      29.969  26.236  25.047  1.00  0.00     0.430 C 
ATOM     29  F   UNL A   1      30.808  27.022  25.778  1.00  0.00    -0.167 F 
ATOM     30  F   UNL A   1      29.230  27.077  24.287  1.00  0.00    -0.167 F 
ATOM     31  F   UNL A   1      29.131  25.646  25.917  1.00  0.00    -0.167 F 
ENDBRANCH  17  28
ENDBRANCH   5   7
ENDBRANCH   4   5
ENDBRANCH   3   4
ENDBRANCH   2   3
ENDBRANCH   1   2
BRANCH   1  32
ATOM     32  C   UNL A   1      31.525  30.223  26.007  1.00  0.00     0.202 C 
BRANCH  32  33
ATOM     33  C   UNL A   1      32.529  29.962  27.133  1.00  0.00     0.261 C 
BRANCH  33  34
ATOM     34  O   UNL A   1      33.890  30.241  26.773  1.00  0.00    -0.460 OA
BRANCH  34  35
ATOM     35  C   UNL A   1      34.555  31.021  27.658  1.00  0.00     0.338 C 
ATOM     36  O   UNL A   1      34.172  32.076  28.150  1.00  0.00    -0.246 OA
BRANCH  35  37
ATOM     37  C   UNL A   1      35.782  30.348  28.103  1.00  0.00     0.060 A 
ATOM     38  C   UNL A   1      35.772  29.730  29.359  1.00  0.00     0.016 A 
ATOM     39  C   UNL A   1      36.954  30.417  27.348  1.00  0.00     0.016 A 
ATOM     40  C   UNL A   1      36.952  29.216  29.889  1.00  0.00     0.010 A 
ATOM     41  C   UNL A   1      38.139  29.906  27.884  1.00  0.00     0.010 A 
ATOM     42  C   UNL A   1      38.149  29.337  29.170  1.00  0.00    -0.014 A 
BRANCH  42  43
ATOM     43  C   UNL A   1      39.431  28.992  29.829  1.00  0.00     0.031 A 
ATOM     44  C   UNL A   1      39.865  29.771  31.041  1.00  0.00     0.074 A 
ATOM     45  C   UNL A   1      40.181  27.976  29.368  1.00  0.00     0.049 A 
ATOM     46  N   UNL A   1      40.951  29.649  31.759  1.00  0.00    -0.248 NA
ATOM     47  C   UNL A   1      38.954  30.832  31.503  1.00  0.00     0.031 C 
ATOM     48  C   UNL A   1      39.842  27.127  28.225  1.00  0.00     0.029 A 
ATOM     49  N   UNL A   1      41.386  27.487  29.804  1.00  0.00    -0.354 N 
ATOM     50  C   UNL A   1      40.862  30.622  32.747  1.00  0.00     0.074 A 
ATOM     51  C   UNL A   1      39.632  31.346  32.519  1.00  0.00     0.031 C 
ATOM     52  C   UNL A   1      40.821  26.223  28.048  1.00  0.00     0.029 A 
ATOM     53  C   UNL A   1      41.869  26.453  29.038  1.00  0.00     0.049 A 
ATOM     54  H   UNL A   1      41.859  27.843  30.590  1.00  0.00     0.167 HD
ATOM     55  C   UNL A   1      41.727  30.884  33.756  1.00  0.00     0.031 A 
ATOM     56  C   UNL A   1      43.036  25.782  29.116  1.00  0.00     0.031 A 
ATOM     57  C   UNL A   1      42.958  30.165  33.966  1.00  0.00     0.049 A 
ATOM     58  C   UNL A   1      44.011  26.133  30.209  1.00  0.00     0.074 A 
ATOM     59  C   UNL A   1      43.894  30.337  34.971  1.00  0.00     0.029 A 
ATOM     60  N   UNL A   1      43.427  29.144  33.153  1.00  0.00    -0.354 N 
ATOM     61  N   UNL A   1      43.899  27.035  31.156  1.00  0.00    -0.248 NA
ATOM     62  C   UNL A   1      45.263  25.368  30.251  1.00  0.00     0.031 C 
ATOM     63  C   UNL A   1      44.961  29.466  34.726  1.00  0.00     0.029 A 
ATOM     64  C   UNL A   1      44.655  28.698  33.613  1.00  0.00     0.049 A 
ATOM     65  H   UNL A   1      42.957  28.789  32.364  1.00  0.00     0.167 HD
ATOM     66  C   UNL A   1      45.054  26.924  31.924  1.00  0.00     0.074 A 
ATOM     67  C   UNL A   1      45.840  25.857  31.340  1.00  0.00     0.031 C 
ATOM     68  C   UNL A   1      45.430  27.638  33.015  1.00  0.00     0.031 A 
BRANCH  55  69
ATOM     69  C   UNL A   1      41.393  32.024  34.684  1.00  0.00    -0.014 A 
ATOM     70  C   UNL A   1      41.926  33.311  34.488  1.00  0.00     0.010 A 
ATOM     71  C   UNL A   1      40.504  31.811  35.752  1.00  0.00     0.010 A 
ATOM     72  C   UNL A   1      41.608  34.352  35.368  1.00  0.00     0.020 A 
ATOM     73  C   UNL A   1      40.158  32.855  36.615  1.00  0.00     0.020 A 
ATOM     74  C   UNL A   1      40.726  34.115  36.427  1.00  0.00     0.054 A 
BRANCH  74  75
ATOM     75  S   UNL A   1      40.315  35.488  37.539  1.00  0.00     0.124 S 
ATOM     76  O   UNL A   1      39.880  36.518  36.599  1.00  0.00    -0.237 OA
ATOM     77  O   UNL A   1      39.263  34.917  38.376  1.00  0.00    -0.237 OA
ATOM     78  O   UNL A   1      41.573  35.765  38.228  1.00  0.00    -0.744 OA
ENDBRANCH  74  75
ENDBRANCH  55  69
BRANCH  56  79
ATOM     79  C   UNL A   1      43.349  24.724  28.117  1.00  0.00    -0.014 A 
ATOM     80  C   UNL A   1      44.165  24.999  27.006  1.00  0.00     0.010 A 
ATOM     81  C   UNL A   1      42.834  23.424  28.281  1.00  0.00     0.010 A 
ATOM     82  C   UNL A   1      44.447  23.999  26.070  1.00  0.00     0.020 A 
ATOM     83  C   UNL A   1      43.139  22.414  27.364  1.00  0.00     0.020 A 
ATOM     84  C   UNL A   1      43.936  22.712  26.258  1.00  0.00     0.054 A 
BRANCH  84  85
ATOM     85  S   UNL A   1      44.359  21.418  25.058  1.00  0.00     0.124 S 
ATOM     86  O   UNL A   1      45.738  21.107  25.420  1.00  0.00    -0.237 OA
ATOM     87  O   UNL A   1      43.376  20.379  25.357  1.00  0.00    -0.237 OA
ATOM     88  O   UNL A   1      44.185  22.078  23.766  1.00  0.00    -0.744 OA
ENDBRANCH  84  85
ENDBRANCH  56  79
BRANCH  68  89
ATOM     89  C   UNL A   1      46.731  27.263  33.676  1.00  0.00    -0.014 A 
ATOM     90  C   UNL A   1      47.943  27.879  33.315  1.00  0.00     0.010 A 
ATOM     91  C   UNL A   1      46.732  26.306  34.708  1.00  0.00     0.010 A 
ATOM     92  C   UNL A   1      49.136  27.514  33.945  1.00  0.00     0.020 A 
ATOM     93  C   UNL A   1      47.917  25.963  35.364  1.00  0.00     0.020 A 
ATOM     94  C   UNL A   1      49.116  26.557  34.964  1.00  0.00     0.054 A 
BRANCH  94  95
ATOM     95  S   UNL A   1      50.673  26.123  35.786  1.00  0.00     0.124 S 
ATOM     96  O   UNL A   1      51.052  24.896  35.089  1.00  0.00    -0.237 OA
ATOM     97  O   UNL A   1      51.514  27.286  35.515  1.00  0.00    -0.237 OA
ATOM     98  O   UNL A   1      50.291  25.950  37.186  1.00  0.00    -0.744 OA
ENDBRANCH  94  95
ENDBRANCH  68  89
ENDBRANCH  42  43
ENDBRANCH  35  37
ENDBRANCH  34  35
ENDBRANCH  33  34
ENDBRANCH  32  33
ENDBRANCH   1  32
TORSDOF 21
ENDMDL
MODEL 3
REMARK VINA RESULT:     -10.7      4.091      8.843
REMARK SMILES CC(C)Cc1ccc(-c2cc(Cl)cc3c2O[C@@H](C(F)(F)F)C(C(=O)OCCOCCOC(=O)c2ccc(-c4c5nc(c(-c6ccc(S(=O)(=O)[O-])cc6)c6ccc([nH]6)c(-c6ccc(S(=O)(=O)[O-])cc6)c6nc(c(-c7ccc(S(=O)(=O)[O-])cc7)c7ccc4[nH]7)C=C6)C=C5)cc2)=C3)cc1
REMARK SMILES IDX 28 1 27 2 26 3 25 4 23 5 24 6 22 7 9 8 10 9 15 10 11 11
REMARK SMILES IDX 14 12 16 13 12 14 13 15 94 16 17 17 8 18 5 19 6 20 96 21
REMARK SMILES IDX 7 22 95 23 4 24 2 25 1 26 3 27 18 28 19 29 20 30 21 31 29 32
REMARK SMILES IDX 30 33 31 34 32 35 33 36 34 37 35 38 93 39 36 40 92 41 37 42
REMARK SMILES IDX 38 43 39 44 86 45 40 46 91 47 85 48 87 49 41 50 90 51 84 52
REMARK SMILES IDX 83 53 42 55 72 56 53 57 71 58 54 59 57 60 70 61 88 62 55 63
REMARK SMILES IDX 56 64 69 66 89 67 58 68 43 69 44 70 52 71 45 72 51 73 46 74
REMARK SMILES IDX 47 75 48 76 49 77 50 78 73 79 74 80 82 81 75 82 81 83 76 84
REMARK SMILES IDX 77 85 78 86 79 87 80 88 59 89 60 90 68 91 61 92 67 93 62 94
REMARK SMILES IDX 63 95 64 96 65 97 66 98
REMARK H PARENT 87 54 57 65
REMARK Flexibility Score: inf
ROOT
ATOM      1  O   UNL A   1      32.618  30.770  26.382  1.00  0.00    -0.374 OA
ENDROOT
BRANCH   1   2
ATOM      2  C   UNL A   1      31.510  30.171  25.722  1.00  0.00     0.202 C 
BRANCH   2   3
ATOM      3  C   UNL A   1      31.767  29.337  24.456  1.00  0.00     0.261 C 
BRANCH   3   4
ATOM      4  O   UNL A   1      32.818  28.372  24.616  1.00  0.00    -0.460 OA
BRANCH   4   5
ATOM      5  C   UNL A   1      32.423  27.095  24.775  1.00  0.00     0.338 C 
ATOM      6  O   UNL A   1      31.337  26.738  25.211  1.00  0.00    -0.246 OA
BRANCH   5   7
ATOM      7  C   UNL A   1      33.381  26.126  24.189  1.00  0.00     0.087 C 
ATOM      8  C   UNL A   1      32.054  22.193  24.006  1.00  0.00     0.026 A 
ATOM      9  C   UNL A   1      31.062  22.098  25.007  1.00  0.00     0.033 A 
ATOM     10  C   UNL A   1      32.735  23.430  23.953  1.00  0.00     0.135 A 
ATOM     11  C   UNL A   1      31.030  22.994  26.074  1.00  0.00     0.042 A 
ATOM     12  C   UNL A   1      32.888  24.167  25.139  1.00  0.00     0.019 A 
ATOM     13  O   UNL A   1      32.819  24.135  22.738  1.00  0.00    -0.475 OA
ATOM     14  Cl  UNL A   1      29.845  22.812  27.305  1.00  0.00    -0.084 Cl
ATOM     15  C   UNL A   1      32.011  23.968  26.198  1.00  0.00     0.032 A 
ATOM     16  C   UNL A   1      33.834  25.302  25.148  1.00  0.00     0.027 C 
ATOM     17  C   UNL A   1      33.370  25.521  22.800  1.00  0.00     0.316 C 
BRANCH   8  18
ATOM     18  C   UNL A   1      32.699  20.861  23.696  1.00  0.00    -0.015 A 
ATOM     19  C   UNL A   1      33.393  18.064  23.706  1.00  0.00    -0.048 A 
ATOM     20  C   UNL A   1      32.437  18.568  22.818  1.00  0.00     0.004 A 
ATOM     21  C   UNL A   1      34.036  18.973  24.553  1.00  0.00     0.004 A 
ATOM     22  C   UNL A   1      32.106  19.939  22.808  1.00  0.00     0.009 A 
ATOM     23  C   UNL A   1      33.703  20.342  24.542  1.00  0.00     0.009 A 
BRANCH  19  24
ATOM     24  C   UNL A   1      33.720  16.582  23.745  1.00  0.00     0.038 C 
BRANCH  24  25
ATOM     25  C   UNL A   1      33.947  16.043  25.171  1.00  0.00    -0.013 C 
ATOM     26  C   UNL A   1      32.981  14.903  25.505  1.00  0.00     0.008 C 
ATOM     27  C   UNL A   1      35.387  15.550  25.357  1.00  0.00     0.008 C 
ENDBRANCH  24  25
ENDBRANCH  19  24
ENDBRANCH   8  18
BRANCH  17  28
ATOM     28  C   UNL A   1      32.959  26.488  21.666  1.00  0.00     0.430 C 
ATOM     29  F   UNL A   1      31.638  26.793  21.801  1.00  0.00    -0.167 F 
ATOM     30  F   UNL A   1      33.628  27.662  21.743  1.00  0.00    -0.167 F 
ATOM     31  F   UNL A   1      33.124  26.017  20.418  1.00  0.00    -0.167 F 
ENDBRANCH  17  28
ENDBRANCH   5   7
ENDBRANCH   4   5
ENDBRANCH   3   4
ENDBRANCH   2   3
ENDBRANCH   1   2
BRANCH   1  32
ATOM     32  C   UNL A   1      32.372  31.880  27.241  1.00  0.00     0.202 C 
BRANCH  32  33
ATOM     33  C   UNL A   1      33.558  32.705  27.750  1.00  0.00     0.261 C 
BRANCH  33  34
ATOM     34  O   UNL A   1      33.213  34.045  28.128  1.00  0.00    -0.460 OA
BRANCH  34  35
ATOM     35  C   UNL A   1      33.477  34.348  29.421  1.00  0.00     0.338 C 
ATOM     36  O   UNL A   1      32.730  34.903  30.220  1.00  0.00    -0.246 OA
BRANCH  35  37
ATOM     37  C   UNL A   1      34.765  33.769  29.824  1.00  0.00     0.060 A 
ATOM     38  C   UNL A   1      34.756  32.766  30.801  1.00  0.00     0.016 A 
ATOM     39  C   UNL A   1      35.967  34.279  29.331  1.00  0.00     0.016 A 
ATOM     40  C   UNL A   1      35.957  32.298  31.325  1.00  0.00     0.010 A 
ATOM     41  C   UNL A   1      37.172  33.812  29.864  1.00  0.00     0.010 A 
ATOM     42  C   UNL A   1      37.170  32.848  30.888  1.00  0.00    -0.014 A 
BRANCH  42  43
ATOM     43  C   UNL A   1      38.423  32.508  31.602  1.00  0.00     0.031 A 
ATOM     44  C   UNL A   1      39.368  31.511  30.988  1.00  0.00     0.074 A 
ATOM     45  C   UNL A   1      38.725  33.105  32.768  1.00  0.00     0.049 A 
ATOM     46  N   UNL A   1      40.505  31.057  31.447  1.00  0.00    -0.248 NA
ATOM     47  C   UNL A   1      38.977  30.947  29.686  1.00  0.00     0.031 C 
ATOM     48  C   UNL A   1      37.903  34.115  33.438  1.00  0.00     0.029 A 
ATOM     49  N   UNL A   1      39.806  32.947  33.598  1.00  0.00    -0.354 N 
ATOM     50  C   UNL A   1      40.960  30.148  30.499  1.00  0.00     0.074 A 
ATOM     51  C   UNL A   1      39.962  30.091  29.455  1.00  0.00     0.031 C 
ATOM     52  C   UNL A   1      38.510  34.482  34.579  1.00  0.00     0.029 A 
ATOM     53  C   UNL A   1      39.739  33.710  34.738  1.00  0.00     0.049 A 
ATOM     54  H   UNL A   1      40.557  32.344  33.394  1.00  0.00     0.167 HD
ATOM     55  C   UNL A   1      42.108  29.429  30.499  1.00  0.00     0.031 A 
ATOM     56  C   UNL A   1      40.567  33.763  35.801  1.00  0.00     0.031 A 
ATOM     57  C   UNL A   1      43.090  29.483  31.551  1.00  0.00     0.049 A 
ATOM     58  C   UNL A   1      41.807  32.907  35.807  1.00  0.00     0.074 A 
ATOM     59  C   UNL A   1      44.297  28.813  31.637  1.00  0.00     0.029 A 
ATOM     60  N   UNL A   1      42.973  30.246  32.705  1.00  0.00    -0.354 N 
ATOM     61  N   UNL A   1      42.239  32.075  34.889  1.00  0.00    -0.248 NA
ATOM     62  C   UNL A   1      42.675  33.008  36.987  1.00  0.00     0.031 C 
ATOM     63  C   UNL A   1      44.878  29.117  32.872  1.00  0.00     0.029 A 
ATOM     64  C   UNL A   1      44.071  30.037  33.523  1.00  0.00     0.049 A 
ATOM     65  H   UNL A   1      42.221  30.846  32.911  1.00  0.00     0.167 HD
ATOM     66  C   UNL A   1      43.446  31.576  35.368  1.00  0.00     0.074 A 
ATOM     67  C   UNL A   1      43.681  32.213  36.647  1.00  0.00     0.031 C 
ATOM     68  C   UNL A   1      44.286  30.674  34.799  1.00  0.00     0.031 A 
BRANCH  55  69
ATOM     69  C   UNL A   1      42.344  28.490  29.344  1.00  0.00    -0.014 A 
ATOM     70  C   UNL A   1      41.966  27.136  29.409  1.00  0.00     0.010 A 
ATOM     71  C   UNL A   1      42.923  28.979  28.159  1.00  0.00     0.010 A 
ATOM     72  C   UNL A   1      42.203  26.281  28.327  1.00  0.00     0.020 A 
ATOM     73  C   UNL A   1      43.132  28.136  27.064  1.00  0.00     0.020 A 
ATOM     74  C   UNL A   1      42.786  26.788  27.161  1.00  0.00     0.054 A 
BRANCH  74  75
ATOM     75  S   UNL A   1      43.061  25.661  25.766  1.00  0.00     0.124 S 
ATOM     76  O   UNL A   1      42.963  24.354  26.411  1.00  0.00    -0.237 OA
ATOM     77  O   UNL A   1      41.966  25.999  24.861  1.00  0.00    -0.237 OA
ATOM     78  O   UNL A   1      44.394  26.021  25.288  1.00  0.00    -0.744 OA
ENDBRANCH  74  75
ENDBRANCH  55  69
BRANCH  56  79
ATOM     79  C   UNL A   1      40.237  34.646  36.953  1.00  0.00    -0.014 A 
ATOM     80  C   UNL A   1      40.710  35.968  37.008  1.00  0.00     0.010 A 
ATOM     81  C   UNL A   1      39.435  34.164  38.005  1.00  0.00     0.010 A 
ATOM     82  C   UNL A   1      40.400  36.786  38.100  1.00  0.00     0.020 A 
ATOM     83  C   UNL A   1      39.097  34.988  39.082  1.00  0.00     0.020 A 
ATOM     84  C   UNL A   1      39.592  36.292  39.127  1.00  0.00     0.054 A 
BRANCH  84  85
ATOM     85  S   UNL A   1      39.160  37.389  40.506  1.00  0.00     0.124 S 
ATOM     86  O   UNL A   1      38.181  38.280  39.890  1.00  0.00    -0.237 OA
ATOM     87  O   UNL A   1      38.631  36.455  41.497  1.00  0.00    -0.237 OA
ATOM     88  O   UNL A   1      40.434  38.010  40.863  1.00  0.00    -0.744 OA
ENDBRANCH  84  85
ENDBRANCH  56  79
BRANCH  68  89
ATOM     89  C   UNL A   1      45.560  30.352  35.538  1.00  0.00    -0.014 A 
ATOM     90  C   UNL A   1      45.671  29.205  36.345  1.00  0.00     0.010 A 
ATOM     91  C   UNL A   1      46.680  31.190  35.384  1.00  0.00     0.010 A 
ATOM     92  C   UNL A   1      46.865  28.927  37.017  1.00  0.00     0.020 A 
ATOM     93  C   UNL A   1      47.885  30.897  36.027  1.00  0.00     0.020 A 
ATOM     94  C   UNL A   1      47.964  29.776  36.856  1.00  0.00     0.054 A 
BRANCH  94  95
ATOM     95  S   UNL A   1      49.510  29.377  37.715  1.00  0.00     0.124 S 
ATOM     96  O   UNL A   1      50.294  30.593  37.509  1.00  0.00    -0.237 OA
ATOM     97  O   UNL A   1      49.063  29.142  39.086  1.00  0.00    -0.237 OA
ATOM     98  O   UNL A   1      50.002  28.193  37.015  1.00  0.00    -0.744 OA
ENDBRANCH  94  95
ENDBRANCH  68  89
ENDBRANCH  42  43
ENDBRANCH  35  37
ENDBRANCH  34  35
ENDBRANCH  33  34
ENDBRANCH  32  33
ENDBRANCH   1  32
TORSDOF 21
ENDMDL
