MODEL 1
REMARK VINA RESULT:     -11.3      0.000      0.000
REMARK SMILES Cc1c(C(=O)OCCOCCOC(=O)c2ccc(-c3c4nc(c(-c5ccc(S(=O)(=O)[O-])cc5)c5ccc([nH]5)c(-c5ccc(S(=O)(=O)[O-])cc5)c5nc(c(-c6ccc(S(=O)(=O)[O-])cc6)c6ccc3[nH]6)C=C5)C=C4)cc2)cccc1-n1c(C)cc(/C=C2/C(=O)NC(=S)N=C2O)c1C
REMARK SMILES IDX 9 1 8 2 7 3 6 4 4 5 5 6 3 7 1 8 2 9 78 10 75 11 77 12 76 13
REMARK SMILES IDX 79 14 80 15 94 16 81 17 82 18 83 19 95 20 84 21 85 22 86 23
REMARK SMILES IDX 92 24 87 25 88 26 91 27 89 28 90 30 93 31 10 33 11 34 12 35
REMARK SMILES IDX 13 36 14 37 15 38 16 39 74 40 17 41 73 42 18 43 19 44 20 45
REMARK SMILES IDX 67 46 21 47 72 48 66 49 68 50 22 51 71 52 65 53 64 54 23 56
REMARK SMILES IDX 53 57 34 58 52 59 35 60 38 61 51 62 69 63 36 64 37 65 50 67
REMARK SMILES IDX 70 68 39 69 24 70 25 71 33 72 26 73 32 74 27 75 28 76 29 77
REMARK SMILES IDX 30 78 31 79 54 80 55 81 63 82 56 83 62 84 57 85 58 86 59 87
REMARK SMILES IDX 60 88 61 89 40 90 41 91 49 92 42 93 48 94 43 95 44 96 45 97
REMARK SMILES IDX 46 98 47 99
REMARK H PARENT 88 29 93 32 68 55 38 66
REMARK Flexibility Score: inf
ROOT
ATOM      1  O   UNL A   1      31.997  28.219  24.145  1.00  0.00    -0.374 OA
ENDROOT
BRANCH   1   2
ATOM      2  C   UNL A   1      30.623  28.304  23.811  1.00  0.00     0.202 C 
BRANCH   2   3
ATOM      3  C   UNL A   1      30.067  26.969  24.171  1.00  0.00     0.261 C 
BRANCH   3   4
ATOM      4  O   UNL A   1      31.008  26.144  24.886  1.00  0.00    -0.460 OA
BRANCH   4   5
ATOM      5  C   UNL A   1      30.754  25.142  25.748  1.00  0.00     0.338 C 
ATOM      6  O   UNL A   1      29.963  25.091  26.654  1.00  0.00    -0.246 OA
BRANCH   5   7
ATOM      7  C   UNL A   1      31.654  24.020  25.341  1.00  0.00     0.065 A 
ATOM      8  C   UNL A   1      33.834  25.381  25.646  1.00  0.00     0.047 C 
ATOM      9  C   UNL A   1      33.066  24.105  25.334  1.00  0.00    -0.012 A 
ATOM     10  C   UNL A   1      33.767  22.969  24.908  1.00  0.00     0.049 A 
ATOM     11  C   UNL A   1      31.010  22.863  24.855  1.00  0.00     0.016 A 
ATOM     12  C   UNL A   1      33.133  21.835  24.386  1.00  0.00     0.027 A 
ATOM     13  C   UNL A   1      31.745  21.788  24.355  1.00  0.00     0.003 A 
BRANCH  10  14
ATOM     14  N   UNL A   1      35.168  23.032  24.842  1.00  0.00    -0.318 N 
ATOM     15  C   UNL A   1      35.915  23.130  23.679  1.00  0.00     0.020 A 
ATOM     16  C   UNL A   1      35.990  22.569  25.863  1.00  0.00     0.027 A 
ATOM     17  C   UNL A   1      35.316  23.215  22.312  1.00  0.00     0.065 C 
ATOM     18  C   UNL A   1      37.240  23.089  24.063  1.00  0.00     0.031 A 
ATOM     19  C   UNL A   1      37.289  22.824  25.461  1.00  0.00    -0.003 A 
ATOM     20  C   UNL A   1      35.408  21.866  27.052  1.00  0.00     0.065 C 
BRANCH  19  21
ATOM     21  C   UNL A   1      38.504  22.660  26.186  1.00  0.00     0.029 C 
ATOM     22  C   UNL A   1      39.334  21.608  26.300  1.00  0.00     0.102 C 
ATOM     23  C   UNL A   1      40.555  21.837  27.110  1.00  0.00     0.262 C 
ATOM     24  C   UNL A   1      39.276  20.272  25.703  1.00  0.00     0.226 C 
ATOM     25  O   UNL A   1      40.697  22.751  27.914  1.00  0.00    -0.269 OA
ATOM     26  N   UNL A   1      41.548  20.925  26.880  1.00  0.00    -0.297 N 
ATOM     27  N   UNL A   1      40.250  19.445  25.575  1.00  0.00    -0.184 NA
ATOM     28  C   UNL A   1      41.465  19.806  26.089  1.00  0.00     0.203 C 
ATOM     29  H   UNL A   1      42.411  21.088  27.327  1.00  0.00     0.172 HD
ATOM     30  S   UNL A   1      42.859  18.899  25.878  1.00  0.00    -0.038 S 
BRANCH  24  31
ATOM     31  O   UNL A   1      38.078  19.833  25.316  1.00  0.00    -0.493 OA
ATOM     32  H   UNL A   1      37.420  20.444  25.050  1.00  0.00     0.295 HD
ENDBRANCH  24  31
ENDBRANCH  19  21
ENDBRANCH  10  14
ENDBRANCH   5   7
ENDBRANCH   4   5
ENDBRANCH   3   4
ENDBRANCH   2   3
ENDBRANCH   1   2
BRANCH   1  33
ATOM     33  C   UNL A   1      32.371  28.781  25.375  1.00  0.00     0.202 C 
BRANCH  33  34
ATOM     34  C   UNL A   1      33.884  28.734  25.572  1.00  0.00     0.261 C 
BRANCH  34  35
ATOM     35  O   UNL A   1      34.198  28.648  26.981  1.00  0.00    -0.460 OA
BRANCH  35  36
ATOM     36  C   UNL A   1      34.327  29.840  27.641  1.00  0.00     0.338 C 
ATOM     37  O   UNL A   1      33.420  30.642  27.770  1.00  0.00    -0.246 OA
BRANCH  36  38
ATOM     38  C   UNL A   1      35.719  30.009  28.162  1.00  0.00     0.060 A 
ATOM     39  C   UNL A   1      36.815  30.208  27.297  1.00  0.00     0.016 A 
ATOM     40  C   UNL A   1      35.952  29.745  29.507  1.00  0.00     0.016 A 
ATOM     41  C   UNL A   1      38.137  30.006  27.751  1.00  0.00     0.010 A 
ATOM     42  C   UNL A   1      37.233  29.439  29.916  1.00  0.00     0.010 A 
ATOM     43  C   UNL A   1      38.339  29.545  29.050  1.00  0.00    -0.014 A 
BRANCH  43  44
ATOM     44  C   UNL A   1      39.595  29.075  29.653  1.00  0.00     0.031 A 
ATOM     45  C   UNL A   1      40.118  27.768  29.201  1.00  0.00     0.074 A 
ATOM     46  C   UNL A   1      40.453  29.922  30.274  1.00  0.00     0.049 A 
ATOM     47  N   UNL A   1      41.128  27.170  29.729  1.00  0.00    -0.248 NA
ATOM     48  C   UNL A   1      39.514  27.004  28.110  1.00  0.00     0.031 C 
ATOM     49  C   UNL A   1      41.918  29.891  30.256  1.00  0.00     0.029 A 
ATOM     50  N   UNL A   1      40.178  31.031  31.064  1.00  0.00    -0.354 N 
ATOM     51  C   UNL A   1      41.541  26.224  28.822  1.00  0.00     0.074 A 
ATOM     52  C   UNL A   1      40.435  26.061  27.911  1.00  0.00     0.031 C 
ATOM     53  C   UNL A   1      42.402  30.785  31.137  1.00  0.00     0.029 A 
ATOM     54  C   UNL A   1      41.275  31.313  31.885  1.00  0.00     0.049 A 
ATOM     55  H   UNL A   1      39.338  31.543  31.050  1.00  0.00     0.167 HD
ATOM     56  C   UNL A   1      42.843  25.826  28.826  1.00  0.00     0.031 A 
ATOM     57  C   UNL A   1      41.120  31.397  33.234  1.00  0.00     0.031 A 
ATOM     58  C   UNL A   1      43.623  26.517  29.869  1.00  0.00     0.049 A 
ATOM     59  C   UNL A   1      41.873  30.267  33.881  1.00  0.00     0.074 A 
ATOM     60  C   UNL A   1      44.611  27.490  29.839  1.00  0.00     0.029 A 
ATOM     61  N   UNL A   1      43.189  26.474  31.194  1.00  0.00    -0.354 N 
ATOM     62  N   UNL A   1      42.430  29.311  33.189  1.00  0.00    -0.248 NA
ATOM     63  C   UNL A   1      42.075  30.089  35.309  1.00  0.00     0.031 C 
ATOM     64  C   UNL A   1      44.779  28.002  31.161  1.00  0.00     0.029 A 
ATOM     65  C   UNL A   1      43.913  27.328  32.007  1.00  0.00     0.049 A 
ATOM     66  H   UNL A   1      42.453  25.902  31.513  1.00  0.00     0.167 HD
ATOM     67  C   UNL A   1      43.042  28.412  33.997  1.00  0.00     0.074 A 
ATOM     68  C   UNL A   1      42.758  28.926  35.331  1.00  0.00     0.031 C 
ATOM     69  C   UNL A   1      43.695  27.335  33.460  1.00  0.00     0.031 A 
BRANCH  56  70
ATOM     70  C   UNL A   1      43.454  25.012  27.699  1.00  0.00    -0.014 A 
ATOM     71  C   UNL A   1      43.206  25.368  26.359  1.00  0.00     0.010 A 
ATOM     72  C   UNL A   1      44.282  23.884  27.888  1.00  0.00     0.010 A 
ATOM     73  C   UNL A   1      43.704  24.614  25.281  1.00  0.00     0.020 A 
ATOM     74  C   UNL A   1      44.747  23.094  26.826  1.00  0.00     0.020 A 
ATOM     75  C   UNL A   1      44.463  23.472  25.522  1.00  0.00     0.054 A 
BRANCH  75  76
ATOM     76  S   UNL A   1      45.115  22.525  24.123  1.00  0.00     0.124 S 
ATOM     77  O   UNL A   1      45.440  21.238  24.734  1.00  0.00    -0.237 OA
ATOM     78  O   UNL A   1      43.984  22.518  23.200  1.00  0.00    -0.237 OA
ATOM     79  O   UNL A   1      46.271  23.305  23.682  1.00  0.00    -0.744 OA
ENDBRANCH  75  76
ENDBRANCH  56  70
BRANCH  57  80
ATOM     80  C   UNL A   1      39.810  32.024  33.627  1.00  0.00    -0.014 A 
ATOM     81  C   UNL A   1      39.641  33.394  33.311  1.00  0.00     0.010 A 
ATOM     82  C   UNL A   1      38.652  31.227  33.734  1.00  0.00     0.010 A 
ATOM     83  C   UNL A   1      38.388  33.902  32.926  1.00  0.00     0.020 A 
ATOM     84  C   UNL A   1      37.400  31.727  33.325  1.00  0.00     0.020 A 
ATOM     85  C   UNL A   1      37.286  33.048  32.875  1.00  0.00     0.054 A 
BRANCH  85  86
ATOM     86  S   UNL A   1      35.817  33.563  31.907  1.00  0.00     0.124 S 
ATOM     87  O   UNL A   1      36.239  33.315  30.534  1.00  0.00    -0.237 OA
ATOM     88  O   UNL A   1      34.764  32.677  32.409  1.00  0.00    -0.237 OA
ATOM     89  O   UNL A   1      35.648  34.962  32.284  1.00  0.00    -0.744 OA
ENDBRANCH  85  86
ENDBRANCH  57  80
BRANCH  69  90
ATOM     90  C   UNL A   1      44.182  26.149  34.251  1.00  0.00    -0.014 A 
ATOM     91  C   UNL A   1      43.350  25.167  34.795  1.00  0.00     0.010 A 
ATOM     92  C   UNL A   1      45.574  25.989  34.462  1.00  0.00     0.010 A 
ATOM     93  C   UNL A   1      43.879  24.019  35.391  1.00  0.00     0.020 A 
ATOM     94  C   UNL A   1      46.117  24.862  35.075  1.00  0.00     0.020 A 
ATOM     95  C   UNL A   1      45.260  23.865  35.507  1.00  0.00     0.054 A 
BRANCH  95  96
ATOM     96  S   UNL A   1      45.904  22.360  36.259  1.00  0.00     0.124 S 
ATOM     97  O   UNL A   1      45.104  21.323  35.612  1.00  0.00    -0.237 OA
ATOM     98  O   UNL A   1      47.311  22.404  35.866  1.00  0.00    -0.237 OA
ATOM     99  O   UNL A   1      45.651  22.543  37.685  1.00  0.00    -0.744 OA
ENDBRANCH  95  96
ENDBRANCH  69  90
ENDBRANCH  43  44
ENDBRANCH  36  38
ENDBRANCH  35  36
ENDBRANCH  34  35
ENDBRANCH  33  34
ENDBRANCH   1  33
TORSDOF 20
ENDMDL
MODEL 2
REMARK VINA RESULT:     -11.2      3.687     10.097
REMARK SMILES Cc1c(C(=O)OCCOCCOC(=O)c2ccc(-c3c4nc(c(-c5ccc(S(=O)(=O)[O-])cc5)c5ccc([nH]5)c(-c5ccc(S(=O)(=O)[O-])cc5)c5nc(c(-c6ccc(S(=O)(=O)[O-])cc6)c6ccc3[nH]6)C=C5)C=C4)cc2)cccc1-n1c(C)cc(/C=C2/C(=O)NC(=S)N=C2O)c1C
REMARK SMILES IDX 9 1 8 2 7 3 6 4 4 5 5 6 3 7 1 8 2 9 78 10 75 11 77 12 76 13
REMARK SMILES IDX 79 14 80 15 94 16 81 17 82 18 83 19 95 20 84 21 85 22 86 23
REMARK SMILES IDX 92 24 87 25 88 26 91 27 89 28 90 30 93 31 10 33 11 34 12 35
REMARK SMILES IDX 13 36 14 37 15 38 16 39 74 40 17 41 73 42 18 43 19 44 20 45
REMARK SMILES IDX 67 46 21 47 72 48 66 49 68 50 22 51 71 52 65 53 64 54 23 56
REMARK SMILES IDX 53 57 34 58 52 59 35 60 38 61 51 62 69 63 36 64 37 65 50 67
REMARK SMILES IDX 70 68 39 69 24 70 25 71 33 72 26 73 32 74 27 75 28 76 29 77
REMARK SMILES IDX 30 78 31 79 54 80 55 81 63 82 56 83 62 84 57 85 58 86 59 87
REMARK SMILES IDX 60 88 61 89 40 90 41 91 49 92 42 93 48 94 43 95 44 96 45 97
REMARK SMILES IDX 46 98 47 99
REMARK H PARENT 88 29 93 32 68 55 38 66
REMARK Flexibility Score: inf
ROOT
ATOM      1  O   UNL A   1      43.078  23.179  24.733  1.00  0.00    -0.374 OA
ENDROOT
BRANCH   1   2
ATOM      2  C   UNL A   1      43.934  22.081  24.992  1.00  0.00     0.202 C 
BRANCH   2   3
ATOM      3  C   UNL A   1      43.107  21.144  25.804  1.00  0.00     0.261 C 
BRANCH   3   4
ATOM      4  O   UNL A   1      41.696  21.430  25.726  1.00  0.00    -0.460 OA
BRANCH   4   5
ATOM      5  C   UNL A   1      40.789  21.435  26.720  1.00  0.00     0.338 C 
ATOM      6  O   UNL A   1      40.943  21.623  27.899  1.00  0.00    -0.246 OA
BRANCH   5   7
ATOM      7  C   UNL A   1      39.469  21.188  26.064  1.00  0.00     0.065 A 
ATOM      8  C   UNL A   1      38.556  23.565  26.531  1.00  0.00     0.047 C 
ATOM      9  C   UNL A   1      38.458  22.169  25.933  1.00  0.00    -0.012 A 
ATOM     10  C   UNL A   1      37.268  21.772  25.308  1.00  0.00     0.049 A 
ATOM     11  C   UNL A   1      39.227  19.860  25.654  1.00  0.00     0.016 A 
ATOM     12  C   UNL A   1      37.008  20.448  24.937  1.00  0.00     0.027 A 
ATOM     13  C   UNL A   1      37.994  19.487  25.118  1.00  0.00     0.003 A 
BRANCH  10  14
ATOM     14  N   UNL A   1      36.224  22.706  25.202  1.00  0.00    -0.318 N 
ATOM     15  C   UNL A   1      35.115  22.768  26.031  1.00  0.00     0.020 A 
ATOM     16  C   UNL A   1      35.941  23.386  24.024  1.00  0.00     0.027 A 
ATOM     17  C   UNL A   1      34.891  21.852  27.190  1.00  0.00     0.065 C 
ATOM     18  C   UNL A   1      34.314  23.775  25.532  1.00  0.00     0.031 A 
ATOM     19  C   UNL A   1      34.883  24.231  24.308  1.00  0.00    -0.003 A 
ATOM     20  C   UNL A   1      36.680  23.065  22.760  1.00  0.00     0.065 C 
BRANCH  19  21
ATOM     21  C   UNL A   1      34.286  25.232  23.490  1.00  0.00     0.029 C 
ATOM     22  C   UNL A   1      32.996  25.542  23.266  1.00  0.00     0.102 C 
ATOM     23  C   UNL A   1      32.759  26.709  22.382  1.00  0.00     0.262 C 
ATOM     24  C   UNL A   1      31.763  24.958  23.799  1.00  0.00     0.226 C 
ATOM     25  O   UNL A   1      33.590  27.182  21.616  1.00  0.00    -0.269 OA
ATOM     26  N   UNL A   1      31.504  27.240  22.494  1.00  0.00    -0.297 N 
ATOM     27  N   UNL A   1      30.601  25.503  23.815  1.00  0.00    -0.184 NA
ATOM     28  C   UNL A   1      30.464  26.733  23.233  1.00  0.00     0.203 C 
ATOM     29  H   UNL A   1      31.329  28.070  21.994  1.00  0.00     0.172 HD
ATOM     30  S   UNL A   1      29.049  27.630  23.298  1.00  0.00    -0.038 S 
BRANCH  24  31
ATOM     31  O   UNL A   1      31.831  23.706  24.250  1.00  0.00    -0.493 OA
ATOM     32  H   UNL A   1      32.557  23.438  24.779  1.00  0.00     0.295 HD
ENDBRANCH  24  31
ENDBRANCH  19  21
ENDBRANCH  10  14
ENDBRANCH   5   7
ENDBRANCH   4   5
ENDBRANCH   3   4
ENDBRANCH   2   3
ENDBRANCH   1   2
BRANCH   1  33
ATOM     33  C   UNL A   1      43.254  24.307  25.547  1.00  0.00     0.202 C 
BRANCH  33  34
ATOM     34  C   UNL A   1      42.103  25.298  25.383  1.00  0.00     0.261 C 
BRANCH  34  35
ATOM     35  O   UNL A   1      42.252  26.390  26.319  1.00  0.00    -0.460 OA
BRANCH  35  36
ATOM     36  C   UNL A   1      42.143  27.650  25.795  1.00  0.00     0.338 C 
ATOM     37  O   UNL A   1      42.332  27.912  24.621  1.00  0.00    -0.246 OA
BRANCH  36  38
ATOM     38  C   UNL A   1      41.776  28.636  26.858  1.00  0.00     0.060 A 
ATOM     39  C   UNL A   1      42.736  29.486  27.444  1.00  0.00     0.016 A 
ATOM     40  C   UNL A   1      40.509  28.548  27.423  1.00  0.00     0.016 A 
ATOM     41  C   UNL A   1      42.470  30.138  28.668  1.00  0.00     0.010 A 
ATOM     42  C   UNL A   1      40.294  29.095  28.671  1.00  0.00     0.010 A 
ATOM     43  C   UNL A   1      41.267  29.878  29.321  1.00  0.00    -0.014 A 
BRANCH  43  44
ATOM     44  C   UNL A   1      40.878  30.277  30.682  1.00  0.00     0.031 A 
ATOM     45  C   UNL A   1      40.090  31.519  30.827  1.00  0.00     0.074 A 
ATOM     46  C   UNL A   1      40.868  29.394  31.713  1.00  0.00     0.049 A 
ATOM     47  N   UNL A   1      39.792  32.061  31.956  1.00  0.00    -0.248 NA
ATOM     48  C   UNL A   1      39.585  32.279  29.683  1.00  0.00     0.031 C 
ATOM     49  C   UNL A   1      39.909  29.313  32.817  1.00  0.00     0.029 A 
ATOM     50  N   UNL A   1      41.738  28.345  31.982  1.00  0.00    -0.354 N 
ATOM     51  C   UNL A   1      38.758  32.932  31.711  1.00  0.00     0.074 A 
ATOM     52  C   UNL A   1      38.763  33.139  30.284  1.00  0.00     0.031 C 
ATOM     53  C   UNL A   1      40.341  28.424  33.730  1.00  0.00     0.029 A 
ATOM     54  C   UNL A   1      41.680  28.016  33.340  1.00  0.00     0.049 A 
ATOM     55  H   UNL A   1      42.310  27.899  31.317  1.00  0.00     0.167 HD
ATOM     56  C   UNL A   1      37.890  33.230  32.717  1.00  0.00     0.031 A 
ATOM     57  C   UNL A   1      42.812  28.004  34.093  1.00  0.00     0.031 A 
ATOM     58  C   UNL A   1      38.239  32.528  33.965  1.00  0.00     0.049 A 
ATOM     59  C   UNL A   1      42.727  29.101  35.119  1.00  0.00     0.074 A 
ATOM     60  C   UNL A   1      37.660  31.482  34.670  1.00  0.00     0.029 A 
ATOM     61  N   UNL A   1      39.523  32.662  34.494  1.00  0.00    -0.354 N 
ATOM     62  N   UNL A   1      41.763  29.980  35.123  1.00  0.00    -0.248 NA
ATOM     63  C   UNL A   1      43.669  29.325  36.203  1.00  0.00     0.031 C 
ATOM     64  C   UNL A   1      38.601  31.017  35.638  1.00  0.00     0.029 A 
ATOM     65  C   UNL A   1      39.746  31.791  35.547  1.00  0.00     0.049 A 
ATOM     66  H   UNL A   1      40.192  33.301  34.158  1.00  0.00     0.167 HD
ATOM     67  C   UNL A   1      41.910  30.865  36.139  1.00  0.00     0.074 A 
ATOM     68  C   UNL A   1      43.150  30.432  36.771  1.00  0.00     0.031 C 
ATOM     69  C   UNL A   1      40.993  31.864  36.321  1.00  0.00     0.031 A 
BRANCH  56  70
ATOM     70  C   UNL A   1      36.572  33.945  32.476  1.00  0.00    -0.014 A 
ATOM     71  C   UNL A   1      35.823  33.670  31.316  1.00  0.00     0.010 A 
ATOM     72  C   UNL A   1      36.013  34.900  33.353  1.00  0.00     0.010 A 
ATOM     73  C   UNL A   1      34.626  34.345  31.022  1.00  0.00     0.020 A 
ATOM     74  C   UNL A   1      34.845  35.617  33.053  1.00  0.00     0.020 A 
ATOM     75  C   UNL A   1      34.149  35.326  31.888  1.00  0.00     0.054 A 
BRANCH  75  76
ATOM     76  S   UNL A   1      32.593  36.171  31.506  1.00  0.00     0.124 S 
ATOM     77  O   UNL A   1      31.635  35.475  32.360  1.00  0.00    -0.237 OA
ATOM     78  O   UNL A   1      32.890  37.550  31.883  1.00  0.00    -0.237 OA
ATOM     79  O   UNL A   1      32.416  35.945  30.072  1.00  0.00    -0.744 OA
ENDBRANCH  75  76
ENDBRANCH  56  70
BRANCH  57  80
ATOM     80  C   UNL A   1      44.006  27.496  33.331  1.00  0.00    -0.014 A 
ATOM     81  C   UNL A   1      44.050  26.105  33.071  1.00  0.00     0.010 A 
ATOM     82  C   UNL A   1      44.692  28.351  32.444  1.00  0.00     0.010 A 
ATOM     83  C   UNL A   1      44.587  25.605  31.872  1.00  0.00     0.020 A 
ATOM     84  C   UNL A   1      45.208  27.856  31.230  1.00  0.00     0.020 A 
ATOM     85  C   UNL A   1      45.106  26.493  30.929  1.00  0.00     0.054 A 
BRANCH  85  86
ATOM     86  S   UNL A   1      45.324  25.917  29.202  1.00  0.00     0.124 S 
ATOM     87  O   UNL A   1      46.724  25.513  29.178  1.00  0.00    -0.237 OA
ATOM     88  O   UNL A   1      44.354  24.825  29.095  1.00  0.00    -0.237 OA
ATOM     89  O   UNL A   1      44.982  27.097  28.416  1.00  0.00    -0.744 OA
ENDBRANCH  85  86
ENDBRANCH  57  80
BRANCH  69  90
ATOM     90  C   UNL A   1      41.183  33.043  37.240  1.00  0.00    -0.014 A 
ATOM     91  C   UNL A   1      42.062  34.101  36.994  1.00  0.00     0.010 A 
ATOM     92  C   UNL A   1      40.423  33.113  38.434  1.00  0.00     0.010 A 
ATOM     93  C   UNL A   1      42.081  35.232  37.815  1.00  0.00     0.020 A 
ATOM     94  C   UNL A   1      40.448  34.222  39.276  1.00  0.00     0.020 A 
ATOM     95  C   UNL A   1      41.257  35.293  38.938  1.00  0.00     0.054 A 
BRANCH  95  96
ATOM     96  S   UNL A   1      41.291  36.777  39.959  1.00  0.00     0.124 S 
ATOM     97  O   UNL A   1      39.872  37.013  40.211  1.00  0.00    -0.237 OA
ATOM     98  O   UNL A   1      42.067  36.331  41.115  1.00  0.00    -0.237 OA
ATOM     99  O   UNL A   1      41.948  37.770  39.114  1.00  0.00    -0.744 OA
ENDBRANCH  95  96
ENDBRANCH  69  90
ENDBRANCH  43  44
ENDBRANCH  36  38
ENDBRANCH  35  36
ENDBRANCH  34  35
ENDBRANCH  33  34
ENDBRANCH   1  33
TORSDOF 20
ENDMDL
MODEL 3
REMARK VINA RESULT:     -11.2      4.328     10.623
REMARK SMILES Cc1c(C(=O)OCCOCCOC(=O)c2ccc(-c3c4nc(c(-c5ccc(S(=O)(=O)[O-])cc5)c5ccc([nH]5)c(-c5ccc(S(=O)(=O)[O-])cc5)c5nc(c(-c6ccc(S(=O)(=O)[O-])cc6)c6ccc3[nH]6)C=C5)C=C4)cc2)cccc1-n1c(C)cc(/C=C2/C(=O)NC(=S)N=C2O)c1C
REMARK SMILES IDX 9 1 8 2 7 3 6 4 4 5 5 6 3 7 1 8 2 9 78 10 75 11 77 12 76 13
REMARK SMILES IDX 79 14 80 15 94 16 81 17 82 18 83 19 95 20 84 21 85 22 86 23
REMARK SMILES IDX 92 24 87 25 88 26 91 27 89 28 90 30 93 31 10 33 11 34 12 35
REMARK SMILES IDX 13 36 14 37 15 38 16 39 74 40 17 41 73 42 18 43 19 44 20 45
REMARK SMILES IDX 67 46 21 47 72 48 66 49 68 50 22 51 71 52 65 53 64 54 23 56
REMARK SMILES IDX 53 57 34 58 52 59 35 60 38 61 51 62 69 63 36 64 37 65 50 67
REMARK SMILES IDX 70 68 39 69 24 70 25 71 33 72 26 73 32 74 27 75 28 76 29 77
REMARK SMILES IDX 30 78 31 79 54 80 55 81 63 82 56 83 62 84 57 85 58 86 59 87
REMARK SMILES IDX 60 88 61 89 40 90 41 91 49 92 42 93 48 94 43 95 44 96 45 97
REMARK SMILES IDX 46 98 47 99
REMARK H PARENT 88 29 93 32 68 55 38 66
REMARK Flexibility Score: inf
ROOT
ATOM      1  O   UNL A   1      45.965  29.813  26.564  1.00  0.00    -0.374 OA
ENDROOT
BRANCH   1   2
ATOM      2  C   UNL A   1      44.730  30.241  27.108  1.00  0.00     0.202 C 
BRANCH   2   3
ATOM      3  C   UNL A   1      44.229  29.064  27.872  1.00  0.00     0.261 C 
BRANCH   3   4
ATOM      4  O   UNL A   1      43.335  28.235  27.102  1.00  0.00    -0.460 OA
BRANCH   4   5
ATOM      5  C   UNL A   1      42.050  28.469  26.779  1.00  0.00     0.338 C 
ATOM      6  O   UNL A   1      41.571  29.362  26.130  1.00  0.00    -0.246 OA
BRANCH   5   7
ATOM      7  C   UNL A   1      41.272  27.338  27.373  1.00  0.00     0.065 A 
ATOM      8  C   UNL A   1      41.883  25.660  25.499  1.00  0.00     0.047 C 
ATOM      9  C   UNL A   1      41.226  26.037  26.818  1.00  0.00    -0.012 A 
ATOM     10  C   UNL A   1      40.435  25.092  27.485  1.00  0.00     0.049 A 
ATOM     11  C   UNL A   1      40.480  27.660  28.494  1.00  0.00     0.016 A 
ATOM     12  C   UNL A   1      39.616  25.417  28.574  1.00  0.00     0.027 A 
ATOM     13  C   UNL A   1      39.636  26.712  29.074  1.00  0.00     0.003 A 
BRANCH  10  14
ATOM     14  N   UNL A   1      40.327  23.803  26.939  1.00  0.00    -0.318 N 
ATOM     15  C   UNL A   1      39.171  23.246  26.415  1.00  0.00     0.020 A 
ATOM     16  C   UNL A   1      41.217  22.780  27.243  1.00  0.00     0.027 A 
ATOM     17  C   UNL A   1      37.865  23.968  26.332  1.00  0.00     0.065 C 
ATOM     18  C   UNL A   1      39.490  21.951  26.060  1.00  0.00     0.031 A 
ATOM     19  C   UNL A   1      40.817  21.684  26.502  1.00  0.00    -0.003 A 
ATOM     20  C   UNL A   1      42.286  22.981  28.275  1.00  0.00     0.065 C 
BRANCH  19  21
ATOM     21  C   UNL A   1      41.454  20.419  26.350  1.00  0.00     0.029 C 
ATOM     22  C   UNL A   1      42.650  20.084  25.833  1.00  0.00     0.102 C 
ATOM     23  C   UNL A   1      43.001  18.645  25.903  1.00  0.00     0.262 C 
ATOM     24  C   UNL A   1      43.713  20.913  25.260  1.00  0.00     0.226 C 
ATOM     25  O   UNL A   1      42.194  17.739  26.080  1.00  0.00    -0.269 OA
ATOM     26  N   UNL A   1      44.337  18.395  25.756  1.00  0.00    -0.297 N 
ATOM     27  N   UNL A   1      44.943  20.582  25.101  1.00  0.00    -0.184 NA
ATOM     28  C   UNL A   1      45.312  19.311  25.447  1.00  0.00     0.203 C 
ATOM     29  H   UNL A   1      44.630  17.463  25.884  1.00  0.00     0.172 HD
ATOM     30  S   UNL A   1      46.901  18.777  25.431  1.00  0.00    -0.038 S 
BRANCH  24  31
ATOM     31  O   UNL A   1      43.360  22.108  24.786  1.00  0.00    -0.493 OA
ATOM     32  H   UNL A   1      43.833  22.873  25.047  1.00  0.00     0.295 HD
ENDBRANCH  24  31
ENDBRANCH  19  21
ENDBRANCH  10  14
ENDBRANCH   5   7
ENDBRANCH   4   5
ENDBRANCH   3   4
ENDBRANCH   2   3
ENDBRANCH   1   2
BRANCH   1  33
ATOM     33  C   UNL A   1      46.908  29.322  27.479  1.00  0.00     0.202 C 
BRANCH  33  34
ATOM     34  C   UNL A   1      47.853  28.318  26.820  1.00  0.00     0.261 C 
BRANCH  34  35
ATOM     35  O   UNL A   1      47.791  27.052  27.515  1.00  0.00    -0.460 OA
BRANCH  35  36
ATOM     36  C   UNL A   1      46.651  26.318  27.328  1.00  0.00     0.338 C 
ATOM     37  O   UNL A   1      46.145  26.121  26.237  1.00  0.00    -0.246 OA
BRANCH  36  38
ATOM     38  C   UNL A   1      46.124  25.815  28.634  1.00  0.00     0.060 A 
ATOM     39  C   UNL A   1      44.759  25.511  28.815  1.00  0.00     0.016 A 
ATOM     40  C   UNL A   1      46.964  25.860  29.740  1.00  0.00     0.016 A 
ATOM     41  C   UNL A   1      44.214  25.391  30.113  1.00  0.00     0.010 A 
ATOM     42  C   UNL A   1      46.409  25.854  31.003  1.00  0.00     0.010 A 
ATOM     43  C   UNL A   1      45.033  25.640  31.212  1.00  0.00    -0.014 A 
BRANCH  43  44
ATOM     44  C   UNL A   1      44.632  25.775  32.621  1.00  0.00     0.031 A 
ATOM     45  C   UNL A   1      44.093  27.082  33.051  1.00  0.00     0.074 A 
ATOM     46  C   UNL A   1      44.375  24.694  33.399  1.00  0.00     0.049 A 
ATOM     47  N   UNL A   1      43.826  27.389  34.272  1.00  0.00    -0.248 NA
ATOM     48  C   UNL A   1      43.830  28.180  32.121  1.00  0.00     0.031 C 
ATOM     49  C   UNL A   1      43.341  24.552  34.428  1.00  0.00     0.029 A 
ATOM     50  N   UNL A   1      45.001  23.454  33.419  1.00  0.00    -0.354 N 
ATOM     51  C   UNL A   1      43.003  28.488  34.229  1.00  0.00     0.074 A 
ATOM     52  C   UNL A   1      43.151  29.023  32.897  1.00  0.00     0.031 C 
ATOM     53  C   UNL A   1      43.525  23.402  35.101  1.00  0.00     0.029 A 
ATOM     54  C   UNL A   1      44.782  22.831  34.652  1.00  0.00     0.049 A 
ATOM     55  H   UNL A   1      45.522  23.071  32.677  1.00  0.00     0.167 HD
ATOM     56  C   UNL A   1      42.139  28.711  35.257  1.00  0.00     0.031 A 
ATOM     57  C   UNL A   1      45.833  22.405  35.403  1.00  0.00     0.031 A 
ATOM     58  C   UNL A   1      42.253  27.675  36.300  1.00  0.00     0.049 A 
ATOM     59  C   UNL A   1      45.890  23.219  36.667  1.00  0.00     0.074 A 
ATOM     60  C   UNL A   1      41.431  26.635  36.710  1.00  0.00     0.029 A 
ATOM     61  N   UNL A   1      43.496  27.410  36.874  1.00  0.00    -0.354 N 
ATOM     62  N   UNL A   1      45.118  24.252  36.868  1.00  0.00    -0.248 NA
ATOM     63  C   UNL A   1      46.776  22.978  37.793  1.00  0.00     0.031 C 
ATOM     64  C   UNL A   1      42.190  25.768  37.553  1.00  0.00     0.029 A 
ATOM     65  C   UNL A   1      43.468  26.287  37.682  1.00  0.00     0.049 A 
ATOM     66  H   UNL A   1      44.300  27.959  36.721  1.00  0.00     0.167 HD
ATOM     67  C   UNL A   1      45.361  24.819  38.075  1.00  0.00     0.074 A 
ATOM     68  C   UNL A   1      46.444  24.001  38.607  1.00  0.00     0.031 C 
ATOM     69  C   UNL A   1      44.645  25.914  38.478  1.00  0.00     0.031 A 
BRANCH  56  70
ATOM     70  C   UNL A   1      41.007  29.720  35.172  1.00  0.00    -0.014 A 
ATOM     71  C   UNL A   1      40.949  30.792  36.083  1.00  0.00     0.010 A 
ATOM     72  C   UNL A   1      39.967  29.672  34.219  1.00  0.00     0.010 A 
ATOM     73  C   UNL A   1      39.892  31.719  36.080  1.00  0.00     0.020 A 
ATOM     74  C   UNL A   1      38.880  30.560  34.231  1.00  0.00     0.020 A 
ATOM     75  C   UNL A   1      38.856  31.590  35.160  1.00  0.00     0.054 A 
BRANCH  75  76
ATOM     76  S   UNL A   1      37.513  32.805  35.155  1.00  0.00     0.124 S 
ATOM     77  O   UNL A   1      37.068  32.796  36.546  1.00  0.00    -0.237 OA
ATOM     78  O   UNL A   1      38.196  34.019  34.719  1.00  0.00    -0.237 OA
ATOM     79  O   UNL A   1      36.551  32.258  34.198  1.00  0.00    -0.744 OA
ENDBRANCH  75  76
ENDBRANCH  56  70
BRANCH  57  80
ATOM     80  C   UNL A   1      46.956  21.857  34.566  1.00  0.00    -0.014 A 
ATOM     81  C   UNL A   1      48.088  22.691  34.395  1.00  0.00     0.010 A 
ATOM     82  C   UNL A   1      47.148  20.463  34.470  1.00  0.00     0.010 A 
ATOM     83  C   UNL A   1      49.384  22.153  34.327  1.00  0.00     0.020 A 
ATOM     84  C   UNL A   1      48.448  19.922  34.427  1.00  0.00     0.020 A 
ATOM     85  C   UNL A   1      49.560  20.771  34.408  1.00  0.00     0.054 A 
BRANCH  85  86
ATOM     86  S   UNL A   1      51.220  20.117  34.832  1.00  0.00     0.124 S 
ATOM     87  O   UNL A   1      50.925  18.752  35.248  1.00  0.00    -0.237 OA
ATOM     88  O   UNL A   1      51.956  20.245  33.572  1.00  0.00    -0.237 OA
ATOM     89  O   UNL A   1      51.673  21.025  35.881  1.00  0.00    -0.744 OA
ENDBRANCH  85  86
ENDBRANCH  57  80
BRANCH  69  90
ATOM     90  C   UNL A   1      44.995  26.774  39.664  1.00  0.00    -0.014 A 
ATOM     91  C   UNL A   1      44.390  26.672  40.920  1.00  0.00     0.010 A 
ATOM     92  C   UNL A   1      46.010  27.754  39.527  1.00  0.00     0.010 A 
ATOM     93  C   UNL A   1      44.864  27.402  42.013  1.00  0.00     0.020 A 
ATOM     94  C   UNL A   1      46.478  28.506  40.601  1.00  0.00     0.020 A 
ATOM     95  C   UNL A   1      45.920  28.298  41.850  1.00  0.00     0.054 A 
BRANCH  95  96
ATOM     96  S   UNL A   1      46.519  29.203  43.288  1.00  0.00     0.124 S 
ATOM     97  O   UNL A   1      46.767  28.129  44.248  1.00  0.00    -0.237 OA
ATOM     98  O   UNL A   1      47.713  29.858  42.758  1.00  0.00    -0.237 OA
ATOM     99  O   UNL A   1      45.416  30.098  43.626  1.00  0.00    -0.744 OA
ENDBRANCH  95  96
ENDBRANCH  69  90
ENDBRANCH  43  44
ENDBRANCH  36  38
ENDBRANCH  35  36
ENDBRANCH  34  35
ENDBRANCH  33  34
ENDBRANCH   1  33
TORSDOF 20
ENDMDL
