MODEL 1
REMARK VINA RESULT:     -10.3      0.000      0.000
REMARK SMILES O=C(C[C@H](c1ccc(C2CC2)cc1)[NH+]1CCOCC1)OCCOCCOC(=O)c1ccc(-c2c3nc(c(-c4ccc(S(=O)(=O)[O-])cc4)c4ccc([nH]4)c(-c4ccc(S(=O)(=O)[O-])cc4)c4nc(c(-c5ccc(S(=O)(=O)[O-])cc5)c5ccc2[nH]5)C=C4)C=C3)cc1
REMARK SMILES IDX 23 1 22 2 21 3 20 4 2 5 1 6 3 7 4 8 14 9 15 10 19 11 16 13
REMARK SMILES IDX 18 14 17 15 5 16 6 17 13 18 7 19 12 20 8 21 9 22 10 23 11 24
REMARK SMILES IDX 24 25 25 26 26 27 27 28 28 29 29 30 30 31 88 32 31 33 87 34
REMARK SMILES IDX 32 35 33 36 34 37 81 38 35 39 86 40 80 41 82 42 36 43 85 44
REMARK SMILES IDX 79 45 78 46 37 48 67 49 48 50 66 51 49 52 52 53 65 54 83 55
REMARK SMILES IDX 50 56 51 57 64 59 84 60 53 61 38 62 39 63 47 64 40 65 46 66
REMARK SMILES IDX 41 67 42 68 43 69 44 70 45 71 68 72 69 73 77 74 70 75 76 76
REMARK SMILES IDX 71 77 72 78 73 79 74 80 75 81 54 82 55 83 63 84 56 85 62 86
REMARK SMILES IDX 57 87 58 88 59 89 60 90 61 91
REMARK H PARENT 14 12 82 47 52 58
REMARK Flexibility Score: inf
ROOT
ATOM      1  O   UNL A   1      39.605  21.762  25.407  1.00  0.00    -0.374 OA
ENDROOT
BRANCH   1   2
ATOM      2  C   UNL A   1      38.231  21.933  25.748  1.00  0.00     0.202 C 
BRANCH   2   3
ATOM      3  C   UNL A   1      37.255  21.679  24.613  1.00  0.00     0.261 C 
BRANCH   3   4
ATOM      4  O   UNL A   1      36.874  22.880  23.925  1.00  0.00    -0.463 OA
BRANCH   4   5
ATOM      5  C   UNL A   1      35.647  23.438  23.919  1.00  0.00     0.312 C 
ATOM      6  O   UNL A   1      35.364  24.276  24.776  1.00  0.00    -0.252 OA
BRANCH   5   7
ATOM      7  C   UNL A   1      34.589  22.974  22.939  1.00  0.00     0.192 C 
BRANCH   7   8
ATOM      8  C   UNL A   1      33.114  23.157  23.325  1.00  0.00     0.226 C 
BRANCH   8   9
ATOM      9  N   UNL A   1      32.315  24.076  22.474  1.00  0.00    -0.324 N 
ATOM     10  C   UNL A   1      33.045  25.127  21.734  1.00  0.00     0.291 C 
ATOM     11  C   UNL A   1      31.212  24.734  23.230  1.00  0.00     0.291 C 
ATOM     12  H   UNL A   1      31.960  23.427  21.772  1.00  0.00     0.348 HD
ATOM     13  C   UNL A   1      33.360  26.432  22.501  1.00  0.00     0.221 C 
ATOM     14  C   UNL A   1      31.620  25.991  24.020  1.00  0.00     0.221 C 
ATOM     15  O   UNL A   1      32.204  26.966  23.150  1.00  0.00    -0.370 OA
ENDBRANCH   8   9
BRANCH   8  16
ATOM     16  C   UNL A   1      32.535  21.753  23.520  1.00  0.00     0.010 A 
ATOM     17  C   UNL A   1      32.102  20.988  22.438  1.00  0.00     0.010 A 
ATOM     18  C   UNL A   1      32.805  21.096  24.735  1.00  0.00     0.010 A 
ATOM     19  C   UNL A   1      32.147  19.592  22.513  1.00  0.00     0.004 A 
ATOM     20  C   UNL A   1      32.857  19.702  24.792  1.00  0.00     0.004 A 
ATOM     21  C   UNL A   1      32.607  18.916  23.659  1.00  0.00    -0.045 A 
BRANCH  21  22
ATOM     22  C   UNL A   1      32.877  17.427  23.592  1.00  0.00     0.019 C 
ATOM     23  C   UNL A   1      34.178  16.856  23.077  1.00  0.00     0.009 C 
ATOM     24  C   UNL A   1      33.850  16.782  24.540  1.00  0.00     0.009 C 
ENDBRANCH  21  22
ENDBRANCH   8  16
ENDBRANCH   7   8
ENDBRANCH   5   7
ENDBRANCH   4   5
ENDBRANCH   3   4
ENDBRANCH   2   3
ENDBRANCH   1   2
BRANCH   1  25
ATOM     25  C   UNL A   1      40.485  21.621  26.530  1.00  0.00     0.202 C 
BRANCH  25  26
ATOM     26  C   UNL A   1      41.490  22.768  26.652  1.00  0.00     0.261 C 
BRANCH  26  27
ATOM     27  O   UNL A   1      40.800  24.006  26.857  1.00  0.00    -0.460 OA
BRANCH  27  28
ATOM     28  C   UNL A   1      41.543  25.126  26.673  1.00  0.00     0.338 C 
ATOM     29  O   UNL A   1      42.206  25.417  25.692  1.00  0.00    -0.246 OA
BRANCH  28  30
ATOM     30  C   UNL A   1      41.203  26.079  27.753  1.00  0.00     0.060 A 
ATOM     31  C   UNL A   1      42.019  27.210  27.915  1.00  0.00     0.016 A 
ATOM     32  C   UNL A   1      40.056  25.916  28.534  1.00  0.00     0.016 A 
ATOM     33  C   UNL A   1      41.715  28.159  28.887  1.00  0.00     0.010 A 
ATOM     34  C   UNL A   1      39.758  26.856  29.515  1.00  0.00     0.010 A 
ATOM     35  C   UNL A   1      40.610  27.955  29.720  1.00  0.00    -0.014 A 
BRANCH  35  36
ATOM     36  C   UNL A   1      40.471  28.729  30.970  1.00  0.00     0.031 A 
ATOM     37  C   UNL A   1      39.433  29.814  30.992  1.00  0.00     0.074 A 
ATOM     38  C   UNL A   1      41.272  28.505  32.024  1.00  0.00     0.049 A 
ATOM     39  N   UNL A   1      39.203  30.723  31.900  1.00  0.00    -0.248 NA
ATOM     40  C   UNL A   1      38.548  29.895  29.816  1.00  0.00     0.031 C 
ATOM     41  C   UNL A   1      42.288  27.457  32.111  1.00  0.00     0.029 A 
ATOM     42  N   UNL A   1      41.370  29.174  33.216  1.00  0.00    -0.354 N 
ATOM     43  C   UNL A   1      38.170  31.501  31.392  1.00  0.00     0.074 A 
ATOM     44  C   UNL A   1      37.834  30.974  30.090  1.00  0.00     0.031 C 
ATOM     45  C   UNL A   1      42.930  27.573  33.288  1.00  0.00     0.029 A 
ATOM     46  C   UNL A   1      42.396  28.725  34.012  1.00  0.00     0.049 A 
ATOM     47  H   UNL A   1      40.764  29.906  33.476  1.00  0.00     0.167 HD
ATOM     48  C   UNL A   1      37.558  32.563  31.964  1.00  0.00     0.031 A 
ATOM     49  C   UNL A   1      42.871  29.218  35.173  1.00  0.00     0.031 A 
ATOM     50  C   UNL A   1      37.920  33.083  33.253  1.00  0.00     0.049 A 
ATOM     51  C   UNL A   1      42.211  30.434  35.772  1.00  0.00     0.074 A 
ATOM     52  C   UNL A   1      37.352  34.133  33.947  1.00  0.00     0.029 A 
ATOM     53  N   UNL A   1      38.957  32.594  34.034  1.00  0.00    -0.354 N 
ATOM     54  N   UNL A   1      41.204  31.137  35.306  1.00  0.00    -0.248 NA
ATOM     55  C   UNL A   1      42.740  30.917  37.053  1.00  0.00     0.031 C 
ATOM     56  C   UNL A   1      38.086  34.321  35.122  1.00  0.00     0.029 A 
ATOM     57  C   UNL A   1      39.066  33.342  35.192  1.00  0.00     0.049 A 
ATOM     58  H   UNL A   1      39.531  31.829  33.799  1.00  0.00     0.167 HD
ATOM     59  C   UNL A   1      40.963  32.130  36.251  1.00  0.00     0.074 A 
ATOM     60  C   UNL A   1      41.923  31.928  37.318  1.00  0.00     0.031 C 
ATOM     61  C   UNL A   1      40.030  33.115  36.241  1.00  0.00     0.031 A 
BRANCH  48  62
ATOM     62  C   UNL A   1      36.479  33.252  31.170  1.00  0.00    -0.014 A 
ATOM     63  C   UNL A   1      36.761  33.900  29.953  1.00  0.00     0.010 A 
ATOM     64  C   UNL A   1      35.158  33.248  31.652  1.00  0.00     0.010 A 
ATOM     65  C   UNL A   1      35.752  34.571  29.259  1.00  0.00     0.020 A 
ATOM     66  C   UNL A   1      34.138  33.890  30.944  1.00  0.00     0.020 A 
ATOM     67  C   UNL A   1      34.446  34.566  29.762  1.00  0.00     0.054 A 
BRANCH  67  68
ATOM     68  S   UNL A   1      33.155  35.438  28.835  1.00  0.00     0.124 S 
ATOM     69  O   UNL A   1      33.940  36.366  28.026  1.00  0.00    -0.237 OA
ATOM     70  O   UNL A   1      32.506  34.357  28.098  1.00  0.00    -0.237 OA
ATOM     71  O   UNL A   1      32.338  36.058  29.876  1.00  0.00    -0.744 OA
ENDBRANCH  67  68
ENDBRANCH  48  62
BRANCH  49  72
ATOM     72  C   UNL A   1      44.045  28.574  35.822  1.00  0.00    -0.014 A 
ATOM     73  C   UNL A   1      43.876  27.500  36.712  1.00  0.00     0.010 A 
ATOM     74  C   UNL A   1      45.349  29.015  35.526  1.00  0.00     0.010 A 
ATOM     75  C   UNL A   1      44.986  26.880  37.294  1.00  0.00     0.020 A 
ATOM     76  C   UNL A   1      46.463  28.381  36.084  1.00  0.00     0.020 A 
ATOM     77  C   UNL A   1      46.273  27.320  36.970  1.00  0.00     0.054 A 
BRANCH  77  78
ATOM     78  S   UNL A   1      47.700  26.451  37.681  1.00  0.00     0.124 S 
ATOM     79  O   UNL A   1      48.813  27.048  36.952  1.00  0.00    -0.237 OA
ATOM     80  O   UNL A   1      47.606  26.804  39.096  1.00  0.00    -0.237 OA
ATOM     81  O   UNL A   1      47.431  25.047  37.379  1.00  0.00    -0.744 OA
ENDBRANCH  77  78
ENDBRANCH  49  72
BRANCH  61  82
ATOM     82  C   UNL A   1      39.969  34.030  37.434  1.00  0.00    -0.014 A 
ATOM     83  C   UNL A   1      40.578  35.296  37.420  1.00  0.00     0.010 A 
ATOM     84  C   UNL A   1      39.205  33.648  38.554  1.00  0.00     0.010 A 
ATOM     85  C   UNL A   1      40.438  36.158  38.511  1.00  0.00     0.020 A 
ATOM     86  C   UNL A   1      39.037  34.518  39.633  1.00  0.00     0.020 A 
ATOM     87  C   UNL A   1      39.663  35.765  39.607  1.00  0.00     0.054 A 
BRANCH  87  88
ATOM     88  S   UNL A   1      39.440  36.930  40.979  1.00  0.00     0.124 S 
ATOM     89  O   UNL A   1      38.691  38.010  40.343  1.00  0.00    -0.237 OA
ATOM     90  O   UNL A   1      38.695  36.137  41.954  1.00  0.00    -0.237 OA
ATOM     91  O   UNL A   1      40.806  37.267  41.374  1.00  0.00    -0.744 OA
ENDBRANCH  87  88
ENDBRANCH  61  82
ENDBRANCH  35  36
ENDBRANCH  28  30
ENDBRANCH  27  28
ENDBRANCH  26  27
ENDBRANCH  25  26
ENDBRANCH   1  25
TORSDOF 21
ENDMDL
MODEL 2
REMARK VINA RESULT:     -10.2      6.264      8.497
REMARK SMILES O=C(C[C@H](c1ccc(C2CC2)cc1)[NH+]1CCOCC1)OCCOCCOC(=O)c1ccc(-c2c3nc(c(-c4ccc(S(=O)(=O)[O-])cc4)c4ccc([nH]4)c(-c4ccc(S(=O)(=O)[O-])cc4)c4nc(c(-c5ccc(S(=O)(=O)[O-])cc5)c5ccc2[nH]5)C=C4)C=C3)cc1
REMARK SMILES IDX 23 1 22 2 21 3 20 4 2 5 1 6 3 7 4 8 14 9 15 10 19 11 16 13
REMARK SMILES IDX 18 14 17 15 5 16 6 17 13 18 7 19 12 20 8 21 9 22 10 23 11 24
REMARK SMILES IDX 24 25 25 26 26 27 27 28 28 29 29 30 30 31 88 32 31 33 87 34
REMARK SMILES IDX 32 35 33 36 34 37 81 38 35 39 86 40 80 41 82 42 36 43 85 44
REMARK SMILES IDX 79 45 78 46 37 48 67 49 48 50 66 51 49 52 52 53 65 54 83 55
REMARK SMILES IDX 50 56 51 57 64 59 84 60 53 61 38 62 39 63 47 64 40 65 46 66
REMARK SMILES IDX 41 67 42 68 43 69 44 70 45 71 68 72 69 73 77 74 70 75 76 76
REMARK SMILES IDX 71 77 72 78 73 79 74 80 75 81 54 82 55 83 63 84 56 85 62 86
REMARK SMILES IDX 57 87 58 88 59 89 60 90 61 91
REMARK H PARENT 14 12 82 47 52 58
REMARK Flexibility Score: inf
ROOT
ATOM      1  O   UNL A   1      38.713  22.580  26.008  1.00  0.00    -0.374 OA
ENDROOT
BRANCH   1   2
ATOM      2  C   UNL A   1      37.841  23.705  26.086  1.00  0.00     0.202 C 
BRANCH   2   3
ATOM      3  C   UNL A   1      36.369  23.385  25.893  1.00  0.00     0.261 C 
BRANCH   3   4
ATOM      4  O   UNL A   1      35.796  24.055  24.761  1.00  0.00    -0.463 OA
BRANCH   4   5
ATOM      5  C   UNL A   1      35.175  23.466  23.718  1.00  0.00     0.312 C 
ATOM      6  O   UNL A   1      35.848  23.069  22.766  1.00  0.00    -0.252 OA
BRANCH   5   7
ATOM      7  C   UNL A   1      33.664  23.382  23.663  1.00  0.00     0.192 C 
BRANCH   7   8
ATOM      8  C   UNL A   1      32.962  22.363  24.571  1.00  0.00     0.226 C 
BRANCH   8   9
ATOM      9  N   UNL A   1      31.508  22.567  24.797  1.00  0.00    -0.324 N 
ATOM     10  C   UNL A   1      30.843  23.641  24.027  1.00  0.00     0.291 C 
ATOM     11  C   UNL A   1      31.179  22.768  26.236  1.00  0.00     0.291 C 
ATOM     12  H   UNL A   1      31.133  21.688  24.441  1.00  0.00     0.348 HD
ATOM     13  C   UNL A   1      30.932  25.072  24.605  1.00  0.00     0.221 C 
ATOM     14  C   UNL A   1      31.355  24.209  26.751  1.00  0.00     0.221 C 
ATOM     15  O   UNL A   1      30.559  25.119  25.985  1.00  0.00    -0.370 OA
ENDBRANCH   8   9
BRANCH   8  16
ATOM     16  C   UNL A   1      33.372  20.974  24.071  1.00  0.00     0.010 A 
ATOM     17  C   UNL A   1      34.439  20.281  24.642  1.00  0.00     0.010 A 
ATOM     18  C   UNL A   1      32.434  20.247  23.314  1.00  0.00     0.010 A 
ATOM     19  C   UNL A   1      34.442  18.883  24.632  1.00  0.00     0.004 A 
ATOM     20  C   UNL A   1      32.444  18.851  23.322  1.00  0.00     0.004 A 
ATOM     21  C   UNL A   1      33.403  18.133  24.049  1.00  0.00    -0.045 A 
BRANCH  21  22
ATOM     22  C   UNL A   1      33.330  16.640  24.293  1.00  0.00     0.019 C 
ATOM     23  C   UNL A   1      34.141  15.948  25.364  1.00  0.00     0.009 C 
ATOM     24  C   UNL A   1      32.655  16.098  25.524  1.00  0.00     0.009 C 
ENDBRANCH  21  22
ENDBRANCH   8  16
ENDBRANCH   7   8
ENDBRANCH   5   7
ENDBRANCH   4   5
ENDBRANCH   3   4
ENDBRANCH   2   3
ENDBRANCH   1   2
BRANCH   1  25
ATOM     25  C   UNL A   1      38.129  21.411  25.417  1.00  0.00     0.202 C 
BRANCH  25  26
ATOM     26  C   UNL A   1      39.005  20.165  25.561  1.00  0.00     0.261 C 
BRANCH  26  27
ATOM     27  O   UNL A   1      39.958  20.354  26.614  1.00  0.00    -0.460 OA
BRANCH  27  28
ATOM     28  C   UNL A   1      41.238  20.025  26.308  1.00  0.00     0.338 C 
ATOM     29  O   UNL A   1      41.621  19.034  25.709  1.00  0.00    -0.246 OA
BRANCH  28  30
ATOM     30  C   UNL A   1      42.088  21.206  26.581  1.00  0.00     0.060 A 
ATOM     31  C   UNL A   1      42.352  21.533  27.920  1.00  0.00     0.016 A 
ATOM     32  C   UNL A   1      42.687  21.926  25.544  1.00  0.00     0.016 A 
ATOM     33  C   UNL A   1      43.182  22.607  28.227  1.00  0.00     0.010 A 
ATOM     34  C   UNL A   1      43.506  23.008  25.850  1.00  0.00     0.010 A 
ATOM     35  C   UNL A   1      43.720  23.374  27.190  1.00  0.00    -0.014 A 
BRANCH  35  36
ATOM     36  C   UNL A   1      44.290  24.707  27.472  1.00  0.00     0.031 A 
ATOM     37  C   UNL A   1      43.329  25.797  27.854  1.00  0.00     0.074 A 
ATOM     38  C   UNL A   1      45.605  24.947  27.345  1.00  0.00     0.049 A 
ATOM     39  N   UNL A   1      43.545  27.074  28.013  1.00  0.00    -0.248 NA
ATOM     40  C   UNL A   1      41.928  25.388  28.062  1.00  0.00     0.031 C 
ATOM     41  C   UNL A   1      46.621  23.950  27.009  1.00  0.00     0.029 A 
ATOM     42  N   UNL A   1      46.303  26.121  27.456  1.00  0.00    -0.354 N 
ATOM     43  C   UNL A   1      42.304  27.625  28.310  1.00  0.00     0.074 A 
ATOM     44  C   UNL A   1      41.339  26.551  28.286  1.00  0.00     0.031 C 
ATOM     45  C   UNL A   1      47.814  24.564  26.913  1.00  0.00     0.029 A 
ATOM     46  C   UNL A   1      47.634  25.997  27.140  1.00  0.00     0.049 A 
ATOM     47  H   UNL A   1      45.891  26.970  27.736  1.00  0.00     0.167 HD
ATOM     48  C   UNL A   1      42.000  28.915  28.578  1.00  0.00     0.031 A 
ATOM     49  C   UNL A   1      48.585  26.943  27.010  1.00  0.00     0.031 A 
ATOM     50  C   UNL A   1      42.973  29.972  28.580  1.00  0.00     0.049 A 
ATOM     51  C   UNL A   1      48.218  28.383  27.262  1.00  0.00     0.074 A 
ATOM     52  C   UNL A   1      42.788  31.311  28.867  1.00  0.00     0.029 A 
ATOM     53  N   UNL A   1      44.314  29.806  28.266  1.00  0.00    -0.354 N 
ATOM     54  N   UNL A   1      47.051  28.891  27.586  1.00  0.00    -0.248 NA
ATOM     55  C   UNL A   1      49.293  29.376  27.141  1.00  0.00     0.031 C 
ATOM     56  C   UNL A   1      44.007  31.967  28.664  1.00  0.00     0.029 A 
ATOM     57  C   UNL A   1      44.965  31.024  28.321  1.00  0.00     0.049 A 
ATOM     58  H   UNL A   1      44.740  28.947  28.037  1.00  0.00     0.167 HD
ATOM     59  C   UNL A   1      47.258  30.259  27.734  1.00  0.00     0.074 A 
ATOM     60  C   UNL A   1      48.663  30.496  27.473  1.00  0.00     0.031 C 
ATOM     61  C   UNL A   1      46.368  31.230  28.060  1.00  0.00     0.031 A 
BRANCH  48  62
ATOM     62  C   UNL A   1      40.553  29.248  28.835  1.00  0.00    -0.014 A 
ATOM     63  C   UNL A   1      39.638  29.415  27.780  1.00  0.00     0.010 A 
ATOM     64  C   UNL A   1      40.103  29.393  30.160  1.00  0.00     0.010 A 
ATOM     65  C   UNL A   1      38.313  29.768  28.043  1.00  0.00     0.020 A 
ATOM     66  C   UNL A   1      38.770  29.715  30.429  1.00  0.00     0.020 A 
ATOM     67  C   UNL A   1      37.888  29.921  29.366  1.00  0.00     0.054 A 
BRANCH  67  68
ATOM     68  S   UNL A   1      36.159  30.371  29.677  1.00  0.00     0.124 S 
ATOM     69  O   UNL A   1      35.914  29.744  30.973  1.00  0.00    -0.237 OA
ATOM     70  O   UNL A   1      36.205  31.831  29.684  1.00  0.00    -0.237 OA
ATOM     71  O   UNL A   1      35.438  29.778  28.553  1.00  0.00    -0.744 OA
ENDBRANCH  67  68
ENDBRANCH  48  62
BRANCH  49  72
ATOM     72  C   UNL A   1      49.962  26.554  26.599  1.00  0.00    -0.014 A 
ATOM     73  C   UNL A   1      50.335  26.554  25.244  1.00  0.00     0.010 A 
ATOM     74  C   UNL A   1      50.921  26.211  27.571  1.00  0.00     0.010 A 
ATOM     75  C   UNL A   1      51.639  26.218  24.869  1.00  0.00     0.020 A 
ATOM     76  C   UNL A   1      52.233  25.901  27.202  1.00  0.00     0.020 A 
ATOM     77  C   UNL A   1      52.582  25.901  25.851  1.00  0.00     0.054 A 
BRANCH  77  78
ATOM     78  S   UNL A   1      54.288  25.540  25.343  1.00  0.00     0.124 S 
ATOM     79  O   UNL A   1      54.156  24.209  24.760  1.00  0.00    -0.237 OA
ATOM     80  O   UNL A   1      54.567  26.621  24.401  1.00  0.00    -0.237 OA
ATOM     81  O   UNL A   1      55.039  25.606  26.594  1.00  0.00    -0.744 OA
ENDBRANCH  77  78
ENDBRANCH  49  72
BRANCH  61  82
ATOM     82  C   UNL A   1      46.889  32.636  28.196  1.00  0.00    -0.014 A 
ATOM     83  C   UNL A   1      47.430  33.104  29.406  1.00  0.00     0.010 A 
ATOM     84  C   UNL A   1      46.922  33.468  27.061  1.00  0.00     0.010 A 
ATOM     85  C   UNL A   1      47.980  34.387  29.482  1.00  0.00     0.020 A 
ATOM     86  C   UNL A   1      47.497  34.738  27.124  1.00  0.00     0.020 A 
ATOM     87  C   UNL A   1      48.015  35.193  28.339  1.00  0.00     0.054 A 
BRANCH  87  88
ATOM     88  S   UNL A   1      48.797  36.825  28.448  1.00  0.00     0.124 S 
ATOM     89  O   UNL A   1      47.818  37.678  27.779  1.00  0.00    -0.237 OA
ATOM     90  O   UNL A   1      48.923  37.023  29.890  1.00  0.00    -0.237 OA
ATOM     91  O   UNL A   1      50.061  36.653  27.736  1.00  0.00    -0.744 OA
ENDBRANCH  87  88
ENDBRANCH  61  82
ENDBRANCH  35  36
ENDBRANCH  28  30
ENDBRANCH  27  28
ENDBRANCH  26  27
ENDBRANCH  25  26
ENDBRANCH   1  25
TORSDOF 21
ENDMDL
MODEL 3
REMARK VINA RESULT:     -10.0      2.599      9.041
REMARK SMILES O=C(C[C@H](c1ccc(C2CC2)cc1)[NH+]1CCOCC1)OCCOCCOC(=O)c1ccc(-c2c3nc(c(-c4ccc(S(=O)(=O)[O-])cc4)c4ccc([nH]4)c(-c4ccc(S(=O)(=O)[O-])cc4)c4nc(c(-c5ccc(S(=O)(=O)[O-])cc5)c5ccc2[nH]5)C=C4)C=C3)cc1
REMARK SMILES IDX 23 1 22 2 21 3 20 4 2 5 1 6 3 7 4 8 14 9 15 10 19 11 16 13
REMARK SMILES IDX 18 14 17 15 5 16 6 17 13 18 7 19 12 20 8 21 9 22 10 23 11 24
REMARK SMILES IDX 24 25 25 26 26 27 27 28 28 29 29 30 30 31 88 32 31 33 87 34
REMARK SMILES IDX 32 35 33 36 34 37 81 38 35 39 86 40 80 41 82 42 36 43 85 44
REMARK SMILES IDX 79 45 78 46 37 48 67 49 48 50 66 51 49 52 52 53 65 54 83 55
REMARK SMILES IDX 50 56 51 57 64 59 84 60 53 61 38 62 39 63 47 64 40 65 46 66
REMARK SMILES IDX 41 67 42 68 43 69 44 70 45 71 68 72 69 73 77 74 70 75 76 76
REMARK SMILES IDX 71 77 72 78 73 79 74 80 75 81 54 82 55 83 63 84 56 85 62 86
REMARK SMILES IDX 57 87 58 88 59 89 60 90 61 91
REMARK H PARENT 14 12 82 47 52 58
REMARK Flexibility Score: inf
ROOT
ATOM      1  O   UNL A   1      35.159  30.143  27.163  1.00  0.00    -0.374 OA
ENDROOT
BRANCH   1   2
ATOM      2  C   UNL A   1      34.073  29.682  26.362  1.00  0.00     0.202 C 
BRANCH   2   3
ATOM      3  C   UNL A   1      33.677  28.235  26.595  1.00  0.00     0.261 C 
BRANCH   3   4
ATOM      4  O   UNL A   1      32.407  27.904  26.016  1.00  0.00    -0.463 OA
BRANCH   4   5
ATOM      5  C   UNL A   1      31.372  27.316  26.650  1.00  0.00     0.312 C 
ATOM      6  O   UNL A   1      31.146  27.606  27.826  1.00  0.00    -0.252 OA
BRANCH   5   7
ATOM      7  C   UNL A   1      30.557  26.237  25.968  1.00  0.00     0.192 C 
BRANCH   7   8
ATOM      8  C   UNL A   1      30.899  25.879  24.515  1.00  0.00     0.226 C 
BRANCH   8   9
ATOM      9  N   UNL A   1      31.029  24.433  24.201  1.00  0.00    -0.324 N 
ATOM     10  C   UNL A   1      30.975  23.482  25.333  1.00  0.00     0.291 C 
ATOM     11  C   UNL A   1      32.257  24.131  23.412  1.00  0.00     0.291 C 
ATOM     12  H   UNL A   1      30.181  24.278  23.658  1.00  0.00     0.348 HD
ATOM     13  C   UNL A   1      32.294  23.231  26.099  1.00  0.00     0.221 C 
ATOM     14  C   UNL A   1      33.542  23.959  24.243  1.00  0.00     0.221 C 
ATOM     15  O   UNL A   1      33.377  22.923  25.217  1.00  0.00    -0.370 OA
ENDBRANCH   8   9
BRANCH   8  16
ATOM     16  C   UNL A   1      29.933  26.671  23.629  1.00  0.00     0.010 A 
ATOM     17  C   UNL A   1      28.561  26.682  23.877  1.00  0.00     0.010 A 
ATOM     18  C   UNL A   1      30.472  27.688  22.820  1.00  0.00     0.010 A 
ATOM     19  C   UNL A   1      27.797  27.792  23.504  1.00  0.00     0.004 A 
ATOM     20  C   UNL A   1      29.700  28.796  22.463  1.00  0.00     0.004 A 
ATOM     21  C   UNL A   1      28.363  28.913  22.866  1.00  0.00    -0.045 A 
BRANCH  21  22
ATOM     22  C   UNL A   1      27.548  30.181  22.720  1.00  0.00     0.019 C 
ATOM     23  C   UNL A   1      27.678  31.349  23.670  1.00  0.00     0.009 C 
ATOM     24  C   UNL A   1      28.197  31.460  22.266  1.00  0.00     0.009 C 
ENDBRANCH  21  22
ENDBRANCH   8  16
ENDBRANCH   7   8
ENDBRANCH   5   7
ENDBRANCH   4   5
ENDBRANCH   3   4
ENDBRANCH   2   3
ENDBRANCH   1   2
BRANCH   1  25
ATOM     25  C   UNL A   1      34.799  31.117  28.153  1.00  0.00     0.202 C 
BRANCH  25  26
ATOM     26  C   UNL A   1      33.537  31.901  27.791  1.00  0.00     0.261 C 
BRANCH  26  27
ATOM     27  O   UNL A   1      33.834  33.300  27.710  1.00  0.00    -0.460 OA
BRANCH  27  28
ATOM     28  C   UNL A   1      33.639  34.005  28.852  1.00  0.00     0.338 C 
ATOM     29  O   UNL A   1      32.619  34.578  29.200  1.00  0.00    -0.246 OA
BRANCH  28  30
ATOM     30  C   UNL A   1      34.784  33.740  29.751  1.00  0.00     0.060 A 
ATOM     31  C   UNL A   1      36.043  34.236  29.378  1.00  0.00     0.016 A 
ATOM     32  C   UNL A   1      34.612  33.096  30.979  1.00  0.00     0.016 A 
ATOM     33  C   UNL A   1      37.143  34.052  30.212  1.00  0.00     0.010 A 
ATOM     34  C   UNL A   1      35.713  32.899  31.807  1.00  0.00     0.010 A 
ATOM     35  C   UNL A   1      36.985  33.340  31.404  1.00  0.00    -0.014 A 
BRANCH  35  36
ATOM     36  C   UNL A   1      38.168  32.818  32.118  1.00  0.00     0.031 A 
ATOM     37  C   UNL A   1      38.884  31.653  31.498  1.00  0.00     0.074 A 
ATOM     38  C   UNL A   1      38.557  33.331  33.296  1.00  0.00     0.049 A 
ATOM     39  N   UNL A   1      39.851  30.922  31.980  1.00  0.00    -0.248 NA
ATOM     40  C   UNL A   1      38.428  31.245  30.156  1.00  0.00     0.031 C 
ATOM     41  C   UNL A   1      37.946  34.479  33.965  1.00  0.00     0.029 A 
ATOM     42  N   UNL A   1      39.547  32.926  34.153  1.00  0.00    -0.354 N 
ATOM     43  C   UNL A   1      40.099  29.951  31.017  1.00  0.00     0.074 A 
ATOM     44  C   UNL A   1      39.168  30.171  29.935  1.00  0.00     0.031 C 
ATOM     45  C   UNL A   1      38.560  34.669  35.147  1.00  0.00     0.029 A 
ATOM     46  C   UNL A   1      39.574  33.632  35.331  1.00  0.00     0.049 A 
ATOM     47  H   UNL A   1      40.178  32.199  33.943  1.00  0.00     0.167 HD
ATOM     48  C   UNL A   1      41.023  28.964  31.037  1.00  0.00     0.031 A 
ATOM     49  C   UNL A   1      40.308  33.432  36.444  1.00  0.00     0.031 A 
ATOM     50  C   UNL A   1      41.929  28.751  32.131  1.00  0.00     0.049 A 
ATOM     51  C   UNL A   1      41.297  32.295  36.469  1.00  0.00     0.074 A 
ATOM     52  C   UNL A   1      42.927  27.804  32.250  1.00  0.00     0.029 A 
ATOM     53  N   UNL A   1      41.933  29.494  33.302  1.00  0.00    -0.354 N 
ATOM     54  N   UNL A   1      41.556  31.409  35.535  1.00  0.00    -0.248 NA
ATOM     55  C   UNL A   1      42.098  32.135  37.689  1.00  0.00     0.031 C 
ATOM     56  C   UNL A   1      43.494  27.933  33.522  1.00  0.00     0.029 A 
ATOM     57  C   UNL A   1      42.898  29.007  34.165  1.00  0.00     0.049 A 
ATOM     58  H   UNL A   1      41.338  30.256  33.492  1.00  0.00     0.167 HD
ATOM     59  C   UNL A   1      42.569  30.602  36.045  1.00  0.00     0.074 A 
ATOM     60  C   UNL A   1      42.881  31.114  37.365  1.00  0.00     0.031 C 
ATOM     61  C   UNL A   1      43.189  29.540  35.473  1.00  0.00     0.031 A 
BRANCH  48  62
ATOM     62  C   UNL A   1      41.053  28.019  29.864  1.00  0.00    -0.014 A 
ATOM     63  C   UNL A   1      40.020  27.089  29.642  1.00  0.00     0.010 A 
ATOM     64  C   UNL A   1      42.135  28.065  28.967  1.00  0.00     0.010 A 
ATOM     65  C   UNL A   1      40.094  26.192  28.574  1.00  0.00     0.020 A 
ATOM     66  C   UNL A   1      42.197  27.191  27.878  1.00  0.00     0.020 A 
ATOM     67  C   UNL A   1      41.185  26.246  27.700  1.00  0.00     0.054 A 
BRANCH  67  68
ATOM     68  S   UNL A   1      41.249  25.076  26.317  1.00  0.00     0.124 S 
ATOM     69  O   UNL A   1      39.921  24.469  26.375  1.00  0.00    -0.237 OA
ATOM     70  O   UNL A   1      41.491  25.948  25.171  1.00  0.00    -0.237 OA
ATOM     71  O   UNL A   1      42.355  24.186  26.665  1.00  0.00    -0.744 OA
ENDBRANCH  67  68
ENDBRANCH  48  62
BRANCH  49  72
ATOM     72  C   UNL A   1      40.111  34.315  37.625  1.00  0.00    -0.014 A 
ATOM     73  C   UNL A   1      39.281  33.921  38.688  1.00  0.00     0.010 A 
ATOM     74  C   UNL A   1      40.784  35.549  37.708  1.00  0.00     0.010 A 
ATOM     75  C   UNL A   1      39.126  34.742  39.809  1.00  0.00     0.020 A 
ATOM     76  C   UNL A   1      40.654  36.361  38.838  1.00  0.00     0.020 A 
ATOM     77  C   UNL A   1      39.820  35.954  39.880  1.00  0.00     0.054 A 
BRANCH  77  78
ATOM     78  S   UNL A   1      39.660  36.967  41.378  1.00  0.00     0.124 S 
ATOM     79  O   UNL A   1      39.008  38.168  40.865  1.00  0.00    -0.237 OA
ATOM     80  O   UNL A   1      38.840  36.120  42.241  1.00  0.00    -0.237 OA
ATOM     81  O   UNL A   1      41.041  37.143  41.821  1.00  0.00    -0.744 OA
ENDBRANCH  77  78
ENDBRANCH  49  72
BRANCH  61  82
ATOM     82  C   UNL A   1      44.296  28.877  36.249  1.00  0.00    -0.014 A 
ATOM     83  C   UNL A   1      45.612  29.370  36.215  1.00  0.00     0.010 A 
ATOM     84  C   UNL A   1      43.988  27.799  37.101  1.00  0.00     0.010 A 
ATOM     85  C   UNL A   1      46.604  28.786  37.007  1.00  0.00     0.020 A 
ATOM     86  C   UNL A   1      44.969  27.233  37.916  1.00  0.00     0.020 A 
ATOM     87  C   UNL A   1      46.274  27.725  37.857  1.00  0.00     0.054 A 
BRANCH  87  88
ATOM     88  S   UNL A   1      47.564  27.031  38.925  1.00  0.00     0.124 S 
ATOM     89  O   UNL A   1      46.833  26.002  39.659  1.00  0.00    -0.237 OA
ATOM     90  O   UNL A   1      48.546  26.539  37.962  1.00  0.00    -0.237 OA
ATOM     91  O   UNL A   1      48.003  28.172  39.725  1.00  0.00    -0.744 OA
ENDBRANCH  87  88
ENDBRANCH  61  82
ENDBRANCH  35  36
ENDBRANCH  28  30
ENDBRANCH  27  28
ENDBRANCH  26  27
ENDBRANCH  25  26
ENDBRANCH   1  25
TORSDOF 21
ENDMDL
