MODEL 1
REMARK VINA RESULT:     -10.5      0.000      0.000
REMARK SMILES O=C(CCCN1C(=O)C(=O)/C(=C(/[O-])c2ccc(Cl)cc2)[C@@H]1c1ccccc1[N+](=O)[O-])OCCOCCOC(=O)c1ccc(-c2c3nc(c(-c4ccc(S(=O)(=O)[O-])cc4)c4ccc([nH]4)c(-c4ccc(S(=O)(=O)[O-])cc4)c4nc(c(-c5ccc(S(=O)(=O)[O-])cc5)c5ccc2[nH]5)C=C4)C=C3)cc1
REMARK SMILES IDX 33 1 32 2 31 3 2 4 1 5 3 6 4 7 5 8 6 9 7 10 21 11 8 12 9 13
REMARK SMILES IDX 11 14 10 15 12 16 13 17 22 18 23 19 27 20 24 21 26 22 25 23
REMARK SMILES IDX 28 24 29 25 30 26 14 27 15 28 20 29 16 30 19 31 17 32 18 33
REMARK SMILES IDX 34 34 35 35 36 36 37 37 38 38 39 39 40 40 41 41 99 42 42 43
REMARK SMILES IDX 98 44 43 45 44 46 45 47 92 48 46 49 97 50 91 51 93 52 47 53
REMARK SMILES IDX 96 54 90 55 89 56 48 58 78 59 59 60 77 61 60 62 63 63 76 64
REMARK SMILES IDX 94 65 61 66 62 67 75 69 95 70 64 71 49 72 50 73 58 74 51 75
REMARK SMILES IDX 57 76 52 77 53 78 54 79 55 80 56 81 79 82 80 83 88 84 81 85
REMARK SMILES IDX 87 86 82 87 83 88 84 89 85 90 86 91 65 92 66 93 74 94 67 95
REMARK SMILES IDX 73 96 68 97 69 98 70 99 71 100 72 101
REMARK H PARENT 93 57 63 68
REMARK Flexibility Score: inf
ROOT
ATOM      1  C   UNL A   1      32.663  28.148  27.236  1.00  0.00     0.202 C 
ENDROOT
BRANCH   1   2
ATOM      2  C   UNL A   1      31.561  27.480  26.412  1.00  0.00     0.261 C 
BRANCH   2   3
ATOM      3  O   UNL A   1      30.633  26.606  27.029  1.00  0.00    -0.463 OA
BRANCH   3   4
ATOM      4  C   UNL A   1      30.673  25.364  26.434  1.00  0.00     0.305 C 
ATOM      5  O   UNL A   1      30.965  24.339  27.036  1.00  0.00    -0.252 OA
BRANCH   4   6
ATOM      6  C   UNL A   1      30.526  25.396  24.925  1.00  0.00     0.124 C 
BRANCH   6   7
ATOM      7  C   UNL A   1      30.408  24.118  24.071  1.00  0.00     0.033 C 
BRANCH   7   8
ATOM      8  C   UNL A   1      31.529  23.027  23.963  1.00  0.00     0.121 C 
BRANCH   8   9
ATOM      9  N   UNL A   1      32.867  23.422  24.448  1.00  0.00    -0.324 N 
ATOM     10  C   UNL A   1      33.540  22.607  25.363  1.00  0.00     0.295 C 
ATOM     11  C   UNL A   1      33.860  24.262  23.704  1.00  0.00     0.157 C 
ATOM     12  O   UNL A   1      33.263  21.508  25.792  1.00  0.00    -0.265 OA
ATOM     13  C   UNL A   1      34.825  23.313  25.717  1.00  0.00     0.248 C 
ATOM     14  C   UNL A   1      35.233  23.942  24.438  1.00  0.00     0.025 C 
ATOM     15  O   UNL A   1      35.331  23.311  26.814  1.00  0.00    -0.283 OA
ATOM     16  C   UNL A   1      36.418  23.363  24.085  1.00  0.00    -0.092 C 
ATOM     17  O   UNL A   1      36.697  22.890  22.818  1.00  0.00    -0.872 OA
BRANCH  11  18
ATOM     18  C   UNL A   1      33.488  25.713  23.086  1.00  0.00     0.057 A 
ATOM     19  C   UNL A   1      34.048  26.780  23.842  1.00  0.00     0.013 A 
ATOM     20  C   UNL A   1      32.603  26.226  22.060  1.00  0.00     0.275 A 
ATOM     21  C   UNL A   1      33.687  28.140  23.678  1.00  0.00     0.001 A 
ATOM     22  C   UNL A   1      32.130  27.580  22.022  1.00  0.00     0.086 A 
ATOM     23  C   UNL A   1      32.676  28.537  22.833  1.00  0.00     0.007 A 
BRANCH  20  24
ATOM     24  N   UNL A   1      32.456  25.763  20.677  1.00  0.00     0.063 N 
ATOM     25  O   UNL A   1      33.270  24.927  20.248  1.00  0.00    -0.258 OA
ATOM     26  O   UNL A   1      31.373  26.021  20.135  1.00  0.00    -0.258 OA
ENDBRANCH  20  24
ENDBRANCH  11  18
BRANCH  16  27
ATOM     27  C   UNL A   1      37.550  23.027  25.019  1.00  0.00    -0.033 A 
ATOM     28  C   UNL A   1      38.012  21.706  25.169  1.00  0.00     0.009 A 
ATOM     29  C   UNL A   1      38.199  24.029  25.760  1.00  0.00     0.009 A 
ATOM     30  C   UNL A   1      39.045  21.394  26.073  1.00  0.00     0.021 A 
ATOM     31  C   UNL A   1      39.237  23.722  26.656  1.00  0.00     0.021 A 
ATOM     32  C   UNL A   1      39.644  22.402  26.823  1.00  0.00     0.041 A 
ATOM     33  Cl  UNL A   1      40.882  22.017  27.958  1.00  0.00    -0.084 Cl
ENDBRANCH  16  27
ENDBRANCH   8   9
ENDBRANCH   7   8
ENDBRANCH   6   7
ENDBRANCH   4   6
ENDBRANCH   3   4
ENDBRANCH   2   3
ENDBRANCH   1   2
BRANCH   1  34
ATOM     34  O   UNL A   1      32.775  29.533  26.814  1.00  0.00    -0.374 OA
BRANCH  34  35
ATOM     35  C   UNL A   1      33.701  30.294  27.595  1.00  0.00     0.202 C 
BRANCH  35  36
ATOM     36  C   UNL A   1      35.211  29.946  27.404  1.00  0.00     0.261 C 
BRANCH  36  37
ATOM     37  O   UNL A   1      35.877  29.260  28.498  1.00  0.00    -0.460 OA
BRANCH  37  38
ATOM     38  C   UNL A   1      36.916  29.915  29.094  1.00  0.00     0.338 C 
ATOM     39  O   UNL A   1      36.811  30.787  29.940  1.00  0.00    -0.246 OA
BRANCH  38  40
ATOM     40  C   UNL A   1      38.258  29.399  28.690  1.00  0.00     0.060 A 
ATOM     41  C   UNL A   1      39.196  29.180  29.694  1.00  0.00     0.016 A 
ATOM     42  C   UNL A   1      38.700  29.346  27.367  1.00  0.00     0.016 A 
ATOM     43  C   UNL A   1      40.533  28.865  29.430  1.00  0.00     0.010 A 
ATOM     44  C   UNL A   1      40.060  29.053  27.082  1.00  0.00     0.010 A 
ATOM     45  C   UNL A   1      40.992  28.821  28.115  1.00  0.00    -0.014 A 
BRANCH  45  46
ATOM     46  C   UNL A   1      42.472  28.770  27.894  1.00  0.00     0.031 A 
ATOM     47  C   UNL A   1      43.071  27.490  27.370  1.00  0.00     0.074 A 
ATOM     48  C   UNL A   1      43.263  29.860  27.984  1.00  0.00     0.049 A 
ATOM     49  N   UNL A   1      44.320  27.209  27.098  1.00  0.00    -0.248 NA
ATOM     50  C   UNL A   1      42.127  26.399  27.077  1.00  0.00     0.031 C 
ATOM     51  C   UNL A   1      42.803  31.207  28.292  1.00  0.00     0.029 A 
ATOM     52  N   UNL A   1      44.618  30.023  27.800  1.00  0.00    -0.354 N 
ATOM     53  C   UNL A   1      44.313  25.909  26.605  1.00  0.00     0.074 A 
ATOM     54  C   UNL A   1      42.940  25.453  26.631  1.00  0.00     0.031 C 
ATOM     55  C   UNL A   1      43.847  32.050  28.337  1.00  0.00     0.029 A 
ATOM     56  C   UNL A   1      45.064  31.306  28.039  1.00  0.00     0.049 A 
ATOM     57  H   UNL A   1      45.214  29.290  27.524  1.00  0.00     0.167 HD
ATOM     58  C   UNL A   1      45.352  25.160  26.163  1.00  0.00     0.031 A 
ATOM     59  C   UNL A   1      46.306  31.832  28.021  1.00  0.00     0.031 A 
ATOM     60  C   UNL A   1      46.720  25.599  26.151  1.00  0.00     0.049 A 
ATOM     61  C   UNL A   1      47.462  30.947  27.638  1.00  0.00     0.074 A 
ATOM     62  C   UNL A   1      47.856  24.881  25.822  1.00  0.00     0.029 A 
ATOM     63  N   UNL A   1      47.137  26.881  26.475  1.00  0.00    -0.354 N 
ATOM     64  N   UNL A   1      47.443  29.691  27.260  1.00  0.00    -0.248 NA
ATOM     65  C   UNL A   1      48.802  31.550  27.667  1.00  0.00     0.031 C 
ATOM     66  C   UNL A   1      48.964  25.720  25.979  1.00  0.00     0.029 A 
ATOM     67  C   UNL A   1      48.513  26.974  26.358  1.00  0.00     0.049 A 
ATOM     68  H   UNL A   1      46.543  27.617  26.748  1.00  0.00     0.167 HD
ATOM     69  C   UNL A   1      48.765  29.359  26.990  1.00  0.00     0.074 A 
ATOM     70  C   UNL A   1      49.554  30.551  27.223  1.00  0.00     0.031 C 
ATOM     71  C   UNL A   1      49.281  28.170  26.593  1.00  0.00     0.031 A 
BRANCH  58  72
ATOM     72  C   UNL A   1      45.030  23.759  25.723  1.00  0.00    -0.014 A 
ATOM     73  C   UNL A   1      44.793  22.736  26.659  1.00  0.00     0.010 A 
ATOM     74  C   UNL A   1      45.007  23.453  24.350  1.00  0.00     0.010 A 
ATOM     75  C   UNL A   1      44.595  21.421  26.232  1.00  0.00     0.020 A 
ATOM     76  C   UNL A   1      44.786  22.143  23.918  1.00  0.00     0.020 A 
ATOM     77  C   UNL A   1      44.606  21.131  24.864  1.00  0.00     0.054 A 
BRANCH  77  78
ATOM     78  S   UNL A   1      44.381  19.412  24.331  1.00  0.00     0.124 S 
ATOM     79  O   UNL A   1      43.046  19.113  24.843  1.00  0.00    -0.237 OA
ATOM     80  O   UNL A   1      44.489  19.509  22.878  1.00  0.00    -0.237 OA
ATOM     81  O   UNL A   1      45.473  18.700  24.988  1.00  0.00    -0.744 OA
ENDBRANCH  77  78
ENDBRANCH  58  72
BRANCH  59  82
ATOM     82  C   UNL A   1      46.540  33.253  28.413  1.00  0.00    -0.014 A 
ATOM     83  C   UNL A   1      46.706  33.624  29.759  1.00  0.00     0.010 A 
ATOM     84  C   UNL A   1      46.548  34.259  27.428  1.00  0.00     0.010 A 
ATOM     85  C   UNL A   1      46.842  34.973  30.115  1.00  0.00     0.020 A 
ATOM     86  C   UNL A   1      46.710  35.604  27.776  1.00  0.00     0.020 A 
ATOM     87  C   UNL A   1      46.838  35.953  29.120  1.00  0.00     0.054 A 
BRANCH  87  88
ATOM     88  S   UNL A   1      47.033  37.696  29.595  1.00  0.00     0.124 S 
ATOM     89  O   UNL A   1      45.667  38.070  29.945  1.00  0.00    -0.237 OA
ATOM     90  O   UNL A   1      47.974  37.615  30.710  1.00  0.00    -0.237 OA
ATOM     91  O   UNL A   1      47.567  38.319  28.387  1.00  0.00    -0.744 OA
ENDBRANCH  87  88
ENDBRANCH  59  82
BRANCH  71  92
ATOM     92  C   UNL A   1      50.766  28.109  26.359  1.00  0.00    -0.014 A 
ATOM     93  C   UNL A   1      51.642  27.678  27.371  1.00  0.00     0.010 A 
ATOM     94  C   UNL A   1      51.284  28.449  25.097  1.00  0.00     0.010 A 
ATOM     95  C   UNL A   1      53.017  27.620  27.133  1.00  0.00     0.020 A 
ATOM     96  C   UNL A   1      52.656  28.368  24.848  1.00  0.00     0.020 A 
ATOM     97  C   UNL A   1      53.516  27.968  25.874  1.00  0.00     0.054 A 
BRANCH  97  98
ATOM     98  S   UNL A   1      55.301  27.849  25.575  1.00  0.00     0.124 S 
ATOM     99  O   UNL A   1      55.721  29.243  25.685  1.00  0.00    -0.237 OA
ATOM    100  O   UNL A   1      55.750  26.970  26.653  1.00  0.00    -0.237 OA
ATOM    101  O   UNL A   1      55.388  27.274  24.235  1.00  0.00    -0.744 OA
ENDBRANCH  97  98
ENDBRANCH  71  92
ENDBRANCH  45  46
ENDBRANCH  38  40
ENDBRANCH  37  38
ENDBRANCH  36  37
ENDBRANCH  35  36
ENDBRANCH  34  35
ENDBRANCH   1  34
TORSDOF 23
ENDMDL
MODEL 2
REMARK VINA RESULT:     -10.3      5.614      9.907
REMARK SMILES O=C(CCCN1C(=O)C(=O)/C(=C(/[O-])c2ccc(Cl)cc2)[C@@H]1c1ccccc1[N+](=O)[O-])OCCOCCOC(=O)c1ccc(-c2c3nc(c(-c4ccc(S(=O)(=O)[O-])cc4)c4ccc([nH]4)c(-c4ccc(S(=O)(=O)[O-])cc4)c4nc(c(-c5ccc(S(=O)(=O)[O-])cc5)c5ccc2[nH]5)C=C4)C=C3)cc1
REMARK SMILES IDX 33 1 32 2 31 3 2 4 1 5 3 6 4 7 5 8 6 9 7 10 21 11 8 12 9 13
REMARK SMILES IDX 11 14 10 15 12 16 13 17 22 18 23 19 27 20 24 21 26 22 25 23
REMARK SMILES IDX 28 24 29 25 30 26 14 27 15 28 20 29 16 30 19 31 17 32 18 33
REMARK SMILES IDX 34 34 35 35 36 36 37 37 38 38 39 39 40 40 41 41 99 42 42 43
REMARK SMILES IDX 98 44 43 45 44 46 45 47 92 48 46 49 97 50 91 51 93 52 47 53
REMARK SMILES IDX 96 54 90 55 89 56 48 58 78 59 59 60 77 61 60 62 63 63 76 64
REMARK SMILES IDX 94 65 61 66 62 67 75 69 95 70 64 71 49 72 50 73 58 74 51 75
REMARK SMILES IDX 57 76 52 77 53 78 54 79 55 80 56 81 79 82 80 83 88 84 81 85
REMARK SMILES IDX 87 86 82 87 83 88 84 89 85 90 86 91 65 92 66 93 74 94 67 95
REMARK SMILES IDX 73 96 68 97 69 98 70 99 71 100 72 101
REMARK H PARENT 93 57 63 68
REMARK Flexibility Score: inf
ROOT
ATOM      1  C   UNL A   1      32.016  28.727  27.381  1.00  0.00     0.202 C 
ENDROOT
BRANCH   1   2
ATOM      2  C   UNL A   1      31.908  27.271  26.927  1.00  0.00     0.261 C 
BRANCH   2   3
ATOM      3  O   UNL A   1      30.651  26.617  26.904  1.00  0.00    -0.463 OA
BRANCH   3   4
ATOM      4  C   UNL A   1      30.780  25.346  26.389  1.00  0.00     0.305 C 
ATOM      5  O   UNL A   1      31.137  24.383  27.057  1.00  0.00    -0.252 OA
BRANCH   4   6
ATOM      6  C   UNL A   1      30.643  25.272  24.881  1.00  0.00     0.124 C 
BRANCH   6   7
ATOM      7  C   UNL A   1      30.485  23.939  24.123  1.00  0.00     0.033 C 
BRANCH   7   8
ATOM      8  C   UNL A   1      31.649  22.915  23.895  1.00  0.00     0.121 C 
BRANCH   8   9
ATOM      9  N   UNL A   1      32.970  23.305  24.429  1.00  0.00    -0.324 N 
ATOM     10  C   UNL A   1      33.641  22.451  25.309  1.00  0.00     0.295 C 
ATOM     11  C   UNL A   1      33.961  24.204  23.754  1.00  0.00     0.157 C 
ATOM     12  O   UNL A   1      33.377  21.324  25.669  1.00  0.00    -0.265 OA
ATOM     13  C   UNL A   1      34.905  23.159  25.729  1.00  0.00     0.248 C 
ATOM     14  C   UNL A   1      35.325  23.867  24.496  1.00  0.00     0.025 C 
ATOM     15  O   UNL A   1      35.390  23.103  26.834  1.00  0.00    -0.283 OA
ATOM     16  C   UNL A   1      36.528  23.330  24.135  1.00  0.00    -0.092 C 
ATOM     17  O   UNL A   1      36.839  22.936  22.849  1.00  0.00    -0.872 OA
BRANCH  11  18
ATOM     18  C   UNL A   1      33.573  25.681  23.212  1.00  0.00     0.057 A 
ATOM     19  C   UNL A   1      34.172  26.713  23.987  1.00  0.00     0.013 A 
ATOM     20  C   UNL A   1      32.648  26.241  22.247  1.00  0.00     0.275 A 
ATOM     21  C   UNL A   1      33.814  28.080  23.894  1.00  0.00     0.001 A 
ATOM     22  C   UNL A   1      32.184  27.598  22.285  1.00  0.00     0.086 A 
ATOM     23  C   UNL A   1      32.770  28.517  23.110  1.00  0.00     0.007 A 
BRANCH  20  24
ATOM     24  N   UNL A   1      32.439  25.835  20.854  1.00  0.00     0.063 N 
ATOM     25  O   UNL A   1      33.197  24.975  20.372  1.00  0.00    -0.258 OA
ATOM     26  O   UNL A   1      31.356  26.167  20.354  1.00  0.00    -0.258 OA
ENDBRANCH  20  24
ENDBRANCH  11  18
BRANCH  16  27
ATOM     27  C   UNL A   1      37.648  22.962  25.071  1.00  0.00    -0.033 A 
ATOM     28  C   UNL A   1      38.128  21.642  25.160  1.00  0.00     0.009 A 
ATOM     29  C   UNL A   1      38.267  23.932  25.876  1.00  0.00     0.009 A 
ATOM     30  C   UNL A   1      39.149  21.297  26.064  1.00  0.00     0.021 A 
ATOM     31  C   UNL A   1      39.294  23.593  26.774  1.00  0.00     0.021 A 
ATOM     32  C   UNL A   1      39.718  22.273  26.879  1.00  0.00     0.041 A 
ATOM     33  Cl  UNL A   1      40.941  21.846  28.014  1.00  0.00    -0.084 Cl
ENDBRANCH  16  27
ENDBRANCH   8   9
ENDBRANCH   7   8
ENDBRANCH   6   7
ENDBRANCH   4   6
ENDBRANCH   3   4
ENDBRANCH   2   3
ENDBRANCH   1   2
BRANCH   1  34
ATOM     34  O   UNL A   1      31.529  29.578  26.308  1.00  0.00    -0.374 OA
BRANCH  34  35
ATOM     35  C   UNL A   1      31.872  30.956  26.474  1.00  0.00     0.202 C 
BRANCH  35  36
ATOM     36  C   UNL A   1      33.117  31.253  27.370  1.00  0.00     0.261 C 
BRANCH  36  37
ATOM     37  O   UNL A   1      33.777  32.534  27.184  1.00  0.00    -0.460 OA
BRANCH  37  38
ATOM     38  C   UNL A   1      33.699  33.422  28.218  1.00  0.00     0.338 C 
ATOM     39  O   UNL A   1      32.786  34.209  28.407  1.00  0.00    -0.246 OA
BRANCH  38  40
ATOM     40  C   UNL A   1      34.813  33.293  29.203  1.00  0.00     0.060 A 
ATOM     41  C   UNL A   1      36.047  33.836  28.860  1.00  0.00     0.016 A 
ATOM     42  C   UNL A   1      34.757  32.471  30.330  1.00  0.00     0.016 A 
ATOM     43  C   UNL A   1      37.205  33.630  29.617  1.00  0.00     0.010 A 
ATOM     44  C   UNL A   1      35.929  32.232  31.096  1.00  0.00     0.010 A 
ATOM     45  C   UNL A   1      37.168  32.802  30.737  1.00  0.00    -0.014 A 
BRANCH  45  46
ATOM     46  C   UNL A   1      38.474  32.382  31.338  1.00  0.00     0.031 A 
ATOM     47  C   UNL A   1      38.856  32.951  32.680  1.00  0.00     0.074 A 
ATOM     48  C   UNL A   1      39.238  31.400  30.815  1.00  0.00     0.049 A 
ATOM     49  N   UNL A   1      39.929  32.735  33.398  1.00  0.00    -0.248 NA
ATOM     50  C   UNL A   1      37.877  33.850  33.312  1.00  0.00     0.031 C 
ATOM     51  C   UNL A   1      38.910  30.624  29.627  1.00  0.00     0.029 A 
ATOM     52  N   UNL A   1      40.438  30.863  31.221  1.00  0.00    -0.354 N 
ATOM     53  C   UNL A   1      39.756  33.472  34.564  1.00  0.00     0.074 A 
ATOM     54  C   UNL A   1      38.484  34.154  34.449  1.00  0.00     0.031 C 
ATOM     55  C   UNL A   1      39.896  29.753  29.360  1.00  0.00     0.029 A 
ATOM     56  C   UNL A   1      40.933  29.893  30.374  1.00  0.00     0.049 A 
ATOM     57  H   UNL A   1      40.903  31.145  32.042  1.00  0.00     0.167 HD
ATOM     58  C   UNL A   1      40.575  33.572  35.638  1.00  0.00     0.031 A 
ATOM     59  C   UNL A   1      42.084  29.191  30.403  1.00  0.00     0.031 A 
ATOM     60  C   UNL A   1      41.846  32.914  35.751  1.00  0.00     0.049 A 
ATOM     61  C   UNL A   1      43.034  29.406  31.550  1.00  0.00     0.074 A 
ATOM     62  C   UNL A   1      42.796  33.033  36.751  1.00  0.00     0.029 A 
ATOM     63  N   UNL A   1      42.343  32.001  34.834  1.00  0.00    -0.354 N 
ATOM     64  N   UNL A   1      42.890  30.178  32.601  1.00  0.00    -0.248 NA
ATOM     65  C   UNL A   1      44.294  28.649  31.525  1.00  0.00     0.031 C 
ATOM     66  C   UNL A   1      43.883  32.216  36.420  1.00  0.00     0.029 A 
ATOM     67  C   UNL A   1      43.588  31.551  35.241  1.00  0.00     0.049 A 
ATOM     68  H   UNL A   1      41.880  31.713  34.014  1.00  0.00     0.167 HD
ATOM     69  C   UNL A   1      44.033  29.987  33.369  1.00  0.00     0.074 A 
ATOM     70  C   UNL A   1      44.846  29.008  32.676  1.00  0.00     0.031 C 
ATOM     71  C   UNL A   1      44.382  30.575  34.539  1.00  0.00     0.031 A 
BRANCH  58  72
ATOM     72  C   UNL A   1      40.126  34.491  36.741  1.00  0.00    -0.014 A 
ATOM     73  C   UNL A   1      40.375  35.874  36.684  1.00  0.00     0.010 A 
ATOM     74  C   UNL A   1      39.483  33.954  37.871  1.00  0.00     0.010 A 
ATOM     75  C   UNL A   1      40.041  36.696  37.764  1.00  0.00     0.020 A 
ATOM     76  C   UNL A   1      39.126  34.775  38.942  1.00  0.00     0.020 A 
ATOM     77  C   UNL A   1      39.430  36.138  38.892  1.00  0.00     0.054 A 
BRANCH  77  78
ATOM     78  S   UNL A   1      39.034  37.215  40.296  1.00  0.00     0.124 S 
ATOM     79  O   UNL A   1      40.349  37.423  40.894  1.00  0.00    -0.237 OA
ATOM     80  O   UNL A   1      38.447  38.385  39.648  1.00  0.00    -0.237 OA
ATOM     81  O   UNL A   1      38.106  36.417  41.093  1.00  0.00    -0.744 OA
ENDBRANCH  77  78
ENDBRANCH  58  72
BRANCH  59  82
ATOM     82  C   UNL A   1      42.433  28.249  29.299  1.00  0.00    -0.014 A 
ATOM     83  C   UNL A   1      43.364  28.598  28.304  1.00  0.00     0.010 A 
ATOM     84  C   UNL A   1      41.788  27.001  29.214  1.00  0.00     0.010 A 
ATOM     85  C   UNL A   1      43.617  27.734  27.231  1.00  0.00     0.020 A 
ATOM     86  C   UNL A   1      42.057  26.124  28.158  1.00  0.00     0.020 A 
ATOM     87  C   UNL A   1      42.957  26.504  27.163  1.00  0.00     0.054 A 
BRANCH  87  88
ATOM     88  S   UNL A   1      43.309  25.387  25.775  1.00  0.00     0.124 S 
ATOM     89  O   UNL A   1      43.098  24.076  26.379  1.00  0.00    -0.237 OA
ATOM     90  O   UNL A   1      42.319  25.796  24.781  1.00  0.00    -0.237 OA
ATOM     91  O   UNL A   1      44.693  25.704  25.428  1.00  0.00    -0.744 OA
ENDBRANCH  87  88
ENDBRANCH  59  82
BRANCH  71  92
ATOM     92  C   UNL A   1      45.687  30.155  35.157  1.00  0.00    -0.014 A 
ATOM     93  C   UNL A   1      46.897  30.761  34.776  1.00  0.00     0.010 A 
ATOM     94  C   UNL A   1      45.694  29.171  36.161  1.00  0.00     0.010 A 
ATOM     95  C   UNL A   1      48.100  30.364  35.367  1.00  0.00     0.020 A 
ATOM     96  C   UNL A   1      46.892  28.790  36.771  1.00  0.00     0.020 A 
ATOM     97  C   UNL A   1      48.089  29.378  36.359  1.00  0.00     0.054 A 
BRANCH  97  98
ATOM     98  S   UNL A   1      49.656  28.905  37.139  1.00  0.00     0.124 S 
ATOM     99  O   UNL A   1      49.816  27.526  36.688  1.00  0.00    -0.237 OA
ATOM    100  O   UNL A   1      50.601  29.865  36.573  1.00  0.00    -0.237 OA
ATOM    101  O   UNL A   1      49.393  29.069  38.567  1.00  0.00    -0.744 OA
ENDBRANCH  97  98
ENDBRANCH  71  92
ENDBRANCH  45  46
ENDBRANCH  38  40
ENDBRANCH  37  38
ENDBRANCH  36  37
ENDBRANCH  35  36
ENDBRANCH  34  35
ENDBRANCH   1  34
TORSDOF 23
ENDMDL
MODEL 3
REMARK VINA RESULT:     -10.2      5.910      7.771
REMARK SMILES O=C(CCCN1C(=O)C(=O)/C(=C(/[O-])c2ccc(Cl)cc2)[C@@H]1c1ccccc1[N+](=O)[O-])OCCOCCOC(=O)c1ccc(-c2c3nc(c(-c4ccc(S(=O)(=O)[O-])cc4)c4ccc([nH]4)c(-c4ccc(S(=O)(=O)[O-])cc4)c4nc(c(-c5ccc(S(=O)(=O)[O-])cc5)c5ccc2[nH]5)C=C4)C=C3)cc1
REMARK SMILES IDX 33 1 32 2 31 3 2 4 1 5 3 6 4 7 5 8 6 9 7 10 21 11 8 12 9 13
REMARK SMILES IDX 11 14 10 15 12 16 13 17 22 18 23 19 27 20 24 21 26 22 25 23
REMARK SMILES IDX 28 24 29 25 30 26 14 27 15 28 20 29 16 30 19 31 17 32 18 33
REMARK SMILES IDX 34 34 35 35 36 36 37 37 38 38 39 39 40 40 41 41 99 42 42 43
REMARK SMILES IDX 98 44 43 45 44 46 45 47 92 48 46 49 97 50 91 51 93 52 47 53
REMARK SMILES IDX 96 54 90 55 89 56 48 58 78 59 59 60 77 61 60 62 63 63 76 64
REMARK SMILES IDX 94 65 61 66 62 67 75 69 95 70 64 71 49 72 50 73 58 74 51 75
REMARK SMILES IDX 57 76 52 77 53 78 54 79 55 80 56 81 79 82 80 83 88 84 81 85
REMARK SMILES IDX 87 86 82 87 83 88 84 89 85 90 86 91 65 92 66 93 74 94 67 95
REMARK SMILES IDX 73 96 68 97 69 98 70 99 71 100 72 101
REMARK H PARENT 93 57 63 68
REMARK Flexibility Score: inf
ROOT
ATOM      1  C   UNL A   1      31.891  28.400  26.802  1.00  0.00     0.202 C 
ENDROOT
BRANCH   1   2
ATOM      2  C   UNL A   1      31.483  27.016  26.298  1.00  0.00     0.261 C 
BRANCH   2   3
ATOM      3  O   UNL A   1      30.370  26.345  26.863  1.00  0.00    -0.463 OA
BRANCH   3   4
ATOM      4  C   UNL A   1      30.166  25.137  26.234  1.00  0.00     0.305 C 
ATOM      5  O   UNL A   1      29.909  24.101  26.834  1.00  0.00    -0.252 OA
BRANCH   4   6
ATOM      6  C   UNL A   1      30.489  25.148  24.752  1.00  0.00     0.124 C 
BRANCH   6   7
ATOM      7  C   UNL A   1      30.468  23.875  23.884  1.00  0.00     0.033 C 
BRANCH   7   8
ATOM      8  C   UNL A   1      31.599  22.790  23.889  1.00  0.00     0.121 C 
BRANCH   8   9
ATOM      9  N   UNL A   1      32.916  23.228  24.395  1.00  0.00    -0.324 N 
ATOM     10  C   UNL A   1      33.601  22.435  25.321  1.00  0.00     0.295 C 
ATOM     11  C   UNL A   1      33.893  24.101  23.667  1.00  0.00     0.157 C 
ATOM     12  O   UNL A   1      33.354  21.327  25.746  1.00  0.00    -0.265 OA
ATOM     13  C   UNL A   1      34.857  23.183  25.695  1.00  0.00     0.248 C 
ATOM     14  C   UNL A   1      35.263  23.826  24.423  1.00  0.00     0.025 C 
ATOM     15  O   UNL A   1      35.344  23.197  26.800  1.00  0.00    -0.283 OA
ATOM     16  C   UNL A   1      36.472  23.285  24.089  1.00  0.00    -0.092 C 
ATOM     17  O   UNL A   1      36.786  22.822  22.826  1.00  0.00    -0.872 OA
BRANCH  11  18
ATOM     18  C   UNL A   1      33.483  25.539  23.043  1.00  0.00     0.057 A 
ATOM     19  C   UNL A   1      34.065  26.622  23.759  1.00  0.00     0.013 A 
ATOM     20  C   UNL A   1      32.551  26.029  22.047  1.00  0.00     0.275 A 
ATOM     21  C   UNL A   1      33.685  27.976  23.589  1.00  0.00     0.001 A 
ATOM     22  C   UNL A   1      32.066  27.379  22.009  1.00  0.00     0.086 A 
ATOM     23  C   UNL A   1      32.637  28.352  22.781  1.00  0.00     0.007 A 
BRANCH  20  24
ATOM     24  N   UNL A   1      32.351  25.543  20.679  1.00  0.00     0.063 N 
ATOM     25  O   UNL A   1      31.448  26.061  19.998  1.00  0.00    -0.258 OA
ATOM     26  O   UNL A   1      33.271  24.859  20.210  1.00  0.00    -0.258 OA
ENDBRANCH  20  24
ENDBRANCH  11  18
BRANCH  16  27
ATOM     27  C   UNL A   1      37.600  22.987  25.041  1.00  0.00    -0.033 A 
ATOM     28  C   UNL A   1      38.130  21.689  25.168  1.00  0.00     0.009 A 
ATOM     29  C   UNL A   1      38.176  24.002  25.822  1.00  0.00     0.009 A 
ATOM     30  C   UNL A   1      39.158  21.409  26.088  1.00  0.00     0.021 A 
ATOM     31  C   UNL A   1      39.209  23.728  26.735  1.00  0.00     0.021 A 
ATOM     32  C   UNL A   1      39.684  22.428  26.878  1.00  0.00     0.041 A 
ATOM     33  Cl  UNL A   1      40.915  22.080  28.031  1.00  0.00    -0.084 Cl
ENDBRANCH  16  27
ENDBRANCH   8   9
ENDBRANCH   7   8
ENDBRANCH   6   7
ENDBRANCH   4   6
ENDBRANCH   3   4
ENDBRANCH   2   3
ENDBRANCH   1   2
BRANCH   1  34
ATOM     34  O   UNL A   1      31.405  29.393  25.860  1.00  0.00    -0.374 OA
BRANCH  34  35
ATOM     35  C   UNL A   1      31.937  30.701  26.086  1.00  0.00     0.202 C 
BRANCH  35  36
ATOM     36  C   UNL A   1      33.011  30.823  27.214  1.00  0.00     0.261 C 
BRANCH  36  37
ATOM     37  O   UNL A   1      33.976  31.902  27.097  1.00  0.00    -0.460 OA
BRANCH  37  38
ATOM     38  C   UNL A   1      33.844  32.944  27.968  1.00  0.00     0.338 C 
ATOM     39  O   UNL A   1      32.971  33.795  27.927  1.00  0.00    -0.246 OA
BRANCH  38  40
ATOM     40  C   UNL A   1      34.831  32.916  29.088  1.00  0.00     0.060 A 
ATOM     41  C   UNL A   1      36.139  33.298  28.808  1.00  0.00     0.016 A 
ATOM     42  C   UNL A   1      34.581  32.317  30.324  1.00  0.00     0.016 A 
ATOM     43  C   UNL A   1      37.187  33.150  29.722  1.00  0.00     0.010 A 
ATOM     44  C   UNL A   1      35.639  32.137  31.254  1.00  0.00     0.010 A 
ATOM     45  C   UNL A   1      36.956  32.542  30.955  1.00  0.00    -0.014 A 
BRANCH  45  46
ATOM     46  C   UNL A   1      38.147  32.146  31.772  1.00  0.00     0.031 A 
ATOM     47  C   UNL A   1      39.115  31.151  31.185  1.00  0.00     0.074 A 
ATOM     48  C   UNL A   1      38.477  32.758  32.929  1.00  0.00     0.049 A 
ATOM     49  N   UNL A   1      40.214  30.661  31.698  1.00  0.00    -0.248 NA
ATOM     50  C   UNL A   1      38.822  30.682  29.821  1.00  0.00     0.031 C 
ATOM     51  C   UNL A   1      37.748  33.867  33.529  1.00  0.00     0.029 A 
ATOM     52  N   UNL A   1      39.523  32.559  33.800  1.00  0.00    -0.354 N 
ATOM     53  C   UNL A   1      40.743  29.823  30.723  1.00  0.00     0.074 A 
ATOM     54  C   UNL A   1      39.836  29.860  29.596  1.00  0.00     0.031 C 
ATOM     55  C   UNL A   1      38.320  34.218  34.692  1.00  0.00     0.029 A 
ATOM     56  C   UNL A   1      39.482  33.367  34.918  1.00  0.00     0.049 A 
ATOM     57  H   UNL A   1      40.237  31.900  33.642  1.00  0.00     0.167 HD
ATOM     58  C   UNL A   1      41.882  29.092  30.755  1.00  0.00     0.031 A 
ATOM     59  C   UNL A   1      40.281  33.424  36.002  1.00  0.00     0.031 A 
ATOM     60  C   UNL A   1      42.778  29.036  31.877  1.00  0.00     0.049 A 
ATOM     61  C   UNL A   1      41.480  32.517  36.068  1.00  0.00     0.074 A 
ATOM     62  C   UNL A   1      43.902  28.246  32.049  1.00  0.00     0.029 A 
ATOM     63  N   UNL A   1      42.656  29.811  33.019  1.00  0.00    -0.354 N 
ATOM     64  N   UNL A   1      41.913  31.665  35.169  1.00  0.00    -0.248 NA
ATOM     65  C   UNL A   1      42.304  32.585  37.283  1.00  0.00     0.031 C 
ATOM     66  C   UNL A   1      44.441  28.521  33.310  1.00  0.00     0.029 A 
ATOM     67  C   UNL A   1      43.681  29.517  33.902  1.00  0.00     0.049 A 
ATOM     68  H   UNL A   1      41.946  30.474  33.180  1.00  0.00     0.167 HD
ATOM     69  C   UNL A   1      43.069  31.108  35.704  1.00  0.00     0.074 A 
ATOM     70  C   UNL A   1      43.282  31.737  36.991  1.00  0.00     0.031 C 
ATOM     71  C   UNL A   1      43.878  30.155  35.179  1.00  0.00     0.031 A 
BRANCH  58  72
ATOM     72  C   UNL A   1      42.170  28.243  29.547  1.00  0.00    -0.014 A 
ATOM     73  C   UNL A   1      43.103  28.649  28.576  1.00  0.00     0.010 A 
ATOM     74  C   UNL A   1      41.464  27.040  29.362  1.00  0.00     0.010 A 
ATOM     75  C   UNL A   1      43.282  27.896  27.413  1.00  0.00     0.020 A 
ATOM     76  C   UNL A   1      41.658  26.273  28.212  1.00  0.00     0.020 A 
ATOM     77  C   UNL A   1      42.549  26.720  27.232  1.00  0.00     0.054 A 
BRANCH  77  78
ATOM     78  S   UNL A   1      42.772  25.774  25.701  1.00  0.00     0.124 S 
ATOM     79  O   UNL A   1      44.000  26.356  25.166  1.00  0.00    -0.237 OA
ATOM     80  O   UNL A   1      42.886  24.401  26.184  1.00  0.00    -0.237 OA
ATOM     81  O   UNL A   1      41.562  26.063  24.936  1.00  0.00    -0.744 OA
ENDBRANCH  77  78
ENDBRANCH  58  72
BRANCH  59  82
ATOM     82  C   UNL A   1      39.965  34.340  37.139  1.00  0.00    -0.014 A 
ATOM     83  C   UNL A   1      40.474  35.649  37.189  1.00  0.00     0.010 A 
ATOM     84  C   UNL A   1      39.181  33.877  38.213  1.00  0.00     0.010 A 
ATOM     85  C   UNL A   1      40.234  36.465  38.303  1.00  0.00     0.020 A 
ATOM     86  C   UNL A   1      38.916  34.697  39.315  1.00  0.00     0.020 A 
ATOM     87  C   UNL A   1      39.461  35.980  39.361  1.00  0.00     0.054 A 
BRANCH  87  88
ATOM     88  S   UNL A   1      39.143  37.056  40.789  1.00  0.00     0.124 S 
ATOM     89  O   UNL A   1      40.494  37.335  41.265  1.00  0.00    -0.237 OA
ATOM     90  O   UNL A   1      38.438  38.183  40.185  1.00  0.00    -0.237 OA
ATOM     91  O   UNL A   1      38.327  36.221  41.667  1.00  0.00    -0.744 OA
ENDBRANCH  87  88
ENDBRANCH  59  82
BRANCH  71  92
ATOM     92  C   UNL A   1      45.082  29.755  35.987  1.00  0.00    -0.014 A 
ATOM     93  C   UNL A   1      45.016  28.696  36.909  1.00  0.00     0.010 A 
ATOM     94  C   UNL A   1      46.303  30.422  35.787  1.00  0.00     0.010 A 
ATOM     95  C   UNL A   1      46.148  28.333  37.645  1.00  0.00     0.020 A 
ATOM     96  C   UNL A   1      47.442  30.044  36.503  1.00  0.00     0.020 A 
ATOM     97  C   UNL A   1      47.353  29.012  37.439  1.00  0.00     0.054 A 
BRANCH  97  98
ATOM     98  S   UNL A   1      48.818  28.499  38.376  1.00  0.00     0.124 S 
ATOM     99  O   UNL A   1      48.423  28.806  39.748  1.00  0.00    -0.237 OA
ATOM    100  O   UNL A   1      48.924  27.077  38.056  1.00  0.00    -0.237 OA
ATOM    101  O   UNL A   1      49.886  29.334  37.831  1.00  0.00    -0.744 OA
ENDBRANCH  97  98
ENDBRANCH  71  92
ENDBRANCH  45  46
ENDBRANCH  38  40
ENDBRANCH  37  38
ENDBRANCH  36  37
ENDBRANCH  35  36
ENDBRANCH  34  35
ENDBRANCH   1  34
TORSDOF 23
ENDMDL
