MODEL 1
REMARK VINA RESULT:      -8.9      0.000      0.000
REMARK SMILES O=C(OCCOCCOC(=O)[C@H]1CCCC[C@H]1C(=O)Nc1ccc(Cl)cc1F)c1ccc(-c2c3nc(c(-c4ccc(S(=O)(=O)[O-])cc4)c4ccc([nH]4)c(-c4ccc(S(=O)(=O)[O-])cc4)c4nc(c(-c5ccc(S(=O)(=O)[O-])cc5)c5ccc2[nH]5)C=C4)C=C3)cc1
REMARK SMILES IDX 5 1 4 2 3 3 2 4 1 5 29 6 30 7 88 8 31 9 87 10 32 11 33 12
REMARK SMILES IDX 34 13 81 14 35 15 86 16 80 17 82 18 36 19 85 20 79 21 78 22
REMARK SMILES IDX 37 24 67 25 48 26 66 27 49 28 52 29 65 30 83 31 50 32 51 33
REMARK SMILES IDX 64 35 84 36 53 37 38 38 39 39 47 40 40 41 46 42 41 43 42 44
REMARK SMILES IDX 43 45 44 46 45 47 68 48 69 49 77 50 70 51 76 52 71 53 72 54
REMARK SMILES IDX 73 55 74 56 75 57 54 58 55 59 63 60 56 61 62 62 57 63 58 64
REMARK SMILES IDX 59 65 60 66 61 67 6 68 7 69 8 70 9 71 10 72 11 73 12 74
REMARK SMILES IDX 13 75 17 76 14 77 16 78 15 79 18 80 19 81 20 82 21 84 22 85
REMARK SMILES IDX 27 86 23 87 26 88 28 89 24 90 25 91
REMARK H PARENT 82 23 52 34 20 83
REMARK Flexibility Score: inf
ROOT
ATOM      1  C   UNL A   1      39.840  19.702  26.059  1.00  0.00     0.202 C 
ENDROOT
BRANCH   1   2
ATOM      2  C   UNL A   1      39.260  21.006  25.499  1.00  0.00     0.261 C 
BRANCH   2   3
ATOM      3  O   UNL A   1      39.291  22.120  26.420  1.00  0.00    -0.460 OA
BRANCH   3   4
ATOM      4  C   UNL A   1      38.607  23.255  26.126  1.00  0.00     0.338 C 
ATOM      5  O   UNL A   1      37.540  23.240  25.524  1.00  0.00    -0.246 OA
BRANCH   4   6
ATOM      6  C   UNL A   1      39.064  24.453  26.882  1.00  0.00     0.060 A 
ATOM      7  C   UNL A   1      38.804  24.634  28.241  1.00  0.00     0.016 A 
ATOM      8  C   UNL A   1      39.844  25.402  26.206  1.00  0.00     0.016 A 
ATOM      9  C   UNL A   1      39.282  25.757  28.912  1.00  0.00     0.010 A 
ATOM     10  C   UNL A   1      40.340  26.523  26.883  1.00  0.00     0.010 A 
ATOM     11  C   UNL A   1      40.056  26.704  28.243  1.00  0.00    -0.014 A 
BRANCH  11  12
ATOM     12  C   UNL A   1      40.505  27.902  28.984  1.00  0.00     0.031 A 
ATOM     13  C   UNL A   1      41.899  27.937  29.531  1.00  0.00     0.074 A 
ATOM     14  C   UNL A   1      39.699  28.977  29.084  1.00  0.00     0.049 A 
ATOM     15  N   UNL A   1      42.478  28.861  30.250  1.00  0.00    -0.248 NA
ATOM     16  C   UNL A   1      42.763  26.787  29.212  1.00  0.00     0.031 C 
ATOM     17  C   UNL A   1      38.363  29.085  28.497  1.00  0.00     0.029 A 
ATOM     18  N   UNL A   1      39.892  30.187  29.700  1.00  0.00    -0.354 N 
ATOM     19  C   UNL A   1      43.757  28.388  30.507  1.00  0.00     0.074 A 
ATOM     20  C   UNL A   1      43.882  27.108  29.845  1.00  0.00     0.031 C 
ATOM     21  C   UNL A   1      37.861  30.301  28.775  1.00  0.00     0.029 A 
ATOM     22  C   UNL A   1      38.813  31.037  29.601  1.00  0.00     0.049 A 
ATOM     23  H   UNL A   1      40.724  30.425  30.170  1.00  0.00     0.167 HD
ATOM     24  C   UNL A   1      44.729  28.963  31.253  1.00  0.00     0.031 A 
ATOM     25  C   UNL A   1      38.609  32.254  30.144  1.00  0.00     0.031 A 
ATOM     26  C   UNL A   1      44.583  30.227  31.922  1.00  0.00     0.049 A 
ATOM     27  C   UNL A   1      39.680  32.831  31.037  1.00  0.00     0.074 A 
ATOM     28  C   UNL A   1      45.487  30.873  32.744  1.00  0.00     0.029 A 
ATOM     29  N   UNL A   1      43.456  31.033  31.850  1.00  0.00    -0.354 N 
ATOM     30  N   UNL A   1      40.874  32.355  31.306  1.00  0.00    -0.248 NA
ATOM     31  C   UNL A   1      39.367  34.093  31.721  1.00  0.00     0.031 C 
ATOM     32  C   UNL A   1      44.885  32.045  33.216  1.00  0.00     0.029 A 
ATOM     33  C   UNL A   1      43.631  32.157  32.637  1.00  0.00     0.049 A 
ATOM     34  H   UNL A   1      42.651  30.833  31.320  1.00  0.00     0.167 HD
ATOM     35  C   UNL A   1      41.454  33.262  32.187  1.00  0.00     0.074 A 
ATOM     36  C   UNL A   1      40.496  34.333  32.375  1.00  0.00     0.031 C 
ATOM     37  C   UNL A   1      42.662  33.211  32.801  1.00  0.00     0.031 A 
BRANCH  24  38
ATOM     38  C   UNL A   1      45.999  28.188  31.455  1.00  0.00    -0.014 A 
ATOM     39  C   UNL A   1      47.140  28.424  30.670  1.00  0.00     0.010 A 
ATOM     40  C   UNL A   1      46.057  27.228  32.482  1.00  0.00     0.010 A 
ATOM     41  C   UNL A   1      48.313  27.699  30.897  1.00  0.00     0.020 A 
ATOM     42  C   UNL A   1      47.233  26.517  32.727  1.00  0.00     0.020 A 
ATOM     43  C   UNL A   1      48.352  26.751  31.926  1.00  0.00     0.054 A 
BRANCH  43  44
ATOM     44  S   UNL A   1      49.899  25.854  32.228  1.00  0.00     0.124 S 
ATOM     45  O   UNL A   1      49.955  24.956  31.077  1.00  0.00    -0.237 OA
ATOM     46  O   UNL A   1      50.892  26.925  32.237  1.00  0.00    -0.237 OA
ATOM     47  O   UNL A   1      49.679  25.202  33.516  1.00  0.00    -0.744 OA
ENDBRANCH  43  44
ENDBRANCH  24  38
BRANCH  25  48
ATOM     48  C   UNL A   1      37.320  32.978  29.944  1.00  0.00    -0.014 A 
ATOM     49  C   UNL A   1      36.335  32.998  30.949  1.00  0.00     0.010 A 
ATOM     50  C   UNL A   1      37.044  33.608  28.716  1.00  0.00     0.010 A 
ATOM     51  C   UNL A   1      35.089  33.593  30.714  1.00  0.00     0.020 A 
ATOM     52  C   UNL A   1      35.815  34.236  28.489  1.00  0.00     0.020 A 
ATOM     53  C   UNL A   1      34.835  34.203  29.482  1.00  0.00     0.054 A 
BRANCH  53  54
ATOM     54  S   UNL A   1      33.215  34.966  29.190  1.00  0.00     0.124 S 
ATOM     55  O   UNL A   1      32.628  34.061  28.208  1.00  0.00    -0.237 OA
ATOM     56  O   UNL A   1      32.605  34.941  30.518  1.00  0.00    -0.237 OA
ATOM     57  O   UNL A   1      33.551  36.299  28.693  1.00  0.00    -0.744 OA
ENDBRANCH  53  54
ENDBRANCH  25  48
BRANCH  37  58
ATOM     58  C   UNL A   1      43.025  34.350  33.714  1.00  0.00    -0.014 A 
ATOM     59  C   UNL A   1      42.791  34.274  35.098  1.00  0.00     0.010 A 
ATOM     60  C   UNL A   1      43.673  35.482  33.187  1.00  0.00     0.010 A 
ATOM     61  C   UNL A   1      43.175  35.323  35.938  1.00  0.00     0.020 A 
ATOM     62  C   UNL A   1      44.085  36.520  34.027  1.00  0.00     0.020 A 
ATOM     63  C   UNL A   1      43.821  36.438  35.396  1.00  0.00     0.054 A 
BRANCH  63  64
ATOM     64  S   UNL A   1      44.360  37.763  36.513  1.00  0.00     0.124 S 
ATOM     65  O   UNL A   1      45.753  37.404  36.760  1.00  0.00    -0.237 OA
ATOM     66  O   UNL A   1      44.153  38.965  35.708  1.00  0.00    -0.237 OA
ATOM     67  O   UNL A   1      43.468  37.629  37.663  1.00  0.00    -0.744 OA
ENDBRANCH  63  64
ENDBRANCH  37  58
ENDBRANCH  11  12
ENDBRANCH   4   6
ENDBRANCH   3   4
ENDBRANCH   2   3
ENDBRANCH   1   2
BRANCH   1  68
ATOM     68  O   UNL A   1      40.966  19.972  26.898  1.00  0.00    -0.374 OA
BRANCH  68  69
ATOM     69  C   UNL A   1      42.171  19.335  26.471  1.00  0.00     0.202 C 
BRANCH  69  70
ATOM     70  C   UNL A   1      43.085  20.257  25.656  1.00  0.00     0.261 C 
BRANCH  70  71
ATOM     71  O   UNL A   1      43.301  21.498  26.353  1.00  0.00    -0.463 OA
BRANCH  71  72
ATOM     72  C   UNL A   1      43.180  22.628  25.596  1.00  0.00     0.309 C 
ATOM     73  O   UNL A   1      43.120  22.646  24.372  1.00  0.00    -0.252 OA
BRANCH  72  74
ATOM     74  C   UNL A   1      43.184  23.868  26.474  1.00  0.00     0.111 C 
ATOM     75  C   UNL A   1      42.624  23.429  27.848  1.00  0.00     0.016 C 
ATOM     76  C   UNL A   1      44.515  24.653  26.634  1.00  0.00     0.093 C 
ATOM     77  C   UNL A   1      43.680  22.800  28.760  1.00  0.00     0.001 C 
ATOM     78  C   UNL A   1      45.510  24.104  27.665  1.00  0.00     0.014 C 
ATOM     79  C   UNL A   1      44.838  23.757  28.987  1.00  0.00     0.001 C 
BRANCH  76  80
ATOM     80  C   UNL A   1      45.162  25.335  25.401  1.00  0.00     0.228 C 
ATOM     81  O   UNL A   1      45.837  24.651  24.623  1.00  0.00    -0.274 OA
ATOM     82  N   UNL A   1      44.802  26.610  25.015  1.00  0.00    -0.323 N 
ATOM     83  H   UNL A   1      44.625  26.735  24.055  1.00  0.00     0.170 HD
BRANCH  82  84
ATOM     84  C   UNL A   1      44.655  27.754  25.825  1.00  0.00     0.077 A 
ATOM     85  C   UNL A   1      45.681  28.187  26.662  1.00  0.00     0.031 A 
ATOM     86  C   UNL A   1      43.434  28.415  25.903  1.00  0.00     0.148 A 
ATOM     87  C   UNL A   1      45.502  29.353  27.427  1.00  0.00     0.023 A 
ATOM     88  C   UNL A   1      43.247  29.588  26.615  1.00  0.00     0.062 A 
ATOM     89  F   UNL A   1      42.371  27.806  25.394  1.00  0.00    -0.205 F 
ATOM     90  C   UNL A   1      44.306  30.073  27.358  1.00  0.00     0.044 A 
ATOM     91  Cl  UNL A   1      44.129  31.554  28.209  1.00  0.00    -0.084 Cl
ENDBRANCH  82  84
ENDBRANCH  76  80
ENDBRANCH  72  74
ENDBRANCH  71  72
ENDBRANCH  70  71
ENDBRANCH  69  70
ENDBRANCH  68  69
ENDBRANCH   1  68
TORSDOF 19
ENDMDL
MODEL 2
REMARK VINA RESULT:      -8.5      5.271     11.142
REMARK SMILES O=C(OCCOCCOC(=O)[C@H]1CCCC[C@H]1C(=O)Nc1ccc(Cl)cc1F)c1ccc(-c2c3nc(c(-c4ccc(S(=O)(=O)[O-])cc4)c4ccc([nH]4)c(-c4ccc(S(=O)(=O)[O-])cc4)c4nc(c(-c5ccc(S(=O)(=O)[O-])cc5)c5ccc2[nH]5)C=C4)C=C3)cc1
REMARK SMILES IDX 5 1 4 2 3 3 2 4 1 5 29 6 30 7 88 8 31 9 87 10 32 11 33 12
REMARK SMILES IDX 34 13 81 14 35 15 86 16 80 17 82 18 36 19 85 20 79 21 78 22
REMARK SMILES IDX 37 24 67 25 48 26 66 27 49 28 52 29 65 30 83 31 50 32 51 33
REMARK SMILES IDX 64 35 84 36 53 37 38 38 39 39 47 40 40 41 46 42 41 43 42 44
REMARK SMILES IDX 43 45 44 46 45 47 68 48 69 49 77 50 70 51 76 52 71 53 72 54
REMARK SMILES IDX 73 55 74 56 75 57 54 58 55 59 63 60 56 61 62 62 57 63 58 64
REMARK SMILES IDX 59 65 60 66 61 67 6 68 7 69 8 70 9 71 10 72 11 73 12 74
REMARK SMILES IDX 13 75 17 76 14 77 16 78 15 79 18 80 19 81 20 82 21 84 22 85
REMARK SMILES IDX 27 86 23 87 26 88 28 89 24 90 25 91
REMARK H PARENT 82 23 52 34 20 83
REMARK Flexibility Score: inf
ROOT
ATOM      1  C   UNL A   1      38.164  21.254  25.598  1.00  0.00     0.202 C 
ENDROOT
BRANCH   1   2
ATOM      2  C   UNL A   1      39.125  20.075  25.409  1.00  0.00     0.261 C 
BRANCH   2   3
ATOM      3  O   UNL A   1      39.991  19.820  26.537  1.00  0.00    -0.460 OA
BRANCH   3   4
ATOM      4  C   UNL A   1      41.338  19.845  26.371  1.00  0.00     0.338 C 
ATOM      5  O   UNL A   1      41.942  18.960  25.777  1.00  0.00    -0.246 OA
BRANCH   4   6
ATOM      6  C   UNL A   1      41.960  21.170  26.645  1.00  0.00     0.060 A 
ATOM      7  C   UNL A   1      42.287  21.599  27.933  1.00  0.00     0.016 A 
ATOM      8  C   UNL A   1      42.288  21.984  25.553  1.00  0.00     0.016 A 
ATOM      9  C   UNL A   1      42.898  22.833  28.135  1.00  0.00     0.010 A 
ATOM     10  C   UNL A   1      42.918  23.218  25.753  1.00  0.00     0.010 A 
ATOM     11  C   UNL A   1      43.223  23.648  27.051  1.00  0.00    -0.014 A 
BRANCH  11  12
ATOM     12  C   UNL A   1      43.832  24.969  27.317  1.00  0.00     0.031 A 
ATOM     13  C   UNL A   1      42.977  26.061  27.886  1.00  0.00     0.074 A 
ATOM     14  C   UNL A   1      45.153  25.154  27.133  1.00  0.00     0.049 A 
ATOM     15  N   UNL A   1      43.293  27.301  28.146  1.00  0.00    -0.248 NA
ATOM     16  C   UNL A   1      41.588  25.705  28.222  1.00  0.00     0.031 C 
ATOM     17  C   UNL A   1      46.093  24.126  26.682  1.00  0.00     0.029 A 
ATOM     18  N   UNL A   1      45.936  26.265  27.317  1.00  0.00    -0.354 N 
ATOM     19  C   UNL A   1      42.134  27.887  28.636  1.00  0.00     0.074 A 
ATOM     20  C   UNL A   1      41.114  26.861  28.663  1.00  0.00     0.031 C 
ATOM     21  C   UNL A   1      47.328  24.655  26.635  1.00  0.00     0.029 A 
ATOM     22  C   UNL A   1      47.261  26.066  26.999  1.00  0.00     0.049 A 
ATOM     23  H   UNL A   1      45.584  27.124  27.645  1.00  0.00     0.167 HD
ATOM     24  C   UNL A   1      41.936  29.174  29.004  1.00  0.00     0.031 A 
ATOM     25  C   UNL A   1      48.291  26.936  26.973  1.00  0.00     0.031 A 
ATOM     26  C   UNL A   1      42.955  30.187  28.952  1.00  0.00     0.049 A 
ATOM     27  C   UNL A   1      48.019  28.382  27.311  1.00  0.00     0.074 A 
ATOM     28  C   UNL A   1      42.845  31.532  29.253  1.00  0.00     0.029 A 
ATOM     29  N   UNL A   1      44.269  29.966  28.568  1.00  0.00    -0.354 N 
ATOM     30  N   UNL A   1      46.906  28.935  27.736  1.00  0.00    -0.248 NA
ATOM     31  C   UNL A   1      49.132  29.325  27.140  1.00  0.00     0.031 C 
ATOM     32  C   UNL A   1      44.080  32.137  28.997  1.00  0.00     0.029 A 
ATOM     33  C   UNL A   1      44.974  31.156  28.596  1.00  0.00     0.049 A 
ATOM     34  H   UNL A   1      44.644  29.093  28.311  1.00  0.00     0.167 HD
ATOM     35  C   UNL A   1      47.189  30.288  27.885  1.00  0.00     0.074 A 
ATOM     36  C   UNL A   1      48.585  30.464  27.543  1.00  0.00     0.031 C 
ATOM     37  C   UNL A   1      46.366  31.301  28.255  1.00  0.00     0.031 A 
BRANCH  24  38
ATOM     38  C   UNL A   1      40.547  29.575  29.409  1.00  0.00    -0.014 A 
ATOM     39  C   UNL A   1      40.168  29.662  30.759  1.00  0.00     0.010 A 
ATOM     40  C   UNL A   1      39.614  29.907  28.409  1.00  0.00     0.010 A 
ATOM     41  C   UNL A   1      38.873  30.058  31.101  1.00  0.00     0.020 A 
ATOM     42  C   UNL A   1      38.326  30.324  28.747  1.00  0.00     0.020 A 
ATOM     43  C   UNL A   1      37.960  30.388  30.094  1.00  0.00     0.054 A 
BRANCH  43  44
ATOM     44  S   UNL A   1      36.299  30.940  30.567  1.00  0.00     0.124 S 
ATOM     45  O   UNL A   1      35.534  30.669  29.352  1.00  0.00    -0.237 OA
ATOM     46  O   UNL A   1      35.990  30.080  31.707  1.00  0.00    -0.237 OA
ATOM     47  O   UNL A   1      36.479  32.353  30.887  1.00  0.00    -0.744 OA
ENDBRANCH  43  44
ENDBRANCH  24  38
BRANCH  25  48
ATOM     48  C   UNL A   1      49.651  26.504  26.536  1.00  0.00    -0.014 A 
ATOM     49  C   UNL A   1      50.019  26.532  25.178  1.00  0.00     0.010 A 
ATOM     50  C   UNL A   1      50.572  26.003  27.475  1.00  0.00     0.010 A 
ATOM     51  C   UNL A   1      51.259  26.030  24.766  1.00  0.00     0.020 A 
ATOM     52  C   UNL A   1      51.826  25.534  27.073  1.00  0.00     0.020 A 
ATOM     53  C   UNL A   1      52.153  25.527  25.716  1.00  0.00     0.054 A 
BRANCH  53  54
ATOM     54  S   UNL A   1      53.754  24.876  25.168  1.00  0.00     0.124 S 
ATOM     55  O   UNL A   1      53.953  25.583  23.907  1.00  0.00    -0.237 OA
ATOM     56  O   UNL A   1      54.648  25.263  26.258  1.00  0.00    -0.237 OA
ATOM     57  O   UNL A   1      53.516  23.438  25.050  1.00  0.00    -0.744 OA
ENDBRANCH  53  54
ENDBRANCH  25  48
BRANCH  37  58
ATOM     58  C   UNL A   1      46.958  32.683  28.330  1.00  0.00    -0.014 A 
ATOM     59  C   UNL A   1      47.585  33.141  29.502  1.00  0.00     0.010 A 
ATOM     60  C   UNL A   1      46.950  33.504  27.188  1.00  0.00     0.010 A 
ATOM     61  C   UNL A   1      48.169  34.410  29.540  1.00  0.00     0.020 A 
ATOM     62  C   UNL A   1      47.558  34.762  27.213  1.00  0.00     0.020 A 
ATOM     63  C   UNL A   1      48.153  35.211  28.394  1.00  0.00     0.054 A 
BRANCH  63  64
ATOM     64  S   UNL A   1      48.966  36.832  28.450  1.00  0.00     0.124 S 
ATOM     65  O   UNL A   1      48.462  37.467  27.236  1.00  0.00    -0.237 OA
ATOM     66  O   UNL A   1      48.473  37.394  29.705  1.00  0.00    -0.237 OA
ATOM     67  O   UNL A   1      50.390  36.505  28.438  1.00  0.00    -0.744 OA
ENDBRANCH  63  64
ENDBRANCH  37  58
ENDBRANCH  11  12
ENDBRANCH   4   6
ENDBRANCH   3   4
ENDBRANCH   2   3
ENDBRANCH   1   2
BRANCH   1  68
ATOM     68  O   UNL A   1      38.879  22.427  25.996  1.00  0.00    -0.374 OA
BRANCH  68  69
ATOM     69  C   UNL A   1      38.050  23.576  26.177  1.00  0.00     0.202 C 
BRANCH  69  70
ATOM     70  C   UNL A   1      36.940  23.692  25.126  1.00  0.00     0.261 C 
BRANCH  70  71
ATOM     71  O   UNL A   1      35.743  24.233  25.715  1.00  0.00    -0.463 OA
BRANCH  71  72
ATOM     72  C   UNL A   1      34.739  23.337  25.943  1.00  0.00     0.309 C 
ATOM     73  O   UNL A   1      34.769  22.456  26.795  1.00  0.00    -0.252 OA
BRANCH  72  74
ATOM     74  C   UNL A   1      33.599  23.544  24.961  1.00  0.00     0.111 C 
ATOM     75  C   UNL A   1      33.998  22.796  23.667  1.00  0.00     0.016 C 
ATOM     76  C   UNL A   1      32.161  23.162  25.412  1.00  0.00     0.093 C 
ATOM     77  C   UNL A   1      33.671  21.301  23.706  1.00  0.00     0.001 C 
ATOM     78  C   UNL A   1      31.785  21.678  25.304  1.00  0.00     0.014 C 
ATOM     79  C   UNL A   1      32.190  21.077  23.964  1.00  0.00     0.001 C 
BRANCH  76  80
ATOM     80  C   UNL A   1      31.493  23.921  26.588  1.00  0.00     0.228 C 
ATOM     81  O   UNL A   1      31.258  23.311  27.638  1.00  0.00    -0.274 OA
ATOM     82  N   UNL A   1      31.387  25.296  26.586  1.00  0.00    -0.323 N 
ATOM     83  H   UNL A   1      31.643  25.748  27.421  1.00  0.00     0.170 HD
BRANCH  82  84
ATOM     84  C   UNL A   1      30.958  26.133  25.536  1.00  0.00     0.077 A 
ATOM     85  C   UNL A   1      29.740  25.926  24.894  1.00  0.00     0.031 A 
ATOM     86  C   UNL A   1      31.797  27.119  25.028  1.00  0.00     0.148 A 
ATOM     87  C   UNL A   1      29.338  26.806  23.874  1.00  0.00     0.023 A 
ATOM     88  C   UNL A   1      31.408  28.024  24.056  1.00  0.00     0.062 A 
ATOM     89  F   UNL A   1      33.074  27.087  25.390  1.00  0.00    -0.205 F 
ATOM     90  C   UNL A   1      30.152  27.879  23.498  1.00  0.00     0.044 A 
ATOM     91  Cl  UNL A   1      29.613  29.015  22.330  1.00  0.00    -0.084 Cl
ENDBRANCH  82  84
ENDBRANCH  76  80
ENDBRANCH  72  74
ENDBRANCH  71  72
ENDBRANCH  70  71
ENDBRANCH  69  70
ENDBRANCH  68  69
ENDBRANCH   1  68
TORSDOF 19
ENDMDL
MODEL 3
REMARK VINA RESULT:      -8.5      4.276     10.775
REMARK SMILES O=C(OCCOCCOC(=O)[C@H]1CCCC[C@H]1C(=O)Nc1ccc(Cl)cc1F)c1ccc(-c2c3nc(c(-c4ccc(S(=O)(=O)[O-])cc4)c4ccc([nH]4)c(-c4ccc(S(=O)(=O)[O-])cc4)c4nc(c(-c5ccc(S(=O)(=O)[O-])cc5)c5ccc2[nH]5)C=C4)C=C3)cc1
REMARK SMILES IDX 5 1 4 2 3 3 2 4 1 5 29 6 30 7 88 8 31 9 87 10 32 11 33 12
REMARK SMILES IDX 34 13 81 14 35 15 86 16 80 17 82 18 36 19 85 20 79 21 78 22
REMARK SMILES IDX 37 24 67 25 48 26 66 27 49 28 52 29 65 30 83 31 50 32 51 33
REMARK SMILES IDX 64 35 84 36 53 37 38 38 39 39 47 40 40 41 46 42 41 43 42 44
REMARK SMILES IDX 43 45 44 46 45 47 68 48 69 49 77 50 70 51 76 52 71 53 72 54
REMARK SMILES IDX 73 55 74 56 75 57 54 58 55 59 63 60 56 61 62 62 57 63 58 64
REMARK SMILES IDX 59 65 60 66 61 67 6 68 7 69 8 70 9 71 10 72 11 73 12 74
REMARK SMILES IDX 13 75 17 76 14 77 16 78 15 79 18 80 19 81 20 82 21 84 22 85
REMARK SMILES IDX 27 86 23 87 26 88 28 89 24 90 25 91
REMARK H PARENT 82 23 52 34 20 83
REMARK Flexibility Score: inf
ROOT
ATOM      1  C   UNL A   1      31.625  29.384  25.756  1.00  0.00     0.202 C 
ENDROOT
BRANCH   1   2
ATOM      2  C   UNL A   1      33.143  29.595  25.787  1.00  0.00     0.261 C 
BRANCH   2   3
ATOM      3  O   UNL A   1      33.743  29.440  27.093  1.00  0.00    -0.460 OA
BRANCH   3   4
ATOM      4  C   UNL A   1      34.504  30.440  27.607  1.00  0.00     0.338 C 
ATOM      5  O   UNL A   1      34.026  31.510  27.965  1.00  0.00    -0.246 OA
BRANCH   4   6
ATOM      6  C   UNL A   1      35.869  30.015  28.020  1.00  0.00     0.060 A 
ATOM      7  C   UNL A   1      36.984  30.140  27.189  1.00  0.00     0.016 A 
ATOM      8  C   UNL A   1      36.044  29.532  29.324  1.00  0.00     0.016 A 
ATOM      9  C   UNL A   1      38.247  29.758  27.633  1.00  0.00     0.010 A 
ATOM     10  C   UNL A   1      37.316  29.164  29.779  1.00  0.00     0.010 A 
ATOM     11  C   UNL A   1      38.424  29.274  28.929  1.00  0.00    -0.014 A 
BRANCH  11  12
ATOM     12  C   UNL A   1      39.776  28.840  29.343  1.00  0.00     0.031 A 
ATOM     13  C   UNL A   1      40.582  29.732  30.237  1.00  0.00     0.074 A 
ATOM     14  C   UNL A   1      40.231  27.622  28.993  1.00  0.00     0.049 A 
ATOM     15  N   UNL A   1      41.801  29.570  30.677  1.00  0.00    -0.248 NA
ATOM     16  C   UNL A   1      39.924  30.961  30.713  1.00  0.00     0.031 C 
ATOM     17  C   UNL A   1      39.484  26.635  28.213  1.00  0.00     0.029 A 
ATOM     18  N   UNL A   1      41.424  27.001  29.262  1.00  0.00    -0.354 N 
ATOM     19  C   UNL A   1      42.073  30.694  31.446  1.00  0.00     0.074 A 
ATOM     20  C   UNL A   1      40.884  31.518  31.435  1.00  0.00     0.031 C 
ATOM     21  C   UNL A   1      40.234  25.529  28.074  1.00  0.00     0.029 A 
ATOM     22  C   UNL A   1      41.531  25.745  28.708  1.00  0.00     0.049 A 
ATOM     23  H   UNL A   1      42.138  27.415  29.799  1.00  0.00     0.167 HD
ATOM     24  C   UNL A   1      43.224  31.017  32.079  1.00  0.00     0.031 A 
ATOM     25  C   UNL A   1      42.571  24.886  28.687  1.00  0.00     0.031 A 
ATOM     26  C   UNL A   1      44.405  30.197  32.063  1.00  0.00     0.049 A 
ATOM     27  C   UNL A   1      43.867  25.312  29.333  1.00  0.00     0.074 A 
ATOM     28  C   UNL A   1      45.639  30.456  32.629  1.00  0.00     0.029 A 
ATOM     29  N   UNL A   1      44.498  28.960  31.442  1.00  0.00    -0.354 N 
ATOM     30  N   UNL A   1      44.126  26.398  30.025  1.00  0.00    -0.248 NA
ATOM     31  C   UNL A   1      45.016  24.412  29.174  1.00  0.00     0.031 C 
ATOM     32  C   UNL A   1      46.497  29.401  32.302  1.00  0.00     0.029 A 
ATOM     33  C   UNL A   1      45.779  28.457  31.587  1.00  0.00     0.049 A 
ATOM     34  H   UNL A   1      43.763  28.508  30.968  1.00  0.00     0.167 HD
ATOM     35  C   UNL A   1      45.466  26.307  30.385  1.00  0.00     0.074 A 
ATOM     36  C   UNL A   1      45.953  25.044  29.868  1.00  0.00     0.031 C 
ATOM     37  C   UNL A   1      46.235  27.193  31.066  1.00  0.00     0.031 A 
BRANCH  24  38
ATOM     38  C   UNL A   1      43.288  32.351  32.766  1.00  0.00    -0.014 A 
ATOM     39  C   UNL A   1      42.978  32.494  34.129  1.00  0.00     0.010 A 
ATOM     40  C   UNL A   1      43.706  33.476  32.032  1.00  0.00     0.010 A 
ATOM     41  C   UNL A   1      43.067  33.747  34.742  1.00  0.00     0.020 A 
ATOM     42  C   UNL A   1      43.817  34.725  32.646  1.00  0.00     0.020 A 
ATOM     43  C   UNL A   1      43.487  34.854  33.997  1.00  0.00     0.054 A 
BRANCH  43  44
ATOM     44  S   UNL A   1      43.635  36.460  34.828  1.00  0.00     0.124 S 
ATOM     45  O   UNL A   1      42.815  37.316  33.974  1.00  0.00    -0.237 OA
ATOM     46  O   UNL A   1      43.087  36.184  36.153  1.00  0.00    -0.237 OA
ATOM     47  O   UNL A   1      45.069  36.738  34.795  1.00  0.00    -0.744 OA
ENDBRANCH  43  44
ENDBRANCH  24  38
BRANCH  25  48
ATOM     48  C   UNL A   1      42.477  23.583  27.968  1.00  0.00    -0.014 A 
ATOM     49  C   UNL A   1      41.991  22.431  28.615  1.00  0.00     0.010 A 
ATOM     50  C   UNL A   1      42.931  23.471  26.640  1.00  0.00     0.010 A 
ATOM     51  C   UNL A   1      42.003  21.190  27.965  1.00  0.00     0.020 A 
ATOM     52  C   UNL A   1      42.909  22.241  25.974  1.00  0.00     0.020 A 
ATOM     53  C   UNL A   1      42.468  21.103  26.650  1.00  0.00     0.054 A 
BRANCH  53  54
ATOM     54  S   UNL A   1      42.481  19.489  25.821  1.00  0.00     0.124 S 
ATOM     55  O   UNL A   1      42.891  18.598  26.901  1.00  0.00    -0.237 OA
ATOM     56  O   UNL A   1      41.096  19.347  25.375  1.00  0.00    -0.237 OA
ATOM     57  O   UNL A   1      43.456  19.664  24.747  1.00  0.00    -0.744 OA
ENDBRANCH  53  54
ENDBRANCH  25  48
BRANCH  37  58
ATOM     58  C   UNL A   1      47.672  26.820  31.310  1.00  0.00    -0.014 A 
ATOM     59  C   UNL A   1      48.066  26.191  32.503  1.00  0.00     0.010 A 
ATOM     60  C   UNL A   1      48.627  27.038  30.300  1.00  0.00     0.010 A 
ATOM     61  C   UNL A   1      49.397  25.811  32.695  1.00  0.00     0.020 A 
ATOM     62  C   UNL A   1      49.952  26.633  30.475  1.00  0.00     0.020 A 
ATOM     63  C   UNL A   1      50.331  26.033  31.678  1.00  0.00     0.054 A 
BRANCH  63  64
ATOM     64  S   UNL A   1      52.041  25.481  31.927  1.00  0.00     0.124 S 
ATOM     65  O   UNL A   1      52.409  26.179  33.156  1.00  0.00    -0.237 OA
ATOM     66  O   UNL A   1      51.896  24.032  32.046  1.00  0.00    -0.237 OA
ATOM     67  O   UNL A   1      52.730  25.936  30.722  1.00  0.00    -0.744 OA
ENDBRANCH  63  64
ENDBRANCH  37  58
ENDBRANCH  11  12
ENDBRANCH   4   6
ENDBRANCH   3   4
ENDBRANCH   2   3
ENDBRANCH   1   2
BRANCH   1  68
ATOM     68  O   UNL A   1      31.098  29.712  24.467  1.00  0.00    -0.374 OA
BRANCH  68  69
ATOM     69  C   UNL A   1      30.680  28.577  23.708  1.00  0.00     0.202 C 
BRANCH  69  70
ATOM     70  C   UNL A   1      31.748  28.076  22.730  1.00  0.00     0.261 C 
BRANCH  70  71
ATOM     71  O   UNL A   1      32.555  27.054  23.345  1.00  0.00    -0.463 OA
BRANCH  71  72
ATOM     72  C   UNL A   1      32.007  25.804  23.367  1.00  0.00     0.309 C 
ATOM     73  O   UNL A   1      31.149  25.403  22.589  1.00  0.00    -0.252 OA
BRANCH  72  74
ATOM     74  C   UNL A   1      32.569  24.990  24.520  1.00  0.00     0.111 C 
ATOM     75  C   UNL A   1      32.166  25.734  25.814  1.00  0.00     0.016 C 
ATOM     76  C   UNL A   1      32.206  23.481  24.602  1.00  0.00     0.093 C 
ATOM     77  C   UNL A   1      30.750  25.399  26.290  1.00  0.00     0.001 C 
ATOM     78  C   UNL A   1      30.844  23.140  25.222  1.00  0.00     0.014 C 
ATOM     79  C   UNL A   1      30.593  23.905  26.515  1.00  0.00     0.001 C 
BRANCH  76  80
ATOM     80  C   UNL A   1      32.675  22.512  23.485  1.00  0.00     0.228 C 
ATOM     81  O   UNL A   1      31.826  21.902  22.826  1.00  0.00    -0.274 OA
ATOM     82  N   UNL A   1      33.982  22.504  23.045  1.00  0.00    -0.323 N 
ATOM     83  H   UNL A   1      34.107  22.498  22.069  1.00  0.00     0.170 HD
BRANCH  82  84
ATOM     84  C   UNL A   1      35.160  22.505  23.819  1.00  0.00     0.077 A 
ATOM     85  C   UNL A   1      36.131  23.490  23.662  1.00  0.00     0.031 A 
ATOM     86  C   UNL A   1      35.443  21.449  24.678  1.00  0.00     0.148 A 
ATOM     87  C   UNL A   1      37.275  23.469  24.479  1.00  0.00     0.023 A 
ATOM     88  C   UNL A   1      36.540  21.427  25.523  1.00  0.00     0.062 A 
ATOM     89  F   UNL A   1      34.707  20.350  24.567  1.00  0.00    -0.205 F 
ATOM     90  C   UNL A   1      37.446  22.466  25.439  1.00  0.00     0.044 A 
ATOM     91  Cl  UNL A   1      38.789  22.503  26.508  1.00  0.00    -0.084 Cl
ENDBRANCH  82  84
ENDBRANCH  76  80
ENDBRANCH  72  74
ENDBRANCH  71  72
ENDBRANCH  70  71
ENDBRANCH  69  70
ENDBRANCH  68  69
ENDBRANCH   1  68
TORSDOF 19
ENDMDL
