MODEL 1
REMARK VINA RESULT:     -10.8      0.000      0.000
REMARK SMILES Cc1cc2c(c(C)c1Br)C=C(C(=O)OCCOCCOC(=O)c1ccc(-c3c4nc(c(-c5ccc(S(=O)(=O)[O-])cc5)c5ccc([nH]5)c(-c5ccc(S(=O)(=O)[O-])cc5)c5nc(c(-c6ccc(S(=O)(=O)[O-])cc6)c6ccc3[nH]6)C=C5)C=C4)cc1)[C@@H](C(F)(F)F)O2
REMARK SMILES IDX 18 1 17 2 16 3 15 4 14 5 12 6 13 7 11 8 1 9 2 10 3 11 8 12
REMARK SMILES IDX 4 13 6 14 9 15 5 16 88 17 7 18 10 19 83 20 84 21 85 22 86 23
REMARK SMILES IDX 87 24 19 25 20 26 21 27 22 28 23 29 24 30 82 31 25 32 81 33
REMARK SMILES IDX 26 34 27 35 28 36 75 37 29 38 80 39 74 40 76 41 30 42 79 43
REMARK SMILES IDX 73 44 72 45 31 47 61 48 42 49 60 50 43 51 46 52 59 53 77 54
REMARK SMILES IDX 44 55 45 56 58 58 78 59 47 60 32 61 33 62 41 63 34 64 40 65
REMARK SMILES IDX 35 66 36 67 37 68 38 69 39 70 62 71 63 72 71 73 64 74 70 75
REMARK SMILES IDX 65 76 66 77 67 78 68 79 69 80 48 81 49 82 57 83 50 84 56 85
REMARK SMILES IDX 51 86 52 87 53 88 54 89 55 90
REMARK H PARENT 76 46 46 57
REMARK Flexibility Score: inf
ROOT
ATOM      1  C   UNL A   1      40.269  22.301  26.593  1.00  0.00     0.202 C 
ENDROOT
BRANCH   1   2
ATOM      2  O   UNL A   1      38.850  22.259  26.427  1.00  0.00    -0.374 OA
BRANCH   2   3
ATOM      3  C   UNL A   1      38.325  21.410  25.407  1.00  0.00     0.202 C 
BRANCH   3   4
ATOM      4  C   UNL A   1      36.845  21.584  25.058  1.00  0.00     0.261 C 
BRANCH   4   5
ATOM      5  O   UNL A   1      36.468  22.970  25.016  1.00  0.00    -0.460 OA
BRANCH   5   6
ATOM      6  C   UNL A   1      35.282  23.246  25.604  1.00  0.00     0.338 C 
ATOM      7  O   UNL A   1      34.880  22.829  26.682  1.00  0.00    -0.246 OA
BRANCH   6   8
ATOM      8  C   UNL A   1      34.556  24.262  24.820  1.00  0.00     0.087 C 
ATOM      9  C   UNL A   1      30.564  29.003  23.010  1.00  0.00     0.046 C 
ATOM     10  C   UNL A   1      31.658  28.177  23.633  1.00  0.00    -0.033 A 
ATOM     11  C   UNL A   1      32.056  27.002  22.982  1.00  0.00     0.051 A 
ATOM     12  C   UNL A   1      32.285  28.532  24.846  1.00  0.00     0.024 A 
ATOM     13  C   UNL A   1      32.990  26.146  23.557  1.00  0.00     0.128 A 
ATOM     14  C   UNL A   1      33.259  27.689  25.432  1.00  0.00    -0.026 A 
ATOM     15  Br  UNL A   1      31.764  30.166  25.698  1.00  0.00    -0.050 Br
ATOM     16  C   UNL A   1      33.561  26.457  24.795  1.00  0.00     0.021 A 
ATOM     17  O   UNL A   1      33.283  25.026  22.831  1.00  0.00    -0.475 OA
ATOM     18  C   UNL A   1      33.972  28.044  26.717  1.00  0.00     0.046 C 
ATOM     19  C   UNL A   1      34.397  25.444  25.429  1.00  0.00     0.027 C 
ATOM     20  C   UNL A   1      34.020  23.940  23.458  1.00  0.00     0.316 C 
BRANCH  20  21
ATOM     21  C   UNL A   1      33.133  22.687  23.444  1.00  0.00     0.430 C 
ATOM     22  F   UNL A   1      32.557  22.512  22.231  1.00  0.00    -0.167 F 
ATOM     23  F   UNL A   1      33.844  21.567  23.707  1.00  0.00    -0.167 F 
ATOM     24  F   UNL A   1      32.139  22.764  24.358  1.00  0.00    -0.167 F 
ENDBRANCH  20  21
ENDBRANCH   6   8
ENDBRANCH   5   6
ENDBRANCH   4   5
ENDBRANCH   3   4
ENDBRANCH   2   3
ENDBRANCH   1   2
BRANCH   1  25
ATOM     25  C   UNL A   1      40.911  23.665  26.870  1.00  0.00     0.261 C 
BRANCH  25  26
ATOM     26  O   UNL A   1      39.963  24.744  26.783  1.00  0.00    -0.460 OA
BRANCH  26  27
ATOM     27  C   UNL A   1      40.513  25.965  26.573  1.00  0.00     0.338 C 
ATOM     28  O   UNL A   1      41.054  26.363  25.548  1.00  0.00    -0.246 OA
BRANCH  27  29
ATOM     29  C   UNL A   1      40.208  26.859  27.702  1.00  0.00     0.060 A 
ATOM     30  C   UNL A   1      40.804  28.126  27.705  1.00  0.00     0.016 A 
ATOM     31  C   UNL A   1      39.432  26.435  28.782  1.00  0.00     0.016 A 
ATOM     32  C   UNL A   1      40.662  28.960  28.811  1.00  0.00     0.010 A 
ATOM     33  C   UNL A   1      39.303  27.269  29.898  1.00  0.00     0.010 A 
ATOM     34  C   UNL A   1      39.946  28.519  29.931  1.00  0.00    -0.014 A 
BRANCH  34  35
ATOM     35  C   UNL A   1      40.008  29.303  31.187  1.00  0.00     0.031 A 
ATOM     36  C   UNL A   1      41.143  29.056  32.144  1.00  0.00     0.074 A 
ATOM     37  C   UNL A   1      39.097  30.258  31.448  1.00  0.00     0.049 A 
ATOM     38  N   UNL A   1      41.391  29.622  33.296  1.00  0.00    -0.248 NA
ATOM     39  C   UNL A   1      42.133  28.040  31.746  1.00  0.00     0.031 C 
ATOM     40  C   UNL A   1      37.987  30.629  30.573  1.00  0.00     0.029 A 
ATOM     41  N   UNL A   1      38.968  31.094  32.529  1.00  0.00    -0.354 N 
ATOM     42  C   UNL A   1      42.563  29.036  33.760  1.00  0.00     0.074 A 
ATOM     43  C   UNL A   1      42.962  28.048  32.782  1.00  0.00     0.031 C 
ATOM     44  C   UNL A   1      37.288  31.623  31.151  1.00  0.00     0.029 A 
ATOM     45  C   UNL A   1      37.883  31.933  32.450  1.00  0.00     0.049 A 
ATOM     46  H   UNL A   1      39.593  31.092  33.289  1.00  0.00     0.167 HD
ATOM     47  C   UNL A   1      43.251  29.302  34.895  1.00  0.00     0.031 A 
ATOM     48  C   UNL A   1      37.415  32.839  33.331  1.00  0.00     0.031 A 
ATOM     49  C   UNL A   1      42.846  30.275  35.875  1.00  0.00     0.049 A 
ATOM     50  C   UNL A   1      38.146  33.051  34.632  1.00  0.00     0.074 A 
ATOM     51  C   UNL A   1      43.477  30.616  37.058  1.00  0.00     0.029 A 
ATOM     52  N   UNL A   1      41.705  31.058  35.787  1.00  0.00    -0.354 N 
ATOM     53  N   UNL A   1      39.255  32.491  35.053  1.00  0.00    -0.248 NA
ATOM     54  C   UNL A   1      37.562  34.017  35.574  1.00  0.00     0.031 C 
ATOM     55  C   UNL A   1      42.690  31.569  37.713  1.00  0.00     0.029 A 
ATOM     56  C   UNL A   1      41.600  31.862  36.909  1.00  0.00     0.049 A 
ATOM     57  H   UNL A   1      41.067  31.045  35.039  1.00  0.00     0.167 HD
ATOM     58  C   UNL A   1      39.512  33.053  36.300  1.00  0.00     0.074 A 
ATOM     59  C   UNL A   1      38.451  34.005  36.558  1.00  0.00     0.031 C 
ATOM     60  C   UNL A   1      40.535  32.802  37.154  1.00  0.00     0.031 A 
BRANCH  47  61
ATOM     61  C   UNL A   1      44.505  28.513  35.156  1.00  0.00    -0.014 A 
ATOM     62  C   UNL A   1      44.460  27.290  35.848  1.00  0.00     0.010 A 
ATOM     63  C   UNL A   1      45.735  28.967  34.646  1.00  0.00     0.010 A 
ATOM     64  C   UNL A   1      45.626  26.547  36.046  1.00  0.00     0.020 A 
ATOM     65  C   UNL A   1      46.900  28.215  34.821  1.00  0.00     0.020 A 
ATOM     66  C   UNL A   1      46.838  27.013  35.528  1.00  0.00     0.054 A 
BRANCH  66  67
ATOM     67  S   UNL A   1      48.328  26.004  35.762  1.00  0.00     0.124 S 
ATOM     68  O   UNL A   1      49.221  26.544  34.739  1.00  0.00    -0.237 OA
ATOM     69  O   UNL A   1      48.702  26.303  37.142  1.00  0.00    -0.237 OA
ATOM     70  O   UNL A   1      47.864  24.640  35.526  1.00  0.00    -0.744 OA
ENDBRANCH  66  67
ENDBRANCH  47  61
BRANCH  48  71
ATOM     71  C   UNL A   1      36.178  33.607  33.021  1.00  0.00    -0.014 A 
ATOM     72  C   UNL A   1      34.910  33.024  33.192  1.00  0.00     0.010 A 
ATOM     73  C   UNL A   1      36.264  34.932  32.556  1.00  0.00     0.010 A 
ATOM     74  C   UNL A   1      33.752  33.749  32.893  1.00  0.00     0.020 A 
ATOM     75  C   UNL A   1      35.108  35.668  32.282  1.00  0.00     0.020 A 
ATOM     76  C   UNL A   1      33.858  35.068  32.444  1.00  0.00     0.054 A 
BRANCH  76  77
ATOM     77  S   UNL A   1      32.339  36.005  32.116  1.00  0.00     0.124 S 
ATOM     78  O   UNL A   1      32.610  37.270  32.791  1.00  0.00    -0.237 OA
ATOM     79  O   UNL A   1      32.314  36.058  30.656  1.00  0.00    -0.237 OA
ATOM     80  O   UNL A   1      31.294  35.182  32.719  1.00  0.00    -0.744 OA
ENDBRANCH  76  77
ENDBRANCH  48  71
BRANCH  60  81
ATOM     81  C   UNL A   1      40.576  33.577  38.444  1.00  0.00    -0.014 A 
ATOM     82  C   UNL A   1      41.195  34.837  38.511  1.00  0.00     0.010 A 
ATOM     83  C   UNL A   1      39.915  33.076  39.580  1.00  0.00     0.010 A 
ATOM     84  C   UNL A   1      41.168  35.575  39.698  1.00  0.00     0.020 A 
ATOM     85  C   UNL A   1      39.864  33.821  40.761  1.00  0.00     0.020 A 
ATOM     86  C   UNL A   1      40.500  35.062  40.815  1.00  0.00     0.054 A 
BRANCH  86  87
ATOM     87  S   UNL A   1      40.430  36.066  42.324  1.00  0.00     0.124 S 
ATOM     88  O   UNL A   1      41.328  37.171  41.996  1.00  0.00    -0.237 OA
ATOM     89  O   UNL A   1      39.014  36.413  42.414  1.00  0.00    -0.237 OA
ATOM     90  O   UNL A   1      40.912  35.162  43.366  1.00  0.00    -0.744 OA
ENDBRANCH  86  87
ENDBRANCH  60  81
ENDBRANCH  34  35
ENDBRANCH  27  29
ENDBRANCH  26  27
ENDBRANCH  25  26
ENDBRANCH   1  25
TORSDOF 18
ENDMDL
MODEL 2
REMARK VINA RESULT:     -10.6      4.954      6.098
REMARK SMILES Cc1cc2c(c(C)c1Br)C=C(C(=O)OCCOCCOC(=O)c1ccc(-c3c4nc(c(-c5ccc(S(=O)(=O)[O-])cc5)c5ccc([nH]5)c(-c5ccc(S(=O)(=O)[O-])cc5)c5nc(c(-c6ccc(S(=O)(=O)[O-])cc6)c6ccc3[nH]6)C=C5)C=C4)cc1)[C@@H](C(F)(F)F)O2
REMARK SMILES IDX 18 1 17 2 16 3 15 4 14 5 12 6 13 7 11 8 1 9 2 10 3 11 8 12
REMARK SMILES IDX 4 13 6 14 9 15 5 16 88 17 7 18 10 19 83 20 84 21 85 22 86 23
REMARK SMILES IDX 87 24 19 25 20 26 21 27 22 28 23 29 24 30 82 31 25 32 81 33
REMARK SMILES IDX 26 34 27 35 28 36 75 37 29 38 80 39 74 40 76 41 30 42 79 43
REMARK SMILES IDX 73 44 72 45 31 47 61 48 42 49 60 50 43 51 46 52 59 53 77 54
REMARK SMILES IDX 44 55 45 56 58 58 78 59 47 60 32 61 33 62 41 63 34 64 40 65
REMARK SMILES IDX 35 66 36 67 37 68 38 69 39 70 62 71 63 72 71 73 64 74 70 75
REMARK SMILES IDX 65 76 66 77 67 78 68 79 69 80 48 81 49 82 57 83 50 84 56 85
REMARK SMILES IDX 51 86 52 87 53 88 54 89 55 90
REMARK H PARENT 76 46 46 57
REMARK Flexibility Score: inf
ROOT
ATOM      1  C   UNL A   1      36.444  20.788  25.351  1.00  0.00     0.202 C 
ENDROOT
BRANCH   1   2
ATOM      2  O   UNL A   1      35.329  21.681  25.377  1.00  0.00    -0.374 OA
BRANCH   2   3
ATOM      3  C   UNL A   1      34.595  21.863  24.166  1.00  0.00     0.202 C 
BRANCH   3   4
ATOM      4  C   UNL A   1      33.342  22.739  24.243  1.00  0.00     0.261 C 
BRANCH   4   5
ATOM      5  O   UNL A   1      33.672  24.132  24.365  1.00  0.00    -0.460 OA
BRANCH   5   6
ATOM      6  C   UNL A   1      33.413  24.665  25.580  1.00  0.00     0.338 C 
ATOM      7  O   UNL A   1      33.624  24.151  26.669  1.00  0.00    -0.246 OA
BRANCH   6   8
ATOM      8  C   UNL A   1      32.949  26.057  25.429  1.00  0.00     0.087 C 
ATOM      9  C   UNL A   1      31.307  32.197  26.567  1.00  0.00     0.046 C 
ATOM     10  C   UNL A   1      32.040  30.895  26.376  1.00  0.00    -0.033 A 
ATOM     11  C   UNL A   1      31.451  29.913  25.569  1.00  0.00     0.051 A 
ATOM     12  C   UNL A   1      33.282  30.624  26.986  1.00  0.00     0.024 A 
ATOM     13  C   UNL A   1      32.031  28.655  25.434  1.00  0.00     0.128 A 
ATOM     14  C   UNL A   1      33.903  29.360  26.837  1.00  0.00    -0.026 A 
ATOM     15  Br  UNL A   1      34.097  31.995  28.047  1.00  0.00    -0.050 Br
ATOM     16  C   UNL A   1      33.225  28.357  26.096  1.00  0.00     0.021 A 
ATOM     17  O   UNL A   1      31.352  27.782  24.632  1.00  0.00    -0.475 OA
ATOM     18  C   UNL A   1      35.245  29.037  27.452  1.00  0.00     0.046 C 
ATOM     19  C   UNL A   1      33.692  26.975  26.060  1.00  0.00     0.027 C 
ATOM     20  C   UNL A   1      31.710  26.372  24.647  1.00  0.00     0.316 C 
BRANCH  20  21
ATOM     21  C   UNL A   1      30.487  25.571  25.115  1.00  0.00     0.430 C 
ATOM     22  F   UNL A   1      30.410  24.380  24.473  1.00  0.00    -0.167 F 
ATOM     23  F   UNL A   1      30.540  25.301  26.439  1.00  0.00    -0.167 F 
ATOM     24  F   UNL A   1      29.331  26.234  24.879  1.00  0.00    -0.167 F 
ENDBRANCH  20  21
ENDBRANCH   6   8
ENDBRANCH   5   6
ENDBRANCH   4   5
ENDBRANCH   3   4
ENDBRANCH   2   3
ENDBRANCH   1   2
BRANCH   1  25
ATOM     25  C   UNL A   1      37.804  21.362  24.939  1.00  0.00     0.261 C 
BRANCH  25  26
ATOM     26  O   UNL A   1      38.083  22.621  25.578  1.00  0.00    -0.460 OA
BRANCH  26  27
ATOM     27  C   UNL A   1      39.156  22.611  26.406  1.00  0.00     0.338 C 
ATOM     28  O   UNL A   1      39.908  21.670  26.625  1.00  0.00    -0.246 OA
BRANCH  27  29
ATOM     29  C   UNL A   1      39.433  23.973  26.892  1.00  0.00     0.060 A 
ATOM     30  C   UNL A   1      40.013  24.877  25.993  1.00  0.00     0.016 A 
ATOM     31  C   UNL A   1      39.219  24.332  28.223  1.00  0.00     0.016 A 
ATOM     32  C   UNL A   1      40.422  26.132  26.434  1.00  0.00     0.010 A 
ATOM     33  C   UNL A   1      39.645  25.589  28.667  1.00  0.00     0.010 A 
ATOM     34  C   UNL A   1      40.279  26.479  27.783  1.00  0.00    -0.014 A 
BRANCH  34  35
ATOM     35  C   UNL A   1      40.937  27.707  28.290  1.00  0.00     0.031 A 
ATOM     36  C   UNL A   1      42.436  27.814  28.214  1.00  0.00     0.074 A 
ATOM     37  C   UNL A   1      40.207  28.733  28.765  1.00  0.00     0.049 A 
ATOM     38  N   UNL A   1      43.216  28.790  28.599  1.00  0.00    -0.248 NA
ATOM     39  C   UNL A   1      43.151  26.672  27.617  1.00  0.00     0.031 C 
ATOM     40  C   UNL A   1      38.747  28.771  28.836  1.00  0.00     0.029 A 
ATOM     41  N   UNL A   1      40.600  29.946  29.273  1.00  0.00    -0.354 N 
ATOM     42  C   UNL A   1      44.509  28.384  28.292  1.00  0.00     0.074 A 
ATOM     43  C   UNL A   1      44.414  27.061  27.716  1.00  0.00     0.031 C 
ATOM     44  C   UNL A   1      38.366  29.951  29.357  1.00  0.00     0.029 A 
ATOM     45  C   UNL A   1      39.555  30.736  29.684  1.00  0.00     0.049 A 
ATOM     46  H   UNL A   1      41.543  30.223  29.336  1.00  0.00     0.167 HD
ATOM     47  C   UNL A   1      45.671  29.057  28.465  1.00  0.00     0.031 A 
ATOM     48  C   UNL A   1      39.556  31.949  30.272  1.00  0.00     0.031 A 
ATOM     49  C   UNL A   1      45.765  30.368  29.051  1.00  0.00     0.049 A 
ATOM     50  C   UNL A   1      40.870  32.638  30.541  1.00  0.00     0.074 A 
ATOM     51  C   UNL A   1      46.899  31.131  29.268  1.00  0.00     0.029 A 
ATOM     52  N   UNL A   1      44.688  31.107  29.514  1.00  0.00    -0.354 N 
ATOM     53  N   UNL A   1      42.084  32.242  30.240  1.00  0.00    -0.248 NA
ATOM     54  C   UNL A   1      40.812  33.936  31.228  1.00  0.00     0.031 C 
ATOM     55  C   UNL A   1      46.512  32.311  29.913  1.00  0.00     0.029 A 
ATOM     56  C   UNL A   1      45.132  32.306  30.042  1.00  0.00     0.049 A 
ATOM     57  H   UNL A   1      43.747  30.821  29.473  1.00  0.00     0.167 HD
ATOM     58  C   UNL A   1      42.932  33.252  30.682  1.00  0.00     0.074 A 
ATOM     59  C   UNL A   1      42.092  34.283  31.258  1.00  0.00     0.031 C 
ATOM     60  C   UNL A   1      44.285  33.320  30.617  1.00  0.00     0.031 A 
BRANCH  47  61
ATOM     61  C   UNL A   1      46.944  28.378  28.037  1.00  0.00    -0.014 A 
ATOM     62  C   UNL A   1      47.639  27.527  28.913  1.00  0.00     0.010 A 
ATOM     63  C   UNL A   1      47.415  28.542  26.722  1.00  0.00     0.010 A 
ATOM     64  C   UNL A   1      48.797  26.869  28.489  1.00  0.00     0.020 A 
ATOM     65  C   UNL A   1      48.559  27.867  26.286  1.00  0.00     0.020 A 
ATOM     66  C   UNL A   1      49.247  27.042  27.176  1.00  0.00     0.054 A 
BRANCH  66  67
ATOM     67  S   UNL A   1      50.727  26.139  26.641  1.00  0.00     0.124 S 
ATOM     68  O   UNL A   1      50.549  24.849  27.303  1.00  0.00    -0.237 OA
ATOM     69  O   UNL A   1      50.582  26.124  25.187  1.00  0.00    -0.237 OA
ATOM     70  O   UNL A   1      51.831  26.951  27.146  1.00  0.00    -0.744 OA
ENDBRANCH  66  67
ENDBRANCH  47  61
BRANCH  48  71
ATOM     71  C   UNL A   1      38.270  32.587  30.663  1.00  0.00    -0.014 A 
ATOM     72  C   UNL A   1      37.547  33.367  29.744  1.00  0.00     0.010 A 
ATOM     73  C   UNL A   1      37.757  32.411  31.962  1.00  0.00     0.010 A 
ATOM     74  C   UNL A   1      36.342  33.968  30.119  1.00  0.00     0.020 A 
ATOM     75  C   UNL A   1      36.540  32.989  32.332  1.00  0.00     0.020 A 
ATOM     76  C   UNL A   1      35.844  33.772  31.410  1.00  0.00     0.054 A 
BRANCH  76  77
ATOM     77  S   UNL A   1      34.251  34.518  31.855  1.00  0.00     0.124 S 
ATOM     78  O   UNL A   1      34.666  35.768  32.483  1.00  0.00    -0.237 OA
ATOM     79  O   UNL A   1      33.593  34.648  30.557  1.00  0.00    -0.237 OA
ATOM     80  O   UNL A   1      33.651  33.533  32.752  1.00  0.00    -0.744 OA
ENDBRANCH  76  77
ENDBRANCH  48  71
BRANCH  60  81
ATOM     81  C   UNL A   1      44.951  34.554  31.163  1.00  0.00    -0.014 A 
ATOM     82  C   UNL A   1      45.411  34.600  32.491  1.00  0.00     0.010 A 
ATOM     83  C   UNL A   1      45.193  35.650  30.314  1.00  0.00     0.010 A 
ATOM     84  C   UNL A   1      46.086  35.729  32.965  1.00  0.00     0.020 A 
ATOM     85  C   UNL A   1      45.889  36.769  30.777  1.00  0.00     0.020 A 
ATOM     86  C   UNL A   1      46.323  36.806  32.104  1.00  0.00     0.054 A 
BRANCH  86  87
ATOM     87  S   UNL A   1      47.252  38.232  32.729  1.00  0.00     0.124 S 
ATOM     88  O   UNL A   1      46.423  39.352  32.288  1.00  0.00    -0.237 OA
ATOM     89  O   UNL A   1      47.271  37.995  34.170  1.00  0.00    -0.237 OA
ATOM     90  O   UNL A   1      48.549  38.120  32.067  1.00  0.00    -0.744 OA
ENDBRANCH  86  87
ENDBRANCH  60  81
ENDBRANCH  34  35
ENDBRANCH  27  29
ENDBRANCH  26  27
ENDBRANCH  25  26
ENDBRANCH   1  25
TORSDOF 18
ENDMDL
MODEL 3
REMARK VINA RESULT:     -10.5      6.522     12.128
REMARK SMILES Cc1cc2c(c(C)c1Br)C=C(C(=O)OCCOCCOC(=O)c1ccc(-c3c4nc(c(-c5ccc(S(=O)(=O)[O-])cc5)c5ccc([nH]5)c(-c5ccc(S(=O)(=O)[O-])cc5)c5nc(c(-c6ccc(S(=O)(=O)[O-])cc6)c6ccc3[nH]6)C=C5)C=C4)cc1)[C@@H](C(F)(F)F)O2
REMARK SMILES IDX 18 1 17 2 16 3 15 4 14 5 12 6 13 7 11 8 1 9 2 10 3 11 8 12
REMARK SMILES IDX 4 13 6 14 9 15 5 16 88 17 7 18 10 19 83 20 84 21 85 22 86 23
REMARK SMILES IDX 87 24 19 25 20 26 21 27 22 28 23 29 24 30 82 31 25 32 81 33
REMARK SMILES IDX 26 34 27 35 28 36 75 37 29 38 80 39 74 40 76 41 30 42 79 43
REMARK SMILES IDX 73 44 72 45 31 47 61 48 42 49 60 50 43 51 46 52 59 53 77 54
REMARK SMILES IDX 44 55 45 56 58 58 78 59 47 60 32 61 33 62 41 63 34 64 40 65
REMARK SMILES IDX 35 66 36 67 37 68 38 69 39 70 62 71 63 72 71 73 64 74 70 75
REMARK SMILES IDX 65 76 66 77 67 78 68 79 69 80 48 81 49 82 57 83 50 84 56 85
REMARK SMILES IDX 51 86 52 87 53 88 54 89 55 90
REMARK H PARENT 76 46 46 57
REMARK Flexibility Score: inf
ROOT
ATOM      1  C   UNL A   1      35.002  32.219  28.061  1.00  0.00     0.202 C 
ENDROOT
BRANCH   1   2
ATOM      2  O   UNL A   1      34.591  30.891  28.389  1.00  0.00    -0.374 OA
BRANCH   2   3
ATOM      3  C   UNL A   1      34.575  29.922  27.341  1.00  0.00     0.202 C 
BRANCH   3   4
ATOM      4  C   UNL A   1      33.201  29.467  26.842  1.00  0.00     0.261 C 
BRANCH   4   5
ATOM      5  O   UNL A   1      33.121  28.037  26.734  1.00  0.00    -0.460 OA
BRANCH   5   6
ATOM      6  C   UNL A   1      31.923  27.514  27.079  1.00  0.00     0.338 C 
ATOM      7  O   UNL A   1      31.131  27.965  27.895  1.00  0.00    -0.246 OA
BRANCH   6   8
ATOM      8  C   UNL A   1      31.612  26.359  26.217  1.00  0.00     0.087 C 
ATOM      9  C   UNL A   1      32.082  21.142  22.441  1.00  0.00     0.046 C 
ATOM     10  C   UNL A   1      32.102  22.119  23.587  1.00  0.00    -0.033 A 
ATOM     11  C   UNL A   1      31.257  23.234  23.525  1.00  0.00     0.051 A 
ATOM     12  C   UNL A   1      32.945  21.961  24.708  1.00  0.00     0.024 A 
ATOM     13  C   UNL A   1      31.303  24.222  24.504  1.00  0.00     0.128 A 
ATOM     14  C   UNL A   1      32.983  22.940  25.729  1.00  0.00    -0.026 A 
ATOM     15  Br  UNL A   1      34.058  20.406  24.801  1.00  0.00    -0.050 Br
ATOM     16  C   UNL A   1      32.188  24.107  25.580  1.00  0.00     0.021 A 
ATOM     17  O   UNL A   1      30.439  25.266  24.322  1.00  0.00    -0.475 OA
ATOM     18  C   UNL A   1      33.852  22.799  26.958  1.00  0.00     0.046 C 
ATOM     19  C   UNL A   1      32.316  25.250  26.477  1.00  0.00     0.027 C 
ATOM     20  C   UNL A   1      30.599  26.472  25.118  1.00  0.00     0.316 C 
BRANCH  20  21
ATOM     21  C   UNL A   1      30.879  27.643  24.165  1.00  0.00     0.430 C 
ATOM     22  F   UNL A   1      32.187  27.688  23.819  1.00  0.00    -0.167 F 
ATOM     23  F   UNL A   1      30.171  27.537  23.018  1.00  0.00    -0.167 F 
ATOM     24  F   UNL A   1      30.568  28.834  24.727  1.00  0.00    -0.167 F 
ENDBRANCH  20  21
ENDBRANCH   6   8
ENDBRANCH   5   6
ENDBRANCH   4   5
ENDBRANCH   3   4
ENDBRANCH   2   3
ENDBRANCH   1   2
BRANCH   1  25
ATOM     25  C   UNL A   1      35.410  33.141  29.215  1.00  0.00     0.261 C 
BRANCH  25  26
ATOM     26  O   UNL A   1      36.782  32.953  29.608  1.00  0.00    -0.460 OA
BRANCH  26  27
ATOM     27  C   UNL A   1      36.983  31.955  30.502  1.00  0.00     0.338 C 
ATOM     28  O   UNL A   1      36.261  31.651  31.443  1.00  0.00    -0.246 OA
BRANCH  27  29
ATOM     29  C   UNL A   1      38.125  31.125  30.084  1.00  0.00     0.060 A 
ATOM     30  C   UNL A   1      39.194  30.994  30.980  1.00  0.00     0.016 A 
ATOM     31  C   UNL A   1      38.193  30.561  28.809  1.00  0.00     0.016 A 
ATOM     32  C   UNL A   1      40.356  30.337  30.586  1.00  0.00     0.010 A 
ATOM     33  C   UNL A   1      39.367  29.913  28.411  1.00  0.00     0.010 A 
ATOM     34  C   UNL A   1      40.465  29.830  29.285  1.00  0.00    -0.014 A 
BRANCH  34  35
ATOM     35  C   UNL A   1      41.783  29.356  28.799  1.00  0.00     0.031 A 
ATOM     36  C   UNL A   1      42.929  30.328  28.741  1.00  0.00     0.074 A 
ATOM     37  C   UNL A   1      41.970  28.066  28.464  1.00  0.00     0.049 A 
ATOM     38  N   UNL A   1      44.161  30.132  28.347  1.00  0.00    -0.248 NA
ATOM     39  C   UNL A   1      42.653  31.704  29.191  1.00  0.00     0.031 C 
ATOM     40  C   UNL A   1      40.953  27.018  28.533  1.00  0.00     0.029 A 
ATOM     41  N   UNL A   1      43.089  27.419  28.001  1.00  0.00    -0.354 N 
ATOM     42  C   UNL A   1      44.807  31.353  28.504  1.00  0.00     0.074 A 
ATOM     43  C   UNL A   1      43.826  32.293  28.998  1.00  0.00     0.031 C 
ATOM     44  C   UNL A   1      41.496  25.856  28.129  1.00  0.00     0.029 A 
ATOM     45  C   UNL A   1      42.887  26.086  27.742  1.00  0.00     0.049 A 
ATOM     46  H   UNL A   1      43.954  27.870  27.867  1.00  0.00     0.167 HD
ATOM     47  C   UNL A   1      46.103  31.662  28.266  1.00  0.00     0.031 A 
ATOM     48  C   UNL A   1      43.724  25.158  27.237  1.00  0.00     0.031 A 
ATOM     49  C   UNL A   1      47.075  30.729  27.760  1.00  0.00     0.049 A 
ATOM     50  C   UNL A   1      45.137  25.549  26.890  1.00  0.00     0.074 A 
ATOM     51  C   UNL A   1      48.413  30.949  27.486  1.00  0.00     0.029 A 
ATOM     52  N   UNL A   1      46.813  29.404  27.450  1.00  0.00    -0.354 N 
ATOM     53  N   UNL A   1      45.733  26.708  27.049  1.00  0.00    -0.248 NA
ATOM     54  C   UNL A   1      45.990  24.509  26.299  1.00  0.00     0.031 C 
ATOM     55  C   UNL A   1      48.949  29.769  26.960  1.00  0.00     0.029 A 
ATOM     56  C   UNL A   1      47.959  28.800  26.961  1.00  0.00     0.049 A 
ATOM     57  H   UNL A   1      45.943  28.959  27.562  1.00  0.00     0.167 HD
ATOM     58  C   UNL A   1      47.036  26.528  26.595  1.00  0.00     0.074 A 
ATOM     59  C   UNL A   1      47.146  25.147  26.170  1.00  0.00     0.031 C 
ATOM     60  C   UNL A   1      48.050  27.426  26.537  1.00  0.00     0.031 A 
BRANCH  47  61
ATOM     61  C   UNL A   1      46.545  33.076  28.526  1.00  0.00    -0.014 A 
ATOM     62  C   UNL A   1      47.083  33.448  29.771  1.00  0.00     0.010 A 
ATOM     63  C   UNL A   1      46.483  34.029  27.494  1.00  0.00     0.010 A 
ATOM     64  C   UNL A   1      47.530  34.754  29.986  1.00  0.00     0.020 A 
ATOM     65  C   UNL A   1      46.950  35.331  27.697  1.00  0.00     0.020 A 
ATOM     66  C   UNL A   1      47.463  35.687  28.945  1.00  0.00     0.054 A 
BRANCH  66  67
ATOM     67  S   UNL A   1      48.092  37.363  29.240  1.00  0.00     0.124 S 
ATOM     68  O   UNL A   1      48.434  37.311  30.660  1.00  0.00    -0.237 OA
ATOM     69  O   UNL A   1      49.227  37.443  28.324  1.00  0.00    -0.237 OA
ATOM     70  O   UNL A   1      46.961  38.222  28.904  1.00  0.00    -0.744 OA
ENDBRANCH  66  67
ENDBRANCH  47  61
BRANCH  48  71
ATOM     71  C   UNL A   1      43.244  23.767  27.012  1.00  0.00    -0.014 A 
ATOM     72  C   UNL A   1      42.792  23.361  25.745  1.00  0.00     0.010 A 
ATOM     73  C   UNL A   1      43.242  22.838  28.069  1.00  0.00     0.010 A 
ATOM     74  C   UNL A   1      42.337  22.054  25.541  1.00  0.00     0.020 A 
ATOM     75  C   UNL A   1      42.813  21.525  27.863  1.00  0.00     0.020 A 
ATOM     76  C   UNL A   1      42.354  21.143  26.601  1.00  0.00     0.054 A 
BRANCH  76  77
ATOM     77  S   UNL A   1      41.810  19.439  26.297  1.00  0.00     0.124 S 
ATOM     78  O   UNL A   1      40.372  19.607  26.116  1.00  0.00    -0.237 OA
ATOM     79  O   UNL A   1      42.562  19.079  25.098  1.00  0.00    -0.237 OA
ATOM     80  O   UNL A   1      42.211  18.731  27.510  1.00  0.00    -0.744 OA
ENDBRANCH  76  77
ENDBRANCH  48  71
BRANCH  60  81
ATOM     81  C   UNL A   1      49.378  26.949  26.011  1.00  0.00    -0.014 A 
ATOM     82  C   UNL A   1      49.764  27.203  24.684  1.00  0.00     0.010 A 
ATOM     83  C   UNL A   1      50.284  26.312  26.880  1.00  0.00     0.010 A 
ATOM     84  C   UNL A   1      51.027  26.811  24.228  1.00  0.00     0.020 A 
ATOM     85  C   UNL A   1      51.555  25.942  26.435  1.00  0.00     0.020 A 
ATOM     86  C   UNL A   1      51.915  26.185  25.108  1.00  0.00     0.054 A 
BRANCH  86  87
ATOM     87  S   UNL A   1      53.568  25.741  24.507  1.00  0.00     0.124 S 
ATOM     88  O   UNL A   1      53.649  24.325  24.858  1.00  0.00    -0.237 OA
ATOM     89  O   UNL A   1      53.476  26.029  23.078  1.00  0.00    -0.237 OA
ATOM     90  O   UNL A   1      54.459  26.621  25.258  1.00  0.00    -0.744 OA
ENDBRANCH  86  87
ENDBRANCH  60  81
ENDBRANCH  34  35
ENDBRANCH  27  29
ENDBRANCH  26  27
ENDBRANCH  25  26
ENDBRANCH   1  25
TORSDOF 18
ENDMDL
