MODEL 1
REMARK VINA RESULT:     -10.8      0.000      0.000
REMARK SMILES CCCc1cc2c(cc1Cl)C=C(C(=O)OCCOCCOC(=O)c1ccc(-c3c4nc(c(-c5ccc(S(=O)(=O)[O-])cc5)c5ccc([nH]5)c(-c5ccc(S(=O)(=O)[O-])cc5)c5nc(c(-c6ccc(S(=O)(=O)[O-])cc6)c6ccc3[nH]6)C=C5)C=C4)cc1)[C@H](C(F)(F)F)O2
REMARK SMILES IDX 19 1 18 2 17 3 16 4 15 5 13 6 14 7 12 8 4 9 5 10 9 11 6 12
REMARK SMILES IDX 8 13 10 14 7 15 89 16 11 17 84 18 3 19 2 20 1 21 85 22 86 23
REMARK SMILES IDX 87 24 88 25 20 26 21 27 22 28 23 29 24 30 25 31 83 32 26 33
REMARK SMILES IDX 82 34 27 35 28 36 29 37 76 38 30 39 81 40 75 41 77 42 31 43
REMARK SMILES IDX 80 44 74 45 73 46 32 48 62 49 43 50 61 51 44 52 47 53 60 54
REMARK SMILES IDX 78 55 45 56 46 57 59 59 79 60 48 61 33 62 34 63 42 64 35 65
REMARK SMILES IDX 41 66 36 67 37 68 38 69 39 70 40 71 63 72 64 73 72 74 65 75
REMARK SMILES IDX 71 76 66 77 67 78 68 79 69 80 70 81 49 82 50 83 58 84 51 85
REMARK SMILES IDX 57 86 52 87 53 88 54 89 55 90 56 91
REMARK H PARENT 77 47 47 58
REMARK Flexibility Score: inf
ROOT
ATOM      1  C   UNL A   1      39.378  21.520  26.028  1.00  0.00     0.202 C 
ENDROOT
BRANCH   1   2
ATOM      2  O   UNL A   1      38.161  22.011  25.460  1.00  0.00    -0.374 OA
BRANCH   2   3
ATOM      3  C   UNL A   1      37.326  21.066  24.790  1.00  0.00     0.202 C 
BRANCH   3   4
ATOM      4  C   UNL A   1      35.932  20.842  25.382  1.00  0.00     0.261 C 
BRANCH   4   5
ATOM      5  O   UNL A   1      35.143  22.041  25.314  1.00  0.00    -0.460 OA
BRANCH   5   6
ATOM      6  C   UNL A   1      34.186  22.130  26.260  1.00  0.00     0.338 C 
ATOM      7  O   UNL A   1      34.021  21.368  27.201  1.00  0.00    -0.246 OA
BRANCH   6   8
ATOM      8  C   UNL A   1      33.410  23.370  26.085  1.00  0.00     0.087 C 
ATOM      9  C   UNL A   1      32.413  28.218  25.253  1.00  0.00    -0.026 A 
ATOM     10  C   UNL A   1      31.839  27.211  26.052  1.00  0.00     0.052 A 
ATOM     11  C   UNL A   1      33.389  27.840  24.315  1.00  0.00     0.045 A 
ATOM     12  C   UNL A   1      32.318  25.904  26.019  1.00  0.00     0.128 A 
ATOM     13  C   UNL A   1      33.846  26.520  24.258  1.00  0.00     0.032 A 
ATOM     14  Cl  UNL A   1      34.114  28.967  23.222  1.00  0.00    -0.084 Cl
ATOM     15  C   UNL A   1      33.339  25.563  25.138  1.00  0.00     0.019 A 
ATOM     16  O   UNL A   1      31.803  25.049  26.951  1.00  0.00    -0.475 OA
ATOM     17  C   UNL A   1      33.954  24.254  25.238  1.00  0.00     0.027 C 
ATOM     18  C   UNL A   1      32.141  23.635  26.856  1.00  0.00     0.316 C 
BRANCH   9  19
ATOM     19  C   UNL A   1      31.987  29.657  25.454  1.00  0.00     0.037 C 
BRANCH  19  20
ATOM     20  C   UNL A   1      31.946  30.124  26.920  1.00  0.00     0.001 C 
ATOM     21  C   UNL A   1      32.717  31.414  27.172  1.00  0.00     0.004 C 
ENDBRANCH  19  20
ENDBRANCH   9  19
BRANCH  18  22
ATOM     22  C   UNL A   1      30.907  22.858  26.346  1.00  0.00     0.430 C 
ATOM     23  F   UNL A   1      30.233  23.553  25.396  1.00  0.00    -0.167 F 
ATOM     24  F   UNL A   1      31.238  21.671  25.788  1.00  0.00    -0.167 F 
ATOM     25  F   UNL A   1      30.025  22.613  27.341  1.00  0.00    -0.167 F 
ENDBRANCH  18  22
ENDBRANCH   6   8
ENDBRANCH   5   6
ENDBRANCH   4   5
ENDBRANCH   3   4
ENDBRANCH   2   3
ENDBRANCH   1   2
BRANCH   1  26
ATOM     26  C   UNL A   1      40.161  22.471  26.945  1.00  0.00     0.261 C 
BRANCH  26  27
ATOM     27  O   UNL A   1      39.856  23.852  26.673  1.00  0.00    -0.460 OA
BRANCH  27  28
ATOM     28  C   UNL A   1      40.913  24.701  26.718  1.00  0.00     0.338 C 
ATOM     29  O   UNL A   1      41.853  24.743  25.940  1.00  0.00    -0.246 OA
BRANCH  28  30
ATOM     30  C   UNL A   1      40.647  25.754  27.722  1.00  0.00     0.060 A 
ATOM     31  C   UNL A   1      39.558  25.689  28.593  1.00  0.00     0.016 A 
ATOM     32  C   UNL A   1      41.533  26.840  27.778  1.00  0.00     0.016 A 
ATOM     33  C   UNL A   1      39.380  26.699  29.546  1.00  0.00     0.010 A 
ATOM     34  C   UNL A   1      41.352  27.845  28.728  1.00  0.00     0.010 A 
ATOM     35  C   UNL A   1      40.288  27.772  29.636  1.00  0.00    -0.014 A 
BRANCH  35  36
ATOM     36  C   UNL A   1      40.210  28.736  30.765  1.00  0.00     0.031 A 
ATOM     37  C   UNL A   1      41.120  28.638  31.953  1.00  0.00     0.074 A 
ATOM     38  C   UNL A   1      39.264  29.696  30.719  1.00  0.00     0.049 A 
ATOM     39  N   UNL A   1      41.195  29.433  32.991  1.00  0.00    -0.248 NA
ATOM     40  C   UNL A   1      42.062  27.510  31.990  1.00  0.00     0.031 C 
ATOM     41  C   UNL A   1      38.301  29.868  29.629  1.00  0.00     0.029 A 
ATOM     42  N   UNL A   1      38.958  30.708  31.596  1.00  0.00    -0.354 N 
ATOM     43  C   UNL A   1      42.203  28.917  33.796  1.00  0.00     0.074 A 
ATOM     44  C   UNL A   1      42.677  27.710  33.151  1.00  0.00     0.031 C 
ATOM     45  C   UNL A   1      37.541  30.943  29.882  1.00  0.00     0.029 A 
ATOM     46  C   UNL A   1      37.928  31.514  31.170  1.00  0.00     0.049 A 
ATOM     47  H   UNL A   1      39.431  30.843  32.449  1.00  0.00     0.167 HD
ATOM     48  C   UNL A   1      42.699  29.422  34.951  1.00  0.00     0.031 A 
ATOM     49  C   UNL A   1      37.356  32.593  31.742  1.00  0.00     0.031 A 
ATOM     50  C   UNL A   1      42.208  30.620  35.589  1.00  0.00     0.049 A 
ATOM     51  C   UNL A   1      37.894  33.104  33.050  1.00  0.00     0.074 A 
ATOM     52  C   UNL A   1      42.682  31.227  36.740  1.00  0.00     0.029 A 
ATOM     53  N   UNL A   1      41.141  31.387  35.146  1.00  0.00    -0.354 N 
ATOM     54  N   UNL A   1      38.904  32.652  33.754  1.00  0.00    -0.248 NA
ATOM     55  C   UNL A   1      37.230  34.277  33.636  1.00  0.00     0.031 C 
ATOM     56  C   UNL A   1      41.852  32.307  37.039  1.00  0.00     0.029 A 
ATOM     57  C   UNL A   1      40.917  32.436  36.025  1.00  0.00     0.049 A 
ATOM     58  H   UNL A   1      40.620  31.213  34.330  1.00  0.00     0.167 HD
ATOM     59  C   UNL A   1      39.012  33.498  34.851  1.00  0.00     0.074 A 
ATOM     60  C   UNL A   1      37.978  34.503  34.709  1.00  0.00     0.031 C 
ATOM     61  C   UNL A   1      39.890  33.441  35.882  1.00  0.00     0.031 A 
BRANCH  48  62
ATOM     62  C   UNL A   1      43.858  28.714  35.612  1.00  0.00    -0.014 A 
ATOM     63  C   UNL A   1      45.125  28.709  34.997  1.00  0.00     0.010 A 
ATOM     64  C   UNL A   1      43.651  27.916  36.751  1.00  0.00     0.010 A 
ATOM     65  C   UNL A   1      46.147  27.884  35.478  1.00  0.00     0.020 A 
ATOM     66  C   UNL A   1      44.680  27.114  37.255  1.00  0.00     0.020 A 
ATOM     67  C   UNL A   1      45.912  27.082  36.598  1.00  0.00     0.054 A 
BRANCH  67  68
ATOM     68  S   UNL A   1      47.230  25.975  37.173  1.00  0.00     0.124 S 
ATOM     69  O   UNL A   1      48.103  25.900  36.006  1.00  0.00    -0.237 OA
ATOM     70  O   UNL A   1      47.770  26.697  38.323  1.00  0.00    -0.237 OA
ATOM     71  O   UNL A   1      46.520  24.741  37.503  1.00  0.00    -0.744 OA
ENDBRANCH  67  68
ENDBRANCH  48  62
BRANCH  49  72
ATOM     72  C   UNL A   1      36.243  33.286  31.031  1.00  0.00    -0.014 A 
ATOM     73  C   UNL A   1      36.443  33.827  29.746  1.00  0.00     0.010 A 
ATOM     74  C   UNL A   1      35.006  33.485  31.669  1.00  0.00     0.010 A 
ATOM     75  C   UNL A   1      35.454  34.609  29.142  1.00  0.00     0.020 A 
ATOM     76  C   UNL A   1      34.000  34.235  31.050  1.00  0.00     0.020 A 
ATOM     77  C   UNL A   1      34.244  34.819  29.807  1.00  0.00     0.054 A 
BRANCH  77  78
ATOM     78  S   UNL A   1      33.003  35.891  29.030  1.00  0.00     0.124 S 
ATOM     79  O   UNL A   1      33.839  36.921  28.418  1.00  0.00    -0.237 OA
ATOM     80  O   UNL A   1      32.338  34.985  28.099  1.00  0.00    -0.237 OA
ATOM     81  O   UNL A   1      32.184  36.337  30.154  1.00  0.00    -0.744 OA
ENDBRANCH  77  78
ENDBRANCH  49  72
BRANCH  61  82
ATOM     82  C   UNL A   1      39.800  34.489  36.967  1.00  0.00    -0.014 A 
ATOM     83  C   UNL A   1      40.588  35.653  36.881  1.00  0.00     0.010 A 
ATOM     84  C   UNL A   1      39.059  34.254  38.139  1.00  0.00     0.010 A 
ATOM     85  C   UNL A   1      40.684  36.530  37.964  1.00  0.00     0.020 A 
ATOM     86  C   UNL A   1      39.123  35.149  39.212  1.00  0.00     0.020 A 
ATOM     87  C   UNL A   1      39.960  36.264  39.129  1.00  0.00     0.054 A 
BRANCH  87  88
ATOM     88  S   UNL A   1      40.149  37.380  40.547  1.00  0.00     0.124 S 
ATOM     89  O   UNL A   1      38.952  37.089  41.330  1.00  0.00    -0.237 OA
ATOM     90  O   UNL A   1      41.411  36.939  41.137  1.00  0.00    -0.237 OA
ATOM     91  O   UNL A   1      40.187  38.709  39.937  1.00  0.00    -0.744 OA
ENDBRANCH  87  88
ENDBRANCH  61  82
ENDBRANCH  35  36
ENDBRANCH  28  30
ENDBRANCH  27  28
ENDBRANCH  26  27
ENDBRANCH   1  26
TORSDOF 20
ENDMDL
MODEL 2
REMARK VINA RESULT:     -10.8      1.574      2.092
REMARK SMILES CCCc1cc2c(cc1Cl)C=C(C(=O)OCCOCCOC(=O)c1ccc(-c3c4nc(c(-c5ccc(S(=O)(=O)[O-])cc5)c5ccc([nH]5)c(-c5ccc(S(=O)(=O)[O-])cc5)c5nc(c(-c6ccc(S(=O)(=O)[O-])cc6)c6ccc3[nH]6)C=C5)C=C4)cc1)[C@H](C(F)(F)F)O2
REMARK SMILES IDX 19 1 18 2 17 3 16 4 15 5 13 6 14 7 12 8 4 9 5 10 9 11 6 12
REMARK SMILES IDX 8 13 10 14 7 15 89 16 11 17 84 18 3 19 2 20 1 21 85 22 86 23
REMARK SMILES IDX 87 24 88 25 20 26 21 27 22 28 23 29 24 30 25 31 83 32 26 33
REMARK SMILES IDX 82 34 27 35 28 36 29 37 76 38 30 39 81 40 75 41 77 42 31 43
REMARK SMILES IDX 80 44 74 45 73 46 32 48 62 49 43 50 61 51 44 52 47 53 60 54
REMARK SMILES IDX 78 55 45 56 46 57 59 59 79 60 48 61 33 62 34 63 42 64 35 65
REMARK SMILES IDX 41 66 36 67 37 68 38 69 39 70 40 71 63 72 64 73 72 74 65 75
REMARK SMILES IDX 71 76 66 77 67 78 68 79 69 80 70 81 49 82 50 83 58 84 51 85
REMARK SMILES IDX 57 86 52 87 53 88 54 89 55 90 56 91
REMARK H PARENT 77 47 47 58
REMARK Flexibility Score: inf
ROOT
ATOM      1  C   UNL A   1      38.180  22.125  25.723  1.00  0.00     0.202 C 
ENDROOT
BRANCH   1   2
ATOM      2  O   UNL A   1      36.920  22.786  25.872  1.00  0.00    -0.374 OA
BRANCH   2   3
ATOM      3  C   UNL A   1      35.746  21.978  25.785  1.00  0.00     0.202 C 
BRANCH   3   4
ATOM      4  C   UNL A   1      34.573  22.374  26.685  1.00  0.00     0.261 C 
BRANCH   4   5
ATOM      5  O   UNL A   1      33.323  22.253  25.988  1.00  0.00    -0.460 OA
BRANCH   5   6
ATOM      6  C   UNL A   1      32.360  23.091  26.424  1.00  0.00     0.338 C 
ATOM      7  O   UNL A   1      31.869  23.115  27.543  1.00  0.00    -0.246 OA
BRANCH   6   8
ATOM      8  C   UNL A   1      32.047  24.091  25.389  1.00  0.00     0.087 C 
ATOM      9  C   UNL A   1      30.285  28.295  23.289  1.00  0.00    -0.026 A 
ATOM     10  C   UNL A   1      30.423  26.959  22.867  1.00  0.00     0.052 A 
ATOM     11  C   UNL A   1      30.902  28.674  24.494  1.00  0.00     0.045 A 
ATOM     12  C   UNL A   1      31.028  26.005  23.682  1.00  0.00     0.128 A 
ATOM     13  C   UNL A   1      31.540  27.722  25.296  1.00  0.00     0.032 A 
ATOM     14  Cl  UNL A   1      30.874  30.300  25.082  1.00  0.00    -0.084 Cl
ATOM     15  C   UNL A   1      31.565  26.382  24.908  1.00  0.00     0.019 A 
ATOM     16  O   UNL A   1      30.958  24.712  23.249  1.00  0.00    -0.475 OA
ATOM     17  C   UNL A   1      32.025  25.358  25.825  1.00  0.00     0.027 C 
ATOM     18  C   UNL A   1      31.716  23.698  23.971  1.00  0.00     0.316 C 
BRANCH   9  19
ATOM     19  C   UNL A   1      29.462  29.255  22.456  1.00  0.00     0.037 C 
BRANCH  19  20
ATOM     20  C   UNL A   1      28.018  29.464  22.944  1.00  0.00     0.001 C 
ATOM     21  C   UNL A   1      27.709  30.904  23.337  1.00  0.00     0.004 C 
ENDBRANCH  19  20
ENDBRANCH   9  19
BRANCH  18  22
ATOM     22  C   UNL A   1      32.935  23.281  23.120  1.00  0.00     0.430 C 
ATOM     23  F   UNL A   1      33.041  21.932  23.021  1.00  0.00    -0.167 F 
ATOM     24  F   UNL A   1      32.866  23.752  21.853  1.00  0.00    -0.167 F 
ATOM     25  F   UNL A   1      34.095  23.718  23.660  1.00  0.00    -0.167 F 
ENDBRANCH  18  22
ENDBRANCH   6   8
ENDBRANCH   5   6
ENDBRANCH   4   5
ENDBRANCH   3   4
ENDBRANCH   2   3
ENDBRANCH   1   2
BRANCH   1  26
ATOM     26  C   UNL A   1      39.376  22.709  26.489  1.00  0.00     0.261 C 
BRANCH  26  27
ATOM     27  O   UNL A   1      39.394  24.148  26.443  1.00  0.00    -0.460 OA
BRANCH  27  28
ATOM     28  C   UNL A   1      40.585  24.726  26.737  1.00  0.00     0.338 C 
ATOM     29  O   UNL A   1      41.639  24.578  26.139  1.00  0.00    -0.246 OA
BRANCH  28  30
ATOM     30  C   UNL A   1      40.378  25.771  27.763  1.00  0.00     0.060 A 
ATOM     31  C   UNL A   1      39.321  25.717  28.673  1.00  0.00     0.016 A 
ATOM     32  C   UNL A   1      41.286  26.839  27.797  1.00  0.00     0.016 A 
ATOM     33  C   UNL A   1      39.199  26.719  29.643  1.00  0.00     0.010 A 
ATOM     34  C   UNL A   1      41.161  27.836  28.765  1.00  0.00     0.010 A 
ATOM     35  C   UNL A   1      40.130  27.773  29.711  1.00  0.00    -0.014 A 
BRANCH  35  36
ATOM     36  C   UNL A   1      40.113  28.725  30.853  1.00  0.00     0.031 A 
ATOM     37  C   UNL A   1      41.065  28.596  32.005  1.00  0.00     0.074 A 
ATOM     38  C   UNL A   1      39.184  29.703  30.853  1.00  0.00     0.049 A 
ATOM     39  N   UNL A   1      41.194  29.376  33.048  1.00  0.00    -0.248 NA
ATOM     40  C   UNL A   1      41.985  27.449  31.994  1.00  0.00     0.031 C 
ATOM     41  C   UNL A   1      38.186  29.907  29.802  1.00  0.00     0.029 A 
ATOM     42  N   UNL A   1      38.932  30.710  31.752  1.00  0.00    -0.354 N 
ATOM     43  C   UNL A   1      42.221  28.832  33.808  1.00  0.00     0.074 A 
ATOM     44  C   UNL A   1      42.646  27.623  33.134  1.00  0.00     0.031 C 
ATOM     45  C   UNL A   1      37.457  30.993  30.095  1.00  0.00     0.029 A 
ATOM     46  C   UNL A   1      37.902  31.541  31.375  1.00  0.00     0.049 A 
ATOM     47  H   UNL A   1      39.439  30.826  32.588  1.00  0.00     0.167 HD
ATOM     48  C   UNL A   1      42.769  29.313  34.950  1.00  0.00     0.031 A 
ATOM     49  C   UNL A   1      37.373  32.624  31.979  1.00  0.00     0.031 A 
ATOM     50  C   UNL A   1      42.326  30.513  35.619  1.00  0.00     0.049 A 
ATOM     51  C   UNL A   1      37.969  33.109  33.271  1.00  0.00     0.074 A 
ATOM     52  C   UNL A   1      42.854  31.097  36.759  1.00  0.00     0.029 A 
ATOM     53  N   UNL A   1      41.259  31.305  35.226  1.00  0.00    -0.354 N 
ATOM     54  N   UNL A   1      38.996  32.629  33.932  1.00  0.00    -0.248 NA
ATOM     55  C   UNL A   1      37.351  34.288  33.895  1.00  0.00     0.031 C 
ATOM     56  C   UNL A   1      42.057  32.189  37.101  1.00  0.00     0.029 A 
ATOM     57  C   UNL A   1      41.088  32.348  36.123  1.00  0.00     0.049 A 
ATOM     58  H   UNL A   1      40.704  31.151  34.427  1.00  0.00     0.167 HD
ATOM     59  C   UNL A   1      39.162  33.460  35.034  1.00  0.00     0.074 A 
ATOM     60  C   UNL A   1      38.143  34.486  34.942  1.00  0.00     0.031 C 
ATOM     61  C   UNL A   1      40.076  33.374  36.030  1.00  0.00     0.031 A 
BRANCH  48  62
ATOM     62  C   UNL A   1      43.938  28.575  35.559  1.00  0.00    -0.014 A 
ATOM     63  C   UNL A   1      43.763  27.830  36.741  1.00  0.00     0.010 A 
ATOM     64  C   UNL A   1      45.238  28.759  35.055  1.00  0.00     0.010 A 
ATOM     65  C   UNL A   1      44.868  27.324  37.433  1.00  0.00     0.020 A 
ATOM     66  C   UNL A   1      46.344  28.227  35.728  1.00  0.00     0.020 A 
ATOM     67  C   UNL A   1      46.152  27.537  36.927  1.00  0.00     0.054 A 
BRANCH  67  68
ATOM     68  S   UNL A   1      47.577  26.924  37.869  1.00  0.00     0.124 S 
ATOM     69  O   UNL A   1      48.663  27.758  37.365  1.00  0.00    -0.237 OA
ATOM     70  O   UNL A   1      47.175  27.176  39.251  1.00  0.00    -0.237 OA
ATOM     71  O   UNL A   1      47.649  25.512  37.500  1.00  0.00    -0.744 OA
ENDBRANCH  67  68
ENDBRANCH  48  62
BRANCH  49  72
ATOM     72  C   UNL A   1      36.248  33.346  31.318  1.00  0.00    -0.014 A 
ATOM     73  C   UNL A   1      36.332  33.708  29.960  1.00  0.00     0.010 A 
ATOM     74  C   UNL A   1      35.128  33.752  32.064  1.00  0.00     0.010 A 
ATOM     75  C   UNL A   1      35.351  34.517  29.378  1.00  0.00     0.020 A 
ATOM     76  C   UNL A   1      34.126  34.531  31.474  1.00  0.00     0.020 A 
ATOM     77  C   UNL A   1      34.262  34.935  30.145  1.00  0.00     0.054 A 
BRANCH  77  78
ATOM     78  S   UNL A   1      33.038  36.038  29.386  1.00  0.00     0.124 S 
ATOM     79  O   UNL A   1      32.375  35.143  28.440  1.00  0.00    -0.237 OA
ATOM     80  O   UNL A   1      32.231  36.454  30.530  1.00  0.00    -0.237 OA
ATOM     81  O   UNL A   1      33.852  37.091  28.784  1.00  0.00    -0.744 OA
ENDBRANCH  77  78
ENDBRANCH  49  72
BRANCH  61  82
ATOM     82  C   UNL A   1      40.047  34.410  37.129  1.00  0.00    -0.014 A 
ATOM     83  C   UNL A   1      39.278  34.180  38.286  1.00  0.00     0.010 A 
ATOM     84  C   UNL A   1      40.652  35.668  36.954  1.00  0.00     0.010 A 
ATOM     85  C   UNL A   1      39.064  35.202  39.215  1.00  0.00     0.020 A 
ATOM     86  C   UNL A   1      40.471  36.682  37.900  1.00  0.00     0.020 A 
ATOM     87  C   UNL A   1      39.652  36.452  39.008  1.00  0.00     0.054 A 
BRANCH  87  88
ATOM     88  S   UNL A   1      39.309  37.784  40.191  1.00  0.00     0.124 S 
ATOM     89  O   UNL A   1      38.206  38.491  39.548  1.00  0.00    -0.237 OA
ATOM     90  O   UNL A   1      38.965  37.052  41.407  1.00  0.00    -0.237 OA
ATOM     91  O   UNL A   1      40.570  38.522  40.254  1.00  0.00    -0.744 OA
ENDBRANCH  87  88
ENDBRANCH  61  82
ENDBRANCH  35  36
ENDBRANCH  28  30
ENDBRANCH  27  28
ENDBRANCH  26  27
ENDBRANCH   1  26
TORSDOF 20
ENDMDL
MODEL 3
REMARK VINA RESULT:     -10.4      1.728      2.488
REMARK SMILES CCCc1cc2c(cc1Cl)C=C(C(=O)OCCOCCOC(=O)c1ccc(-c3c4nc(c(-c5ccc(S(=O)(=O)[O-])cc5)c5ccc([nH]5)c(-c5ccc(S(=O)(=O)[O-])cc5)c5nc(c(-c6ccc(S(=O)(=O)[O-])cc6)c6ccc3[nH]6)C=C5)C=C4)cc1)[C@H](C(F)(F)F)O2
REMARK SMILES IDX 19 1 18 2 17 3 16 4 15 5 13 6 14 7 12 8 4 9 5 10 9 11 6 12
REMARK SMILES IDX 8 13 10 14 7 15 89 16 11 17 84 18 3 19 2 20 1 21 85 22 86 23
REMARK SMILES IDX 87 24 88 25 20 26 21 27 22 28 23 29 24 30 25 31 83 32 26 33
REMARK SMILES IDX 82 34 27 35 28 36 29 37 76 38 30 39 81 40 75 41 77 42 31 43
REMARK SMILES IDX 80 44 74 45 73 46 32 48 62 49 43 50 61 51 44 52 47 53 60 54
REMARK SMILES IDX 78 55 45 56 46 57 59 59 79 60 48 61 33 62 34 63 42 64 35 65
REMARK SMILES IDX 41 66 36 67 37 68 38 69 39 70 40 71 63 72 64 73 72 74 65 75
REMARK SMILES IDX 71 76 66 77 67 78 68 79 69 80 70 81 49 82 50 83 58 84 51 85
REMARK SMILES IDX 57 86 52 87 53 88 54 89 55 90 56 91
REMARK H PARENT 77 47 47 58
REMARK Flexibility Score: inf
ROOT
ATOM      1  C   UNL A   1      42.665  22.477  26.530  1.00  0.00     0.202 C 
ENDROOT
BRANCH   1   2
ATOM      2  O   UNL A   1      41.271  22.499  26.848  1.00  0.00    -0.374 OA
BRANCH   2   3
ATOM      3  C   UNL A   1      40.376  21.926  25.895  1.00  0.00     0.202 C 
BRANCH   3   4
ATOM      4  C   UNL A   1      38.913  21.789  26.324  1.00  0.00     0.261 C 
BRANCH   4   5
ATOM      5  O   UNL A   1      38.032  22.384  25.357  1.00  0.00    -0.460 OA
BRANCH   5   6
ATOM      6  C   UNL A   1      36.962  21.626  25.041  1.00  0.00     0.338 C 
ATOM      7  O   UNL A   1      36.941  20.410  24.926  1.00  0.00    -0.246 OA
BRANCH   6   8
ATOM      8  C   UNL A   1      35.750  22.461  24.967  1.00  0.00     0.087 C 
ATOM      9  C   UNL A   1      32.508  25.910  23.299  1.00  0.00    -0.026 A 
ATOM     10  C   UNL A   1      32.878  25.430  24.570  1.00  0.00     0.052 A 
ATOM     11  C   UNL A   1      32.975  25.215  22.169  1.00  0.00     0.045 A 
ATOM     12  C   UNL A   1      33.792  24.388  24.709  1.00  0.00     0.128 A 
ATOM     13  C   UNL A   1      33.866  24.147  22.310  1.00  0.00     0.032 A 
ATOM     14  Cl  UNL A   1      32.530  25.655  20.558  1.00  0.00    -0.084 Cl
ATOM     15  C   UNL A   1      34.305  23.762  23.578  1.00  0.00     0.019 A 
ATOM     16  O   UNL A   1      34.206  24.116  25.981  1.00  0.00    -0.475 OA
ATOM     17  C   UNL A   1      35.387  22.809  23.725  1.00  0.00     0.027 C 
ATOM     18  C   UNL A   1      35.027  22.933  26.204  1.00  0.00     0.316 C 
BRANCH   9  19
ATOM     19  C   UNL A   1      31.658  27.158  23.196  1.00  0.00     0.037 C 
BRANCH  19  20
ATOM     20  C   UNL A   1      32.401  28.411  22.698  1.00  0.00     0.001 C 
ATOM     21  C   UNL A   1      33.594  28.799  23.563  1.00  0.00     0.004 C 
ENDBRANCH  19  20
ENDBRANCH   9  19
BRANCH  18  22
ATOM     22  C   UNL A   1      34.171  21.851  26.898  1.00  0.00     0.430 C 
ATOM     23  F   UNL A   1      34.000  20.762  26.107  1.00  0.00    -0.167 F 
ATOM     24  F   UNL A   1      34.732  21.405  28.045  1.00  0.00    -0.167 F 
ATOM     25  F   UNL A   1      32.933  22.308  27.194  1.00  0.00    -0.167 F 
ENDBRANCH  18  22
ENDBRANCH   6   8
ENDBRANCH   5   6
ENDBRANCH   4   5
ENDBRANCH   3   4
ENDBRANCH   2   3
ENDBRANCH   1   2
BRANCH   1  26
ATOM     26  C   UNL A   1      43.162  23.477  25.475  1.00  0.00     0.261 C 
BRANCH  26  27
ATOM     27  O   UNL A   1      43.611  24.708  26.071  1.00  0.00    -0.460 OA
BRANCH  27  28
ATOM     28  C   UNL A   1      42.824  25.789  25.840  1.00  0.00     0.338 C 
ATOM     29  O   UNL A   1      42.187  26.028  24.826  1.00  0.00    -0.246 OA
BRANCH  28  30
ATOM     30  C   UNL A   1      42.646  26.538  27.102  1.00  0.00     0.060 A 
ATOM     31  C   UNL A   1      43.300  27.748  27.345  1.00  0.00     0.016 A 
ATOM     32  C   UNL A   1      41.788  25.992  28.069  1.00  0.00     0.016 A 
ATOM     33  C   UNL A   1      43.062  28.427  28.545  1.00  0.00     0.010 A 
ATOM     34  C   UNL A   1      41.554  26.672  29.264  1.00  0.00     0.010 A 
ATOM     35  C   UNL A   1      42.171  27.907  29.503  1.00  0.00    -0.014 A 
BRANCH  35  36
ATOM     36  C   UNL A   1      41.773  28.717  30.685  1.00  0.00     0.031 A 
ATOM     37  C   UNL A   1      42.526  28.647  31.981  1.00  0.00     0.074 A 
ATOM     38  C   UNL A   1      40.682  29.501  30.582  1.00  0.00     0.049 A 
ATOM     39  N   UNL A   1      42.320  29.326  33.081  1.00  0.00    -0.248 NA
ATOM     40  C   UNL A   1      43.646  27.697  32.061  1.00  0.00     0.031 C 
ATOM     41  C   UNL A   1      39.852  29.625  29.382  1.00  0.00     0.029 A 
ATOM     42  N   UNL A   1      40.087  30.346  31.487  1.00  0.00    -0.354 N 
ATOM     43  C   UNL A   1      43.293  28.904  33.978  1.00  0.00     0.074 A 
ATOM     44  C   UNL A   1      44.059  27.871  33.311  1.00  0.00     0.031 C 
ATOM     45  C   UNL A   1      38.883  30.522  29.610  1.00  0.00     0.029 A 
ATOM     46  C   UNL A   1      38.989  31.007  30.984  1.00  0.00     0.049 A 
ATOM     47  H   UNL A   1      40.413  30.467  32.407  1.00  0.00     0.167 HD
ATOM     48  C   UNL A   1      43.536  29.358  35.231  1.00  0.00     0.031 A 
ATOM     49  C   UNL A   1      38.161  31.906  31.554  1.00  0.00     0.031 A 
ATOM     50  C   UNL A   1      42.757  30.380  35.889  1.00  0.00     0.049 A 
ATOM     51  C   UNL A   1      38.424  32.356  32.964  1.00  0.00     0.074 A 
ATOM     52  C   UNL A   1      42.959  30.930  37.144  1.00  0.00     0.029 A 
ATOM     53  N   UNL A   1      41.633  30.998  35.361  1.00  0.00    -0.354 N 
ATOM     54  N   UNL A   1      39.400  32.008  33.768  1.00  0.00    -0.248 NA
ATOM     55  C   UNL A   1      37.487  33.330  33.544  1.00  0.00     0.031 C 
ATOM     56  C   UNL A   1      41.914  31.816  37.408  1.00  0.00     0.029 A 
ATOM     57  C   UNL A   1      41.110  31.893  36.282  1.00  0.00     0.049 A 
ATOM     58  H   UNL A   1      41.262  30.827  34.466  1.00  0.00     0.167 HD
ATOM     59  C   UNL A   1      39.210  32.738  34.936  1.00  0.00     0.074 A 
ATOM     60  C   UNL A   1      38.037  33.561  34.729  1.00  0.00     0.031 C 
ATOM     61  C   UNL A   1      39.944  32.719  36.076  1.00  0.00     0.031 A 
BRANCH  48  62
ATOM     62  C   UNL A   1      44.710  28.789  35.993  1.00  0.00    -0.014 A 
ATOM     63  C   UNL A   1      44.516  27.732  36.901  1.00  0.00     0.010 A 
ATOM     64  C   UNL A   1      45.969  29.413  35.933  1.00  0.00     0.010 A 
ATOM     65  C   UNL A   1      45.541  27.340  37.768  1.00  0.00     0.020 A 
ATOM     66  C   UNL A   1      47.008  29.004  36.776  1.00  0.00     0.020 A 
ATOM     67  C   UNL A   1      46.777  27.989  37.708  1.00  0.00     0.054 A 
BRANCH  67  68
ATOM     68  S   UNL A   1      48.077  27.508  38.879  1.00  0.00     0.124 S 
ATOM     69  O   UNL A   1      48.640  26.320  38.247  1.00  0.00    -0.237 OA
ATOM     70  O   UNL A   1      48.940  28.687  38.895  1.00  0.00    -0.237 OA
ATOM     71  O   UNL A   1      47.345  27.268  40.122  1.00  0.00    -0.744 OA
ENDBRANCH  67  68
ENDBRANCH  48  62
BRANCH  49  72
ATOM     72  C   UNL A   1      37.041  32.472  30.749  1.00  0.00    -0.014 A 
ATOM     73  C   UNL A   1      37.258  33.575  29.900  1.00  0.00     0.010 A 
ATOM     74  C   UNL A   1      35.736  31.970  30.893  1.00  0.00     0.010 A 
ATOM     75  C   UNL A   1      36.184  34.205  29.264  1.00  0.00     0.020 A 
ATOM     76  C   UNL A   1      34.664  32.575  30.228  1.00  0.00     0.020 A 
ATOM     77  C   UNL A   1      34.891  33.707  29.445  1.00  0.00     0.054 A 
BRANCH  77  78
ATOM     78  S   UNL A   1      33.508  34.582  28.662  1.00  0.00     0.124 S 
ATOM     79  O   UNL A   1      32.996  33.569  27.742  1.00  0.00    -0.237 OA
ATOM     80  O   UNL A   1      32.645  34.894  29.798  1.00  0.00    -0.237 OA
ATOM     81  O   UNL A   1      34.145  35.735  28.030  1.00  0.00    -0.744 OA
ENDBRANCH  77  78
ENDBRANCH  49  72
BRANCH  61  82
ATOM     82  C   UNL A   1      39.525  33.612  37.219  1.00  0.00    -0.014 A 
ATOM     83  C   UNL A   1      40.060  34.911  37.323  1.00  0.00     0.010 A 
ATOM     84  C   UNL A   1      38.730  33.119  38.269  1.00  0.00     0.010 A 
ATOM     85  C   UNL A   1      39.857  35.676  38.475  1.00  0.00     0.020 A 
ATOM     86  C   UNL A   1      38.493  33.895  39.408  1.00  0.00     0.020 A 
ATOM     87  C   UNL A   1      39.085  35.156  39.517  1.00  0.00     0.054 A 
BRANCH  87  88
ATOM     88  S   UNL A   1      38.889  36.137  41.030  1.00  0.00     0.124 S 
ATOM     89  O   UNL A   1      40.178  35.951  41.688  1.00  0.00    -0.237 OA
ATOM     90  O   UNL A   1      38.634  37.479  40.512  1.00  0.00    -0.237 OA
ATOM     91  O   UNL A   1      37.750  35.510  41.702  1.00  0.00    -0.744 OA
ENDBRANCH  87  88
ENDBRANCH  61  82
ENDBRANCH  35  36
ENDBRANCH  28  30
ENDBRANCH  27  28
ENDBRANCH  26  27
ENDBRANCH   1  26
TORSDOF 20
ENDMDL
