MODEL 1
REMARK VINA RESULT:      -9.7      0.000      0.000
REMARK SMILES C[C@@H]1CCN(c2cncc(C(=O)OCCOCCOC(=O)c3ccc(-c4c5nc(c(-c6ccc(S(=O)(=O)[O-])cc6)c6ccc([nH]6)c(-c6ccc(S(=O)(=O)[O-])cc6)c6nc(c(-c7ccc(S(=O)(=O)[O-])cc7)c7ccc4[nH]7)C=C6)C=C5)cc3)n2)[C@H](C)C1
REMARK SMILES IDX 17 1 16 2 15 3 14 4 13 5 11 6 12 7 10 8 6 9 7 10 82 11 8 12
REMARK SMILES IDX 9 13 5 14 1 15 2 16 3 17 85 18 4 19 83 20 84 21 18 22 19 23
REMARK SMILES IDX 20 24 21 25 22 26 23 27 81 28 24 29 80 30 25 31 26 32 27 33
REMARK SMILES IDX 74 34 28 35 79 36 73 37 75 38 29 39 78 40 72 41 71 42 30 44
REMARK SMILES IDX 60 45 41 46 59 47 42 48 45 49 58 50 76 51 43 52 44 53 57 55
REMARK SMILES IDX 77 56 46 57 31 58 32 59 40 60 33 61 39 62 34 63 35 64 36 65
REMARK SMILES IDX 37 66 38 67 61 68 62 69 70 70 63 71 69 72 64 73 65 74 66 75
REMARK SMILES IDX 67 76 68 77 47 78 48 79 56 80 49 81 55 82 50 83 51 84 52 85
REMARK SMILES IDX 53 86 54 87
REMARK H PARENT 75 43 45 54
REMARK Flexibility Score: inf
ROOT
ATOM      1  C   UNL A   1      35.969  32.026  28.002  1.00  0.00     0.202 C 
ENDROOT
BRANCH   1   2
ATOM      2  O   UNL A   1      35.223  33.198  27.666  1.00  0.00    -0.374 OA
BRANCH   2   3
ATOM      3  C   UNL A   1      33.851  33.215  28.068  1.00  0.00     0.202 C 
BRANCH   3   4
ATOM      4  C   UNL A   1      33.298  34.588  28.467  1.00  0.00     0.261 C 
BRANCH   4   5
ATOM      5  O   UNL A   1      32.903  34.606  29.851  1.00  0.00    -0.458 OA
BRANCH   5   6
ATOM      6  C   UNL A   1      33.152  35.763  30.515  1.00  0.00     0.358 C 
ATOM      7  O   UNL A   1      32.553  36.822  30.389  1.00  0.00    -0.244 OA
BRANCH   6   8
ATOM      8  C   UNL A   1      34.119  35.527  31.610  1.00  0.00     0.169 A 
ATOM      9  C   UNL A   1      36.080  34.617  32.438  1.00  0.00     0.148 A 
ATOM     10  C   UNL A   1      35.644  35.011  33.714  1.00  0.00     0.157 A 
ATOM     11  N   UNL A   1      35.289  34.874  31.368  1.00  0.00    -0.221 NA
ATOM     12  N   UNL A   1      34.477  35.661  33.973  1.00  0.00    -0.258 NA
ATOM     13  C   UNL A   1      33.729  35.919  32.881  1.00  0.00     0.147 A 
BRANCH   9  14
ATOM     14  N   UNL A   1      37.308  34.018  32.235  1.00  0.00    -0.353 N 
ATOM     15  C   UNL A   1      40.385  31.892  31.472  1.00  0.00     0.008 C 
ATOM     16  C   UNL A   1      38.868  31.722  31.398  1.00  0.00    -0.011 C 
ATOM     17  C   UNL A   1      38.218  32.693  30.402  1.00  0.00     0.025 C 
ATOM     18  C   UNL A   1      38.193  31.800  32.781  1.00  0.00     0.028 C 
ATOM     19  C   UNL A   1      38.038  34.095  30.976  1.00  0.00     0.118 C 
ATOM     20  C   UNL A   1      37.888  33.215  33.317  1.00  0.00     0.081 C 
ATOM     21  C   UNL A   1      39.085  33.921  33.949  1.00  0.00     0.031 C 
ENDBRANCH   9  14
ENDBRANCH   6   8
ENDBRANCH   5   6
ENDBRANCH   4   5
ENDBRANCH   3   4
ENDBRANCH   2   3
ENDBRANCH   1   2
BRANCH   1  22
ATOM     22  C   UNL A   1      35.151  30.807  28.443  1.00  0.00     0.261 C 
BRANCH  22  23
ATOM     23  O   UNL A   1      35.921  29.595  28.372  1.00  0.00    -0.460 OA
BRANCH  23  24
ATOM     24  C   UNL A   1      36.730  29.368  29.431  1.00  0.00     0.338 C 
ATOM     25  O   UNL A   1      36.402  29.324  30.611  1.00  0.00    -0.246 OA
BRANCH  24  26
ATOM     26  C   UNL A   1      38.078  28.992  28.967  1.00  0.00     0.060 A 
ATOM     27  C   UNL A   1      38.933  28.382  29.894  1.00  0.00     0.016 A 
ATOM     28  C   UNL A   1      38.524  29.276  27.673  1.00  0.00     0.016 A 
ATOM     29  C   UNL A   1      40.252  28.100  29.548  1.00  0.00     0.010 A 
ATOM     30  C   UNL A   1      39.852  28.996  27.330  1.00  0.00     0.010 A 
ATOM     31  C   UNL A   1      40.731  28.439  28.276  1.00  0.00    -0.014 A 
BRANCH  31  32
ATOM     32  C   UNL A   1      42.181  28.331  27.985  1.00  0.00     0.031 A 
ATOM     33  C   UNL A   1      43.071  29.516  28.252  1.00  0.00     0.074 A 
ATOM     34  C   UNL A   1      42.705  27.185  27.511  1.00  0.00     0.049 A 
ATOM     35  N   UNL A   1      44.356  29.648  28.048  1.00  0.00    -0.248 NA
ATOM     36  C   UNL A   1      42.427  30.709  28.825  1.00  0.00     0.031 C 
ATOM     37  C   UNL A   1      41.954  25.958  27.247  1.00  0.00     0.029 A 
ATOM     38  N   UNL A   1      43.995  26.872  27.165  1.00  0.00    -0.354 N 
ATOM     39  C   UNL A   1      44.674  30.938  28.455  1.00  0.00     0.074 A 
ATOM     40  C   UNL A   1      43.443  31.558  28.895  1.00  0.00     0.031 C 
ATOM     41  C   UNL A   1      42.798  25.026  26.770  1.00  0.00     0.029 A 
ATOM     42  C   UNL A   1      44.138  25.599  26.665  1.00  0.00     0.049 A 
ATOM     43  H   UNL A   1      44.748  27.499  27.265  1.00  0.00     0.167 HD
ATOM     44  C   UNL A   1      45.882  31.551  28.466  1.00  0.00     0.031 A 
ATOM     45  C   UNL A   1      45.221  24.975  26.160  1.00  0.00     0.031 A 
ATOM     46  C   UNL A   1      47.103  30.935  28.022  1.00  0.00     0.049 A 
ATOM     47  C   UNL A   1      46.542  25.700  26.125  1.00  0.00     0.074 A 
ATOM     48  C   UNL A   1      48.381  31.467  28.016  1.00  0.00     0.029 A 
ATOM     49  N   UNL A   1      47.201  29.654  27.499  1.00  0.00    -0.354 N 
ATOM     50  N   UNL A   1      46.830  26.910  26.543  1.00  0.00    -0.248 NA
ATOM     51  C   UNL A   1      47.685  24.971  25.557  1.00  0.00     0.031 C 
ATOM     52  C   UNL A   1      49.242  30.530  27.437  1.00  0.00     0.029 A 
ATOM     53  C   UNL A   1      48.512  29.390  27.140  1.00  0.00     0.049 A 
ATOM     54  H   UNL A   1      46.449  29.027  27.398  1.00  0.00     0.167 HD
ATOM     55  C   UNL A   1      48.193  27.075  26.314  1.00  0.00     0.074 A 
ATOM     56  C   UNL A   1      48.673  25.838  25.735  1.00  0.00     0.031 C 
ATOM     57  C   UNL A   1      48.977  28.153  26.565  1.00  0.00     0.031 A 
BRANCH  44  58
ATOM     58  C   UNL A   1      45.937  32.977  28.946  1.00  0.00    -0.014 A 
ATOM     59  C   UNL A   1      46.190  33.285  30.295  1.00  0.00     0.010 A 
ATOM     60  C   UNL A   1      45.786  34.027  28.021  1.00  0.00     0.010 A 
ATOM     61  C   UNL A   1      46.262  34.616  30.715  1.00  0.00     0.020 A 
ATOM     62  C   UNL A   1      45.882  35.359  28.433  1.00  0.00     0.020 A 
ATOM     63  C   UNL A   1      46.106  35.644  29.781  1.00  0.00     0.054 A 
BRANCH  63  64
ATOM     64  S   UNL A   1      46.236  37.363  30.347  1.00  0.00     0.124 S 
ATOM     65  O   UNL A   1      44.857  37.660  30.727  1.00  0.00    -0.237 OA
ATOM     66  O   UNL A   1      47.183  37.265  31.454  1.00  0.00    -0.237 OA
ATOM     67  O   UNL A   1      46.726  38.080  29.173  1.00  0.00    -0.744 OA
ENDBRANCH  63  64
ENDBRANCH  44  58
BRANCH  45  68
ATOM     68  C   UNL A   1      45.099  23.593  25.619  1.00  0.00    -0.014 A 
ATOM     69  C   UNL A   1      45.316  22.474  26.441  1.00  0.00     0.010 A 
ATOM     70  C   UNL A   1      44.773  23.393  24.264  1.00  0.00     0.010 A 
ATOM     71  C   UNL A   1      45.231  21.181  25.915  1.00  0.00     0.020 A 
ATOM     72  C   UNL A   1      44.658  22.102  23.742  1.00  0.00     0.020 A 
ATOM     73  C   UNL A   1      44.902  21.003  24.568  1.00  0.00     0.054 A 
BRANCH  73  74
ATOM     74  S   UNL A   1      44.756  19.317  23.915  1.00  0.00     0.124 S 
ATOM     75  O   UNL A   1      44.562  19.560  22.490  1.00  0.00    -0.237 OA
ATOM     76  O   UNL A   1      46.036  18.721  24.289  1.00  0.00    -0.237 OA
ATOM     77  O   UNL A   1      43.596  18.777  24.623  1.00  0.00    -0.744 OA
ENDBRANCH  73  74
ENDBRANCH  45  68
BRANCH  57  78
ATOM     78  C   UNL A   1      50.445  28.036  26.250  1.00  0.00    -0.014 A 
ATOM     79  C   UNL A   1      50.949  28.364  24.979  1.00  0.00     0.010 A 
ATOM     80  C   UNL A   1      51.342  27.648  27.263  1.00  0.00     0.010 A 
ATOM     81  C   UNL A   1      52.319  28.277  24.718  1.00  0.00     0.020 A 
ATOM     82  C   UNL A   1      52.715  27.585  27.014  1.00  0.00     0.020 A 
ATOM     83  C   UNL A   1      53.194  27.887  25.738  1.00  0.00     0.054 A 
BRANCH  83  84
ATOM     84  S   UNL A   1      54.972  27.823  25.387  1.00  0.00     0.124 S 
ATOM     85  O   UNL A   1      55.349  29.231  25.471  1.00  0.00    -0.237 OA
ATOM     86  O   UNL A   1      55.482  26.971  26.459  1.00  0.00    -0.237 OA
ATOM     87  O   UNL A   1      55.041  27.239  24.049  1.00  0.00    -0.744 OA
ENDBRANCH  83  84
ENDBRANCH  57  78
ENDBRANCH  31  32
ENDBRANCH  24  26
ENDBRANCH  23  24
ENDBRANCH  22  23
ENDBRANCH   1  22
TORSDOF 18
ENDMDL
MODEL 2
REMARK VINA RESULT:      -9.6      6.724     13.493
REMARK SMILES C[C@@H]1CCN(c2cncc(C(=O)OCCOCCOC(=O)c3ccc(-c4c5nc(c(-c6ccc(S(=O)(=O)[O-])cc6)c6ccc([nH]6)c(-c6ccc(S(=O)(=O)[O-])cc6)c6nc(c(-c7ccc(S(=O)(=O)[O-])cc7)c7ccc4[nH]7)C=C6)C=C5)cc3)n2)[C@H](C)C1
REMARK SMILES IDX 17 1 16 2 15 3 14 4 13 5 11 6 12 7 10 8 6 9 7 10 82 11 8 12
REMARK SMILES IDX 9 13 5 14 1 15 2 16 3 17 85 18 4 19 83 20 84 21 18 22 19 23
REMARK SMILES IDX 20 24 21 25 22 26 23 27 81 28 24 29 80 30 25 31 26 32 27 33
REMARK SMILES IDX 74 34 28 35 79 36 73 37 75 38 29 39 78 40 72 41 71 42 30 44
REMARK SMILES IDX 60 45 41 46 59 47 42 48 45 49 58 50 76 51 43 52 44 53 57 55
REMARK SMILES IDX 77 56 46 57 31 58 32 59 40 60 33 61 39 62 34 63 35 64 36 65
REMARK SMILES IDX 37 66 38 67 61 68 62 69 70 70 63 71 69 72 64 73 65 74 66 75
REMARK SMILES IDX 67 76 68 77 47 78 48 79 56 80 49 81 55 82 50 83 51 84 52 85
REMARK SMILES IDX 53 86 54 87
REMARK H PARENT 75 43 45 54
REMARK Flexibility Score: inf
ROOT
ATOM      1  C   UNL A   1      39.048  21.602  26.147  1.00  0.00     0.202 C 
ENDROOT
BRANCH   1   2
ATOM      2  O   UNL A   1      38.164  22.226  25.213  1.00  0.00    -0.374 OA
BRANCH   2   3
ATOM      3  C   UNL A   1      36.895  22.644  25.722  1.00  0.00     0.202 C 
BRANCH   3   4
ATOM      4  C   UNL A   1      35.788  21.584  25.681  1.00  0.00     0.261 C 
BRANCH   4   5
ATOM      5  O   UNL A   1      34.487  22.194  25.605  1.00  0.00    -0.458 OA
BRANCH   5   6
ATOM      6  C   UNL A   1      33.829  22.028  24.430  1.00  0.00     0.358 C 
ATOM      7  O   UNL A   1      33.323  20.994  24.015  1.00  0.00    -0.244 OA
BRANCH   6   8
ATOM      8  C   UNL A   1      33.590  23.339  23.787  1.00  0.00     0.169 A 
ATOM      9  C   UNL A   1      32.957  25.564  23.867  1.00  0.00     0.148 A 
ATOM     10  C   UNL A   1      33.003  25.556  22.462  1.00  0.00     0.157 A 
ATOM     11  N   UNL A   1      33.247  24.422  24.537  1.00  0.00    -0.221 NA
ATOM     12  N   UNL A   1      33.341  24.482  21.699  1.00  0.00    -0.258 NA
ATOM     13  C   UNL A   1      33.645  23.372  22.403  1.00  0.00     0.147 A 
BRANCH   9  14
ATOM     14  N   UNL A   1      32.670  26.708  24.585  1.00  0.00    -0.353 N 
ATOM     15  C   UNL A   1      31.988  29.536  27.057  1.00  0.00     0.008 C 
ATOM     16  C   UNL A   1      32.355  28.054  27.133  1.00  0.00    -0.011 C 
ATOM     17  C   UNL A   1      33.728  27.758  26.513  1.00  0.00     0.025 C 
ATOM     18  C   UNL A   1      31.263  27.141  26.543  1.00  0.00     0.028 C 
ATOM     19  C   UNL A   1      33.683  27.673  24.991  1.00  0.00     0.118 C 
ATOM     20  C   UNL A   1      31.286  26.944  25.012  1.00  0.00     0.081 C 
ATOM     21  C   UNL A   1      30.649  28.083  24.221  1.00  0.00     0.031 C 
ENDBRANCH   9  14
ENDBRANCH   6   8
ENDBRANCH   5   6
ENDBRANCH   4   5
ENDBRANCH   3   4
ENDBRANCH   2   3
ENDBRANCH   1   2
BRANCH   1  22
ATOM     22  C   UNL A   1      40.297  22.402  26.534  1.00  0.00     0.261 C 
BRANCH  22  23
ATOM     23  O   UNL A   1      40.027  23.812  26.599  1.00  0.00    -0.460 OA
BRANCH  23  24
ATOM     24  C   UNL A   1      41.110  24.594  26.808  1.00  0.00     0.338 C 
ATOM     25  O   UNL A   1      42.195  24.513  26.246  1.00  0.00    -0.246 OA
BRANCH  24  26
ATOM     26  C   UNL A   1      40.763  25.711  27.707  1.00  0.00     0.060 A 
ATOM     27  C   UNL A   1      41.615  26.823  27.712  1.00  0.00     0.016 A 
ATOM     28  C   UNL A   1      39.663  25.657  28.567  1.00  0.00     0.016 A 
ATOM     29  C   UNL A   1      41.400  27.863  28.613  1.00  0.00     0.010 A 
ATOM     30  C   UNL A   1      39.454  26.701  29.475  1.00  0.00     0.010 A 
ATOM     31  C   UNL A   1      40.340  27.792  29.526  1.00  0.00    -0.014 A 
BRANCH  31  32
ATOM     32  C   UNL A   1      40.242  28.793  30.616  1.00  0.00     0.031 A 
ATOM     33  C   UNL A   1      41.146  28.663  31.813  1.00  0.00     0.074 A 
ATOM     34  C   UNL A   1      39.376  29.820  30.531  1.00  0.00     0.049 A 
ATOM     35  N   UNL A   1      41.210  29.408  32.886  1.00  0.00    -0.248 NA
ATOM     36  C   UNL A   1      42.102  27.545  31.798  1.00  0.00     0.031 C 
ATOM     37  C   UNL A   1      38.475  30.076  29.407  1.00  0.00     0.029 A 
ATOM     38  N   UNL A   1      39.112  30.838  31.412  1.00  0.00    -0.354 N 
ATOM     39  C   UNL A   1      42.203  28.845  33.679  1.00  0.00     0.074 A 
ATOM     40  C   UNL A   1      42.697  27.682  32.975  1.00  0.00     0.031 C 
ATOM     41  C   UNL A   1      37.750  31.177  29.673  1.00  0.00     0.029 A 
ATOM     42  C   UNL A   1      38.112  31.683  30.996  1.00  0.00     0.049 A 
ATOM     43  H   UNL A   1      39.594  30.952  32.264  1.00  0.00     0.167 HD
ATOM     44  C   UNL A   1      42.665  29.262  34.882  1.00  0.00     0.031 A 
ATOM     45  C   UNL A   1      37.536  32.731  31.618  1.00  0.00     0.031 A 
ATOM     46  C   UNL A   1      42.167  30.414  35.583  1.00  0.00     0.049 A 
ATOM     47  C   UNL A   1      38.026  33.138  32.985  1.00  0.00     0.074 A 
ATOM     48  C   UNL A   1      42.588  30.929  36.797  1.00  0.00     0.029 A 
ATOM     49  N   UNL A   1      41.136  31.228  35.139  1.00  0.00    -0.354 N 
ATOM     50  N   UNL A   1      38.988  32.613  33.706  1.00  0.00    -0.248 NA
ATOM     51  C   UNL A   1      37.356  34.284  33.617  1.00  0.00     0.031 C 
ATOM     52  C   UNL A   1      41.773  32.021  37.114  1.00  0.00     0.029 A 
ATOM     53  C   UNL A   1      40.887  32.223  36.068  1.00  0.00     0.049 A 
ATOM     54  H   UNL A   1      40.653  31.114  34.289  1.00  0.00     0.167 HD
ATOM     55  C   UNL A   1      39.057  33.382  34.864  1.00  0.00     0.074 A 
ATOM     56  C   UNL A   1      38.049  34.416  34.739  1.00  0.00     0.031 C 
ATOM     57  C   UNL A   1      39.882  33.248  35.931  1.00  0.00     0.031 A 
BRANCH  44  58
ATOM     58  C   UNL A   1      43.747  28.443  35.536  1.00  0.00    -0.014 A 
ATOM     59  C   UNL A   1      43.436  27.381  36.404  1.00  0.00     0.010 A 
ATOM     60  C   UNL A   1      45.096  28.708  35.235  1.00  0.00     0.010 A 
ATOM     61  C   UNL A   1      44.455  26.619  36.982  1.00  0.00     0.020 A 
ATOM     62  C   UNL A   1      46.116  27.932  35.790  1.00  0.00     0.020 A 
ATOM     63  C   UNL A   1      45.789  26.900  36.672  1.00  0.00     0.054 A 
BRANCH  63  64
ATOM     64  S   UNL A   1      47.090  25.873  37.410  1.00  0.00     0.124 S 
ATOM     65  O   UNL A   1      48.069  25.805  36.327  1.00  0.00    -0.237 OA
ATOM     66  O   UNL A   1      47.496  26.658  38.572  1.00  0.00    -0.237 OA
ATOM     67  O   UNL A   1      46.411  24.617  37.714  1.00  0.00    -0.744 OA
ENDBRANCH  63  64
ENDBRANCH  44  58
BRANCH  45  68
ATOM     68  C   UNL A   1      36.412  33.458  30.968  1.00  0.00    -0.014 A 
ATOM     69  C   UNL A   1      36.501  33.877  29.629  1.00  0.00     0.010 A 
ATOM     70  C   UNL A   1      35.242  33.745  31.697  1.00  0.00     0.010 A 
ATOM     71  C   UNL A   1      35.452  34.589  29.038  1.00  0.00     0.020 A 
ATOM     72  C   UNL A   1      34.180  34.430  31.101  1.00  0.00     0.020 A 
ATOM     73  C   UNL A   1      34.297  34.860  29.778  1.00  0.00     0.054 A 
BRANCH  73  74
ATOM     74  S   UNL A   1      32.931  35.747  28.980  1.00  0.00     0.124 S 
ATOM     75  O   UNL A   1      32.362  34.715  28.120  1.00  0.00    -0.237 OA
ATOM     76  O   UNL A   1      32.108  36.149  30.118  1.00  0.00    -0.237 OA
ATOM     77  O   UNL A   1      33.598  36.846  28.285  1.00  0.00    -0.744 OA
ENDBRANCH  73  74
ENDBRANCH  45  68
BRANCH  57  78
ATOM     78  C   UNL A   1      39.761  34.261  37.039  1.00  0.00    -0.014 A 
ATOM     79  C   UNL A   1      39.015  33.991  38.200  1.00  0.00     0.010 A 
ATOM     80  C   UNL A   1      40.455  35.482  36.939  1.00  0.00     0.010 A 
ATOM     81  C   UNL A   1      38.941  34.935  39.228  1.00  0.00     0.020 A 
ATOM     82  C   UNL A   1      40.405  36.417  37.976  1.00  0.00     0.020 A 
ATOM     83  C   UNL A   1      39.637  36.143  39.109  1.00  0.00     0.054 A 
BRANCH  83  84
ATOM     84  S   UNL A   1      39.560  37.334  40.475  1.00  0.00     0.124 S 
ATOM     85  O   UNL A   1      38.838  36.579  41.496  1.00  0.00    -0.237 OA
ATOM     86  O   UNL A   1      40.971  37.586  40.761  1.00  0.00    -0.237 OA
ATOM     87  O   UNL A   1      38.834  38.467  39.907  1.00  0.00    -0.744 OA
ENDBRANCH  83  84
ENDBRANCH  57  78
ENDBRANCH  31  32
ENDBRANCH  24  26
ENDBRANCH  23  24
ENDBRANCH  22  23
ENDBRANCH   1  22
TORSDOF 18
ENDMDL
MODEL 3
REMARK VINA RESULT:      -9.3      2.906      3.732
REMARK SMILES C[C@@H]1CCN(c2cncc(C(=O)OCCOCCOC(=O)c3ccc(-c4c5nc(c(-c6ccc(S(=O)(=O)[O-])cc6)c6ccc([nH]6)c(-c6ccc(S(=O)(=O)[O-])cc6)c6nc(c(-c7ccc(S(=O)(=O)[O-])cc7)c7ccc4[nH]7)C=C6)C=C5)cc3)n2)[C@H](C)C1
REMARK SMILES IDX 17 1 16 2 15 3 14 4 13 5 11 6 12 7 10 8 6 9 7 10 82 11 8 12
REMARK SMILES IDX 9 13 5 14 1 15 2 16 3 17 85 18 4 19 83 20 84 21 18 22 19 23
REMARK SMILES IDX 20 24 21 25 22 26 23 27 81 28 24 29 80 30 25 31 26 32 27 33
REMARK SMILES IDX 74 34 28 35 79 36 73 37 75 38 29 39 78 40 72 41 71 42 30 44
REMARK SMILES IDX 60 45 41 46 59 47 42 48 45 49 58 50 76 51 43 52 44 53 57 55
REMARK SMILES IDX 77 56 46 57 31 58 32 59 40 60 33 61 39 62 34 63 35 64 36 65
REMARK SMILES IDX 37 66 38 67 61 68 62 69 70 70 63 71 69 72 64 73 65 74 66 75
REMARK SMILES IDX 67 76 68 77 47 78 48 79 56 80 49 81 55 82 50 83 51 84 52 85
REMARK SMILES IDX 53 86 54 87
REMARK H PARENT 75 43 45 54
REMARK Flexibility Score: inf
ROOT
ATOM      1  C   UNL A   1      34.914  33.371  28.109  1.00  0.00     0.202 C 
ENDROOT
BRANCH   1   2
ATOM      2  O   UNL A   1      34.469  34.501  28.864  1.00  0.00    -0.374 OA
BRANCH   2   3
ATOM      3  C   UNL A   1      33.125  34.932  28.629  1.00  0.00     0.202 C 
BRANCH   3   4
ATOM      4  C   UNL A   1      32.733  36.257  29.293  1.00  0.00     0.261 C 
BRANCH   4   5
ATOM      5  O   UNL A   1      33.764  36.716  30.186  1.00  0.00    -0.458 OA
BRANCH   5   6
ATOM      6  C   UNL A   1      33.426  36.755  31.499  1.00  0.00     0.358 C 
ATOM      7  O   UNL A   1      32.704  37.578  32.044  1.00  0.00    -0.244 OA
BRANCH   6   8
ATOM      8  C   UNL A   1      33.866  35.517  32.179  1.00  0.00     0.169 A 
ATOM      9  C   UNL A   1      35.503  33.997  32.788  1.00  0.00     0.148 A 
ATOM     10  C   UNL A   1      34.466  33.171  33.254  1.00  0.00     0.157 A 
ATOM     11  N   UNL A   1      35.188  35.190  32.229  1.00  0.00    -0.221 NA
ATOM     12  N   UNL A   1      33.142  33.481  33.209  1.00  0.00    -0.258 NA
ATOM     13  C   UNL A   1      32.871  34.685  32.666  1.00  0.00     0.147 A 
BRANCH   9  14
ATOM     14  N   UNL A   1      36.833  33.651  32.924  1.00  0.00    -0.353 N 
ATOM     15  C   UNL A   1      40.431  32.810  33.884  1.00  0.00     0.008 C 
ATOM     16  C   UNL A   1      39.177  33.317  34.597  1.00  0.00    -0.011 C 
ATOM     17  C   UNL A   1      38.030  32.296  34.560  1.00  0.00     0.025 C 
ATOM     18  C   UNL A   1      38.720  34.696  34.086  1.00  0.00     0.028 C 
ATOM     19  C   UNL A   1      37.281  32.298  33.231  1.00  0.00     0.118 C 
ATOM     20  C   UNL A   1      37.850  34.702  32.810  1.00  0.00     0.081 C 
ATOM     21  C   UNL A   1      38.639  34.570  31.510  1.00  0.00     0.031 C 
ENDBRANCH   9  14
ENDBRANCH   6   8
ENDBRANCH   5   6
ENDBRANCH   4   5
ENDBRANCH   3   4
ENDBRANCH   2   3
ENDBRANCH   1   2
BRANCH   1  22
ATOM     22  C   UNL A   1      34.199  32.045  28.392  1.00  0.00     0.261 C 
BRANCH  22  23
ATOM     23  O   UNL A   1      34.383  31.103  27.322  1.00  0.00    -0.460 OA
BRANCH  23  24
ATOM     24  C   UNL A   1      34.663  29.839  27.714  1.00  0.00     0.338 C 
ATOM     25  O   UNL A   1      33.942  28.856  27.597  1.00  0.00    -0.246 OA
BRANCH  24  26
ATOM     26  C   UNL A   1      36.066  29.748  28.160  1.00  0.00     0.060 A 
ATOM     27  C   UNL A   1      37.063  29.977  27.203  1.00  0.00     0.016 A 
ATOM     28  C   UNL A   1      36.407  29.393  29.467  1.00  0.00     0.016 A 
ATOM     29  C   UNL A   1      38.404  29.802  27.536  1.00  0.00     0.010 A 
ATOM     30  C   UNL A   1      37.756  29.213  29.797  1.00  0.00     0.010 A 
ATOM     31  C   UNL A   1      38.758  29.383  28.825  1.00  0.00    -0.014 A 
BRANCH  31  32
ATOM     32  C   UNL A   1      40.160  28.996  29.113  1.00  0.00     0.031 A 
ATOM     33  C   UNL A   1      41.074  29.997  29.770  1.00  0.00     0.074 A 
ATOM     34  C   UNL A   1      40.609  27.763  28.817  1.00  0.00     0.049 A 
ATOM     35  N   UNL A   1      42.337  29.879  30.088  1.00  0.00    -0.248 NA
ATOM     36  C   UNL A   1      40.486  31.302  30.113  1.00  0.00     0.031 C 
ATOM     37  C   UNL A   1      39.812  26.694  28.215  1.00  0.00     0.029 A 
ATOM     38  N   UNL A   1      41.851  27.203  28.982  1.00  0.00    -0.354 N 
ATOM     39  C   UNL A   1      42.699  31.094  30.657  1.00  0.00     0.074 A 
ATOM     40  C   UNL A   1      41.530  31.944  30.618  1.00  0.00     0.031 C 
ATOM     41  C   UNL A   1      40.589  25.610  28.052  1.00  0.00     0.029 A 
ATOM     42  C   UNL A   1      41.944  25.917  28.508  1.00  0.00     0.049 A 
ATOM     43  H   UNL A   1      42.605  27.679  29.401  1.00  0.00     0.167 HD
ATOM     44  C   UNL A   1      43.896  31.467  31.170  1.00  0.00     0.031 A 
ATOM     45  C   UNL A   1      43.005  25.089  28.428  1.00  0.00     0.031 A 
ATOM     46  C   UNL A   1      45.060  30.622  31.201  1.00  0.00     0.049 A 
ATOM     47  C   UNL A   1      44.342  25.549  28.948  1.00  0.00     0.074 A 
ATOM     48  C   UNL A   1      46.312  30.903  31.721  1.00  0.00     0.029 A 
ATOM     49  N   UNL A   1      45.119  29.335  30.687  1.00  0.00    -0.354 N 
ATOM     50  N   UNL A   1      44.659  26.691  29.512  1.00  0.00    -0.248 NA
ATOM     51  C   UNL A   1      45.463  24.605  28.829  1.00  0.00     0.031 C 
ATOM     52  C   UNL A   1      47.144  29.807  31.470  1.00  0.00     0.029 A 
ATOM     53  C   UNL A   1      46.394  28.821  30.851  1.00  0.00     0.049 A 
ATOM     54  H   UNL A   1      44.367  28.860  30.267  1.00  0.00     0.167 HD
ATOM     55  C   UNL A   1      46.008  26.591  29.839  1.00  0.00     0.074 A 
ATOM     56  C   UNL A   1      46.442  25.273  29.424  1.00  0.00     0.031 C 
ATOM     57  C   UNL A   1      46.813  27.505  30.434  1.00  0.00     0.031 A 
BRANCH  44  58
ATOM     58  C   UNL A   1      44.018  32.867  31.712  1.00  0.00    -0.014 A 
ATOM     59  C   UNL A   1      44.112  33.976  30.853  1.00  0.00     0.010 A 
ATOM     60  C   UNL A   1      43.986  33.078  33.102  1.00  0.00     0.010 A 
ATOM     61  C   UNL A   1      44.201  35.270  31.376  1.00  0.00     0.020 A 
ATOM     62  C   UNL A   1      44.048  34.371  33.628  1.00  0.00     0.020 A 
ATOM     63  C   UNL A   1      44.169  35.458  32.761  1.00  0.00     0.054 A 
BRANCH  63  64
ATOM     64  S   UNL A   1      44.252  37.149  33.412  1.00  0.00     0.124 S 
ATOM     65  O   UNL A   1      45.088  36.974  34.598  1.00  0.00    -0.237 OA
ATOM     66  O   UNL A   1      44.870  37.886  32.313  1.00  0.00    -0.237 OA
ATOM     67  O   UNL A   1      42.857  37.488  33.679  1.00  0.00    -0.744 OA
ENDBRANCH  63  64
ENDBRANCH  44  58
BRANCH  45  68
ATOM     68  C   UNL A   1      42.854  23.744  27.807  1.00  0.00    -0.014 A 
ATOM     69  C   UNL A   1      43.097  23.550  26.436  1.00  0.00     0.010 A 
ATOM     70  C   UNL A   1      42.454  22.646  28.592  1.00  0.00     0.010 A 
ATOM     71  C   UNL A   1      42.920  22.289  25.857  1.00  0.00     0.020 A 
ATOM     72  C   UNL A   1      42.306  21.379  28.023  1.00  0.00     0.020 A 
ATOM     73  C   UNL A   1      42.526  21.211  26.655  1.00  0.00     0.054 A 
BRANCH  73  74
ATOM     74  S   UNL A   1      42.345  19.575  25.892  1.00  0.00     0.124 S 
ATOM     75  O   UNL A   1      40.950  19.593  25.466  1.00  0.00    -0.237 OA
ATOM     76  O   UNL A   1      43.336  19.614  24.820  1.00  0.00    -0.237 OA
ATOM     77  O   UNL A   1      42.656  18.654  26.984  1.00  0.00    -0.744 OA
ENDBRANCH  73  74
ENDBRANCH  45  68
BRANCH  57  78
ATOM     78  C   UNL A   1      48.240  27.107  30.707  1.00  0.00    -0.014 A 
ATOM     79  C   UNL A   1      49.286  27.504  29.856  1.00  0.00     0.010 A 
ATOM     80  C   UNL A   1      48.542  26.372  31.868  1.00  0.00     0.010 A 
ATOM     81  C   UNL A   1      50.606  27.147  30.145  1.00  0.00     0.020 A 
ATOM     82  C   UNL A   1      49.863  26.036  32.175  1.00  0.00     0.020 A 
ATOM     83  C   UNL A   1      50.886  26.414  31.304  1.00  0.00     0.054 A 
BRANCH  83  84
ATOM     84  S   UNL A   1      52.612  26.001  31.680  1.00  0.00     0.124 S 
ATOM     85  O   UNL A   1      52.464  24.809  32.511  1.00  0.00    -0.237 OA
ATOM     86  O   UNL A   1      53.185  25.775  30.355  1.00  0.00    -0.237 OA
ATOM     87  O   UNL A   1      53.108  27.186  32.374  1.00  0.00    -0.744 OA
ENDBRANCH  83  84
ENDBRANCH  57  78
ENDBRANCH  31  32
ENDBRANCH  24  26
ENDBRANCH  23  24
ENDBRANCH  22  23
ENDBRANCH   1  22
TORSDOF 18
ENDMDL
