MODEL 1
REMARK VINA RESULT:     -10.8      0.000      0.000
REMARK SMILES O=C(OCCOCCOC(=O)c1ccc(-c2c3nc(c(-c4ccc(S(=O)(=O)[O-])cc4)c4ccc([nH]4)c(-c4ccc(S(=O)(=O)[O-])cc4)c4nc(c(-c5ccc(S(=O)(=O)[O-])cc5)c5ccc2[nH]5)C=C4)C=C3)cc1)C1=Cc2c(ccc(Cl)c2Oc2ccccc2)O[C@H]1C(F)(F)F
REMARK SMILES IDX 7 1 6 2 5 3 4 4 3 5 2 6 1 7 72 8 73 9 89 10 74 11 88 12
REMARK SMILES IDX 75 13 80 14 76 15 78 16 77 17 79 18 90 19 91 20 92 21 93 22
REMARK SMILES IDX 81 23 82 24 83 25 87 26 84 27 86 28 85 29 8 30 9 31 10 32
REMARK SMILES IDX 11 33 12 34 13 35 71 36 14 37 70 38 15 39 16 40 17 41 64 42
REMARK SMILES IDX 18 43 69 44 63 45 65 46 19 47 68 48 62 49 61 50 20 52 50 53
REMARK SMILES IDX 31 54 49 55 32 56 35 57 48 58 66 59 33 60 34 61 47 63 67 64
REMARK SMILES IDX 36 65 21 66 22 67 30 68 23 69 29 70 24 71 25 72 26 73 27 74
REMARK SMILES IDX 28 75 51 76 52 77 60 78 53 79 59 80 54 81 55 82 56 83 57 84
REMARK SMILES IDX 58 85 37 86 38 87 46 88 39 89 45 90 40 91 41 92 42 93 43 94
REMARK SMILES IDX 44 95
REMARK H PARENT 65 51 35 62
REMARK Flexibility Score: inf
ROOT
ATOM      1  C   UNL A   1      37.669  22.916  26.004  1.00  0.00     0.202 C 
ENDROOT
BRANCH   1   2
ATOM      2  O   UNL A   1      36.906  21.728  25.801  1.00  0.00    -0.374 OA
BRANCH   2   3
ATOM      3  C   UNL A   1      35.548  21.935  26.161  1.00  0.00     0.202 C 
BRANCH   3   4
ATOM      4  C   UNL A   1      35.056  23.386  25.979  1.00  0.00     0.261 C 
BRANCH   4   5
ATOM      5  O   UNL A   1      33.761  23.656  26.554  1.00  0.00    -0.460 OA
BRANCH   5   6
ATOM      6  C   UNL A   1      32.676  23.457  25.768  1.00  0.00     0.338 C 
ATOM      7  O   UNL A   1      32.040  22.410  25.702  1.00  0.00    -0.246 OA
BRANCH   6   8
ATOM      8  C   UNL A   1      32.437  24.550  24.812  1.00  0.00     0.088 C 
ATOM      9  C   UNL A   1      32.641  25.799  25.216  1.00  0.00     0.031 C 
ATOM     10  C   UNL A   1      32.300  24.259  23.344  1.00  0.00     0.316 C 
ATOM     11  C   UNL A   1      32.069  26.878  24.473  1.00  0.00     0.062 A 
ATOM     12  O   UNL A   1      32.278  25.472  22.501  1.00  0.00    -0.475 OA
ATOM     13  C   UNL A   1      31.997  26.680  23.092  1.00  0.00     0.131 A 
ATOM     14  C   UNL A   1      31.687  28.081  25.085  1.00  0.00     0.156 A 
ATOM     15  C   UNL A   1      31.709  27.767  22.279  1.00  0.00     0.049 A 
ATOM     16  C   UNL A   1      31.262  29.112  24.252  1.00  0.00     0.084 A 
ATOM     17  C   UNL A   1      31.333  28.985  22.859  1.00  0.00     0.028 A 
ATOM     18  Cl  UNL A   1      30.612  30.540  24.948  1.00  0.00    -0.080 Cl
BRANCH  10  19
ATOM     19  C   UNL A   1      33.472  23.351  22.858  1.00  0.00     0.430 C 
ATOM     20  F   UNL A   1      33.454  22.103  23.381  1.00  0.00    -0.167 F 
ATOM     21  F   UNL A   1      33.449  23.207  21.511  1.00  0.00    -0.167 F 
ATOM     22  F   UNL A   1      34.685  23.864  23.182  1.00  0.00    -0.167 F 
ENDBRANCH  10  19
BRANCH  14  23
ATOM     23  O   UNL A   1      31.953  28.438  26.393  1.00  0.00    -0.455 OA
BRANCH  23  24
ATOM     24  C   UNL A   1      33.090  29.080  26.816  1.00  0.00     0.127 A 
ATOM     25  C   UNL A   1      34.380  28.566  26.861  1.00  0.00     0.047 A 
ATOM     26  C   UNL A   1      32.864  30.383  27.288  1.00  0.00     0.047 A 
ATOM     27  C   UNL A   1      35.441  29.393  27.274  1.00  0.00     0.004 A 
ATOM     28  C   UNL A   1      33.919  31.214  27.672  1.00  0.00     0.004 A 
ATOM     29  C   UNL A   1      35.216  30.722  27.644  1.00  0.00     0.000 A 
ENDBRANCH  23  24
ENDBRANCH  14  23
ENDBRANCH   6   8
ENDBRANCH   5   6
ENDBRANCH   4   5
ENDBRANCH   3   4
ENDBRANCH   2   3
ENDBRANCH   1   2
BRANCH   1  30
ATOM     30  C   UNL A   1      39.145  22.778  26.441  1.00  0.00     0.261 C 
BRANCH  30  31
ATOM     31  O   UNL A   1      40.061  23.895  26.262  1.00  0.00    -0.460 OA
BRANCH  31  32
ATOM     32  C   UNL A   1      40.820  24.147  27.378  1.00  0.00     0.338 C 
ATOM     33  O   UNL A   1      41.654  23.366  27.825  1.00  0.00    -0.246 OA
BRANCH  32  34
ATOM     34  C   UNL A   1      40.553  25.422  28.131  1.00  0.00     0.060 A 
ATOM     35  C   UNL A   1      41.657  26.275  28.327  1.00  0.00     0.016 A 
ATOM     36  C   UNL A   1      39.362  25.737  28.794  1.00  0.00     0.016 A 
ATOM     37  C   UNL A   1      41.603  27.370  29.205  1.00  0.00     0.010 A 
ATOM     38  C   UNL A   1      39.305  26.854  29.674  1.00  0.00     0.010 A 
ATOM     39  C   UNL A   1      40.438  27.659  29.923  1.00  0.00    -0.014 A 
BRANCH  39  40
ATOM     40  C   UNL A   1      40.487  28.694  31.014  1.00  0.00     0.031 A 
ATOM     41  C   UNL A   1      39.546  29.873  30.966  1.00  0.00     0.074 A 
ATOM     42  C   UNL A   1      41.272  28.567  32.106  1.00  0.00     0.049 A 
ATOM     43  N   UNL A   1      39.326  30.794  31.873  1.00  0.00    -0.248 NA
ATOM     44  C   UNL A   1      38.725  30.018  29.755  1.00  0.00     0.031 C 
ATOM     45  C   UNL A   1      42.167  27.449  32.357  1.00  0.00     0.029 A 
ATOM     46  N   UNL A   1      41.444  29.370  33.213  1.00  0.00    -0.354 N 
ATOM     47  C   UNL A   1      38.319  31.602  31.362  1.00  0.00     0.074 A 
ATOM     48  C   UNL A   1      38.009  31.096  30.040  1.00  0.00     0.031 C 
ATOM     49  C   UNL A   1      42.837  27.648  33.503  1.00  0.00     0.029 A 
ATOM     50  C   UNL A   1      42.390  28.901  34.101  1.00  0.00     0.049 A 
ATOM     51  H   UNL A   1      40.938  30.202  33.357  1.00  0.00     0.167 HD
ATOM     52  C   UNL A   1      37.688  32.653  31.941  1.00  0.00     0.031 A 
ATOM     53  C   UNL A   1      42.838  29.396  35.275  1.00  0.00     0.031 A 
ATOM     54  C   UNL A   1      38.009  33.196  33.236  1.00  0.00     0.049 A 
ATOM     55  C   UNL A   1      42.204  30.633  35.849  1.00  0.00     0.074 A 
ATOM     56  C   UNL A   1      37.416  34.262  33.893  1.00  0.00     0.029 A 
ATOM     57  N   UNL A   1      39.019  32.733  34.065  1.00  0.00    -0.354 N 
ATOM     58  N   UNL A   1      41.212  31.342  35.368  1.00  0.00    -0.248 NA
ATOM     59  C   UNL A   1      42.722  31.116  37.137  1.00  0.00     0.031 C 
ATOM     60  C   UNL A   1      38.104  34.478  35.093  1.00  0.00     0.029 A 
ATOM     61  C   UNL A   1      39.089  33.511  35.210  1.00  0.00     0.049 A 
ATOM     62  H   UNL A   1      39.601  31.962  33.869  1.00  0.00     0.167 HD
ATOM     63  C   UNL A   1      40.964  32.332  36.313  1.00  0.00     0.074 A 
ATOM     64  C   UNL A   1      41.905  32.129  37.394  1.00  0.00     0.031 C 
ATOM     65  C   UNL A   1      40.029  33.314  36.285  1.00  0.00     0.031 A 
BRANCH  52  66
ATOM     66  C   UNL A   1      36.582  33.306  31.153  1.00  0.00    -0.014 A 
ATOM     67  C   UNL A   1      36.849  33.940  29.926  1.00  0.00     0.010 A 
ATOM     68  C   UNL A   1      35.260  33.265  31.632  1.00  0.00     0.010 A 
ATOM     69  C   UNL A   1      35.820  34.563  29.215  1.00  0.00     0.020 A 
ATOM     70  C   UNL A   1      34.225  33.867  30.911  1.00  0.00     0.020 A 
ATOM     71  C   UNL A   1      34.516  34.531  29.717  1.00  0.00     0.054 A 
BRANCH  71  72
ATOM     72  S   UNL A   1      33.201  35.355  28.778  1.00  0.00     0.124 S 
ATOM     73  O   UNL A   1      32.394  35.943  29.845  1.00  0.00    -0.237 OA
ATOM     74  O   UNL A   1      33.941  36.308  27.954  1.00  0.00    -0.237 OA
ATOM     75  O   UNL A   1      32.562  34.265  28.045  1.00  0.00    -0.744 OA
ENDBRANCH  71  72
ENDBRANCH  52  66
BRANCH  53  76
ATOM     76  C   UNL A   1      43.938  28.702  36.009  1.00  0.00    -0.014 A 
ATOM     77  C   UNL A   1      43.662  27.679  36.933  1.00  0.00     0.010 A 
ATOM     78  C   UNL A   1      45.277  29.076  35.789  1.00  0.00     0.010 A 
ATOM     79  C   UNL A   1      44.700  27.053  37.632  1.00  0.00     0.020 A 
ATOM     80  C   UNL A   1      46.319  28.438  36.469  1.00  0.00     0.020 A 
ATOM     81  C   UNL A   1      46.024  27.435  37.395  1.00  0.00     0.054 A 
BRANCH  81  82
ATOM     82  S   UNL A   1      47.359  26.574  38.274  1.00  0.00     0.124 S 
ATOM     83  O   UNL A   1      47.305  27.194  39.594  1.00  0.00    -0.237 OA
ATOM     84  O   UNL A   1      46.929  25.178  38.211  1.00  0.00    -0.237 OA
ATOM     85  O   UNL A   1      48.547  26.886  37.483  1.00  0.00    -0.744 OA
ENDBRANCH  81  82
ENDBRANCH  53  76
BRANCH  65  86
ATOM     86  C   UNL A   1      39.953  34.238  37.471  1.00  0.00    -0.014 A 
ATOM     87  C   UNL A   1      40.755  35.389  37.551  1.00  0.00     0.010 A 
ATOM     88  C   UNL A   1      39.026  33.977  38.498  1.00  0.00     0.010 A 
ATOM     89  C   UNL A   1      40.649  36.250  38.648  1.00  0.00     0.020 A 
ATOM     90  C   UNL A   1      38.900  34.848  39.584  1.00  0.00     0.020 A 
ATOM     91  C   UNL A   1      39.723  35.973  39.658  1.00  0.00     0.054 A 
BRANCH  91  92
ATOM     92  S   UNL A   1      39.570  37.131  41.047  1.00  0.00     0.124 S 
ATOM     93  O   UNL A   1      40.922  37.674  41.142  1.00  0.00    -0.237 OA
ATOM     94  O   UNL A   1      38.550  38.065  40.577  1.00  0.00    -0.237 OA
ATOM     95  O   UNL A   1      39.161  36.281  42.163  1.00  0.00    -0.744 OA
ENDBRANCH  91  92
ENDBRANCH  65  86
ENDBRANCH  39  40
ENDBRANCH  32  34
ENDBRANCH  31  32
ENDBRANCH  30  31
ENDBRANCH   1  30
TORSDOF 20
ENDMDL
MODEL 2
REMARK VINA RESULT:     -10.5      5.093      9.165
REMARK SMILES O=C(OCCOCCOC(=O)c1ccc(-c2c3nc(c(-c4ccc(S(=O)(=O)[O-])cc4)c4ccc([nH]4)c(-c4ccc(S(=O)(=O)[O-])cc4)c4nc(c(-c5ccc(S(=O)(=O)[O-])cc5)c5ccc2[nH]5)C=C4)C=C3)cc1)C1=Cc2c(ccc(Cl)c2Oc2ccccc2)O[C@H]1C(F)(F)F
REMARK SMILES IDX 7 1 6 2 5 3 4 4 3 5 2 6 1 7 72 8 73 9 89 10 74 11 88 12
REMARK SMILES IDX 75 13 80 14 76 15 78 16 77 17 79 18 90 19 91 20 92 21 93 22
REMARK SMILES IDX 81 23 82 24 83 25 87 26 84 27 86 28 85 29 8 30 9 31 10 32
REMARK SMILES IDX 11 33 12 34 13 35 71 36 14 37 70 38 15 39 16 40 17 41 64 42
REMARK SMILES IDX 18 43 69 44 63 45 65 46 19 47 68 48 62 49 61 50 20 52 50 53
REMARK SMILES IDX 31 54 49 55 32 56 35 57 48 58 66 59 33 60 34 61 47 63 67 64
REMARK SMILES IDX 36 65 21 66 22 67 30 68 23 69 29 70 24 71 25 72 26 73 27 74
REMARK SMILES IDX 28 75 51 76 52 77 60 78 53 79 59 80 54 81 55 82 56 83 57 84
REMARK SMILES IDX 58 85 37 86 38 87 46 88 39 89 45 90 40 91 41 92 42 93 43 94
REMARK SMILES IDX 44 95
REMARK H PARENT 65 51 35 62
REMARK Flexibility Score: inf
ROOT
ATOM      1  C   UNL A   1      35.943  21.627  24.876  1.00  0.00     0.202 C 
ENDROOT
BRANCH   1   2
ATOM      2  O   UNL A   1      34.739  21.128  25.456  1.00  0.00    -0.374 OA
BRANCH   2   3
ATOM      3  C   UNL A   1      34.568  21.634  26.772  1.00  0.00     0.202 C 
BRANCH   3   4
ATOM      4  C   UNL A   1      34.698  23.167  26.886  1.00  0.00     0.261 C 
BRANCH   4   5
ATOM      5  O   UNL A   1      33.570  23.903  26.373  1.00  0.00    -0.460 OA
BRANCH   5   6
ATOM      6  C   UNL A   1      33.732  24.552  25.195  1.00  0.00     0.338 C 
ATOM      7  O   UNL A   1      34.814  24.795  24.672  1.00  0.00    -0.246 OA
BRANCH   6   8
ATOM      8  C   UNL A   1      32.490  25.149  24.680  1.00  0.00     0.088 C 
ATOM      9  C   UNL A   1      32.536  26.389  24.204  1.00  0.00     0.031 C 
ATOM     10  C   UNL A   1      31.297  24.286  24.387  1.00  0.00     0.316 C 
ATOM     11  C   UNL A   1      31.321  27.128  24.057  1.00  0.00     0.062 A 
ATOM     12  O   UNL A   1      30.211  24.998  23.680  1.00  0.00    -0.475 OA
ATOM     13  C   UNL A   1      30.201  26.372  23.704  1.00  0.00     0.131 A 
ATOM     14  C   UNL A   1      31.282  28.525  24.177  1.00  0.00     0.156 A 
ATOM     15  C   UNL A   1      29.056  27.035  23.285  1.00  0.00     0.049 A 
ATOM     16  C   UNL A   1      30.074  29.155  23.889  1.00  0.00     0.084 A 
ATOM     17  C   UNL A   1      28.989  28.430  23.383  1.00  0.00     0.028 A 
ATOM     18  Cl  UNL A   1      29.913  30.837  24.192  1.00  0.00    -0.080 Cl
BRANCH  10  19
ATOM     19  C   UNL A   1      31.714  23.057  23.521  1.00  0.00     0.430 C 
ATOM     20  F   UNL A   1      30.719  22.569  22.743  1.00  0.00    -0.167 F 
ATOM     21  F   UNL A   1      32.735  23.373  22.688  1.00  0.00    -0.167 F 
ATOM     22  F   UNL A   1      32.129  22.013  24.280  1.00  0.00    -0.167 F 
ENDBRANCH  10  19
BRANCH  14  23
ATOM     23  O   UNL A   1      32.382  29.354  24.280  1.00  0.00    -0.455 OA
BRANCH  23  24
ATOM     24  C   UNL A   1      33.004  29.691  25.456  1.00  0.00     0.127 A 
ATOM     25  C   UNL A   1      32.633  30.689  26.349  1.00  0.00     0.047 A 
ATOM     26  C   UNL A   1      34.164  28.946  25.719  1.00  0.00     0.047 A 
ATOM     27  C   UNL A   1      33.361  30.857  27.542  1.00  0.00     0.004 A 
ATOM     28  C   UNL A   1      34.872  29.091  26.914  1.00  0.00     0.004 A 
ATOM     29  C   UNL A   1      34.455  30.038  27.839  1.00  0.00     0.000 A 
ENDBRANCH  23  24
ENDBRANCH  14  23
ENDBRANCH   6   8
ENDBRANCH   5   6
ENDBRANCH   4   5
ENDBRANCH   3   4
ENDBRANCH   2   3
ENDBRANCH   1   2
BRANCH   1  30
ATOM     30  C   UNL A   1      37.285  21.298  25.568  1.00  0.00     0.261 C 
BRANCH  30  31
ATOM     31  O   UNL A   1      38.476  22.068  25.241  1.00  0.00    -0.460 OA
BRANCH  31  32
ATOM     32  C   UNL A   1      39.476  21.925  26.171  1.00  0.00     0.338 C 
ATOM     33  O   UNL A   1      40.043  20.862  26.403  1.00  0.00    -0.246 OA
BRANCH  32  34
ATOM     34  C   UNL A   1      39.837  23.129  26.999  1.00  0.00     0.060 A 
ATOM     35  C   UNL A   1      39.324  24.365  26.561  1.00  0.00     0.016 A 
ATOM     36  C   UNL A   1      40.769  23.144  28.041  1.00  0.00     0.016 A 
ATOM     37  C   UNL A   1      39.769  25.586  27.096  1.00  0.00     0.010 A 
ATOM     38  C   UNL A   1      41.210  24.381  28.590  1.00  0.00     0.010 A 
ATOM     39  C   UNL A   1      40.747  25.618  28.094  1.00  0.00    -0.014 A 
BRANCH  39  40
ATOM     40  C   UNL A   1      41.357  26.939  28.479  1.00  0.00     0.031 A 
ATOM     41  C   UNL A   1      42.846  27.144  28.334  1.00  0.00     0.074 A 
ATOM     42  C   UNL A   1      40.615  28.003  28.856  1.00  0.00     0.049 A 
ATOM     43  N   UNL A   1      43.546  28.243  28.470  1.00  0.00    -0.248 NA
ATOM     44  C   UNL A   1      43.643  25.968  27.958  1.00  0.00     0.031 C 
ATOM     45  C   UNL A   1      39.165  28.008  28.957  1.00  0.00     0.029 A 
ATOM     46  N   UNL A   1      40.965  29.287  29.216  1.00  0.00    -0.354 N 
ATOM     47  C   UNL A   1      44.857  27.903  28.160  1.00  0.00     0.074 A 
ATOM     48  C   UNL A   1      44.863  26.481  27.884  1.00  0.00     0.031 C 
ATOM     49  C   UNL A   1      38.740  29.201  29.402  1.00  0.00     0.029 A 
ATOM     50  C   UNL A   1      39.894  30.075  29.584  1.00  0.00     0.049 A 
ATOM     51  H   UNL A   1      41.894  29.611  29.212  1.00  0.00     0.167 HD
ATOM     52  C   UNL A   1      45.953  28.697  28.087  1.00  0.00     0.031 A 
ATOM     53  C   UNL A   1      39.828  31.359  29.997  1.00  0.00     0.031 A 
ATOM     54  C   UNL A   1      45.975  30.104  28.398  1.00  0.00     0.049 A 
ATOM     55  C   UNL A   1      41.078  32.195  30.020  1.00  0.00     0.074 A 
ATOM     56  C   UNL A   1      47.048  30.979  28.349  1.00  0.00     0.029 A 
ATOM     57  N   UNL A   1      44.884  30.839  28.832  1.00  0.00    -0.354 N 
ATOM     58  N   UNL A   1      42.295  31.859  29.666  1.00  0.00    -0.248 NA
ATOM     59  C   UNL A   1      40.943  33.591  30.464  1.00  0.00     0.031 C 
ATOM     60  C   UNL A   1      46.618  32.229  28.808  1.00  0.00     0.029 A 
ATOM     61  C   UNL A   1      45.264  32.148  29.088  1.00  0.00     0.049 A 
ATOM     62  H   UNL A   1      43.971  30.485  28.942  1.00  0.00     0.167 HD
ATOM     63  C   UNL A   1      43.061  33.011  29.808  1.00  0.00     0.074 A 
ATOM     64  C   UNL A   1      42.171  34.054  30.276  1.00  0.00     0.031 C 
ATOM     65  C   UNL A   1      44.382  33.185  29.560  1.00  0.00     0.031 A 
BRANCH  52  66
ATOM     66  C   UNL A   1      47.244  28.044  27.666  1.00  0.00    -0.014 A 
ATOM     67  C   UNL A   1      47.559  27.882  26.304  1.00  0.00     0.010 A 
ATOM     68  C   UNL A   1      48.161  27.609  28.639  1.00  0.00     0.010 A 
ATOM     69  C   UNL A   1      48.747  27.254  25.924  1.00  0.00     0.020 A 
ATOM     70  C   UNL A   1      49.362  27.001  28.262  1.00  0.00     0.020 A 
ATOM     71  C   UNL A   1      49.637  26.808  26.906  1.00  0.00     0.054 A 
BRANCH  71  72
ATOM     72  S   UNL A   1      51.168  25.987  26.385  1.00  0.00     0.124 S 
ATOM     73  O   UNL A   1      51.128  26.167  24.936  1.00  0.00    -0.237 OA
ATOM     74  O   UNL A   1      52.198  26.751  27.084  1.00  0.00    -0.237 OA
ATOM     75  O   UNL A   1      50.997  24.611  26.845  1.00  0.00    -0.744 OA
ENDBRANCH  71  72
ENDBRANCH  52  66
BRANCH  53  76
ATOM     76  C   UNL A   1      38.518  31.950  30.402  1.00  0.00    -0.014 A 
ATOM     77  C   UNL A   1      38.150  32.043  31.755  1.00  0.00     0.010 A 
ATOM     78  C   UNL A   1      37.623  32.417  29.420  1.00  0.00     0.010 A 
ATOM     79  C   UNL A   1      36.909  32.577  32.120  1.00  0.00     0.020 A 
ATOM     80  C   UNL A   1      36.391  32.971  29.782  1.00  0.00     0.020 A 
ATOM     81  C   UNL A   1      36.037  33.040  31.131  1.00  0.00     0.054 A 
BRANCH  81  82
ATOM     82  S   UNL A   1      34.454  33.777  31.629  1.00  0.00     0.124 S 
ATOM     83  O   UNL A   1      33.866  32.717  32.441  1.00  0.00    -0.237 OA
ATOM     84  O   UNL A   1      34.878  34.972  32.356  1.00  0.00    -0.237 OA
ATOM     85  O   UNL A   1      33.783  34.039  30.357  1.00  0.00    -0.744 OA
ENDBRANCH  81  82
ENDBRANCH  53  76
BRANCH  65  86
ATOM     86  C   UNL A   1      44.954  34.563  29.764  1.00  0.00    -0.014 A 
ATOM     87  C   UNL A   1      45.527  34.940  30.991  1.00  0.00     0.010 A 
ATOM     88  C   UNL A   1      44.965  35.478  28.695  1.00  0.00     0.010 A 
ATOM     89  C   UNL A   1      46.079  36.215  31.153  1.00  0.00     0.020 A 
ATOM     90  C   UNL A   1      45.537  36.744  28.844  1.00  0.00     0.020 A 
ATOM     91  C   UNL A   1      46.079  37.109  30.078  1.00  0.00     0.054 A 
BRANCH  91  92
ATOM     92  S   UNL A   1      46.844  38.740  30.297  1.00  0.00     0.124 S 
ATOM     93  O   UNL A   1      46.420  39.098  31.647  1.00  0.00    -0.237 OA
ATOM     94  O   UNL A   1      48.268  38.451  30.142  1.00  0.00    -0.237 OA
ATOM     95  O   UNL A   1      46.259  39.544  29.226  1.00  0.00    -0.744 OA
ENDBRANCH  91  92
ENDBRANCH  65  86
ENDBRANCH  39  40
ENDBRANCH  32  34
ENDBRANCH  31  32
ENDBRANCH  30  31
ENDBRANCH   1  30
TORSDOF 20
ENDMDL
MODEL 3
REMARK VINA RESULT:     -10.2      5.120      6.537
REMARK SMILES O=C(OCCOCCOC(=O)c1ccc(-c2c3nc(c(-c4ccc(S(=O)(=O)[O-])cc4)c4ccc([nH]4)c(-c4ccc(S(=O)(=O)[O-])cc4)c4nc(c(-c5ccc(S(=O)(=O)[O-])cc5)c5ccc2[nH]5)C=C4)C=C3)cc1)C1=Cc2c(ccc(Cl)c2Oc2ccccc2)O[C@H]1C(F)(F)F
REMARK SMILES IDX 7 1 6 2 5 3 4 4 3 5 2 6 1 7 72 8 73 9 89 10 74 11 88 12
REMARK SMILES IDX 75 13 80 14 76 15 78 16 77 17 79 18 90 19 91 20 92 21 93 22
REMARK SMILES IDX 81 23 82 24 83 25 87 26 84 27 86 28 85 29 8 30 9 31 10 32
REMARK SMILES IDX 11 33 12 34 13 35 71 36 14 37 70 38 15 39 16 40 17 41 64 42
REMARK SMILES IDX 18 43 69 44 63 45 65 46 19 47 68 48 62 49 61 50 20 52 50 53
REMARK SMILES IDX 31 54 49 55 32 56 35 57 48 58 66 59 33 60 34 61 47 63 67 64
REMARK SMILES IDX 36 65 21 66 22 67 30 68 23 69 29 70 24 71 25 72 26 73 27 74
REMARK SMILES IDX 28 75 51 76 52 77 60 78 53 79 59 80 54 81 55 82 56 83 57 84
REMARK SMILES IDX 58 85 37 86 38 87 46 88 39 89 45 90 40 91 41 92 42 93 43 94
REMARK SMILES IDX 44 95
REMARK H PARENT 65 51 35 62
REMARK Flexibility Score: inf
ROOT
ATOM      1  C   UNL A   1      35.719  22.055  25.289  1.00  0.00     0.202 C 
ENDROOT
BRANCH   1   2
ATOM      2  O   UNL A   1      34.541  21.264  25.434  1.00  0.00    -0.374 OA
BRANCH   2   3
ATOM      3  C   UNL A   1      33.944  21.480  26.705  1.00  0.00     0.202 C 
BRANCH   3   4
ATOM      4  C   UNL A   1      34.076  22.923  27.233  1.00  0.00     0.261 C 
BRANCH   4   5
ATOM      5  O   UNL A   1      33.042  23.822  26.782  1.00  0.00    -0.460 OA
BRANCH   5   6
ATOM      6  C   UNL A   1      33.366  24.709  25.811  1.00  0.00     0.338 C 
ATOM      7  O   UNL A   1      34.499  25.128  25.594  1.00  0.00    -0.246 OA
BRANCH   6   8
ATOM      8  C   UNL A   1      32.196  25.314  25.157  1.00  0.00     0.088 C 
ATOM      9  C   UNL A   1      32.337  26.505  24.586  1.00  0.00     0.031 C 
ATOM     10  C   UNL A   1      30.985  24.482  24.846  1.00  0.00     0.316 C 
ATOM     11  C   UNL A   1      31.174  27.282  24.288  1.00  0.00     0.062 A 
ATOM     12  O   UNL A   1      29.989  25.178  24.004  1.00  0.00    -0.475 OA
ATOM     13  C   UNL A   1      30.046  26.548  23.914  1.00  0.00     0.131 A 
ATOM     14  C   UNL A   1      31.197  28.685  24.290  1.00  0.00     0.156 A 
ATOM     15  C   UNL A   1      28.969  27.222  23.357  1.00  0.00     0.049 A 
ATOM     16  C   UNL A   1      30.046  29.340  23.861  1.00  0.00     0.084 A 
ATOM     17  C   UNL A   1      28.965  28.622  23.336  1.00  0.00     0.028 A 
ATOM     18  Cl  UNL A   1      29.947  31.047  24.012  1.00  0.00    -0.080 Cl
BRANCH  10  19
ATOM     19  C   UNL A   1      31.401  23.166  24.117  1.00  0.00     0.430 C 
ATOM     20  F   UNL A   1      31.309  22.058  24.888  1.00  0.00    -0.167 F 
ATOM     21  F   UNL A   1      30.624  22.946  23.029  1.00  0.00    -0.167 F 
ATOM     22  F   UNL A   1      32.686  23.205  23.687  1.00  0.00    -0.167 F 
ENDBRANCH  10  19
BRANCH  14  23
ATOM     23  O   UNL A   1      32.327  29.470  24.408  1.00  0.00    -0.455 OA
BRANCH  23  24
ATOM     24  C   UNL A   1      33.067  29.614  25.554  1.00  0.00     0.127 A 
ATOM     25  C   UNL A   1      34.139  28.833  25.969  1.00  0.00     0.047 A 
ATOM     26  C   UNL A   1      32.625  30.653  26.389  1.00  0.00     0.047 A 
ATOM     27  C   UNL A   1      34.820  29.164  27.155  1.00  0.00     0.004 A 
ATOM     28  C   UNL A   1      33.317  31.001  27.552  1.00  0.00     0.004 A 
ATOM     29  C   UNL A   1      34.432  30.265  27.924  1.00  0.00     0.000 A 
ENDBRANCH  23  24
ENDBRANCH  14  23
ENDBRANCH   6   8
ENDBRANCH   5   6
ENDBRANCH   4   5
ENDBRANCH   3   4
ENDBRANCH   2   3
ENDBRANCH   1   2
BRANCH   1  30
ATOM     30  C   UNL A   1      37.081  21.422  25.652  1.00  0.00     0.261 C 
BRANCH  30  31
ATOM     31  O   UNL A   1      38.315  22.060  25.218  1.00  0.00    -0.460 OA
BRANCH  31  32
ATOM     32  C   UNL A   1      39.317  21.975  26.153  1.00  0.00     0.338 C 
ATOM     33  O   UNL A   1      39.830  20.918  26.507  1.00  0.00    -0.246 OA
BRANCH  32  34
ATOM     34  C   UNL A   1      39.751  23.247  26.830  1.00  0.00     0.060 A 
ATOM     35  C   UNL A   1      39.487  24.445  26.137  1.00  0.00     0.016 A 
ATOM     36  C   UNL A   1      40.539  23.323  27.982  1.00  0.00     0.016 A 
ATOM     37  C   UNL A   1      40.042  25.672  26.537  1.00  0.00     0.010 A 
ATOM     38  C   UNL A   1      41.090  24.569  28.393  1.00  0.00     0.010 A 
ATOM     39  C   UNL A   1      40.884  25.751  27.650  1.00  0.00    -0.014 A 
BRANCH  39  40
ATOM     40  C   UNL A   1      41.633  27.029  27.913  1.00  0.00     0.031 A 
ATOM     41  C   UNL A   1      40.890  28.238  28.428  1.00  0.00     0.074 A 
ATOM     42  C   UNL A   1      42.977  27.122  27.808  1.00  0.00     0.049 A 
ATOM     43  N   UNL A   1      41.366  29.383  28.853  1.00  0.00    -0.248 NA
ATOM     44  C   UNL A   1      39.425  28.134  28.501  1.00  0.00     0.031 C 
ATOM     45  C   UNL A   1      43.854  26.030  27.419  1.00  0.00     0.029 A 
ATOM     46  N   UNL A   1      43.846  28.169  28.026  1.00  0.00    -0.354 N 
ATOM     47  C   UNL A   1      40.268  30.119  29.280  1.00  0.00     0.074 A 
ATOM     48  C   UNL A   1      39.095  29.313  29.009  1.00  0.00     0.031 C 
ATOM     49  C   UNL A   1      45.125  26.460  27.366  1.00  0.00     0.029 A 
ATOM     50  C   UNL A   1      45.166  27.864  27.761  1.00  0.00     0.049 A 
ATOM     51  H   UNL A   1      43.552  29.054  28.342  1.00  0.00     0.167 HD
ATOM     52  C   UNL A   1      40.232  31.342  29.865  1.00  0.00     0.031 A 
ATOM     53  C   UNL A   1      46.290  28.607  27.845  1.00  0.00     0.031 A 
ATOM     54  C   UNL A   1      41.383  32.175  30.104  1.00  0.00     0.049 A 
ATOM     55  C   UNL A   1      46.215  30.007  28.390  1.00  0.00     0.074 A 
ATOM     56  C   UNL A   1      41.429  33.429  30.692  1.00  0.00     0.029 A 
ATOM     57  N   UNL A   1      42.685  31.854  29.755  1.00  0.00    -0.354 N 
ATOM     58  N   UNL A   1      45.167  30.655  28.839  1.00  0.00    -0.248 NA
ATOM     59  C   UNL A   1      47.473  30.763  28.473  1.00  0.00     0.031 C 
ATOM     60  C   UNL A   1      42.750  33.888  30.647  1.00  0.00     0.029 A 
ATOM     61  C   UNL A   1      43.536  32.897  30.083  1.00  0.00     0.049 A 
ATOM     62  H   UNL A   1      42.964  31.007  29.336  1.00  0.00     0.167 HD
ATOM     63  C   UNL A   1      45.648  31.879  29.292  1.00  0.00     0.074 A 
ATOM     64  C   UNL A   1      47.078  31.881  29.067  1.00  0.00     0.031 C 
ATOM     65  C   UNL A   1      44.959  32.904  29.854  1.00  0.00     0.031 A 
BRANCH  52  66
ATOM     66  C   UNL A   1      38.880  31.865  30.274  1.00  0.00    -0.014 A 
ATOM     67  C   UNL A   1      38.493  31.883  31.626  1.00  0.00     0.010 A 
ATOM     68  C   UNL A   1      37.997  32.365  29.300  1.00  0.00     0.010 A 
ATOM     69  C   UNL A   1      37.227  32.347  31.992  1.00  0.00     0.020 A 
ATOM     70  C   UNL A   1      36.739  32.853  29.665  1.00  0.00     0.020 A 
ATOM     71  C   UNL A   1      36.354  32.821  31.008  1.00  0.00     0.054 A 
BRANCH  71  72
ATOM     72  S   UNL A   1      34.714  33.410  31.509  1.00  0.00     0.124 S 
ATOM     73  O   UNL A   1      34.073  33.648  30.218  1.00  0.00    -0.237 OA
ATOM     74  O   UNL A   1      34.185  32.283  32.273  1.00  0.00    -0.237 OA
ATOM     75  O   UNL A   1      35.000  34.610  32.291  1.00  0.00    -0.744 OA
ENDBRANCH  71  72
ENDBRANCH  52  66
BRANCH  53  76
ATOM     76  C   UNL A   1      47.601  28.031  27.424  1.00  0.00    -0.014 A 
ATOM     77  C   UNL A   1      48.119  28.265  26.138  1.00  0.00     0.010 A 
ATOM     78  C   UNL A   1      48.339  27.232  28.318  1.00  0.00     0.010 A 
ATOM     79  C   UNL A   1      49.338  27.700  25.748  1.00  0.00     0.020 A 
ATOM     80  C   UNL A   1      49.569  26.683  27.940  1.00  0.00     0.020 A 
ATOM     81  C   UNL A   1      50.057  26.913  26.653  1.00  0.00     0.054 A 
BRANCH  81  82
ATOM     82  S   UNL A   1      51.662  26.233  26.144  1.00  0.00     0.124 S 
ATOM     83  O   UNL A   1      52.599  27.169  26.758  1.00  0.00    -0.237 OA
ATOM     84  O   UNL A   1      51.634  24.892  26.723  1.00  0.00    -0.237 OA
ATOM     85  O   UNL A   1      51.603  26.273  24.684  1.00  0.00    -0.744 OA
ENDBRANCH  81  82
ENDBRANCH  53  76
BRANCH  65  86
ATOM     86  C   UNL A   1      45.743  34.111  30.294  1.00  0.00    -0.014 A 
ATOM     87  C   UNL A   1      45.939  35.206  29.433  1.00  0.00     0.010 A 
ATOM     88  C   UNL A   1      46.245  34.175  31.607  1.00  0.00     0.010 A 
ATOM     89  C   UNL A   1      46.646  36.331  29.870  1.00  0.00     0.020 A 
ATOM     90  C   UNL A   1      46.931  35.308  32.054  1.00  0.00     0.020 A 
ATOM     91  C   UNL A   1      47.138  36.374  31.177  1.00  0.00     0.054 A 
BRANCH  91  92
ATOM     92  S   UNL A   1      48.009  37.865  31.736  1.00  0.00     0.124 S 
ATOM     93  O   UNL A   1      47.181  38.299  32.858  1.00  0.00    -0.237 OA
ATOM     94  O   UNL A   1      49.330  37.352  32.093  1.00  0.00    -0.237 OA
ATOM     95  O   UNL A   1      47.983  38.741  30.567  1.00  0.00    -0.744 OA
ENDBRANCH  91  92
ENDBRANCH  65  86
ENDBRANCH  39  40
ENDBRANCH  32  34
ENDBRANCH  31  32
ENDBRANCH  30  31
ENDBRANCH   1  30
TORSDOF 20
ENDMDL
