MODEL 1
REMARK VINA RESULT:      -9.9      0.000      0.000
REMARK SMILES Cc1ccc([C@@H](C)[N@@H+]2CCO[C@H](CC(=O)OCCOCCOC(=O)c3ccc(-c4c5nc(c(-c6ccc(S(=O)(=O)[O-])cc6)c6ccc([nH]6)c(-c6ccc(S(=O)(=O)[O-])cc6)c6nc(c(-c7ccc(S(=O)(=O)[O-])cc7)c7ccc4[nH]7)C=C6)C=C5)cc3)C2)o1
REMARK SMILES IDX 19 1 18 2 17 3 16 4 14 5 15 6 13 7 12 8 8 9 9 10 85 11 10 13
REMARK SMILES IDX 11 14 6 15 7 16 5 17 1 18 2 19 3 20 86 21 4 22 20 23 21 24
REMARK SMILES IDX 22 25 23 26 24 27 25 28 26 29 84 30 27 31 83 32 28 33 29 34
REMARK SMILES IDX 30 35 77 36 31 37 82 38 76 39 78 40 32 41 81 42 75 43 74 44
REMARK SMILES IDX 33 46 63 47 44 48 62 49 45 50 48 51 61 52 79 53 46 54 47 55
REMARK SMILES IDX 60 57 80 58 49 59 34 60 35 61 43 62 36 63 42 64 37 65 38 66
REMARK SMILES IDX 39 67 40 68 41 69 64 70 65 71 73 72 66 73 72 74 67 75 68 76
REMARK SMILES IDX 69 77 70 78 71 79 50 80 51 81 59 82 52 83 58 84 53 85 54 86
REMARK SMILES IDX 55 87 56 88 57 89
REMARK H PARENT 8 12 78 45 48 56
REMARK Flexibility Score: inf
ROOT
ATOM      1  O   UNL A   1      37.437  22.844  25.283  1.00  0.00    -0.374 OA
ENDROOT
BRANCH   1   2
ATOM      2  C   UNL A   1      36.719  23.614  24.337  1.00  0.00     0.202 C 
BRANCH   2   3
ATOM      3  C   UNL A   1      35.668  22.775  23.607  1.00  0.00     0.261 C 
BRANCH   3   4
ATOM      4  O   UNL A   1      34.319  23.227  23.798  1.00  0.00    -0.463 OA
BRANCH   4   5
ATOM      5  C   UNL A   1      33.912  24.265  23.035  1.00  0.00     0.308 C 
ATOM      6  O   UNL A   1      33.604  24.193  21.848  1.00  0.00    -0.252 OA
BRANCH   5   7
ATOM      7  C   UNL A   1      33.719  25.553  23.780  1.00  0.00     0.160 C 
BRANCH   7   8
ATOM      8  C   UNL A   1      33.329  25.646  25.258  1.00  0.00     0.184 C 
ATOM      9  N   UNL A   1      30.790  25.582  25.499  1.00  0.00    -0.322 N 
ATOM     10  C   UNL A   1      30.903  26.859  26.210  1.00  0.00     0.291 C 
ATOM     11  C   UNL A   1      32.047  24.850  25.597  1.00  0.00     0.295 C 
ATOM     12  H   UNL A   1      30.120  24.983  25.984  1.00  0.00     0.348 HD
ATOM     13  C   UNL A   1      32.146  27.668  25.813  1.00  0.00     0.222 C 
ATOM     14  O   UNL A   1      33.366  26.921  25.901  1.00  0.00    -0.366 OA
BRANCH   9  15
ATOM     15  C   UNL A   1      29.993  25.563  24.260  1.00  0.00     0.248 C 
ATOM     16  C   UNL A   1      30.334  24.386  23.332  1.00  0.00     0.084 C 
BRANCH  15  17
ATOM     17  C   UNL A   1      29.864  26.852  23.488  1.00  0.00     0.161 A 
ATOM     18  C   UNL A   1      27.678  29.617  22.793  1.00  0.00     0.087 C 
ATOM     19  C   UNL A   1      28.843  28.707  22.871  1.00  0.00     0.101 A 
ATOM     20  C   UNL A   1      30.124  28.787  22.373  1.00  0.00     0.046 A 
ATOM     21  O   UNL A   1      28.675  27.527  23.540  1.00  0.00    -0.460 OA
ATOM     22  C   UNL A   1      30.787  27.611  22.791  1.00  0.00     0.052 A 
ENDBRANCH  15  17
ENDBRANCH   9  15
ENDBRANCH   7   8
ENDBRANCH   5   7
ENDBRANCH   4   5
ENDBRANCH   3   4
ENDBRANCH   2   3
ENDBRANCH   1   2
BRANCH   1  23
ATOM     23  C   UNL A   1      38.129  23.539  26.316  1.00  0.00     0.202 C 
BRANCH  23  24
ATOM     24  C   UNL A   1      39.661  23.431  26.475  1.00  0.00     0.261 C 
BRANCH  24  25
ATOM     25  O   UNL A   1      40.321  24.420  27.276  1.00  0.00    -0.460 OA
BRANCH  25  26
ATOM     26  C   UNL A   1      40.450  25.653  26.747  1.00  0.00     0.338 C 
ATOM     27  O   UNL A   1      40.676  25.928  25.584  1.00  0.00    -0.246 OA
BRANCH  26  28
ATOM     28  C   UNL A   1      40.104  26.640  27.793  1.00  0.00     0.060 A 
ATOM     29  C   UNL A   1      40.667  27.919  27.722  1.00  0.00     0.016 A 
ATOM     30  C   UNL A   1      39.292  26.281  28.873  1.00  0.00     0.016 A 
ATOM     31  C   UNL A   1      40.481  28.820  28.771  1.00  0.00     0.010 A 
ATOM     32  C   UNL A   1      39.116  27.181  29.929  1.00  0.00     0.010 A 
ATOM     33  C   UNL A   1      39.752  28.435  29.904  1.00  0.00    -0.014 A 
BRANCH  33  34
ATOM     34  C   UNL A   1      39.831  29.256  31.138  1.00  0.00     0.031 A 
ATOM     35  C   UNL A   1      40.952  28.991  32.107  1.00  0.00     0.074 A 
ATOM     36  C   UNL A   1      38.944  30.234  31.383  1.00  0.00     0.049 A 
ATOM     37  N   UNL A   1      41.219  29.574  33.248  1.00  0.00    -0.248 NA
ATOM     38  C   UNL A   1      41.896  27.922  31.742  1.00  0.00     0.031 C 
ATOM     39  C   UNL A   1      37.835  30.608  30.508  1.00  0.00     0.029 A 
ATOM     40  N   UNL A   1      38.835  31.089  32.452  1.00  0.00    -0.354 N 
ATOM     41  C   UNL A   1      42.350  28.934  33.743  1.00  0.00     0.074 A 
ATOM     42  C   UNL A   1      42.703  27.903  32.792  1.00  0.00     0.031 C 
ATOM     43  C   UNL A   1      37.146  31.609  31.083  1.00  0.00     0.029 A 
ATOM     44  C   UNL A   1      37.749  31.925  32.378  1.00  0.00     0.049 A 
ATOM     45  H   UNL A   1      39.474  31.100  33.200  1.00  0.00     0.167 HD
ATOM     46  C   UNL A   1      43.033  29.180  34.886  1.00  0.00     0.031 A 
ATOM     47  C   UNL A   1      37.279  32.828  33.263  1.00  0.00     0.031 A 
ATOM     48  C   UNL A   1      42.669  30.195  35.838  1.00  0.00     0.049 A 
ATOM     49  C   UNL A   1      38.022  33.058  34.551  1.00  0.00     0.074 A 
ATOM     50  C   UNL A   1      43.313  30.548  37.010  1.00  0.00     0.029 A 
ATOM     51  N   UNL A   1      41.549  31.009  35.736  1.00  0.00    -0.354 N 
ATOM     52  N   UNL A   1      39.117  32.476  34.984  1.00  0.00    -0.248 NA
ATOM     53  C   UNL A   1      37.478  34.072  35.462  1.00  0.00     0.031 C 
ATOM     54  C   UNL A   1      42.550  31.532  37.647  1.00  0.00     0.029 A 
ATOM     55  C   UNL A   1      41.464  31.838  36.840  1.00  0.00     0.049 A 
ATOM     56  H   UNL A   1      40.909  30.997  34.987  1.00  0.00     0.167 HD
ATOM     57  C   UNL A   1      39.401  33.067  36.212  1.00  0.00     0.074 A 
ATOM     58  C   UNL A   1      38.372  34.061  36.443  1.00  0.00     0.031 C 
ATOM     59  C   UNL A   1      40.424  32.813  37.066  1.00  0.00     0.031 A 
BRANCH  46  60
ATOM     60  C   UNL A   1      44.212  28.292  35.188  1.00  0.00    -0.014 A 
ATOM     61  C   UNL A   1      44.062  27.078  35.883  1.00  0.00     0.010 A 
ATOM     62  C   UNL A   1      45.498  28.686  34.772  1.00  0.00     0.010 A 
ATOM     63  C   UNL A   1      45.182  26.306  36.209  1.00  0.00     0.020 A 
ATOM     64  C   UNL A   1      46.615  27.902  35.071  1.00  0.00     0.020 A 
ATOM     65  C   UNL A   1      46.452  26.729  35.810  1.00  0.00     0.054 A 
BRANCH  65  66
ATOM     66  S   UNL A   1      47.892  25.721  36.260  1.00  0.00     0.124 S 
ATOM     67  O   UNL A   1      47.355  24.367  36.152  1.00  0.00    -0.237 OA
ATOM     68  O   UNL A   1      48.873  26.089  35.243  1.00  0.00    -0.237 OA
ATOM     69  O   UNL A   1      48.211  26.158  37.616  1.00  0.00    -0.744 OA
ENDBRANCH  65  66
ENDBRANCH  46  60
BRANCH  47  70
ATOM     70  C   UNL A   1      36.023  33.562  32.953  1.00  0.00    -0.014 A 
ATOM     71  C   UNL A   1      34.786  33.118  33.449  1.00  0.00     0.010 A 
ATOM     72  C   UNL A   1      36.073  34.754  32.205  1.00  0.00     0.010 A 
ATOM     73  C   UNL A   1      33.623  33.860  33.213  1.00  0.00     0.020 A 
ATOM     74  C   UNL A   1      34.918  35.510  31.989  1.00  0.00     0.020 A 
ATOM     75  C   UNL A   1      33.699  35.058  32.496  1.00  0.00     0.054 A 
BRANCH  75  76
ATOM     76  S   UNL A   1      32.199  36.060  32.300  1.00  0.00     0.124 S 
ATOM     77  O   UNL A   1      32.436  37.149  33.242  1.00  0.00    -0.237 OA
ATOM     78  O   UNL A   1      32.246  36.423  30.886  1.00  0.00    -0.237 OA
ATOM     79  O   UNL A   1      31.124  35.139  32.662  1.00  0.00    -0.744 OA
ENDBRANCH  75  76
ENDBRANCH  47  70
BRANCH  59  80
ATOM     80  C   UNL A   1      40.500  33.635  38.326  1.00  0.00    -0.014 A 
ATOM     81  C   UNL A   1      41.218  34.843  38.367  1.00  0.00     0.010 A 
ATOM     82  C   UNL A   1      39.788  33.221  39.467  1.00  0.00     0.010 A 
ATOM     83  C   UNL A   1      41.246  35.608  39.536  1.00  0.00     0.020 A 
ATOM     84  C   UNL A   1      39.791  33.997  40.629  1.00  0.00     0.020 A 
ATOM     85  C   UNL A   1      40.532  35.180  40.661  1.00  0.00     0.054 A 
BRANCH  85  86
ATOM     86  S   UNL A   1      40.549  36.211  42.153  1.00  0.00     0.124 S 
ATOM     87  O   UNL A   1      39.134  36.527  42.320  1.00  0.00    -0.237 OA
ATOM     88  O   UNL A   1      41.117  35.315  43.157  1.00  0.00    -0.237 OA
ATOM     89  O   UNL A   1      41.400  37.340  41.784  1.00  0.00    -0.744 OA
ENDBRANCH  85  86
ENDBRANCH  59  80
ENDBRANCH  33  34
ENDBRANCH  26  28
ENDBRANCH  25  26
ENDBRANCH  24  25
ENDBRANCH  23  24
ENDBRANCH   1  23
TORSDOF 20
ENDMDL
MODEL 2
REMARK VINA RESULT:      -9.7      3.308      4.369
REMARK SMILES Cc1ccc([C@@H](C)[N@@H+]2CCO[C@H](CC(=O)OCCOCCOC(=O)c3ccc(-c4c5nc(c(-c6ccc(S(=O)(=O)[O-])cc6)c6ccc([nH]6)c(-c6ccc(S(=O)(=O)[O-])cc6)c6nc(c(-c7ccc(S(=O)(=O)[O-])cc7)c7ccc4[nH]7)C=C6)C=C5)cc3)C2)o1
REMARK SMILES IDX 19 1 18 2 17 3 16 4 14 5 15 6 13 7 12 8 8 9 9 10 85 11 10 13
REMARK SMILES IDX 11 14 6 15 7 16 5 17 1 18 2 19 3 20 86 21 4 22 20 23 21 24
REMARK SMILES IDX 22 25 23 26 24 27 25 28 26 29 84 30 27 31 83 32 28 33 29 34
REMARK SMILES IDX 30 35 77 36 31 37 82 38 76 39 78 40 32 41 81 42 75 43 74 44
REMARK SMILES IDX 33 46 63 47 44 48 62 49 45 50 48 51 61 52 79 53 46 54 47 55
REMARK SMILES IDX 60 57 80 58 49 59 34 60 35 61 43 62 36 63 42 64 37 65 38 66
REMARK SMILES IDX 39 67 40 68 41 69 64 70 65 71 73 72 66 73 72 74 67 75 68 76
REMARK SMILES IDX 69 77 70 78 71 79 50 80 51 81 59 82 52 83 58 84 53 85 54 86
REMARK SMILES IDX 55 87 56 88 57 89
REMARK H PARENT 8 12 78 45 48 56
REMARK Flexibility Score: inf
ROOT
ATOM      1  O   UNL A   1      35.469  22.041  24.600  1.00  0.00    -0.374 OA
ENDROOT
BRANCH   1   2
ATOM      2  C   UNL A   1      35.712  22.985  23.574  1.00  0.00     0.202 C 
BRANCH   2   3
ATOM      3  C   UNL A   1      34.587  24.016  23.477  1.00  0.00     0.261 C 
BRANCH   3   4
ATOM      4  O   UNL A   1      33.804  23.921  22.278  1.00  0.00    -0.463 OA
BRANCH   4   5
ATOM      5  C   UNL A   1      33.357  25.082  21.749  1.00  0.00     0.308 C 
ATOM      6  O   UNL A   1      33.121  25.272  20.559  1.00  0.00    -0.252 OA
BRANCH   5   7
ATOM      7  C   UNL A   1      33.022  26.142  22.756  1.00  0.00     0.160 C 
BRANCH   7   8
ATOM      8  C   UNL A   1      32.380  27.489  22.411  1.00  0.00     0.184 C 
ATOM      9  N   UNL A   1      31.719  28.717  24.548  1.00  0.00    -0.322 N 
ATOM     10  C   UNL A   1      30.357  28.765  24.006  1.00  0.00     0.291 C 
ATOM     11  C   UNL A   1      32.679  28.588  23.458  1.00  0.00     0.295 C 
ATOM     12  H   UNL A   1      31.947  29.619  24.969  1.00  0.00     0.348 HD
ATOM     13  C   UNL A   1      30.055  27.628  23.019  1.00  0.00     0.222 C 
ATOM     14  O   UNL A   1      31.023  27.512  21.968  1.00  0.00    -0.366 OA
BRANCH   9  15
ATOM     15  C   UNL A   1      31.917  28.008  25.824  1.00  0.00     0.248 C 
ATOM     16  C   UNL A   1      33.312  28.223  26.432  1.00  0.00     0.084 C 
BRANCH  15  17
ATOM     17  C   UNL A   1      31.504  26.560  25.895  1.00  0.00     0.161 A 
ATOM     18  C   UNL A   1      32.685  23.229  26.536  1.00  0.00     0.087 C 
ATOM     19  C   UNL A   1      31.837  24.413  26.271  1.00  0.00     0.101 A 
ATOM     20  C   UNL A   1      30.479  24.570  26.108  1.00  0.00     0.046 A 
ATOM     21  O   UNL A   1      32.467  25.618  26.131  1.00  0.00    -0.460 OA
ATOM     22  C   UNL A   1      30.262  25.950  25.894  1.00  0.00     0.052 A 
ENDBRANCH  15  17
ENDBRANCH   9  15
ENDBRANCH   7   8
ENDBRANCH   5   7
ENDBRANCH   4   5
ENDBRANCH   3   4
ENDBRANCH   2   3
ENDBRANCH   1   2
BRANCH   1  23
ATOM     23  C   UNL A   1      36.501  21.109  24.905  1.00  0.00     0.202 C 
BRANCH  23  24
ATOM     24  C   UNL A   1      37.963  21.564  25.112  1.00  0.00     0.261 C 
BRANCH  24  25
ATOM     25  O   UNL A   1      38.213  22.587  26.085  1.00  0.00    -0.460 OA
BRANCH  25  26
ATOM     26  C   UNL A   1      39.502  22.879  26.350  1.00  0.00     0.338 C 
ATOM     27  O   UNL A   1      40.477  22.218  26.049  1.00  0.00    -0.246 OA
BRANCH  26  28
ATOM     28  C   UNL A   1      39.554  24.238  26.932  1.00  0.00     0.060 A 
ATOM     29  C   UNL A   1      40.265  25.233  26.253  1.00  0.00     0.016 A 
ATOM     30  C   UNL A   1      38.970  24.505  28.175  1.00  0.00     0.016 A 
ATOM     31  C   UNL A   1      40.458  26.480  26.849  1.00  0.00     0.010 A 
ATOM     32  C   UNL A   1      39.175  25.751  28.776  1.00  0.00     0.010 A 
ATOM     33  C   UNL A   1      39.963  26.725  28.137  1.00  0.00    -0.014 A 
BRANCH  33  34
ATOM     34  C   UNL A   1      40.443  27.909  28.891  1.00  0.00     0.031 A 
ATOM     35  C   UNL A   1      41.818  27.863  29.503  1.00  0.00     0.074 A 
ATOM     36  C   UNL A   1      39.687  29.014  29.010  1.00  0.00     0.049 A 
ATOM     37  N   UNL A   1      42.444  28.771  30.208  1.00  0.00    -0.248 NA
ATOM     38  C   UNL A   1      42.586  26.626  29.295  1.00  0.00     0.031 C 
ATOM     39  C   UNL A   1      38.355  29.193  28.437  1.00  0.00     0.029 A 
ATOM     40  N   UNL A   1      39.936  30.195  29.665  1.00  0.00    -0.354 N 
ATOM     41  C   UNL A   1      43.672  28.209  30.539  1.00  0.00     0.074 A 
ATOM     42  C   UNL A   1      43.692  26.875  29.982  1.00  0.00     0.031 C 
ATOM     43  C   UNL A   1      37.895  30.409  28.778  1.00  0.00     0.029 A 
ATOM     44  C   UNL A   1      38.889  31.081  29.616  1.00  0.00     0.049 A 
ATOM     45  H   UNL A   1      40.784  30.388  30.125  1.00  0.00     0.167 HD
ATOM     46  C   UNL A   1      44.691  28.753  31.246  1.00  0.00     0.031 A 
ATOM     47  C   UNL A   1      38.737  32.287  30.199  1.00  0.00     0.031 A 
ATOM     48  C   UNL A   1      44.661  30.074  31.815  1.00  0.00     0.049 A 
ATOM     49  C   UNL A   1      39.860  32.859  31.020  1.00  0.00     0.074 A 
ATOM     50  C   UNL A   1      45.653  30.732  32.519  1.00  0.00     0.029 A 
ATOM     51  N   UNL A   1      43.572  30.933  31.760  1.00  0.00    -0.354 N 
ATOM     52  N   UNL A   1      41.034  32.334  31.288  1.00  0.00    -0.248 NA
ATOM     53  C   UNL A   1      39.646  34.188  31.608  1.00  0.00     0.031 C 
ATOM     54  C   UNL A   1      45.143  31.964  32.943  1.00  0.00     0.029 A 
ATOM     55  C   UNL A   1      43.855  32.100  32.448  1.00  0.00     0.049 A 
ATOM     56  H   UNL A   1      42.724  30.739  31.300  1.00  0.00     0.167 HD
ATOM     57  C   UNL A   1      41.704  33.278  32.061  1.00  0.00     0.074 A 
ATOM     58  C   UNL A   1      40.811  34.409  32.205  1.00  0.00     0.031 C 
ATOM     59  C   UNL A   1      42.949  33.214  32.596  1.00  0.00     0.031 A 
BRANCH  46  60
ATOM     60  C   UNL A   1      45.901  27.887  31.486  1.00  0.00    -0.014 A 
ATOM     61  C   UNL A   1      45.985  27.029  32.598  1.00  0.00     0.010 A 
ATOM     62  C   UNL A   1      46.978  27.940  30.582  1.00  0.00     0.010 A 
ATOM     63  C   UNL A   1      47.147  26.287  32.833  1.00  0.00     0.020 A 
ATOM     64  C   UNL A   1      48.129  27.178  30.798  1.00  0.00     0.020 A 
ATOM     65  C   UNL A   1      48.216  26.375  31.937  1.00  0.00     0.054 A 
BRANCH  65  66
ATOM     66  S   UNL A   1      49.720  25.418  32.273  1.00  0.00     0.124 S 
ATOM     67  O   UNL A   1      49.239  24.434  33.240  1.00  0.00    -0.237 OA
ATOM     68  O   UNL A   1      50.064  24.887  30.956  1.00  0.00    -0.237 OA
ATOM     69  O   UNL A   1      50.651  26.410  32.804  1.00  0.00    -0.744 OA
ENDBRANCH  65  66
ENDBRANCH  46  60
BRANCH  47  70
ATOM     70  C   UNL A   1      37.450  33.017  30.032  1.00  0.00    -0.014 A 
ATOM     71  C   UNL A   1      37.183  33.754  28.867  1.00  0.00     0.010 A 
ATOM     72  C   UNL A   1      36.457  32.920  31.024  1.00  0.00     0.010 A 
ATOM     73  C   UNL A   1      35.940  34.371  28.691  1.00  0.00     0.020 A 
ATOM     74  C   UNL A   1      35.205  33.514  30.841  1.00  0.00     0.020 A 
ATOM     75  C   UNL A   1      34.955  34.236  29.673  1.00  0.00     0.054 A 
BRANCH  75  76
ATOM     76  S   UNL A   1      33.313  34.948  29.373  1.00  0.00     0.124 S 
ATOM     77  O   UNL A   1      33.644  36.290  28.904  1.00  0.00    -0.237 OA
ATOM     78  O   UNL A   1      32.757  34.044  28.370  1.00  0.00    -0.237 OA
ATOM     79  O   UNL A   1      32.668  34.881  30.683  1.00  0.00    -0.744 OA
ENDBRANCH  75  76
ENDBRANCH  47  70
BRANCH  59  80
ATOM     80  C   UNL A   1      43.435  34.409  33.375  1.00  0.00    -0.014 A 
ATOM     81  C   UNL A   1      43.995  35.523  32.727  1.00  0.00     0.010 A 
ATOM     82  C   UNL A   1      43.268  34.440  34.772  1.00  0.00     0.010 A 
ATOM     83  C   UNL A   1      44.406  36.636  33.465  1.00  0.00     0.020 A 
ATOM     84  C   UNL A   1      43.653  35.562  35.511  1.00  0.00     0.020 A 
ATOM     85  C   UNL A   1      44.233  36.648  34.854  1.00  0.00     0.054 A 
BRANCH  85  86
ATOM     86  S   UNL A   1      44.736  38.121  35.785  1.00  0.00     0.124 S 
ATOM     87  O   UNL A   1      43.782  38.122  36.890  1.00  0.00    -0.237 OA
ATOM     88  O   UNL A   1      46.118  37.816  36.148  1.00  0.00    -0.237 OA
ATOM     89  O   UNL A   1      44.577  39.210  34.823  1.00  0.00    -0.744 OA
ENDBRANCH  85  86
ENDBRANCH  59  80
ENDBRANCH  33  34
ENDBRANCH  26  28
ENDBRANCH  25  26
ENDBRANCH  24  25
ENDBRANCH  23  24
ENDBRANCH   1  23
TORSDOF 20
ENDMDL
MODEL 3
REMARK VINA RESULT:      -9.6      3.956      4.725
REMARK SMILES Cc1ccc([C@@H](C)[N@@H+]2CCO[C@H](CC(=O)OCCOCCOC(=O)c3ccc(-c4c5nc(c(-c6ccc(S(=O)(=O)[O-])cc6)c6ccc([nH]6)c(-c6ccc(S(=O)(=O)[O-])cc6)c6nc(c(-c7ccc(S(=O)(=O)[O-])cc7)c7ccc4[nH]7)C=C6)C=C5)cc3)C2)o1
REMARK SMILES IDX 19 1 18 2 17 3 16 4 14 5 15 6 13 7 12 8 8 9 9 10 85 11 10 13
REMARK SMILES IDX 11 14 6 15 7 16 5 17 1 18 2 19 3 20 86 21 4 22 20 23 21 24
REMARK SMILES IDX 22 25 23 26 24 27 25 28 26 29 84 30 27 31 83 32 28 33 29 34
REMARK SMILES IDX 30 35 77 36 31 37 82 38 76 39 78 40 32 41 81 42 75 43 74 44
REMARK SMILES IDX 33 46 63 47 44 48 62 49 45 50 48 51 61 52 79 53 46 54 47 55
REMARK SMILES IDX 60 57 80 58 49 59 34 60 35 61 43 62 36 63 42 64 37 65 38 66
REMARK SMILES IDX 39 67 40 68 41 69 64 70 65 71 73 72 66 73 72 74 67 75 68 76
REMARK SMILES IDX 69 77 70 78 71 79 50 80 51 81 59 82 52 83 58 84 53 85 54 86
REMARK SMILES IDX 55 87 56 88 57 89
REMARK H PARENT 8 12 78 45 48 56
REMARK Flexibility Score: inf
ROOT
ATOM      1  O   UNL A   1      35.472  21.203  25.235  1.00  0.00    -0.374 OA
ENDROOT
BRANCH   1   2
ATOM      2  C   UNL A   1      35.126  22.217  24.309  1.00  0.00     0.202 C 
BRANCH   2   3
ATOM      3  C   UNL A   1      33.652  22.607  24.424  1.00  0.00     0.261 C 
BRANCH   3   4
ATOM      4  O   UNL A   1      32.970  22.705  23.165  1.00  0.00    -0.463 OA
BRANCH   4   5
ATOM      5  C   UNL A   1      33.079  23.878  22.503  1.00  0.00     0.308 C 
ATOM      6  O   UNL A   1      33.181  23.994  21.284  1.00  0.00    -0.252 OA
BRANCH   5   7
ATOM      7  C   UNL A   1      32.932  25.099  23.361  1.00  0.00     0.160 C 
BRANCH   7   8
ATOM      8  C   UNL A   1      33.976  26.216  23.461  1.00  0.00     0.184 C 
ATOM      9  N   UNL A   1      33.048  28.162  24.826  1.00  0.00    -0.322 N 
ATOM     10  C   UNL A   1      33.331  29.010  23.663  1.00  0.00     0.291 C 
ATOM     11  C   UNL A   1      33.911  26.987  24.800  1.00  0.00     0.295 C 
ATOM     12  H   UNL A   1      33.327  28.652  25.677  1.00  0.00     0.348 HD
ATOM     13  C   UNL A   1      33.325  28.241  22.334  1.00  0.00     0.222 C 
ATOM     14  O   UNL A   1      34.167  27.081  22.341  1.00  0.00    -0.366 OA
BRANCH   9  15
ATOM     15  C   UNL A   1      31.647  28.068  25.272  1.00  0.00     0.248 C 
ATOM     16  C   UNL A   1      31.320  26.744  25.982  1.00  0.00     0.084 C 
BRANCH  15  17
ATOM     17  C   UNL A   1      30.569  28.446  24.288  1.00  0.00     0.161 A 
ATOM     18  C   UNL A   1      28.870  31.218  22.761  1.00  0.00     0.087 C 
ATOM     19  C   UNL A   1      29.356  29.865  23.115  1.00  0.00     0.101 A 
ATOM     20  C   UNL A   1      29.064  28.612  22.626  1.00  0.00     0.046 A 
ATOM     21  O   UNL A   1      30.262  29.770  24.134  1.00  0.00    -0.460 OA
ATOM     22  C   UNL A   1      29.862  27.704  23.359  1.00  0.00     0.052 A 
ENDBRANCH  15  17
ENDBRANCH   9  15
ENDBRANCH   7   8
ENDBRANCH   5   7
ENDBRANCH   4   5
ENDBRANCH   3   4
ENDBRANCH   2   3
ENDBRANCH   1   2
BRANCH   1  23
ATOM     23  C   UNL A   1      36.729  20.556  25.072  1.00  0.00     0.202 C 
BRANCH  23  24
ATOM     24  C   UNL A   1      38.050  21.356  25.027  1.00  0.00     0.261 C 
BRANCH  24  25
ATOM     25  O   UNL A   1      38.283  22.320  26.062  1.00  0.00    -0.460 OA
BRANCH  25  26
ATOM     26  C   UNL A   1      39.566  22.633  26.331  1.00  0.00     0.338 C 
ATOM     27  O   UNL A   1      40.548  21.957  26.093  1.00  0.00    -0.246 OA
BRANCH  26  28
ATOM     28  C   UNL A   1      39.605  24.028  26.824  1.00  0.00     0.060 A 
ATOM     29  C   UNL A   1      40.220  25.003  26.032  1.00  0.00     0.016 A 
ATOM     30  C   UNL A   1      39.105  24.352  28.089  1.00  0.00     0.016 A 
ATOM     31  C   UNL A   1      40.405  26.292  26.533  1.00  0.00     0.010 A 
ATOM     32  C   UNL A   1      39.303  25.641  28.595  1.00  0.00     0.010 A 
ATOM     33  C   UNL A   1      39.999  26.600  27.839  1.00  0.00    -0.014 A 
BRANCH  33  34
ATOM     34  C   UNL A   1      40.484  27.847  28.480  1.00  0.00     0.031 A 
ATOM     35  C   UNL A   1      41.926  27.921  28.908  1.00  0.00     0.074 A 
ATOM     36  C   UNL A   1      39.672  28.903  28.656  1.00  0.00     0.049 A 
ATOM     37  N   UNL A   1      42.569  28.901  29.491  1.00  0.00    -0.248 NA
ATOM     38  C   UNL A   1      42.749  26.730  28.647  1.00  0.00     0.031 C 
ATOM     39  C   UNL A   1      38.268  28.965  28.256  1.00  0.00     0.029 A 
ATOM     40  N   UNL A   1      39.916  30.126  29.229  1.00  0.00    -0.354 N 
ATOM     41  C   UNL A   1      43.867  28.438  29.679  1.00  0.00     0.074 A 
ATOM     42  C   UNL A   1      43.913  27.084  29.172  1.00  0.00     0.031 C 
ATOM     43  C   UNL A   1      37.768  30.162  28.610  1.00  0.00     0.029 A 
ATOM     44  C   UNL A   1      38.809  30.937  29.286  1.00  0.00     0.049 A 
ATOM     45  H   UNL A   1      40.800  30.397  29.567  1.00  0.00     0.167 HD
ATOM     46  C   UNL A   1      44.927  29.081  30.226  1.00  0.00     0.031 A 
ATOM     47  C   UNL A   1      38.646  32.156  29.839  1.00  0.00     0.031 A 
ATOM     48  C   UNL A   1      44.874  30.422  30.745  1.00  0.00     0.049 A 
ATOM     49  C   UNL A   1      39.821  32.838  30.485  1.00  0.00     0.074 A 
ATOM     50  C   UNL A   1      45.898  31.176  31.288  1.00  0.00     0.029 A 
ATOM     51  N   UNL A   1      43.728  31.202  30.802  1.00  0.00    -0.354 N 
ATOM     52  N   UNL A   1      41.054  32.407  30.615  1.00  0.00    -0.248 NA
ATOM     53  C   UNL A   1      39.588  34.175  31.046  1.00  0.00     0.031 C 
ATOM     54  C   UNL A   1      45.358  32.389  31.730  1.00  0.00     0.029 A 
ATOM     55  C   UNL A   1      44.010  32.416  31.403  1.00  0.00     0.049 A 
ATOM     56  H   UNL A   1      42.843  30.931  30.464  1.00  0.00     0.167 HD
ATOM     57  C   UNL A   1      41.748  33.427  31.258  1.00  0.00     0.074 A 
ATOM     58  C   UNL A   1      40.801  34.502  31.477  1.00  0.00     0.031 C 
ATOM     59  C   UNL A   1      43.053  33.472  31.628  1.00  0.00     0.031 A 
BRANCH  46  60
ATOM     60  C   UNL A   1      46.217  28.311  30.337  1.00  0.00    -0.014 A 
ATOM     61  C   UNL A   1      47.212  28.392  29.345  1.00  0.00     0.010 A 
ATOM     62  C   UNL A   1      46.433  27.483  31.454  1.00  0.00     0.010 A 
ATOM     63  C   UNL A   1      48.371  27.614  29.440  1.00  0.00     0.020 A 
ATOM     64  C   UNL A   1      47.603  26.727  31.567  1.00  0.00     0.020 A 
ATOM     65  C   UNL A   1      48.553  26.779  30.546  1.00  0.00     0.054 A 
BRANCH  65  66
ATOM     66  S   UNL A   1      50.055  25.765  30.638  1.00  0.00     0.124 S 
ATOM     67  O   UNL A   1      49.900  24.894  29.476  1.00  0.00    -0.237 OA
ATOM     68  O   UNL A   1      51.120  26.760  30.539  1.00  0.00    -0.237 OA
ATOM     69  O   UNL A   1      49.946  25.101  31.934  1.00  0.00    -0.744 OA
ENDBRANCH  65  66
ENDBRANCH  46  60
BRANCH  47  70
ATOM     70  C   UNL A   1      37.300  32.788  29.816  1.00  0.00    -0.014 A 
ATOM     71  C   UNL A   1      36.433  32.684  30.917  1.00  0.00     0.010 A 
ATOM     72  C   UNL A   1      36.905  33.557  28.704  1.00  0.00     0.010 A 
ATOM     73  C   UNL A   1      35.202  33.347  30.911  1.00  0.00     0.020 A 
ATOM     74  C   UNL A   1      35.687  34.241  28.706  1.00  0.00     0.020 A 
ATOM     75  C   UNL A   1      34.842  34.132  29.811  1.00  0.00     0.054 A 
BRANCH  75  76
ATOM     76  S   UNL A   1      33.292  35.074  29.875  1.00  0.00     0.124 S 
ATOM     77  O   UNL A   1      33.731  36.409  29.480  1.00  0.00    -0.237 OA
ATOM     78  O   UNL A   1      32.456  34.369  28.907  1.00  0.00    -0.237 OA
ATOM     79  O   UNL A   1      32.868  34.938  31.266  1.00  0.00    -0.744 OA
ENDBRANCH  75  76
ENDBRANCH  47  70
BRANCH  59  80
ATOM     80  C   UNL A   1      43.546  34.731  32.293  1.00  0.00    -0.014 A 
ATOM     81  C   UNL A   1      43.906  35.860  31.538  1.00  0.00     0.010 A 
ATOM     82  C   UNL A   1      43.588  34.803  33.697  1.00  0.00     0.010 A 
ATOM     83  C   UNL A   1      44.328  37.031  32.175  1.00  0.00     0.020 A 
ATOM     84  C   UNL A   1      43.983  35.980  34.339  1.00  0.00     0.020 A 
ATOM     85  C   UNL A   1      44.364  37.083  33.573  1.00  0.00     0.054 A 
BRANCH  85  86
ATOM     86  S   UNL A   1      44.873  38.626  34.378  1.00  0.00     0.124 S 
ATOM     87  O   UNL A   1      44.936  39.551  33.250  1.00  0.00    -0.237 OA
ATOM     88  O   UNL A   1      43.790  38.866  35.328  1.00  0.00    -0.237 OA
ATOM     89  O   UNL A   1      46.160  38.292  34.983  1.00  0.00    -0.744 OA
ENDBRANCH  85  86
ENDBRANCH  59  80
ENDBRANCH  33  34
ENDBRANCH  26  28
ENDBRANCH  25  26
ENDBRANCH  24  25
ENDBRANCH  23  24
ENDBRANCH   1  23
TORSDOF 20
ENDMDL
