MODEL 1
REMARK VINA RESULT:     -11.8      0.000      0.000
REMARK SMILES Cc1cc(C(=O)OCCOCCOC(=O)c2ccc(-c3c4nc(c(-c5ccc(S(=O)(=O)[O-])cc5)c5ccc([nH]5)c(-c5ccc(S(=O)(=O)[O-])cc5)c5nc(c(-c6ccc(S(=O)(=O)[O-])cc6)c6ccc3[nH]6)C=C5)C=C4)cc2)ccc1NC(=O)N1C[C@@H](C)[C@H](C)C1
REMARK SMILES IDX 11 1 10 2 9 3 8 4 7 5 5 6 6 7 4 8 1 9 2 10 3 11 78 12 77 13
REMARK SMILES IDX 76 14 79 15 80 16 81 18 82 19 83 20 88 21 84 22 86 23 85 24
REMARK SMILES IDX 87 25 12 26 13 27 14 28 15 29 16 30 17 31 75 32 18 33 74 34
REMARK SMILES IDX 19 35 20 36 21 37 68 38 22 39 73 40 67 41 69 42 23 43 72 44
REMARK SMILES IDX 66 45 65 46 24 48 54 49 35 50 53 51 36 52 39 53 52 54 70 55
REMARK SMILES IDX 37 56 38 57 51 59 71 60 40 61 25 62 26 63 34 64 27 65 33 66
REMARK SMILES IDX 28 67 29 68 30 69 31 70 32 71 55 72 56 73 64 74 57 75 63 76
REMARK SMILES IDX 58 77 59 78 60 79 61 80 62 81 41 82 42 83 50 84 43 85 49 86
REMARK SMILES IDX 44 87 45 88 46 89 47 90 48 91
REMARK H PARENT 79 17 69 47 39 58
REMARK Flexibility Score: inf
ROOT
ATOM      1  C   UNL A   1      33.012  28.366  24.750  1.00  0.00     0.202 C 
ENDROOT
BRANCH   1   2
ATOM      2  O   UNL A   1      31.906  29.024  24.177  1.00  0.00    -0.374 OA
BRANCH   2   3
ATOM      3  C   UNL A   1      31.689  28.777  22.795  1.00  0.00     0.202 C 
BRANCH   3   4
ATOM      4  C   UNL A   1      30.285  28.267  22.670  1.00  0.00     0.261 C 
BRANCH   4   5
ATOM      5  O   UNL A   1      29.717  27.732  23.890  1.00  0.00    -0.460 OA
BRANCH   5   6
ATOM      6  C   UNL A   1      29.107  26.520  23.903  1.00  0.00     0.338 C 
ATOM      7  O   UNL A   1      27.921  26.268  23.911  1.00  0.00    -0.246 OA
BRANCH   6   8
ATOM      8  C   UNL A   1      30.171  25.521  24.095  1.00  0.00     0.060 A 
ATOM      9  C   UNL A   1      31.991  23.787  26.908  1.00  0.00     0.046 C 
ATOM     10  C   UNL A   1      31.715  24.330  25.536  1.00  0.00    -0.027 A 
ATOM     11  C   UNL A   1      30.577  25.142  25.375  1.00  0.00     0.021 A 
ATOM     12  C   UNL A   1      32.468  24.018  24.391  1.00  0.00     0.045 A 
ATOM     13  C   UNL A   1      31.883  24.165  23.135  1.00  0.00     0.027 A 
ATOM     14  C   UNL A   1      30.767  24.946  22.978  1.00  0.00     0.018 A 
BRANCH  12  15
ATOM     15  N   UNL A   1      33.813  23.610  24.465  1.00  0.00    -0.308 N 
ATOM     16  C   UNL A   1      34.301  22.389  24.861  1.00  0.00     0.321 C 
ATOM     17  H   UNL A   1      34.484  24.281  24.203  1.00  0.00     0.171 HD
ATOM     18  O   UNL A   1      35.425  22.329  25.359  1.00  0.00    -0.248 OA
ATOM     19  N   UNL A   1      33.514  21.272  24.700  1.00  0.00    -0.324 N 
ATOM     20  C   UNL A   1      33.518  20.199  25.672  1.00  0.00     0.125 C 
ATOM     21  C   UNL A   1      32.862  20.856  23.455  1.00  0.00     0.125 C 
ATOM     22  C   UNL A   1      33.215  18.935  24.878  1.00  0.00     0.010 C 
ATOM     23  C   UNL A   1      32.321  19.442  23.729  1.00  0.00     0.010 C 
ATOM     24  C   UNL A   1      32.555  17.858  25.727  1.00  0.00     0.010 C 
ATOM     25  C   UNL A   1      32.358  18.527  22.507  1.00  0.00     0.010 C 
ENDBRANCH  12  15
ENDBRANCH   6   8
ENDBRANCH   5   6
ENDBRANCH   4   5
ENDBRANCH   3   4
ENDBRANCH   2   3
ENDBRANCH   1   2
BRANCH   1  26
ATOM     26  C   UNL A   1      32.735  27.902  26.182  1.00  0.00     0.261 C 
BRANCH  26  27
ATOM     27  O   UNL A   1      33.860  28.190  27.040  1.00  0.00    -0.460 OA
BRANCH  27  28
ATOM     28  C   UNL A   1      33.954  29.475  27.499  1.00  0.00     0.338 C 
ATOM     29  O   UNL A   1      33.011  30.244  27.549  1.00  0.00    -0.246 OA
BRANCH  28  30
ATOM     30  C   UNL A   1      35.335  29.761  27.986  1.00  0.00     0.060 A 
ATOM     31  C   UNL A   1      36.373  30.121  27.106  1.00  0.00     0.016 A 
ATOM     32  C   UNL A   1      35.629  29.500  29.319  1.00  0.00     0.016 A 
ATOM     33  C   UNL A   1      37.716  30.090  27.536  1.00  0.00     0.010 A 
ATOM     34  C   UNL A   1      36.945  29.379  29.707  1.00  0.00     0.010 A 
ATOM     35  C   UNL A   1      38.005  29.652  28.826  1.00  0.00    -0.014 A 
BRANCH  35  36
ATOM     36  C   UNL A   1      39.326  29.348  29.397  1.00  0.00     0.031 A 
ATOM     37  C   UNL A   1      39.992  28.092  28.980  1.00  0.00     0.074 A 
ATOM     38  C   UNL A   1      40.073  30.331  29.960  1.00  0.00     0.049 A 
ATOM     39  N   UNL A   1      41.138  27.713  29.419  1.00  0.00    -0.248 NA
ATOM     40  C   UNL A   1      39.409  27.122  28.049  1.00  0.00     0.031 C 
ATOM     41  C   UNL A   1      41.530  30.486  29.969  1.00  0.00     0.029 A 
ATOM     42  N   UNL A   1      39.644  31.471  30.634  1.00  0.00    -0.354 N 
ATOM     43  C   UNL A   1      41.592  26.711  28.599  1.00  0.00     0.074 A 
ATOM     44  C   UNL A   1      40.436  26.288  27.852  1.00  0.00     0.031 C 
ATOM     45  C   UNL A   1      41.879  31.488  30.798  1.00  0.00     0.029 A 
ATOM     46  C   UNL A   1      40.669  31.947  31.461  1.00  0.00     0.049 A 
ATOM     47  H   UNL A   1      38.754  31.881  30.542  1.00  0.00     0.167 HD
ATOM     48  C   UNL A   1      42.930  26.463  28.571  1.00  0.00     0.031 A 
ATOM     49  C   UNL A   1      40.449  32.083  32.797  1.00  0.00     0.031 A 
ATOM     50  C   UNL A   1      43.624  27.237  29.612  1.00  0.00     0.049 A 
ATOM     51  C   UNL A   1      41.258  31.015  33.480  1.00  0.00     0.074 A 
ATOM     52  C   UNL A   1      44.473  28.329  29.585  1.00  0.00     0.029 A 
ATOM     53  N   UNL A   1      43.200  27.107  30.936  1.00  0.00    -0.354 N 
ATOM     54  N   UNL A   1      41.665  29.947  32.847  1.00  0.00    -0.248 NA
ATOM     55  C   UNL A   1      41.794  31.100  34.833  1.00  0.00     0.031 C 
ATOM     56  C   UNL A   1      44.449  28.926  30.883  1.00  0.00     0.029 A 
ATOM     57  C   UNL A   1      43.625  28.172  31.709  1.00  0.00     0.049 A 
ATOM     58  H   UNL A   1      42.665  26.354  31.277  1.00  0.00     0.167 HD
ATOM     59  C   UNL A   1      42.583  29.294  33.599  1.00  0.00     0.074 A 
ATOM     60  C   UNL A   1      42.584  30.009  34.866  1.00  0.00     0.031 C 
ATOM     61  C   UNL A   1      43.298  28.233  33.132  1.00  0.00     0.031 A 
BRANCH  48  62
ATOM     62  C   UNL A   1      43.643  25.660  27.501  1.00  0.00    -0.014 A 
ATOM     63  C   UNL A   1      44.225  24.421  27.841  1.00  0.00     0.010 A 
ATOM     64  C   UNL A   1      43.838  26.085  26.171  1.00  0.00     0.010 A 
ATOM     65  C   UNL A   1      44.946  23.653  26.909  1.00  0.00     0.020 A 
ATOM     66  C   UNL A   1      44.532  25.317  25.222  1.00  0.00     0.020 A 
ATOM     67  C   UNL A   1      45.089  24.104  25.599  1.00  0.00     0.054 A 
BRANCH  67  68
ATOM     68  S   UNL A   1      46.010  23.100  24.405  1.00  0.00     0.124 S 
ATOM     69  O   UNL A   1      47.010  24.042  23.909  1.00  0.00    -0.237 OA
ATOM     70  O   UNL A   1      46.523  22.013  25.233  1.00  0.00    -0.237 OA
ATOM     71  O   UNL A   1      44.997  22.704  23.427  1.00  0.00    -0.744 OA
ENDBRANCH  67  68
ENDBRANCH  48  62
BRANCH  49  72
ATOM     72  C   UNL A   1      39.073  32.609  33.096  1.00  0.00    -0.014 A 
ATOM     73  C   UNL A   1      38.731  33.846  32.491  1.00  0.00     0.010 A 
ATOM     74  C   UNL A   1      38.019  31.742  33.446  1.00  0.00     0.010 A 
ATOM     75  C   UNL A   1      37.413  34.129  32.095  1.00  0.00     0.020 A 
ATOM     76  C   UNL A   1      36.698  32.014  33.030  1.00  0.00     0.020 A 
ATOM     77  C   UNL A   1      36.414  33.181  32.312  1.00  0.00     0.054 A 
BRANCH  77  78
ATOM     78  S   UNL A   1      34.845  33.335  31.376  1.00  0.00     0.124 S 
ATOM     79  O   UNL A   1      35.098  32.517  30.197  1.00  0.00    -0.237 OA
ATOM     80  O   UNL A   1      33.852  32.798  32.309  1.00  0.00    -0.237 OA
ATOM     81  O   UNL A   1      34.734  34.772  31.147  1.00  0.00    -0.744 OA
ENDBRANCH  77  78
ENDBRANCH  49  72
BRANCH  61  82
ATOM     82  C   UNL A   1      43.790  27.163  34.053  1.00  0.00    -0.014 A 
ATOM     83  C   UNL A   1      42.911  26.316  34.750  1.00  0.00     0.010 A 
ATOM     84  C   UNL A   1      45.166  26.858  34.093  1.00  0.00     0.010 A 
ATOM     85  C   UNL A   1      43.390  25.279  35.543  1.00  0.00     0.020 A 
ATOM     86  C   UNL A   1      45.650  25.780  34.831  1.00  0.00     0.020 A 
ATOM     87  C   UNL A   1      44.758  25.026  35.588  1.00  0.00     0.054 A 
BRANCH  87  88
ATOM     88  S   UNL A   1      45.359  23.685  36.632  1.00  0.00     0.124 S 
ATOM     89  O   UNL A   1      44.797  22.517  35.958  1.00  0.00    -0.237 OA
ATOM     90  O   UNL A   1      46.810  23.825  36.537  1.00  0.00    -0.237 OA
ATOM     91  O   UNL A   1      44.792  23.989  37.943  1.00  0.00    -0.744 OA
ENDBRANCH  87  88
ENDBRANCH  61  82
ENDBRANCH  35  36
ENDBRANCH  28  30
ENDBRANCH  27  28
ENDBRANCH  26  27
ENDBRANCH   1  26
TORSDOF 18
ENDMDL
MODEL 2
REMARK VINA RESULT:     -11.8      1.190      1.871
REMARK SMILES Cc1cc(C(=O)OCCOCCOC(=O)c2ccc(-c3c4nc(c(-c5ccc(S(=O)(=O)[O-])cc5)c5ccc([nH]5)c(-c5ccc(S(=O)(=O)[O-])cc5)c5nc(c(-c6ccc(S(=O)(=O)[O-])cc6)c6ccc3[nH]6)C=C5)C=C4)cc2)ccc1NC(=O)N1C[C@@H](C)[C@H](C)C1
REMARK SMILES IDX 11 1 10 2 9 3 8 4 7 5 5 6 6 7 4 8 1 9 2 10 3 11 78 12 77 13
REMARK SMILES IDX 76 14 79 15 80 16 81 18 82 19 83 20 88 21 84 22 86 23 85 24
REMARK SMILES IDX 87 25 12 26 13 27 14 28 15 29 16 30 17 31 75 32 18 33 74 34
REMARK SMILES IDX 19 35 20 36 21 37 68 38 22 39 73 40 67 41 69 42 23 43 72 44
REMARK SMILES IDX 66 45 65 46 24 48 54 49 35 50 53 51 36 52 39 53 52 54 70 55
REMARK SMILES IDX 37 56 38 57 51 59 71 60 40 61 25 62 26 63 34 64 27 65 33 66
REMARK SMILES IDX 28 67 29 68 30 69 31 70 32 71 55 72 56 73 64 74 57 75 63 76
REMARK SMILES IDX 58 77 59 78 60 79 61 80 62 81 41 82 42 83 50 84 43 85 49 86
REMARK SMILES IDX 44 87 45 88 46 89 47 90 48 91
REMARK H PARENT 79 17 69 47 39 58
REMARK Flexibility Score: inf
ROOT
ATOM      1  C   UNL A   1      31.602  30.379  25.420  1.00  0.00     0.202 C 
ENDROOT
BRANCH   1   2
ATOM      2  O   UNL A   1      30.991  29.239  24.862  1.00  0.00    -0.374 OA
BRANCH   2   3
ATOM      3  C   UNL A   1      30.080  29.483  23.801  1.00  0.00     0.202 C 
BRANCH   3   4
ATOM      4  C   UNL A   1      30.900  29.557  22.547  1.00  0.00     0.261 C 
BRANCH   4   5
ATOM      5  O   UNL A   1      31.567  28.325  22.179  1.00  0.00    -0.460 OA
BRANCH   5   6
ATOM      6  C   UNL A   1      32.862  28.104  22.522  1.00  0.00     0.338 C 
ATOM      7  O   UNL A   1      33.860  28.654  22.108  1.00  0.00    -0.246 OA
BRANCH   6   8
ATOM      8  C   UNL A   1      32.866  26.911  23.384  1.00  0.00     0.060 A 
ATOM      9  C   UNL A   1      30.810  23.804  23.976  1.00  0.00     0.046 C 
ATOM     10  C   UNL A   1      31.780  24.919  24.240  1.00  0.00    -0.027 A 
ATOM     11  C   UNL A   1      31.859  25.950  23.285  1.00  0.00     0.021 A 
ATOM     12  C   UNL A   1      32.667  24.961  25.329  1.00  0.00     0.045 A 
ATOM     13  C   UNL A   1      33.814  25.746  25.238  1.00  0.00     0.027 A 
ATOM     14  C   UNL A   1      33.898  26.743  24.300  1.00  0.00     0.018 A 
BRANCH  12  15
ATOM     15  N   UNL A   1      32.412  24.276  26.532  1.00  0.00    -0.308 N 
ATOM     16  C   UNL A   1      32.340  22.919  26.728  1.00  0.00     0.321 C 
ATOM     17  H   UNL A   1      32.266  24.838  27.327  1.00  0.00     0.171 HD
ATOM     18  O   UNL A   1      31.636  22.485  27.640  1.00  0.00    -0.248 OA
ATOM     19  N   UNL A   1      33.048  22.085  25.893  1.00  0.00    -0.324 N 
ATOM     20  C   UNL A   1      32.518  20.803  25.479  1.00  0.00     0.125 C 
ATOM     21  C   UNL A   1      34.479  22.189  25.591  1.00  0.00     0.125 C 
ATOM     22  C   UNL A   1      33.735  19.912  25.272  1.00  0.00     0.010 C 
ATOM     23  C   UNL A   1      34.829  20.901  24.825  1.00  0.00     0.010 C 
ATOM     24  C   UNL A   1      33.478  18.800  24.265  1.00  0.00     0.010 C 
ATOM     25  C   UNL A   1      36.239  20.388  25.108  1.00  0.00     0.010 C 
ENDBRANCH  12  15
ENDBRANCH   6   8
ENDBRANCH   5   6
ENDBRANCH   4   5
ENDBRANCH   3   4
ENDBRANCH   2   3
ENDBRANCH   1   2
BRANCH   1  26
ATOM     26  C   UNL A   1      32.412  30.050  26.676  1.00  0.00     0.261 C 
BRANCH  26  27
ATOM     27  O   UNL A   1      33.802  30.392  26.494  1.00  0.00    -0.460 OA
BRANCH  27  28
ATOM     28  C   UNL A   1      34.401  31.054  27.530  1.00  0.00     0.338 C 
ATOM     29  O   UNL A   1      34.013  32.126  27.960  1.00  0.00    -0.246 OA
BRANCH  28  30
ATOM     30  C   UNL A   1      35.527  30.251  28.088  1.00  0.00     0.060 A 
ATOM     31  C   UNL A   1      35.538  29.818  29.428  1.00  0.00     0.016 A 
ATOM     32  C   UNL A   1      36.661  30.075  27.304  1.00  0.00     0.016 A 
ATOM     33  C   UNL A   1      36.726  29.331  30.011  1.00  0.00     0.010 A 
ATOM     34  C   UNL A   1      37.841  29.690  27.903  1.00  0.00     0.010 A 
ATOM     35  C   UNL A   1      37.899  29.331  29.259  1.00  0.00    -0.014 A 
BRANCH  35  36
ATOM     36  C   UNL A   1      39.267  29.067  29.731  1.00  0.00     0.031 A 
ATOM     37  C   UNL A   1      39.923  27.812  29.295  1.00  0.00     0.074 A 
ATOM     38  C   UNL A   1      40.036  30.078  30.207  1.00  0.00     0.049 A 
ATOM     39  N   UNL A   1      41.108  27.466  29.651  1.00  0.00    -0.248 NA
ATOM     40  C   UNL A   1      39.289  26.807  28.439  1.00  0.00     0.031 C 
ATOM     41  C   UNL A   1      41.486  30.260  30.095  1.00  0.00     0.029 A 
ATOM     42  N   UNL A   1      39.640  31.228  30.883  1.00  0.00    -0.354 N 
ATOM     43  C   UNL A   1      41.516  26.450  28.823  1.00  0.00     0.074 A 
ATOM     44  C   UNL A   1      40.313  25.986  28.182  1.00  0.00     0.031 C 
ATOM     45  C   UNL A   1      41.879  31.290  30.868  1.00  0.00     0.029 A 
ATOM     46  C   UNL A   1      40.716  31.745  31.613  1.00  0.00     0.049 A 
ATOM     47  H   UNL A   1      38.736  31.619  30.852  1.00  0.00     0.167 HD
ATOM     48  C   UNL A   1      42.853  26.226  28.695  1.00  0.00     0.031 A 
ATOM     49  C   UNL A   1      40.601  31.914  32.958  1.00  0.00     0.031 A 
ATOM     50  C   UNL A   1      43.611  27.041  29.658  1.00  0.00     0.049 A 
ATOM     51  C   UNL A   1      41.482  30.880  33.602  1.00  0.00     0.074 A 
ATOM     52  C   UNL A   1      44.433  28.147  29.534  1.00  0.00     0.029 A 
ATOM     53  N   UNL A   1      43.296  26.939  31.014  1.00  0.00    -0.354 N 
ATOM     54  N   UNL A   1      41.860  29.802  32.966  1.00  0.00    -0.248 NA
ATOM     55  C   UNL A   1      42.122  31.012  34.905  1.00  0.00     0.031 C 
ATOM     56  C   UNL A   1      44.500  28.779  30.815  1.00  0.00     0.029 A 
ATOM     57  C   UNL A   1      43.759  28.033  31.722  1.00  0.00     0.049 A 
ATOM     58  H   UNL A   1      42.805  26.187  31.416  1.00  0.00     0.167 HD
ATOM     59  C   UNL A   1      42.847  29.187  33.660  1.00  0.00     0.074 A 
ATOM     60  C   UNL A   1      42.934  29.937  34.903  1.00  0.00     0.031 C 
ATOM     61  C   UNL A   1      43.544  28.127  33.165  1.00  0.00     0.031 A 
BRANCH  48  62
ATOM     62  C   UNL A   1      43.495  25.407  27.594  1.00  0.00    -0.014 A 
ATOM     63  C   UNL A   1      44.113  24.181  27.915  1.00  0.00     0.010 A 
ATOM     64  C   UNL A   1      43.589  25.805  26.244  1.00  0.00     0.010 A 
ATOM     65  C   UNL A   1      44.773  23.400  26.949  1.00  0.00     0.020 A 
ATOM     66  C   UNL A   1      44.220  25.024  25.263  1.00  0.00     0.020 A 
ATOM     67  C   UNL A   1      44.816  23.824  25.624  1.00  0.00     0.054 A 
BRANCH  67  68
ATOM     68  S   UNL A   1      45.659  22.803  24.387  1.00  0.00     0.124 S 
ATOM     69  O   UNL A   1      46.619  23.741  23.809  1.00  0.00    -0.237 OA
ATOM     70  O   UNL A   1      46.231  21.732  25.196  1.00  0.00    -0.237 OA
ATOM     71  O   UNL A   1      44.584  22.388  23.486  1.00  0.00    -0.744 OA
ENDBRANCH  67  68
ENDBRANCH  48  62
BRANCH  49  72
ATOM     72  C   UNL A   1      39.241  32.423  33.352  1.00  0.00    -0.014 A 
ATOM     73  C   UNL A   1      38.958  33.772  33.018  1.00  0.00     0.010 A 
ATOM     74  C   UNL A   1      38.149  31.547  33.505  1.00  0.00     0.010 A 
ATOM     75  C   UNL A   1      37.658  34.187  32.682  1.00  0.00     0.020 A 
ATOM     76  C   UNL A   1      36.847  31.955  33.148  1.00  0.00     0.020 A 
ATOM     77  C   UNL A   1      36.619  33.257  32.688  1.00  0.00     0.054 A 
BRANCH  77  78
ATOM     78  S   UNL A   1      35.072  33.669  31.795  1.00  0.00     0.124 S 
ATOM     79  O   UNL A   1      34.202  32.553  32.139  1.00  0.00    -0.237 OA
ATOM     80  O   UNL A   1      34.694  34.960  32.373  1.00  0.00    -0.237 OA
ATOM     81  O   UNL A   1      35.502  33.741  30.402  1.00  0.00    -0.744 OA
ENDBRANCH  77  78
ENDBRANCH  49  72
BRANCH  61  82
ATOM     82  C   UNL A   1      44.130  27.092  34.072  1.00  0.00    -0.014 A 
ATOM     83  C   UNL A   1      43.332  26.313  34.927  1.00  0.00     0.010 A 
ATOM     84  C   UNL A   1      45.490  26.744  33.944  1.00  0.00     0.010 A 
ATOM     85  C   UNL A   1      43.887  25.304  35.707  1.00  0.00     0.020 A 
ATOM     86  C   UNL A   1      46.042  25.692  34.671  1.00  0.00     0.020 A 
ATOM     87  C   UNL A   1      45.242  25.009  35.582  1.00  0.00     0.054 A 
BRANCH  87  88
ATOM     88  S   UNL A   1      45.945  23.706  36.611  1.00  0.00     0.124 S 
ATOM     89  O   UNL A   1      45.657  24.207  37.953  1.00  0.00    -0.237 OA
ATOM     90  O   UNL A   1      45.183  22.527  36.206  1.00  0.00    -0.237 OA
ATOM     91  O   UNL A   1      47.355  23.691  36.233  1.00  0.00    -0.744 OA
ENDBRANCH  87  88
ENDBRANCH  61  82
ENDBRANCH  35  36
ENDBRANCH  28  30
ENDBRANCH  27  28
ENDBRANCH  26  27
ENDBRANCH   1  26
TORSDOF 18
ENDMDL
MODEL 3
REMARK VINA RESULT:     -11.1      1.514      2.242
REMARK SMILES Cc1cc(C(=O)OCCOCCOC(=O)c2ccc(-c3c4nc(c(-c5ccc(S(=O)(=O)[O-])cc5)c5ccc([nH]5)c(-c5ccc(S(=O)(=O)[O-])cc5)c5nc(c(-c6ccc(S(=O)(=O)[O-])cc6)c6ccc3[nH]6)C=C5)C=C4)cc2)ccc1NC(=O)N1C[C@@H](C)[C@H](C)C1
REMARK SMILES IDX 11 1 10 2 9 3 8 4 7 5 5 6 6 7 4 8 1 9 2 10 3 11 78 12 77 13
REMARK SMILES IDX 76 14 79 15 80 16 81 18 82 19 83 20 88 21 84 22 86 23 85 24
REMARK SMILES IDX 87 25 12 26 13 27 14 28 15 29 16 30 17 31 75 32 18 33 74 34
REMARK SMILES IDX 19 35 20 36 21 37 68 38 22 39 73 40 67 41 69 42 23 43 72 44
REMARK SMILES IDX 66 45 65 46 24 48 54 49 35 50 53 51 36 52 39 53 52 54 70 55
REMARK SMILES IDX 37 56 38 57 51 59 71 60 40 61 25 62 26 63 34 64 27 65 33 66
REMARK SMILES IDX 28 67 29 68 30 69 31 70 32 71 55 72 56 73 64 74 57 75 63 76
REMARK SMILES IDX 58 77 59 78 60 79 61 80 62 81 41 82 42 83 50 84 43 85 49 86
REMARK SMILES IDX 44 87 45 88 46 89 47 90 48 91
REMARK H PARENT 79 17 69 47 39 58
REMARK Flexibility Score: inf
ROOT
ATOM      1  C   UNL A   1      33.157  27.570  25.084  1.00  0.00     0.202 C 
ENDROOT
BRANCH   1   2
ATOM      2  O   UNL A   1      32.870  28.460  24.031  1.00  0.00    -0.374 OA
BRANCH   2   3
ATOM      3  C   UNL A   1      33.926  28.687  23.110  1.00  0.00     0.202 C 
BRANCH   3   4
ATOM      4  C   UNL A   1      33.661  27.796  21.933  1.00  0.00     0.261 C 
BRANCH   4   5
ATOM      5  O   UNL A   1      32.742  26.705  22.186  1.00  0.00    -0.460 OA
BRANCH   5   6
ATOM      6  C   UNL A   1      32.833  25.542  21.492  1.00  0.00     0.338 C 
ATOM      7  O   UNL A   1      33.104  25.376  20.322  1.00  0.00    -0.246 OA
BRANCH   6   8
ATOM      8  C   UNL A   1      32.351  24.482  22.393  1.00  0.00     0.060 A 
ATOM      9  C   UNL A   1      30.426  24.126  25.617  1.00  0.00     0.046 C 
ATOM     10  C   UNL A   1      31.358  23.783  24.491  1.00  0.00    -0.027 A 
ATOM     11  C   UNL A   1      31.644  24.794  23.554  1.00  0.00     0.021 A 
ATOM     12  C   UNL A   1      31.895  22.504  24.265  1.00  0.00     0.045 A 
ATOM     13  C   UNL A   1      32.334  22.171  22.986  1.00  0.00     0.027 A 
ATOM     14  C   UNL A   1      32.603  23.154  22.068  1.00  0.00     0.018 A 
BRANCH  12  15
ATOM     15  N   UNL A   1      32.054  21.564  25.300  1.00  0.00    -0.308 N 
ATOM     16  C   UNL A   1      33.199  20.897  25.662  1.00  0.00     0.321 C 
ATOM     17  H   UNL A   1      31.248  21.359  25.826  1.00  0.00     0.171 HD
ATOM     18  O   UNL A   1      33.101  19.789  26.191  1.00  0.00    -0.248 OA
ATOM     19  N   UNL A   1      34.419  21.481  25.412  1.00  0.00    -0.324 N 
ATOM     20  C   UNL A   1      35.567  20.692  25.017  1.00  0.00     0.125 C 
ATOM     21  C   UNL A   1      34.818  22.835  25.809  1.00  0.00     0.125 C 
ATOM     22  C   UNL A   1      36.777  21.441  25.560  1.00  0.00     0.010 C 
ATOM     23  C   UNL A   1      36.328  22.915  25.525  1.00  0.00     0.010 C 
ATOM     24  C   UNL A   1      38.038  21.174  24.752  1.00  0.00     0.010 C 
ATOM     25  C   UNL A   1      37.090  23.786  26.521  1.00  0.00     0.010 C 
ENDBRANCH  12  15
ENDBRANCH   6   8
ENDBRANCH   5   6
ENDBRANCH   4   5
ENDBRANCH   3   4
ENDBRANCH   2   3
ENDBRANCH   1   2
BRANCH   1  26
ATOM     26  C   UNL A   1      32.861  28.177  26.457  1.00  0.00     0.261 C 
BRANCH  26  27
ATOM     27  O   UNL A   1      34.081  28.381  27.201  1.00  0.00    -0.460 OA
BRANCH  27  28
ATOM     28  C   UNL A   1      34.291  29.645  27.682  1.00  0.00     0.338 C 
ATOM     29  O   UNL A   1      33.408  30.475  27.799  1.00  0.00    -0.246 OA
BRANCH  28  30
ATOM     30  C   UNL A   1      35.712  29.821  28.099  1.00  0.00     0.060 A 
ATOM     31  C   UNL A   1      36.722  30.151  27.176  1.00  0.00     0.016 A 
ATOM     32  C   UNL A   1      36.060  29.486  29.403  1.00  0.00     0.016 A 
ATOM     33  C   UNL A   1      38.081  30.017  27.527  1.00  0.00     0.010 A 
ATOM     34  C   UNL A   1      37.385  29.265  29.710  1.00  0.00     0.010 A 
ATOM     35  C   UNL A   1      38.410  29.507  28.781  1.00  0.00    -0.014 A 
BRANCH  35  36
ATOM     36  C   UNL A   1      39.738  29.097  29.263  1.00  0.00     0.031 A 
ATOM     37  C   UNL A   1      40.183  27.712  28.980  1.00  0.00     0.074 A 
ATOM     38  C   UNL A   1      40.665  30.029  29.597  1.00  0.00     0.049 A 
ATOM     39  N   UNL A   1      41.313  27.235  29.361  1.00  0.00    -0.248 NA
ATOM     40  C   UNL A   1      39.376  26.719  28.266  1.00  0.00     0.031 C 
ATOM     41  C   UNL A   1      42.122  29.970  29.444  1.00  0.00     0.029 A 
ATOM     42  N   UNL A   1      40.468  31.300  30.128  1.00  0.00    -0.354 N 
ATOM     43  C   UNL A   1      41.536  26.074  28.663  1.00  0.00     0.074 A 
ATOM     44  C   UNL A   1      40.257  25.725  28.101  1.00  0.00     0.031 C 
ATOM     45  C   UNL A   1      42.690  31.015  30.074  1.00  0.00     0.029 A 
ATOM     46  C   UNL A   1      41.634  31.731  30.772  1.00  0.00     0.049 A 
ATOM     47  H   UNL A   1      39.634  31.818  30.060  1.00  0.00     0.167 HD
ATOM     48  C   UNL A   1      42.819  25.634  28.546  1.00  0.00     0.031 A 
ATOM     49  C   UNL A   1      41.589  32.079  32.087  1.00  0.00     0.031 A 
ATOM     50  C   UNL A   1      43.722  26.434  29.387  1.00  0.00     0.049 A 
ATOM     51  C   UNL A   1      42.326  31.009  32.844  1.00  0.00     0.074 A 
ATOM     52  C   UNL A   1      44.697  27.378  29.114  1.00  0.00     0.029 A 
ATOM     53  N   UNL A   1      43.440  26.550  30.750  1.00  0.00    -0.354 N 
ATOM     54  N   UNL A   1      42.516  29.817  32.344  1.00  0.00    -0.248 NA
ATOM     55  C   UNL A   1      43.021  31.201  34.111  1.00  0.00     0.031 C 
ATOM     56  C   UNL A   1      44.900  28.144  30.303  1.00  0.00     0.029 A 
ATOM     57  C   UNL A   1      44.086  27.638  31.308  1.00  0.00     0.049 A 
ATOM     58  H   UNL A   1      42.855  25.936  31.250  1.00  0.00     0.167 HD
ATOM     59  C   UNL A   1      43.421  29.147  33.096  1.00  0.00     0.074 A 
ATOM     60  C   UNL A   1      43.661  30.022  34.234  1.00  0.00     0.031 C 
ATOM     61  C   UNL A   1      43.934  27.940  32.730  1.00  0.00     0.031 A 
BRANCH  48  62
ATOM     62  C   UNL A   1      43.294  24.597  27.548  1.00  0.00    -0.014 A 
ATOM     63  C   UNL A   1      43.065  23.231  27.810  1.00  0.00     0.010 A 
ATOM     64  C   UNL A   1      44.024  24.883  26.375  1.00  0.00     0.010 A 
ATOM     65  C   UNL A   1      43.528  22.217  26.951  1.00  0.00     0.020 A 
ATOM     66  C   UNL A   1      44.469  23.884  25.494  1.00  0.00     0.020 A 
ATOM     67  C   UNL A   1      44.222  22.551  25.792  1.00  0.00     0.054 A 
BRANCH  67  68
ATOM     68  S   UNL A   1      44.801  21.236  24.688  1.00  0.00     0.124 S 
ATOM     69  O   UNL A   1      46.197  21.081  25.092  1.00  0.00    -0.237 OA
ATOM     70  O   UNL A   1      43.918  20.125  25.027  1.00  0.00    -0.237 OA
ATOM     71  O   UNL A   1      44.606  21.792  23.350  1.00  0.00    -0.744 OA
ENDBRANCH  67  68
ENDBRANCH  48  62
BRANCH  49  72
ATOM     72  C   UNL A   1      40.336  32.836  32.432  1.00  0.00    -0.014 A 
ATOM     73  C   UNL A   1      39.978  33.888  31.550  1.00  0.00     0.010 A 
ATOM     74  C   UNL A   1      39.307  32.239  33.185  1.00  0.00     0.010 A 
ATOM     75  C   UNL A   1      38.633  34.212  31.304  1.00  0.00     0.020 A 
ATOM     76  C   UNL A   1      37.955  32.547  32.924  1.00  0.00     0.020 A 
ATOM     77  C   UNL A   1      37.626  33.494  31.947  1.00  0.00     0.054 A 
BRANCH  77  78
ATOM     78  S   UNL A   1      35.924  33.576  31.270  1.00  0.00     0.124 S 
ATOM     79  O   UNL A   1      36.158  33.862  29.861  1.00  0.00    -0.237 OA
ATOM     80  O   UNL A   1      35.392  32.242  31.558  1.00  0.00    -0.237 OA
ATOM     81  O   UNL A   1      35.309  34.645  32.048  1.00  0.00    -0.744 OA
ENDBRANCH  77  78
ENDBRANCH  49  72
BRANCH  61  82
ATOM     82  C   UNL A   1      44.387  26.947  33.752  1.00  0.00    -0.014 A 
ATOM     83  C   UNL A   1      45.660  27.013  34.342  1.00  0.00     0.010 A 
ATOM     84  C   UNL A   1      43.462  26.026  34.286  1.00  0.00     0.010 A 
ATOM     85  C   UNL A   1      46.035  26.125  35.345  1.00  0.00     0.020 A 
ATOM     86  C   UNL A   1      43.805  25.177  35.335  1.00  0.00     0.020 A 
ATOM     87  C   UNL A   1      45.107  25.204  35.826  1.00  0.00     0.054 A 
BRANCH  87  88
ATOM     88  S   UNL A   1      45.616  24.054  37.117  1.00  0.00     0.124 S 
ATOM     89  O   UNL A   1      45.128  22.784  36.586  1.00  0.00    -0.237 OA
ATOM     90  O   UNL A   1      47.069  24.209  37.135  1.00  0.00    -0.237 OA
ATOM     91  O   UNL A   1      44.927  24.545  38.307  1.00  0.00    -0.744 OA
ENDBRANCH  87  88
ENDBRANCH  61  82
ENDBRANCH  35  36
ENDBRANCH  28  30
ENDBRANCH  27  28
ENDBRANCH  26  27
ENDBRANCH   1  26
TORSDOF 18
ENDMDL
