MODEL 1
REMARK VINA RESULT:      -9.7      0.000      0.000
REMARK SMILES CC1(C)CCC[C@@]1(CC(=O)OCCOCCOC(=O)c1ccc(-c2c3nc(c(-c4ccc(S(=O)(=O)[O-])cc4)c4ccc([nH]4)c(-c4ccc(S(=O)(=O)[O-])cc4)c4nc(c(-c5ccc(S(=O)(=O)[O-])cc5)c5ccc2[nH]5)C=C4)C=C3)cc1)[NH+]1CCCCC1
REMARK SMILES IDX 15 1 14 2 13 3 12 4 11 5 9 6 10 7 8 8 7 9 1 10 2 11 3 12
REMARK SMILES IDX 4 13 5 14 6 15 80 16 81 17 85 18 82 20 84 21 83 22 16 23
REMARK SMILES IDX 17 24 18 25 19 26 20 27 21 28 79 29 22 30 78 31 23 32 24 33
REMARK SMILES IDX 25 34 72 35 26 36 77 37 71 38 73 39 27 40 76 41 70 42 69 43
REMARK SMILES IDX 28 45 58 46 39 47 57 48 40 49 43 50 56 51 74 52 41 53 42 54
REMARK SMILES IDX 55 56 75 57 44 58 29 59 30 60 38 61 31 62 37 63 32 64 33 65
REMARK SMILES IDX 34 66 35 67 36 68 59 69 60 70 68 71 61 72 67 73 62 74 63 75
REMARK SMILES IDX 64 76 65 77 66 78 45 79 46 80 54 81 47 82 53 83 48 84 49 85
REMARK SMILES IDX 50 86 51 87 52 88
REMARK H PARENT 80 19 73 44 43 55
REMARK Flexibility Score: inf
ROOT
ATOM      1  C   UNL A   1      36.254  21.151  25.709  1.00  0.00     0.202 C 
ENDROOT
BRANCH   1   2
ATOM      2  O   UNL A   1      35.450  20.575  24.684  1.00  0.00    -0.374 OA
BRANCH   2   3
ATOM      3  C   UNL A   1      34.031  20.745  24.787  1.00  0.00     0.202 C 
BRANCH   3   4
ATOM      4  C   UNL A   1      33.509  22.182  24.931  1.00  0.00     0.261 C 
BRANCH   4   5
ATOM      5  O   UNL A   1      33.814  22.982  23.772  1.00  0.00    -0.463 OA
BRANCH   5   6
ATOM      6  C   UNL A   1      34.412  24.175  24.043  1.00  0.00     0.312 C 
ATOM      7  O   UNL A   1      35.371  24.310  24.790  1.00  0.00    -0.252 OA
BRANCH   6   8
ATOM      8  C   UNL A   1      33.870  25.282  23.148  1.00  0.00     0.191 C 
BRANCH   8   9
ATOM      9  C   UNL A   1      33.001  26.455  23.742  1.00  0.00     0.113 C 
ATOM     10  C   UNL A   1      30.591  25.341  23.626  1.00  0.00     0.018 C 
ATOM     11  C   UNL A   1      31.541  26.411  23.054  1.00  0.00     0.020 C 
ATOM     12  C   UNL A   1      31.571  26.148  21.520  1.00  0.00     0.018 C 
ATOM     13  C   UNL A   1      30.999  27.847  23.210  1.00  0.00     0.013 C 
ATOM     14  C   UNL A   1      32.222  28.748  23.099  1.00  0.00     0.007 C 
ATOM     15  C   UNL A   1      33.464  27.871  23.302  1.00  0.00     0.070 C 
BRANCH   9  16
ATOM     16  N   UNL A   1      32.992  26.308  25.256  1.00  0.00    -0.329 N 
ATOM     17  C   UNL A   1      31.787  25.966  26.020  1.00  0.00     0.262 C 
ATOM     18  C   UNL A   1      33.819  27.210  26.084  1.00  0.00     0.262 C 
ATOM     19  H   UNL A   1      33.473  25.422  25.096  1.00  0.00     0.348 HD
ATOM     20  C   UNL A   1      30.977  27.154  26.543  1.00  0.00     0.062 C 
ATOM     21  C   UNL A   1      33.106  28.437  26.668  1.00  0.00     0.062 C 
ATOM     22  C   UNL A   1      31.833  28.064  27.406  1.00  0.00     0.012 C 
ENDBRANCH   9  16
ENDBRANCH   8   9
ENDBRANCH   6   8
ENDBRANCH   5   6
ENDBRANCH   4   5
ENDBRANCH   3   4
ENDBRANCH   2   3
ENDBRANCH   1   2
BRANCH   1  23
ATOM     23  C   UNL A   1      37.714  21.474  25.358  1.00  0.00     0.261 C 
BRANCH  23  24
ATOM     24  O   UNL A   1      38.112  22.801  25.711  1.00  0.00    -0.460 OA
BRANCH  24  25
ATOM     25  C   UNL A   1      39.375  22.910  26.183  1.00  0.00     0.338 C 
ATOM     26  O   UNL A   1      40.268  22.086  26.104  1.00  0.00    -0.246 OA
BRANCH  25  27
ATOM     27  C   UNL A   1      39.538  24.230  26.815  1.00  0.00     0.060 A 
ATOM     28  C   UNL A   1      40.310  25.210  26.181  1.00  0.00     0.016 A 
ATOM     29  C   UNL A   1      39.009  24.452  28.087  1.00  0.00     0.016 A 
ATOM     30  C   UNL A   1      40.579  26.412  26.842  1.00  0.00     0.010 A 
ATOM     31  C   UNL A   1      39.265  25.664  28.737  1.00  0.00     0.010 A 
ATOM     32  C   UNL A   1      40.077  26.640  28.133  1.00  0.00    -0.014 A 
BRANCH  32  33
ATOM     33  C   UNL A   1      40.479  27.859  28.883  1.00  0.00     0.031 A 
ATOM     34  C   UNL A   1      41.836  27.921  29.532  1.00  0.00     0.074 A 
ATOM     35  C   UNL A   1      39.643  28.912  28.969  1.00  0.00     0.049 A 
ATOM     36  N   UNL A   1      42.386  28.902  30.203  1.00  0.00    -0.248 NA
ATOM     37  C   UNL A   1      42.687  26.726  29.414  1.00  0.00     0.031 C 
ATOM     38  C   UNL A   1      38.304  28.980  28.383  1.00  0.00     0.029 A 
ATOM     39  N   UNL A   1      39.799  30.129  29.585  1.00  0.00    -0.354 N 
ATOM     40  C   UNL A   1      43.642  28.444  30.586  1.00  0.00     0.074 A 
ATOM     41  C   UNL A   1      43.763  27.087  30.099  1.00  0.00     0.031 C 
ATOM     42  C   UNL A   1      37.761  30.176  28.667  1.00  0.00     0.029 A 
ATOM     43  C   UNL A   1      38.702  30.952  29.472  1.00  0.00     0.049 A 
ATOM     44  H   UNL A   1      40.620  30.389  30.064  1.00  0.00     0.167 HD
ATOM     45  C   UNL A   1      44.610  29.096  31.272  1.00  0.00     0.031 A 
ATOM     46  C   UNL A   1      38.477  32.185  29.967  1.00  0.00     0.031 A 
ATOM     47  C   UNL A   1      44.492  30.445  31.760  1.00  0.00     0.049 A 
ATOM     48  C   UNL A   1      39.558  32.873  30.761  1.00  0.00     0.074 A 
ATOM     49  C   UNL A   1      45.437  31.202  32.432  1.00  0.00     0.029 A 
ATOM     50  N   UNL A   1      43.361  31.236  31.637  1.00  0.00    -0.354 N 
ATOM     51  N   UNL A   1      40.762  32.445  31.056  1.00  0.00    -0.248 NA
ATOM     52  C   UNL A   1      39.252  34.216  31.278  1.00  0.00     0.031 C 
ATOM     53  C   UNL A   1      44.860  32.432  32.760  1.00  0.00     0.029 A 
ATOM     54  C   UNL A   1      43.574  32.461  32.246  1.00  0.00     0.049 A 
ATOM     55  H   UNL A   1      42.529  30.967  31.184  1.00  0.00     0.167 HD
ATOM     56  C   UNL A   1      41.365  33.476  31.770  1.00  0.00     0.074 A 
ATOM     57  C   UNL A   1      40.401  34.553  31.848  1.00  0.00     0.031 C 
ATOM     58  C   UNL A   1      42.607  33.526  32.312  1.00  0.00     0.031 A 
BRANCH  45  59
ATOM     59  C   UNL A   1      45.890  28.357  31.556  1.00  0.00    -0.014 A 
ATOM     60  C   UNL A   1      46.974  28.415  30.664  1.00  0.00     0.010 A 
ATOM     61  C   UNL A   1      46.039  27.664  32.772  1.00  0.00     0.010 A 
ATOM     62  C   UNL A   1      48.179  27.778  30.972  1.00  0.00     0.020 A 
ATOM     63  C   UNL A   1      47.249  27.042  33.094  1.00  0.00     0.020 A 
ATOM     64  C   UNL A   1      48.308  27.095  32.186  1.00  0.00     0.054 A 
BRANCH  64  65
ATOM     65  S   UNL A   1      49.900  26.321  32.585  1.00  0.00     0.124 S 
ATOM     66  O   UNL A   1      50.808  27.010  31.669  1.00  0.00    -0.237 OA
ATOM     67  O   UNL A   1      50.071  26.646  33.999  1.00  0.00    -0.237 OA
ATOM     68  O   UNL A   1      49.681  24.906  32.296  1.00  0.00    -0.744 OA
ENDBRANCH  64  65
ENDBRANCH  45  59
BRANCH  46  69
ATOM     69  C   UNL A   1      37.164  32.853  29.748  1.00  0.00    -0.014 A 
ATOM     70  C   UNL A   1      36.963  33.707  28.650  1.00  0.00     0.010 A 
ATOM     71  C   UNL A   1      36.113  32.654  30.661  1.00  0.00     0.010 A 
ATOM     72  C   UNL A   1      35.746  34.376  28.486  1.00  0.00     0.020 A 
ATOM     73  C   UNL A   1      34.885  33.298  30.486  1.00  0.00     0.020 A 
ATOM     74  C   UNL A   1      34.716  34.170  29.409  1.00  0.00     0.054 A 
BRANCH  74  75
ATOM     75  S   UNL A   1      33.133  35.025  29.168  1.00  0.00     0.124 S 
ATOM     76  O   UNL A   1      32.546  34.955  30.501  1.00  0.00    -0.237 OA
ATOM     77  O   UNL A   1      33.554  36.355  28.730  1.00  0.00    -0.237 OA
ATOM     78  O   UNL A   1      32.466  34.224  28.144  1.00  0.00    -0.744 OA
ENDBRANCH  74  75
ENDBRANCH  46  69
BRANCH  58  79
ATOM     79  C   UNL A   1      43.010  34.797  33.012  1.00  0.00    -0.014 A 
ATOM     80  C   UNL A   1      42.831  34.952  34.398  1.00  0.00     0.010 A 
ATOM     81  C   UNL A   1      43.628  35.827  32.280  1.00  0.00     0.010 A 
ATOM     82  C   UNL A   1      43.235  36.129  35.035  1.00  0.00     0.020 A 
ATOM     83  C   UNL A   1      44.056  36.995  32.917  1.00  0.00     0.020 A 
ATOM     84  C   UNL A   1      43.844  37.145  34.289  1.00  0.00     0.054 A 
BRANCH  84  85
ATOM     85  S   UNL A   1      44.399  38.645  35.143  1.00  0.00     0.124 S 
ATOM     86  O   UNL A   1      43.986  38.382  36.519  1.00  0.00    -0.237 OA
ATOM     87  O   UNL A   1      45.841  38.636  34.907  1.00  0.00    -0.237 OA
ATOM     88  O   UNL A   1      43.670  39.717  34.468  1.00  0.00    -0.744 OA
ENDBRANCH  84  85
ENDBRANCH  58  79
ENDBRANCH  32  33
ENDBRANCH  25  27
ENDBRANCH  24  25
ENDBRANCH  23  24
ENDBRANCH   1  23
TORSDOF 19
ENDMDL
MODEL 2
REMARK VINA RESULT:      -9.7      3.383      9.078
REMARK SMILES CC1(C)CCC[C@@]1(CC(=O)OCCOCCOC(=O)c1ccc(-c2c3nc(c(-c4ccc(S(=O)(=O)[O-])cc4)c4ccc([nH]4)c(-c4ccc(S(=O)(=O)[O-])cc4)c4nc(c(-c5ccc(S(=O)(=O)[O-])cc5)c5ccc2[nH]5)C=C4)C=C3)cc1)[NH+]1CCCCC1
REMARK SMILES IDX 15 1 14 2 13 3 12 4 11 5 9 6 10 7 8 8 7 9 1 10 2 11 3 12
REMARK SMILES IDX 4 13 5 14 6 15 80 16 81 17 85 18 82 20 84 21 83 22 16 23
REMARK SMILES IDX 17 24 18 25 19 26 20 27 21 28 79 29 22 30 78 31 23 32 24 33
REMARK SMILES IDX 25 34 72 35 26 36 77 37 71 38 73 39 27 40 76 41 70 42 69 43
REMARK SMILES IDX 28 45 58 46 39 47 57 48 40 49 43 50 56 51 74 52 41 53 42 54
REMARK SMILES IDX 55 56 75 57 44 58 29 59 30 60 38 61 31 62 37 63 32 64 33 65
REMARK SMILES IDX 34 66 35 67 36 68 59 69 60 70 68 71 61 72 67 73 62 74 63 75
REMARK SMILES IDX 64 76 65 77 66 78 45 79 46 80 54 81 47 82 53 83 48 84 49 85
REMARK SMILES IDX 50 86 51 87 52 88
REMARK H PARENT 80 19 73 44 43 55
REMARK Flexibility Score: inf
ROOT
ATOM      1  C   UNL A   1      40.627  21.734  26.518  1.00  0.00     0.202 C 
ENDROOT
BRANCH   1   2
ATOM      2  O   UNL A   1      39.369  22.398  26.585  1.00  0.00    -0.374 OA
BRANCH   2   3
ATOM      3  C   UNL A   1      38.340  21.949  25.695  1.00  0.00     0.202 C 
BRANCH   3   4
ATOM      4  C   UNL A   1      37.203  22.936  25.389  1.00  0.00     0.261 C 
BRANCH   4   5
ATOM      5  O   UNL A   1      36.120  22.302  24.682  1.00  0.00    -0.463 OA
BRANCH   5   6
ATOM      6  C   UNL A   1      35.771  22.905  23.512  1.00  0.00     0.312 C 
ATOM      7  O   UNL A   1      36.546  23.113  22.587  1.00  0.00    -0.252 OA
BRANCH   6   8
ATOM      8  C   UNL A   1      34.264  23.104  23.418  1.00  0.00     0.191 C 
BRANCH   8   9
ATOM      9  C   UNL A   1      33.522  24.145  24.339  1.00  0.00     0.113 C 
ATOM     10  C   UNL A   1      31.245  24.405  22.994  1.00  0.00     0.018 C 
ATOM     11  C   UNL A   1      32.573  25.066  23.413  1.00  0.00     0.020 C 
ATOM     12  C   UNL A   1      33.237  25.521  22.081  1.00  0.00     0.018 C 
ATOM     13  C   UNL A   1      32.374  26.358  24.232  1.00  0.00     0.013 C 
ATOM     14  C   UNL A   1      33.686  26.562  24.978  1.00  0.00     0.007 C 
ATOM     15  C   UNL A   1      34.454  25.235  24.939  1.00  0.00     0.070 C 
BRANCH   9  16
ATOM     16  N   UNL A   1      32.790  23.369  25.423  1.00  0.00    -0.329 N 
ATOM     17  C   UNL A   1      33.022  23.584  26.856  1.00  0.00     0.262 C 
ATOM     18  C   UNL A   1      32.482  21.938  25.219  1.00  0.00     0.262 C 
ATOM     19  H   UNL A   1      31.985  23.950  25.188  1.00  0.00     0.348 HD
ATOM     20  C   UNL A   1      34.077  22.681  27.498  1.00  0.00     0.062 C 
ATOM     21  C   UNL A   1      33.473  20.938  25.827  1.00  0.00     0.062 C 
ATOM     22  C   UNL A   1      33.739  21.214  27.295  1.00  0.00     0.012 C 
ENDBRANCH   9  16
ENDBRANCH   8   9
ENDBRANCH   6   8
ENDBRANCH   5   6
ENDBRANCH   4   5
ENDBRANCH   3   4
ENDBRANCH   2   3
ENDBRANCH   1   2
BRANCH   1  23
ATOM     23  C   UNL A   1      41.866  22.602  26.256  1.00  0.00     0.261 C 
BRANCH  23  24
ATOM     24  O   UNL A   1      41.596  24.007  26.250  1.00  0.00    -0.460 OA
BRANCH  24  25
ATOM     25  C   UNL A   1      42.654  24.791  26.562  1.00  0.00     0.338 C 
ATOM     26  O   UNL A   1      43.782  24.726  26.108  1.00  0.00    -0.246 OA
BRANCH  25  27
ATOM     27  C   UNL A   1      42.231  25.795  27.553  1.00  0.00     0.060 A 
ATOM     28  C   UNL A   1      42.895  27.025  27.619  1.00  0.00     0.016 A 
ATOM     29  C   UNL A   1      41.243  25.467  28.483  1.00  0.00     0.016 A 
ATOM     30  C   UNL A   1      42.586  27.922  28.646  1.00  0.00     0.010 A 
ATOM     31  C   UNL A   1      40.924  26.375  29.497  1.00  0.00     0.010 A 
ATOM     32  C   UNL A   1      41.615  27.595  29.606  1.00  0.00    -0.014 A 
BRANCH  32  33
ATOM     33  C   UNL A   1      41.389  28.491  30.770  1.00  0.00     0.031 A 
ATOM     34  C   UNL A   1      40.265  29.493  30.734  1.00  0.00     0.074 A 
ATOM     35  C   UNL A   1      42.172  28.398  31.862  1.00  0.00     0.049 A 
ATOM     36  N   UNL A   1      39.885  30.340  31.656  1.00  0.00    -0.248 NA
ATOM     37  C   UNL A   1      39.465  29.550  29.500  1.00  0.00     0.031 C 
ATOM     38  C   UNL A   1      43.291  27.469  32.025  1.00  0.00     0.029 A 
ATOM     39  N   UNL A   1      42.145  29.098  33.044  1.00  0.00    -0.354 N 
ATOM     40  C   UNL A   1      38.805  31.031  31.116  1.00  0.00     0.074 A 
ATOM     41  C   UNL A   1      38.609  30.525  29.775  1.00  0.00     0.031 C 
ATOM     42  C   UNL A   1      43.843  27.655  33.237  1.00  0.00     0.029 A 
ATOM     43  C   UNL A   1      43.133  28.729  33.928  1.00  0.00     0.049 A 
ATOM     44  H   UNL A   1      41.481  29.798  33.240  1.00  0.00     0.167 HD
ATOM     45  C   UNL A   1      38.042  31.992  31.688  1.00  0.00     0.031 A 
ATOM     46  C   UNL A   1      43.437  29.209  35.151  1.00  0.00     0.031 A 
ATOM     47  C   UNL A   1      38.237  32.499  33.020  1.00  0.00     0.049 A 
ATOM     48  C   UNL A   1      42.594  30.306  35.747  1.00  0.00     0.074 A 
ATOM     49  C   UNL A   1      37.486  33.446  33.698  1.00  0.00     0.029 A 
ATOM     50  N   UNL A   1      39.256  32.111  33.875  1.00  0.00    -0.354 N 
ATOM     51  N   UNL A   1      41.538  30.899  35.244  1.00  0.00    -0.248 NA
ATOM     52  C   UNL A   1      42.977  30.789  37.083  1.00  0.00     0.031 C 
ATOM     53  C   UNL A   1      38.082  33.667  34.943  1.00  0.00     0.029 A 
ATOM     54  C   UNL A   1      39.171  32.819  35.062  1.00  0.00     0.049 A 
ATOM     55  H   UNL A   1      39.938  31.431  33.669  1.00  0.00     0.167 HD
ATOM     56  C   UNL A   1      41.117  31.806  36.212  1.00  0.00     0.074 A 
ATOM     57  C   UNL A   1      42.020  31.672  37.335  1.00  0.00     0.031 C 
ATOM     58  C   UNL A   1      40.075  32.672  36.174  1.00  0.00     0.031 A 
BRANCH  45  59
ATOM     59  C   UNL A   1      36.922  32.579  30.870  1.00  0.00    -0.014 A 
ATOM     60  C   UNL A   1      35.601  32.120  31.014  1.00  0.00     0.010 A 
ATOM     61  C   UNL A   1      37.182  33.661  30.008  1.00  0.00     0.010 A 
ATOM     62  C   UNL A   1      34.563  32.719  30.296  1.00  0.00     0.020 A 
ATOM     63  C   UNL A   1      36.144  34.276  29.304  1.00  0.00     0.020 A 
ATOM     64  C   UNL A   1      34.841  33.794  29.445  1.00  0.00     0.054 A 
BRANCH  64  65
ATOM     65  S   UNL A   1      33.467  34.588  28.566  1.00  0.00     0.124 S 
ATOM     66  O   UNL A   1      34.136  35.708  27.908  1.00  0.00    -0.237 OA
ATOM     67  O   UNL A   1      32.999  33.527  27.677  1.00  0.00    -0.237 OA
ATOM     68  O   UNL A   1      32.539  34.957  29.633  1.00  0.00    -0.744 OA
ENDBRANCH  64  65
ENDBRANCH  45  59
BRANCH  46  69
ATOM     69  C   UNL A   1      44.609  28.671  35.896  1.00  0.00    -0.014 A 
ATOM     70  C   UNL A   1      44.465  27.593  36.788  1.00  0.00     0.010 A 
ATOM     71  C   UNL A   1      45.877  29.259  35.734  1.00  0.00     0.010 A 
ATOM     72  C   UNL A   1      45.560  27.134  37.527  1.00  0.00     0.020 A 
ATOM     73  C   UNL A   1      46.979  28.786  36.450  1.00  0.00     0.020 A 
ATOM     74  C   UNL A   1      46.809  27.738  37.356  1.00  0.00     0.054 A 
BRANCH  74  75
ATOM     75  S   UNL A   1      48.226  27.114  38.305  1.00  0.00     0.124 S 
ATOM     76  O   UNL A   1      49.066  28.301  38.407  1.00  0.00    -0.237 OA
ATOM     77  O   UNL A   1      47.603  26.668  39.550  1.00  0.00    -0.237 OA
ATOM     78  O   UNL A   1      48.752  26.042  37.463  1.00  0.00    -0.744 OA
ENDBRANCH  74  75
ENDBRANCH  46  69
BRANCH  58  79
ATOM     79  C   UNL A   1      39.832  33.523  37.392  1.00  0.00    -0.014 A 
ATOM     80  C   UNL A   1      40.442  34.782  37.534  1.00  0.00     0.010 A 
ATOM     81  C   UNL A   1      38.935  33.080  38.381  1.00  0.00     0.010 A 
ATOM     82  C   UNL A   1      40.185  35.569  38.660  1.00  0.00     0.020 A 
ATOM     83  C   UNL A   1      38.655  33.875  39.495  1.00  0.00     0.020 A 
ATOM     84  C   UNL A   1      39.294  35.109  39.635  1.00  0.00     0.054 A 
BRANCH  84  85
ATOM     85  S   UNL A   1      38.941  36.165  41.067  1.00  0.00     0.124 S 
ATOM     86  O   UNL A   1      37.783  35.499  41.657  1.00  0.00    -0.237 OA
ATOM     87  O   UNL A   1      40.177  36.081  41.842  1.00  0.00    -0.237 OA
ATOM     88  O   UNL A   1      38.673  37.473  40.474  1.00  0.00    -0.744 OA
ENDBRANCH  84  85
ENDBRANCH  58  79
ENDBRANCH  32  33
ENDBRANCH  25  27
ENDBRANCH  24  25
ENDBRANCH  23  24
ENDBRANCH   1  23
TORSDOF 19
ENDMDL
MODEL 3
REMARK VINA RESULT:      -9.6      3.034      7.625
REMARK SMILES CC1(C)CCC[C@@]1(CC(=O)OCCOCCOC(=O)c1ccc(-c2c3nc(c(-c4ccc(S(=O)(=O)[O-])cc4)c4ccc([nH]4)c(-c4ccc(S(=O)(=O)[O-])cc4)c4nc(c(-c5ccc(S(=O)(=O)[O-])cc5)c5ccc2[nH]5)C=C4)C=C3)cc1)[NH+]1CCCCC1
REMARK SMILES IDX 15 1 14 2 13 3 12 4 11 5 9 6 10 7 8 8 7 9 1 10 2 11 3 12
REMARK SMILES IDX 4 13 5 14 6 15 80 16 81 17 85 18 82 20 84 21 83 22 16 23
REMARK SMILES IDX 17 24 18 25 19 26 20 27 21 28 79 29 22 30 78 31 23 32 24 33
REMARK SMILES IDX 25 34 72 35 26 36 77 37 71 38 73 39 27 40 76 41 70 42 69 43
REMARK SMILES IDX 28 45 58 46 39 47 57 48 40 49 43 50 56 51 74 52 41 53 42 54
REMARK SMILES IDX 55 56 75 57 44 58 29 59 30 60 38 61 31 62 37 63 32 64 33 65
REMARK SMILES IDX 34 66 35 67 36 68 59 69 60 70 68 71 61 72 67 73 62 74 63 75
REMARK SMILES IDX 64 76 65 77 66 78 45 79 46 80 54 81 47 82 53 83 48 84 49 85
REMARK SMILES IDX 50 86 51 87 52 88
REMARK H PARENT 80 19 73 44 43 55
REMARK Flexibility Score: inf
ROOT
ATOM      1  C   UNL A   1      33.212  29.428  25.106  1.00  0.00     0.202 C 
ENDROOT
BRANCH   1   2
ATOM      2  O   UNL A   1      32.376  28.408  24.570  1.00  0.00    -0.374 OA
BRANCH   2   3
ATOM      3  C   UNL A   1      32.041  28.494  23.180  1.00  0.00     0.202 C 
BRANCH   3   4
ATOM      4  C   UNL A   1      32.255  27.231  22.331  1.00  0.00     0.261 C 
BRANCH   4   5
ATOM      5  O   UNL A   1      33.578  26.688  22.503  1.00  0.00    -0.463 OA
BRANCH   5   6
ATOM      6  C   UNL A   1      33.619  25.350  22.755  1.00  0.00     0.312 C 
ATOM      7  O   UNL A   1      33.800  24.494  21.899  1.00  0.00    -0.252 OA
BRANCH   6   8
ATOM      8  C   UNL A   1      33.614  25.067  24.251  1.00  0.00     0.191 C 
BRANCH   8   9
ATOM      9  C   UNL A   1      32.939  23.766  24.831  1.00  0.00     0.113 C 
ATOM     10  C   UNL A   1      30.672  23.772  23.444  1.00  0.00     0.018 C 
ATOM     11  C   UNL A   1      31.338  23.971  24.820  1.00  0.00     0.020 C 
ATOM     12  C   UNL A   1      30.876  25.379  25.294  1.00  0.00     0.018 C 
ATOM     13  C   UNL A   1      30.819  22.989  25.891  1.00  0.00     0.013 C 
ATOM     14  C   UNL A   1      31.900  22.962  26.963  1.00  0.00     0.007 C 
ATOM     15  C   UNL A   1      33.175  23.555  26.352  1.00  0.00     0.070 C 
BRANCH   9  16
ATOM     16  N   UNL A   1      33.433  22.582  24.013  1.00  0.00    -0.329 N 
ATOM     17  C   UNL A   1      32.561  21.477  23.600  1.00  0.00     0.262 C 
ATOM     18  C   UNL A   1      34.782  22.033  24.260  1.00  0.00     0.262 C 
ATOM     19  H   UNL A   1      33.443  23.230  23.225  1.00  0.00     0.348 HD
ATOM     20  C   UNL A   1      32.519  20.278  24.548  1.00  0.00     0.062 C 
ATOM     21  C   UNL A   1      34.860  20.821  25.196  1.00  0.00     0.062 C 
ATOM     22  C   UNL A   1      33.910  19.713  24.780  1.00  0.00     0.012 C 
ENDBRANCH   9  16
ENDBRANCH   8   9
ENDBRANCH   6   8
ENDBRANCH   5   6
ENDBRANCH   4   5
ENDBRANCH   3   4
ENDBRANCH   2   3
ENDBRANCH   1   2
BRANCH   1  23
ATOM     23  C   UNL A   1      32.595  30.361  26.158  1.00  0.00     0.261 C 
BRANCH  23  24
ATOM     24  O   UNL A   1      33.240  30.298  27.433  1.00  0.00    -0.460 OA
BRANCH  24  25
ATOM     25  C   UNL A   1      33.972  31.391  27.756  1.00  0.00     0.338 C 
ATOM     26  O   UNL A   1      33.627  32.556  27.692  1.00  0.00    -0.246 OA
BRANCH  25  27
ATOM     27  C   UNL A   1      35.293  30.956  28.238  1.00  0.00     0.060 A 
ATOM     28  C   UNL A   1      35.444  29.675  28.781  1.00  0.00     0.016 A 
ATOM     29  C   UNL A   1      36.353  31.863  28.246  1.00  0.00     0.016 A 
ATOM     30  C   UNL A   1      36.662  29.312  29.364  1.00  0.00     0.010 A 
ATOM     31  C   UNL A   1      37.576  31.489  28.814  1.00  0.00     0.010 A 
ATOM     32  C   UNL A   1      37.730  30.223  29.405  1.00  0.00    -0.014 A 
BRANCH  32  33
ATOM     33  C   UNL A   1      38.972  29.880  30.146  1.00  0.00     0.031 A 
ATOM     34  C   UNL A   1      39.857  28.770  29.644  1.00  0.00     0.074 A 
ATOM     35  C   UNL A   1      39.318  30.569  31.250  1.00  0.00     0.049 A 
ATOM     36  N   UNL A   1      40.995  28.338  30.127  1.00  0.00    -0.248 NA
ATOM     37  C   UNL A   1      39.404  28.049  28.443  1.00  0.00     0.031 C 
ATOM     38  C   UNL A   1      38.551  31.668  31.838  1.00  0.00     0.029 A 
ATOM     39  N   UNL A   1      40.408  30.444  32.077  1.00  0.00    -0.354 N 
ATOM     40  C   UNL A   1      41.393  27.299  29.294  1.00  0.00     0.074 A 
ATOM     41  C   UNL A   1      40.361  27.144  28.291  1.00  0.00     0.031 C 
ATOM     42  C   UNL A   1      39.194  32.117  32.929  1.00  0.00     0.029 A 
ATOM     43  C   UNL A   1      40.406  31.327  33.132  1.00  0.00     0.049 A 
ATOM     44  H   UNL A   1      41.123  29.784  31.928  1.00  0.00     0.167 HD
ATOM     45  C   UNL A   1      42.518  26.548  29.352  1.00  0.00     0.031 A 
ATOM     46  C   UNL A   1      41.276  31.476  34.151  1.00  0.00     0.031 A 
ATOM     47  C   UNL A   1      43.544  26.699  30.349  1.00  0.00     0.049 A 
ATOM     48  C   UNL A   1      42.501  30.600  34.213  1.00  0.00     0.074 A 
ATOM     49  C   UNL A   1      44.739  26.008  30.465  1.00  0.00     0.029 A 
ATOM     50  N   UNL A   1      43.496  27.593  31.408  1.00  0.00    -0.354 N 
ATOM     51  N   UNL A   1      42.889  29.666  33.377  1.00  0.00    -0.248 NA
ATOM     52  C   UNL A   1      43.412  30.808  35.350  1.00  0.00     0.031 C 
ATOM     53  C   UNL A   1      45.390  26.449  31.620  1.00  0.00     0.029 A 
ATOM     54  C   UNL A   1      44.626  27.451  32.195  1.00  0.00     0.049 A 
ATOM     55  H   UNL A   1      42.767  28.233  31.574  1.00  0.00     0.167 HD
ATOM     56  C   UNL A   1      44.101  29.195  33.875  1.00  0.00     0.074 A 
ATOM     57  C   UNL A   1      44.389  29.955  35.072  1.00  0.00     0.031 C 
ATOM     58  C   UNL A   1      44.903  28.219  33.382  1.00  0.00     0.031 A 
BRANCH  45  59
ATOM     59  C   UNL A   1      42.702  25.475  28.312  1.00  0.00    -0.014 A 
ATOM     60  C   UNL A   1      43.357  25.746  27.099  1.00  0.00     0.010 A 
ATOM     61  C   UNL A   1      42.288  24.159  28.589  1.00  0.00     0.010 A 
ATOM     62  C   UNL A   1      43.579  24.725  26.171  1.00  0.00     0.020 A 
ATOM     63  C   UNL A   1      42.525  23.130  27.673  1.00  0.00     0.020 A 
ATOM     64  C   UNL A   1      43.161  23.422  26.465  1.00  0.00     0.054 A 
BRANCH  64  65
ATOM     65  S   UNL A   1      43.508  22.106  25.266  1.00  0.00     0.124 S 
ATOM     66  O   UNL A   1      42.423  21.164  25.530  1.00  0.00    -0.237 OA
ATOM     67  O   UNL A   1      43.432  22.807  23.987  1.00  0.00    -0.237 OA
ATOM     68  O   UNL A   1      44.842  21.639  25.639  1.00  0.00    -0.744 OA
ENDBRANCH  64  65
ENDBRANCH  45  59
BRANCH  46  69
ATOM     69  C   UNL A   1      41.017  32.484  35.216  1.00  0.00    -0.014 A 
ATOM     70  C   UNL A   1      40.152  32.198  36.286  1.00  0.00     0.010 A 
ATOM     71  C   UNL A   1      41.621  33.753  35.145  1.00  0.00     0.010 A 
ATOM     72  C   UNL A   1      39.869  33.172  37.249  1.00  0.00     0.020 A 
ATOM     73  C   UNL A   1      41.363  34.720  36.120  1.00  0.00     0.020 A 
ATOM     74  C   UNL A   1      40.474  34.430  37.156  1.00  0.00     0.054 A 
BRANCH  74  75
ATOM     75  S   UNL A   1      40.116  35.675  38.428  1.00  0.00     0.124 S 
ATOM     76  O   UNL A   1      39.035  35.042  39.174  1.00  0.00    -0.237 OA
ATOM     77  O   UNL A   1      41.393  35.785  39.131  1.00  0.00    -0.237 OA
ATOM     78  O   UNL A   1      39.739  36.854  37.651  1.00  0.00    -0.744 OA
ENDBRANCH  74  75
ENDBRANCH  46  69
BRANCH  58  79
ATOM     79  C   UNL A   1      46.185  27.935  34.118  1.00  0.00    -0.014 A 
ATOM     80  C   UNL A   1      46.244  26.962  35.130  1.00  0.00     0.010 A 
ATOM     81  C   UNL A   1      47.362  28.614  33.750  1.00  0.00     0.010 A 
ATOM     82  C   UNL A   1      47.450  26.694  35.784  1.00  0.00     0.020 A 
ATOM     83  C   UNL A   1      48.574  28.332  34.384  1.00  0.00     0.020 A 
ATOM     84  C   UNL A   1      48.608  27.383  35.408  1.00  0.00     0.054 A 
BRANCH  84  85
ATOM     85  S   UNL A   1      50.170  26.990  36.240  1.00  0.00     0.124 S 
ATOM     86  O   UNL A   1      50.183  25.530  36.187  1.00  0.00    -0.237 OA
ATOM     87  O   UNL A   1      51.161  27.657  35.399  1.00  0.00    -0.237 OA
ATOM     88  O   UNL A   1      50.006  27.564  37.574  1.00  0.00    -0.744 OA
ENDBRANCH  84  85
ENDBRANCH  58  79
ENDBRANCH  32  33
ENDBRANCH  25  27
ENDBRANCH  24  25
ENDBRANCH  23  24
ENDBRANCH   1  23
TORSDOF 19
ENDMDL
