MODEL 1
REMARK VINA RESULT:     -11.5      0.000      0.000
REMARK SMILES O=C(OCCOCCOC(=O)c1ccc(N2C(=O)N=C(O)/C(=C\c3cccs3)C2=O)cc1)c1ccc(-c2c3nc(c(-c4ccc(S(=O)(=O)[O-])cc4)c4ccc([nH]4)c(-c4ccc(S(=O)(=O)[O-])cc4)c4nc(c(-c5ccc(S(=O)(=O)[O-])cc5)c5ccc2[nH]5)C=C4)C=C3)cc1
REMARK SMILES IDX 5 1 4 2 3 3 2 4 1 5 33 6 34 7 92 8 35 9 91 10 36 11 37 12
REMARK SMILES IDX 38 13 85 14 39 15 90 16 84 17 86 18 40 19 89 20 83 21 82 22
REMARK SMILES IDX 41 24 71 25 52 26 70 27 53 28 56 29 69 30 87 31 54 32 55 33
REMARK SMILES IDX 68 35 88 36 57 37 42 38 43 39 51 40 44 41 50 42 45 43 46 44
REMARK SMILES IDX 47 45 48 46 49 47 72 48 73 49 81 50 74 51 80 52 75 53 76 54
REMARK SMILES IDX 77 55 78 56 79 57 58 58 59 59 67 60 60 61 66 62 61 63 62 64
REMARK SMILES IDX 63 65 64 66 65 67 6 68 7 69 8 70 9 71 10 72 11 73 12 74
REMARK SMILES IDX 13 75 32 76 14 77 31 78 15 79 16 80 17 81 29 82 18 83 19 84
REMARK SMILES IDX 22 85 30 86 20 87 23 88 21 89 24 91 25 92 28 93 26 94 27 95
REMARK H PARENT 86 23 56 34 21 90
REMARK Flexibility Score: inf
ROOT
ATOM      1  C   UNL A   1      38.403  23.360  26.146  1.00  0.00     0.202 C 
ENDROOT
BRANCH   1   2
ATOM      2  C   UNL A   1      39.661  22.551  26.473  1.00  0.00     0.261 C 
BRANCH   2   3
ATOM      3  O   UNL A   1      40.614  23.367  27.173  1.00  0.00    -0.460 OA
BRANCH   3   4
ATOM      4  C   UNL A   1      40.936  24.663  26.948  1.00  0.00     0.338 C 
ATOM      5  O   UNL A   1      41.418  24.964  25.856  1.00  0.00    -0.246 OA
BRANCH   4   6
ATOM      6  C   UNL A   1      40.726  25.757  27.945  1.00  0.00     0.060 A 
ATOM      7  C   UNL A   1      41.501  26.913  28.042  1.00  0.00     0.016 A 
ATOM      8  C   UNL A   1      39.612  25.639  28.796  1.00  0.00     0.016 A 
ATOM      9  C   UNL A   1      41.251  27.876  29.007  1.00  0.00     0.010 A 
ATOM     10  C   UNL A   1      39.322  26.628  29.741  1.00  0.00     0.010 A 
ATOM     11  C   UNL A   1      40.167  27.734  29.868  1.00  0.00    -0.014 A 
BRANCH  11  12
ATOM     12  C   UNL A   1      40.047  28.705  30.971  1.00  0.00     0.031 A 
ATOM     13  C   UNL A   1      41.064  28.651  32.071  1.00  0.00     0.074 A 
ATOM     14  C   UNL A   1      39.153  29.706  30.876  1.00  0.00     0.049 A 
ATOM     15  N   UNL A   1      41.199  29.430  33.109  1.00  0.00    -0.248 NA
ATOM     16  C   UNL A   1      42.079  27.586  31.979  1.00  0.00     0.031 C 
ATOM     17  C   UNL A   1      38.217  29.899  29.763  1.00  0.00     0.029 A 
ATOM     18  N   UNL A   1      38.920  30.777  31.695  1.00  0.00    -0.354 N 
ATOM     19  C   UNL A   1      42.293  28.933  33.808  1.00  0.00     0.074 A 
ATOM     20  C   UNL A   1      42.784  27.786  33.082  1.00  0.00     0.031 C 
ATOM     21  C   UNL A   1      37.542  31.044  29.951  1.00  0.00     0.029 A 
ATOM     22  C   UNL A   1      37.952  31.631  31.222  1.00  0.00     0.049 A 
ATOM     23  H   UNL A   1      39.399  30.922  32.543  1.00  0.00     0.167 HD
ATOM     24  C   UNL A   1      42.826  29.393  34.963  1.00  0.00     0.031 A 
ATOM     25  C   UNL A   1      37.448  32.753  31.771  1.00  0.00     0.031 A 
ATOM     26  C   UNL A   1      42.303  30.530  35.668  1.00  0.00     0.049 A 
ATOM     27  C   UNL A   1      38.005  33.195  33.098  1.00  0.00     0.074 A 
ATOM     28  C   UNL A   1      42.703  31.056  36.882  1.00  0.00     0.029 A 
ATOM     29  N   UNL A   1      41.258  31.322  35.209  1.00  0.00    -0.354 N 
ATOM     30  N   UNL A   1      38.991  32.673  33.791  1.00  0.00    -0.248 NA
ATOM     31  C   UNL A   1      37.381  34.367  33.720  1.00  0.00     0.031 C 
ATOM     32  C   UNL A   1      41.867  32.139  37.177  1.00  0.00     0.029 A 
ATOM     33  C   UNL A   1      40.987  32.324  36.121  1.00  0.00     0.049 A 
ATOM     34  H   UNL A   1      40.780  31.188  34.359  1.00  0.00     0.167 HD
ATOM     35  C   UNL A   1      39.121  33.467  34.922  1.00  0.00     0.074 A 
ATOM     36  C   UNL A   1      38.122  34.513  34.810  1.00  0.00     0.031 C 
ATOM     37  C   UNL A   1      39.984  33.348  35.963  1.00  0.00     0.031 A 
BRANCH  24  38
ATOM     38  C   UNL A   1      43.957  28.600  35.556  1.00  0.00    -0.014 A 
ATOM     39  C   UNL A   1      43.747  27.348  36.165  1.00  0.00     0.010 A 
ATOM     40  C   UNL A   1      45.255  29.142  35.541  1.00  0.00     0.010 A 
ATOM     41  C   UNL A   1      44.804  26.681  36.793  1.00  0.00     0.020 A 
ATOM     42  C   UNL A   1      46.319  28.468  36.145  1.00  0.00     0.020 A 
ATOM     43  C   UNL A   1      46.082  27.251  36.788  1.00  0.00     0.054 A 
BRANCH  43  44
ATOM     44  S   UNL A   1      47.434  26.379  37.626  1.00  0.00     0.124 S 
ATOM     45  O   UNL A   1      47.117  26.614  39.032  1.00  0.00    -0.237 OA
ATOM     46  O   UNL A   1      47.263  25.003  37.167  1.00  0.00    -0.237 OA
ATOM     47  O   UNL A   1      48.636  27.050  37.137  1.00  0.00    -0.744 OA
ENDBRANCH  43  44
ENDBRANCH  24  38
BRANCH  25  48
ATOM     48  C   UNL A   1      36.348  33.498  31.095  1.00  0.00    -0.014 A 
ATOM     49  C   UNL A   1      36.440  33.865  29.741  1.00  0.00     0.010 A 
ATOM     50  C   UNL A   1      35.188  33.849  31.814  1.00  0.00     0.010 A 
ATOM     51  C   UNL A   1      35.407  34.584  29.127  1.00  0.00     0.020 A 
ATOM     52  C   UNL A   1      34.141  34.540  31.196  1.00  0.00     0.020 A 
ATOM     53  C   UNL A   1      34.264  34.917  29.859  1.00  0.00     0.054 A 
BRANCH  53  54
ATOM     54  S   UNL A   1      32.922  35.822  29.037  1.00  0.00     0.124 S 
ATOM     55  O   UNL A   1      32.365  34.802  28.155  1.00  0.00    -0.237 OA
ATOM     56  O   UNL A   1      32.075  36.222  30.158  1.00  0.00    -0.237 OA
ATOM     57  O   UNL A   1      33.613  36.920  28.365  1.00  0.00    -0.744 OA
ENDBRANCH  53  54
ENDBRANCH  25  48
BRANCH  37  58
ATOM     58  C   UNL A   1      39.909  34.402  37.030  1.00  0.00    -0.014 A 
ATOM     59  C   UNL A   1      40.624  35.606  36.918  1.00  0.00     0.010 A 
ATOM     60  C   UNL A   1      39.066  34.198  38.137  1.00  0.00     0.010 A 
ATOM     61  C   UNL A   1      40.524  36.577  37.916  1.00  0.00     0.020 A 
ATOM     62  C   UNL A   1      38.941  35.177  39.122  1.00  0.00     0.020 A 
ATOM     63  C   UNL A   1      39.684  36.355  39.013  1.00  0.00     0.054 A 
BRANCH  63  64
ATOM     64  S   UNL A   1      39.539  37.645  40.278  1.00  0.00     0.124 S 
ATOM     65  O   UNL A   1      38.564  38.550  39.676  1.00  0.00    -0.237 OA
ATOM     66  O   UNL A   1      39.070  36.900  41.444  1.00  0.00    -0.237 OA
ATOM     67  O   UNL A   1      40.897  38.173  40.389  1.00  0.00    -0.744 OA
ENDBRANCH  63  64
ENDBRANCH  37  58
ENDBRANCH  11  12
ENDBRANCH   4   6
ENDBRANCH   3   4
ENDBRANCH   2   3
ENDBRANCH   1   2
BRANCH   1  68
ATOM     68  O   UNL A   1      37.507  22.727  25.229  1.00  0.00    -0.374 OA
BRANCH  68  69
ATOM     69  C   UNL A   1      37.713  21.324  25.025  1.00  0.00     0.202 C 
BRANCH  69  70
ATOM     70  C   UNL A   1      36.363  20.616  24.883  1.00  0.00     0.261 C 
BRANCH  70  71
ATOM     71  O   UNL A   1      35.410  21.283  25.724  1.00  0.00    -0.460 OA
BRANCH  71  72
ATOM     72  C   UNL A   1      34.133  21.235  25.268  1.00  0.00     0.338 C 
ATOM     73  O   UNL A   1      33.424  20.255  25.119  1.00  0.00    -0.246 OA
BRANCH  72  74
ATOM     74  C   UNL A   1      33.642  22.624  25.202  1.00  0.00     0.060 A 
ATOM     75  C   UNL A   1      33.851  23.343  24.018  1.00  0.00     0.018 A 
ATOM     76  C   UNL A   1      32.914  23.182  26.255  1.00  0.00     0.018 A 
ATOM     77  C   UNL A   1      33.289  24.609  23.864  1.00  0.00     0.028 A 
ATOM     78  C   UNL A   1      32.407  24.471  26.126  1.00  0.00     0.028 A 
ATOM     79  C   UNL A   1      32.586  25.182  24.928  1.00  0.00     0.054 A 
BRANCH  79  80
ATOM     80  N   UNL A   1      32.143  26.527  24.846  1.00  0.00    -0.226 N 
ATOM     81  C   UNL A   1      32.939  27.535  25.401  1.00  0.00     0.358 C 
ATOM     82  C   UNL A   1      30.922  26.735  24.224  1.00  0.00     0.272 C 
ATOM     83  O   UNL A   1      34.015  27.285  25.942  1.00  0.00    -0.245 OA
ATOM     84  N   UNL A   1      32.517  28.833  25.314  1.00  0.00    -0.156 NA
ATOM     85  C   UNL A   1      30.520  28.158  24.081  1.00  0.00     0.104 C 
ATOM     86  O   UNL A   1      30.192  25.833  23.809  1.00  0.00    -0.268 OA
ATOM     87  C   UNL A   1      31.418  29.124  24.724  1.00  0.00     0.228 C 
ATOM     88  C   UNL A   1      29.408  28.337  23.342  1.00  0.00     0.038 C 
BRANCH  87  89
ATOM     89  O   UNL A   1      31.075  30.420  24.740  1.00  0.00    -0.493 OA
ATOM     90  H   UNL A   1      31.714  31.072  24.951  1.00  0.00     0.295 HD
ENDBRANCH  87  89
BRANCH  88  91
ATOM     91  C   UNL A   1      28.886  29.588  22.947  1.00  0.00     0.028 A 
ATOM     92  C   UNL A   1      27.895  30.338  23.550  1.00  0.00     0.020 A 
ATOM     93  S   UNL A   1      29.504  30.376  21.556  1.00  0.00    -0.144 S 
ATOM     94  C   UNL A   1      27.614  31.540  22.841  1.00  0.00     0.012 A 
ATOM     95  C   UNL A   1      28.418  31.682  21.732  1.00  0.00     0.065 A 
ENDBRANCH  88  91
ENDBRANCH  79  80
ENDBRANCH  72  74
ENDBRANCH  71  72
ENDBRANCH  70  71
ENDBRANCH  69  70
ENDBRANCH  68  69
ENDBRANCH   1  68
TORSDOF 20
ENDMDL
MODEL 2
REMARK VINA RESULT:     -11.3      2.715      8.939
REMARK SMILES O=C(OCCOCCOC(=O)c1ccc(N2C(=O)N=C(O)/C(=C\c3cccs3)C2=O)cc1)c1ccc(-c2c3nc(c(-c4ccc(S(=O)(=O)[O-])cc4)c4ccc([nH]4)c(-c4ccc(S(=O)(=O)[O-])cc4)c4nc(c(-c5ccc(S(=O)(=O)[O-])cc5)c5ccc2[nH]5)C=C4)C=C3)cc1
REMARK SMILES IDX 5 1 4 2 3 3 2 4 1 5 33 6 34 7 92 8 35 9 91 10 36 11 37 12
REMARK SMILES IDX 38 13 85 14 39 15 90 16 84 17 86 18 40 19 89 20 83 21 82 22
REMARK SMILES IDX 41 24 71 25 52 26 70 27 53 28 56 29 69 30 87 31 54 32 55 33
REMARK SMILES IDX 68 35 88 36 57 37 42 38 43 39 51 40 44 41 50 42 45 43 46 44
REMARK SMILES IDX 47 45 48 46 49 47 72 48 73 49 81 50 74 51 80 52 75 53 76 54
REMARK SMILES IDX 77 55 78 56 79 57 58 58 59 59 67 60 60 61 66 62 61 63 62 64
REMARK SMILES IDX 63 65 64 66 65 67 6 68 7 69 8 70 9 71 10 72 11 73 12 74
REMARK SMILES IDX 13 75 32 76 14 77 31 78 15 79 16 80 17 81 29 82 18 83 19 84
REMARK SMILES IDX 22 85 30 86 20 87 23 88 21 89 24 91 25 92 28 93 26 94 27 95
REMARK H PARENT 86 23 56 34 21 90
REMARK Flexibility Score: inf
ROOT
ATOM      1  C   UNL A   1      33.070  30.906  27.154  1.00  0.00     0.202 C 
ENDROOT
BRANCH   1   2
ATOM      2  C   UNL A   1      32.420  32.272  26.916  1.00  0.00     0.261 C 
BRANCH   2   3
ATOM      3  O   UNL A   1      32.875  33.220  27.896  1.00  0.00    -0.460 OA
BRANCH   3   4
ATOM      4  C   UNL A   1      34.090  33.809  27.994  1.00  0.00     0.338 C 
ATOM      5  O   UNL A   1      34.337  34.765  27.258  1.00  0.00    -0.246 OA
BRANCH   4   6
ATOM      6  C   UNL A   1      35.148  33.377  28.957  1.00  0.00     0.060 A 
ATOM      7  C   UNL A   1      36.442  33.895  29.012  1.00  0.00     0.016 A 
ATOM      8  C   UNL A   1      34.777  32.431  29.929  1.00  0.00     0.016 A 
ATOM      9  C   UNL A   1      37.372  33.429  29.928  1.00  0.00     0.010 A 
ATOM     10  C   UNL A   1      35.693  31.989  30.889  1.00  0.00     0.010 A 
ATOM     11  C   UNL A   1      37.007  32.467  30.864  1.00  0.00    -0.014 A 
BRANCH  11  12
ATOM     12  C   UNL A   1      38.076  31.898  31.704  1.00  0.00     0.031 A 
ATOM     13  C   UNL A   1      38.980  30.869  31.093  1.00  0.00     0.074 A 
ATOM     14  C   UNL A   1      38.321  32.431  32.914  1.00  0.00     0.049 A 
ATOM     15  N   UNL A   1      40.018  30.272  31.609  1.00  0.00    -0.248 NA
ATOM     16  C   UNL A   1      38.686  30.475  29.703  1.00  0.00     0.031 C 
ATOM     17  C   UNL A   1      37.562  33.530  33.521  1.00  0.00     0.029 A 
ATOM     18  N   UNL A   1      39.304  32.162  33.828  1.00  0.00    -0.354 N 
ATOM     19  C   UNL A   1      40.483  29.411  30.622  1.00  0.00     0.074 A 
ATOM     20  C   UNL A   1      39.615  29.559  29.477  1.00  0.00     0.031 C 
ATOM     21  C   UNL A   1      38.136  33.868  34.687  1.00  0.00     0.029 A 
ATOM     22  C   UNL A   1      39.260  32.973  34.937  1.00  0.00     0.049 A 
ATOM     23  H   UNL A   1      39.978  31.455  33.703  1.00  0.00     0.167 HD
ATOM     24  C   UNL A   1      41.536  28.564  30.678  1.00  0.00     0.031 A 
ATOM     25  C   UNL A   1      40.038  32.974  36.037  1.00  0.00     0.031 A 
ATOM     26  C   UNL A   1      42.371  28.431  31.839  1.00  0.00     0.049 A 
ATOM     27  C   UNL A   1      41.153  31.964  36.107  1.00  0.00     0.074 A 
ATOM     28  C   UNL A   1      43.424  27.561  32.054  1.00  0.00     0.029 A 
ATOM     29  N   UNL A   1      42.244  29.203  32.987  1.00  0.00    -0.354 N 
ATOM     30  N   UNL A   1      41.537  31.099  35.196  1.00  0.00    -0.248 NA
ATOM     31  C   UNL A   1      41.930  31.921  37.349  1.00  0.00     0.031 C 
ATOM     32  C   UNL A   1      43.902  27.778  33.352  1.00  0.00     0.029 A 
ATOM     33  C   UNL A   1      43.187  28.822  33.921  1.00  0.00     0.049 A 
ATOM     34  H   UNL A   1      41.579  29.917  33.116  1.00  0.00     0.167 HD
ATOM     35  C   UNL A   1      42.618  30.424  35.747  1.00  0.00     0.074 A 
ATOM     36  C   UNL A   1      42.834  30.994  37.064  1.00  0.00     0.031 C 
ATOM     37  C   UNL A   1      43.368  29.423  35.220  1.00  0.00     0.031 A 
BRANCH  24  38
ATOM     38  C   UNL A   1      41.757  27.669  29.490  1.00  0.00    -0.014 A 
ATOM     39  C   UNL A   1      41.009  26.492  29.298  1.00  0.00     0.010 A 
ATOM     40  C   UNL A   1      42.768  27.993  28.568  1.00  0.00     0.010 A 
ATOM     41  C   UNL A   1      41.305  25.632  28.236  1.00  0.00     0.020 A 
ATOM     42  C   UNL A   1      43.050  27.150  27.491  1.00  0.00     0.020 A 
ATOM     43  C   UNL A   1      42.332  25.962  27.344  1.00  0.00     0.054 A 
BRANCH  43  44
ATOM     44  S   UNL A   1      42.713  24.822  25.986  1.00  0.00     0.124 S 
ATOM     45  O   UNL A   1      44.029  24.319  26.375  1.00  0.00    -0.237 OA
ATOM     46  O   UNL A   1      41.624  23.852  26.063  1.00  0.00    -0.237 OA
ATOM     47  O   UNL A   1      42.698  25.677  24.801  1.00  0.00    -0.744 OA
ENDBRANCH  43  44
ENDBRANCH  24  38
BRANCH  25  48
ATOM     48  C   UNL A   1      39.768  33.922  37.155  1.00  0.00    -0.014 A 
ATOM     49  C   UNL A   1      40.314  35.217  37.160  1.00  0.00     0.010 A 
ATOM     50  C   UNL A   1      38.954  33.525  38.234  1.00  0.00     0.010 A 
ATOM     51  C   UNL A   1      40.067  36.089  38.229  1.00  0.00     0.020 A 
ATOM     52  C   UNL A   1      38.681  34.403  39.288  1.00  0.00     0.020 A 
ATOM     53  C   UNL A   1      39.253  35.675  39.287  1.00  0.00     0.054 A 
BRANCH  53  54
ATOM     54  S   UNL A   1      38.921  36.829  40.648  1.00  0.00     0.124 S 
ATOM     55  O   UNL A   1      38.227  37.914  39.962  1.00  0.00    -0.237 OA
ATOM     56  O   UNL A   1      38.102  36.026  41.553  1.00  0.00    -0.237 OA
ATOM     57  O   UNL A   1      40.253  37.157  41.151  1.00  0.00    -0.744 OA
ENDBRANCH  53  54
ENDBRANCH  25  48
BRANCH  37  58
ATOM     58  C   UNL A   1      44.513  28.922  36.052  1.00  0.00    -0.014 A 
ATOM     59  C   UNL A   1      44.325  27.935  37.034  1.00  0.00     0.010 A 
ATOM     60  C   UNL A   1      45.806  29.417  35.806  1.00  0.00     0.010 A 
ATOM     61  C   UNL A   1      45.410  27.475  37.783  1.00  0.00     0.020 A 
ATOM     62  C   UNL A   1      46.897  28.940  36.533  1.00  0.00     0.020 A 
ATOM     63  C   UNL A   1      46.689  27.983  37.528  1.00  0.00     0.054 A 
BRANCH  63  64
ATOM     64  S   UNL A   1      48.089  27.344  38.486  1.00  0.00     0.124 S 
ATOM     65  O   UNL A   1      48.134  25.948  38.061  1.00  0.00    -0.237 OA
ATOM     66  O   UNL A   1      49.198  28.177  38.027  1.00  0.00    -0.237 OA
ATOM     67  O   UNL A   1      47.687  27.563  39.873  1.00  0.00    -0.744 OA
ENDBRANCH  63  64
ENDBRANCH  37  58
ENDBRANCH  11  12
ENDBRANCH   4   6
ENDBRANCH   3   4
ENDBRANCH   2   3
ENDBRANCH   1   2
BRANCH   1  68
ATOM     68  O   UNL A   1      33.152  30.073  25.995  1.00  0.00    -0.374 OA
BRANCH  68  69
ATOM     69  C   UNL A   1      32.062  29.163  25.804  1.00  0.00     0.202 C 
BRANCH  69  70
ATOM     70  C   UNL A   1      31.269  29.555  24.554  1.00  0.00     0.261 C 
BRANCH  70  71
ATOM     71  O   UNL A   1      31.887  28.940  23.414  1.00  0.00    -0.460 OA
BRANCH  71  72
ATOM     72  C   UNL A   1      31.134  27.977  22.823  1.00  0.00     0.338 C 
ATOM     73  O   UNL A   1      30.257  28.115  21.988  1.00  0.00    -0.246 OA
BRANCH  72  74
ATOM     74  C   UNL A   1      31.725  26.677  23.189  1.00  0.00     0.060 A 
ATOM     75  C   UNL A   1      32.811  26.210  22.438  1.00  0.00     0.018 A 
ATOM     76  C   UNL A   1      31.274  25.968  24.305  1.00  0.00     0.018 A 
ATOM     77  C   UNL A   1      33.483  25.053  22.829  1.00  0.00     0.028 A 
ATOM     78  C   UNL A   1      31.904  24.780  24.658  1.00  0.00     0.028 A 
ATOM     79  C   UNL A   1      33.014  24.327  23.928  1.00  0.00     0.054 A 
BRANCH  79  80
ATOM     80  N   UNL A   1      33.587  23.068  24.245  1.00  0.00    -0.226 N 
ATOM     81  C   UNL A   1      34.821  23.034  24.902  1.00  0.00     0.358 C 
ATOM     82  C   UNL A   1      32.868  21.949  23.851  1.00  0.00     0.272 C 
ATOM     83  O   UNL A   1      35.411  24.064  25.223  1.00  0.00    -0.245 OA
ATOM     84  N   UNL A   1      35.370  21.820  25.215  1.00  0.00    -0.156 NA
ATOM     85  C   UNL A   1      33.450  20.646  24.265  1.00  0.00     0.104 C 
ATOM     86  O   UNL A   1      31.821  21.991  23.204  1.00  0.00    -0.268 OA
ATOM     87  C   UNL A   1      34.758  20.733  24.924  1.00  0.00     0.228 C 
ATOM     88  C   UNL A   1      32.657  19.589  24.003  1.00  0.00     0.038 C 
BRANCH  87  89
ATOM     89  O   UNL A   1      35.408  19.601  25.230  1.00  0.00    -0.493 OA
ATOM     90  H   UNL A   1      34.935  18.862  25.555  1.00  0.00     0.295 HD
ENDBRANCH  87  89
BRANCH  88  91
ATOM     91  C   UNL A   1      32.913  18.261  24.406  1.00  0.00     0.028 A 
ATOM     92  C   UNL A   1      32.619  17.654  25.612  1.00  0.00     0.020 A 
ATOM     93  S   UNL A   1      33.674  17.167  23.327  1.00  0.00    -0.144 S 
ATOM     94  C   UNL A   1      33.060  16.302  25.662  1.00  0.00     0.012 A 
ATOM     95  C   UNL A   1      33.656  15.911  24.484  1.00  0.00     0.065 A 
ENDBRANCH  88  91
ENDBRANCH  79  80
ENDBRANCH  72  74
ENDBRANCH  71  72
ENDBRANCH  70  71
ENDBRANCH  69  70
ENDBRANCH  68  69
ENDBRANCH   1  68
TORSDOF 20
ENDMDL
MODEL 3
REMARK VINA RESULT:     -11.2      1.767      2.547
REMARK SMILES O=C(OCCOCCOC(=O)c1ccc(N2C(=O)N=C(O)/C(=C\c3cccs3)C2=O)cc1)c1ccc(-c2c3nc(c(-c4ccc(S(=O)(=O)[O-])cc4)c4ccc([nH]4)c(-c4ccc(S(=O)(=O)[O-])cc4)c4nc(c(-c5ccc(S(=O)(=O)[O-])cc5)c5ccc2[nH]5)C=C4)C=C3)cc1
REMARK SMILES IDX 5 1 4 2 3 3 2 4 1 5 33 6 34 7 92 8 35 9 91 10 36 11 37 12
REMARK SMILES IDX 38 13 85 14 39 15 90 16 84 17 86 18 40 19 89 20 83 21 82 22
REMARK SMILES IDX 41 24 71 25 52 26 70 27 53 28 56 29 69 30 87 31 54 32 55 33
REMARK SMILES IDX 68 35 88 36 57 37 42 38 43 39 51 40 44 41 50 42 45 43 46 44
REMARK SMILES IDX 47 45 48 46 49 47 72 48 73 49 81 50 74 51 80 52 75 53 76 54
REMARK SMILES IDX 77 55 78 56 79 57 58 58 59 59 67 60 60 61 66 62 61 63 62 64
REMARK SMILES IDX 63 65 64 66 65 67 6 68 7 69 8 70 9 71 10 72 11 73 12 74
REMARK SMILES IDX 13 75 32 76 14 77 31 78 15 79 16 80 17 81 29 82 18 83 19 84
REMARK SMILES IDX 22 85 30 86 20 87 23 88 21 89 24 91 25 92 28 93 26 94 27 95
REMARK H PARENT 86 23 56 34 21 90
REMARK Flexibility Score: inf
ROOT
ATOM      1  C   UNL A   1      42.143  23.669  27.504  1.00  0.00     0.202 C 
ENDROOT
BRANCH   1   2
ATOM      2  C   UNL A   1      42.224  24.408  26.166  1.00  0.00     0.261 C 
BRANCH   2   3
ATOM      3  O   UNL A   1      41.407  25.589  26.195  1.00  0.00    -0.460 OA
BRANCH   3   4
ATOM      4  C   UNL A   1      40.269  25.807  26.897  1.00  0.00     0.338 C 
ATOM      5  O   UNL A   1      39.247  25.214  26.552  1.00  0.00    -0.246 OA
BRANCH   4   6
ATOM      6  C   UNL A   1      40.184  26.715  28.081  1.00  0.00     0.060 A 
ATOM      7  C   UNL A   1      40.848  27.937  28.203  1.00  0.00     0.016 A 
ATOM      8  C   UNL A   1      39.306  26.339  29.112  1.00  0.00     0.016 A 
ATOM      9  C   UNL A   1      40.730  28.716  29.343  1.00  0.00     0.010 A 
ATOM     10  C   UNL A   1      39.142  27.142  30.245  1.00  0.00     0.010 A 
ATOM     11  C   UNL A   1      39.885  28.319  30.374  1.00  0.00    -0.014 A 
BRANCH  11  12
ATOM     12  C   UNL A   1      39.923  29.104  31.621  1.00  0.00     0.031 A 
ATOM     13  C   UNL A   1      41.114  28.945  32.518  1.00  0.00     0.074 A 
ATOM     14  C   UNL A   1      38.994  30.053  31.833  1.00  0.00     0.049 A 
ATOM     15  N   UNL A   1      41.399  29.566  33.629  1.00  0.00    -0.248 NA
ATOM     16  C   UNL A   1      42.133  27.968  32.094  1.00  0.00     0.031 C 
ATOM     17  C   UNL A   1      37.877  30.356  30.933  1.00  0.00     0.029 A 
ATOM     18  N   UNL A   1      38.869  30.974  32.838  1.00  0.00    -0.354 N 
ATOM     19  C   UNL A   1      42.612  29.035  34.053  1.00  0.00     0.074 A 
ATOM     20  C   UNL A   1      43.009  28.041  33.084  1.00  0.00     0.031 C 
ATOM     21  C   UNL A   1      37.206  31.419  31.408  1.00  0.00     0.029 A 
ATOM     22  C   UNL A   1      37.807  31.831  32.671  1.00  0.00     0.049 A 
ATOM     23  H   UNL A   1      39.481  31.018  33.608  1.00  0.00     0.167 HD
ATOM     24  C   UNL A   1      43.319  29.347  35.163  1.00  0.00     0.031 A 
ATOM     25  C   UNL A   1      37.368  32.826  33.465  1.00  0.00     0.031 A 
ATOM     26  C   UNL A   1      42.887  30.332  36.115  1.00  0.00     0.049 A 
ATOM     27  C   UNL A   1      38.128  33.096  34.736  1.00  0.00     0.074 A 
ATOM     28  C   UNL A   1      43.471  30.692  37.315  1.00  0.00     0.029 A 
ATOM     29  N   UNL A   1      41.754  31.121  35.964  1.00  0.00    -0.354 N 
ATOM     30  N   UNL A   1      39.235  32.534  35.167  1.00  0.00    -0.248 NA
ATOM     31  C   UNL A   1      37.582  34.121  35.630  1.00  0.00     0.031 C 
ATOM     32  C   UNL A   1      42.662  31.667  37.910  1.00  0.00     0.029 A 
ATOM     33  C   UNL A   1      41.609  31.956  37.054  1.00  0.00     0.049 A 
ATOM     34  H   UNL A   1      41.142  31.088  35.193  1.00  0.00     0.167 HD
ATOM     35  C   UNL A   1      39.530  33.155  36.373  1.00  0.00     0.074 A 
ATOM     36  C   UNL A   1      38.494  34.146  36.593  1.00  0.00     0.031 C 
ATOM     37  C   UNL A   1      40.561  32.932  37.227  1.00  0.00     0.031 A 
BRANCH  24  38
ATOM     38  C   UNL A   1      44.560  28.541  35.430  1.00  0.00    -0.014 A 
ATOM     39  C   UNL A   1      44.525  27.351  36.181  1.00  0.00     0.010 A 
ATOM     40  C   UNL A   1      45.797  29.011  34.953  1.00  0.00     0.010 A 
ATOM     41  C   UNL A   1      45.711  26.678  36.494  1.00  0.00     0.020 A 
ATOM     42  C   UNL A   1      46.981  28.328  35.242  1.00  0.00     0.020 A 
ATOM     43  C   UNL A   1      46.933  27.177  36.030  1.00  0.00     0.054 A 
BRANCH  43  44
ATOM     44  S   UNL A   1      48.460  26.300  36.465  1.00  0.00     0.124 S 
ATOM     45  O   UNL A   1      49.118  26.180  35.166  1.00  0.00    -0.237 OA
ATOM     46  O   UNL A   1      49.099  27.212  37.409  1.00  0.00    -0.237 OA
ATOM     47  O   UNL A   1      47.986  25.043  37.041  1.00  0.00    -0.744 OA
ENDBRANCH  43  44
ENDBRANCH  24  38
BRANCH  25  48
ATOM     48  C   UNL A   1      36.145  33.598  33.105  1.00  0.00    -0.014 A 
ATOM     49  C   UNL A   1      36.230  34.919  32.632  1.00  0.00     0.010 A 
ATOM     50  C   UNL A   1      34.873  33.007  33.237  1.00  0.00     0.010 A 
ATOM     51  C   UNL A   1      35.070  35.638  32.317  1.00  0.00     0.020 A 
ATOM     52  C   UNL A   1      33.714  33.711  32.896  1.00  0.00     0.020 A 
ATOM     53  C   UNL A   1      33.819  35.030  32.453  1.00  0.00     0.054 A 
BRANCH  53  54
ATOM     54  S   UNL A   1      32.329  35.968  32.012  1.00  0.00     0.124 S 
ATOM     55  O   UNL A   1      31.292  35.253  32.747  1.00  0.00    -0.237 OA
ATOM     56  O   UNL A   1      32.642  37.309  32.500  1.00  0.00    -0.237 OA
ATOM     57  O   UNL A   1      32.265  35.842  30.557  1.00  0.00    -0.744 OA
ENDBRANCH  53  54
ENDBRANCH  25  48
BRANCH  37  58
ATOM     58  C   UNL A   1      40.636  33.808  38.445  1.00  0.00    -0.014 A 
ATOM     59  C   UNL A   1      41.377  35.001  38.441  1.00  0.00     0.010 A 
ATOM     60  C   UNL A   1      39.906  33.448  39.592  1.00  0.00     0.010 A 
ATOM     61  C   UNL A   1      41.416  35.806  39.582  1.00  0.00     0.020 A 
ATOM     62  C   UNL A   1      39.919  34.264  40.724  1.00  0.00     0.020 A 
ATOM     63  C   UNL A   1      40.687  35.430  40.716  1.00  0.00     0.054 A 
BRANCH  63  64
ATOM     64  S   UNL A   1      40.720  36.508  42.173  1.00  0.00     0.124 S 
ATOM     65  O   UNL A   1      41.049  37.803  41.583  1.00  0.00    -0.237 OA
ATOM     66  O   UNL A   1      39.363  36.382  42.697  1.00  0.00    -0.237 OA
ATOM     67  O   UNL A   1      41.763  35.922  43.013  1.00  0.00    -0.744 OA
ENDBRANCH  63  64
ENDBRANCH  37  58
ENDBRANCH  11  12
ENDBRANCH   4   6
ENDBRANCH   3   4
ENDBRANCH   2   3
ENDBRANCH   1   2
BRANCH   1  68
ATOM     68  O   UNL A   1      41.520  22.384  27.440  1.00  0.00    -0.374 OA
BRANCH  68  69
ATOM     69  C   UNL A   1      41.336  21.846  26.125  1.00  0.00     0.202 C 
BRANCH  69  70
ATOM     70  C   UNL A   1      40.135  20.897  26.114  1.00  0.00     0.261 C 
BRANCH  70  71
ATOM     71  O   UNL A   1      38.972  21.643  25.724  1.00  0.00    -0.460 OA
BRANCH  71  72
ATOM     72  C   UNL A   1      37.968  20.886  25.213  1.00  0.00     0.338 C 
ATOM     73  O   UNL A   1      37.984  19.696  24.947  1.00  0.00    -0.246 OA
BRANCH  72  74
ATOM     74  C   UNL A   1      36.742  21.704  25.251  1.00  0.00     0.060 A 
ATOM     75  C   UNL A   1      36.814  22.975  25.834  1.00  0.00     0.018 A 
ATOM     76  C   UNL A   1      35.563  21.264  24.647  1.00  0.00     0.018 A 
ATOM     77  C   UNL A   1      35.718  23.833  25.774  1.00  0.00     0.028 A 
ATOM     78  C   UNL A   1      34.448  22.095  24.642  1.00  0.00     0.028 A 
ATOM     79  C   UNL A   1      34.526  23.383  25.197  1.00  0.00     0.054 A 
BRANCH  79  80
ATOM     80  N   UNL A   1      33.356  24.182  25.266  1.00  0.00    -0.226 N 
ATOM     81  C   UNL A   1      32.492  24.020  26.354  1.00  0.00     0.358 C 
ATOM     82  C   UNL A   1      33.153  25.066  24.217  1.00  0.00     0.272 C 
ATOM     83  O   UNL A   1      32.728  23.216  27.253  1.00  0.00    -0.245 OA
ATOM     84  N   UNL A   1      31.367  24.797  26.426  1.00  0.00    -0.156 NA
ATOM     85  C   UNL A   1      31.964  25.946  24.354  1.00  0.00     0.104 C 
ATOM     86  O   UNL A   1      33.880  25.144  23.226  1.00  0.00    -0.268 OA
ATOM     87  C   UNL A   1      31.117  25.667  25.520  1.00  0.00     0.228 C 
ATOM     88  C   UNL A   1      31.876  26.893  23.400  1.00  0.00     0.038 C 
BRANCH  87  89
ATOM     89  O   UNL A   1      29.965  26.339  25.662  1.00  0.00    -0.493 OA
ATOM     90  H   UNL A   1      29.415  26.175  26.402  1.00  0.00     0.295 HD
ENDBRANCH  87  89
BRANCH  88  91
ATOM     91  C   UNL A   1      30.920  27.932  23.371  1.00  0.00     0.028 A 
ATOM     92  C   UNL A   1      29.749  28.004  22.643  1.00  0.00     0.020 A 
ATOM     93  S   UNL A   1      31.140  29.328  24.341  1.00  0.00    -0.144 S 
ATOM     94  C   UNL A   1      29.054  29.229  22.851  1.00  0.00     0.012 A 
ATOM     95  C   UNL A   1      29.705  30.044  23.750  1.00  0.00     0.065 A 
ENDBRANCH  88  91
ENDBRANCH  79  80
ENDBRANCH  72  74
ENDBRANCH  71  72
ENDBRANCH  70  71
ENDBRANCH  69  70
ENDBRANCH  68  69
ENDBRANCH   1  68
TORSDOF 20
ENDMDL
