MODEL 1
REMARK VINA RESULT:     -10.7      0.000      0.000
REMARK SMILES Cc1ccc(Cl)c(Nc2ccccc2C(=O)NCC(=O)OCCOCCOC(=O)c2ccc(-c3c4nc(c(-c5ccc(S(=O)(=O)[O-])cc5)c5ccc([nH]5)c(-c5ccc(S(=O)(=O)[O-])cc5)c5nc(c(-c6ccc(S(=O)(=O)[O-])cc6)c6ccc3[nH]6)C=C5)C=C4)cc2)c1Cl
REMARK SMILES IDX 23 1 22 2 21 3 19 4 20 5 18 6 17 7 15 8 16 9 14 11 9 12
REMARK SMILES IDX 10 13 11 14 13 15 12 16 8 17 7 19 1 20 2 21 3 22 90 23 4 24
REMARK SMILES IDX 91 25 5 26 6 27 24 28 25 29 26 30 27 31 28 32 29 33 30 34
REMARK SMILES IDX 31 35 89 36 32 37 88 38 33 39 34 40 35 41 82 42 36 43 87 44
REMARK SMILES IDX 81 45 83 46 37 47 86 48 80 49 79 50 38 52 68 53 49 54 67 55
REMARK SMILES IDX 50 56 53 57 66 58 84 59 51 60 52 61 65 63 85 64 54 65 39 66
REMARK SMILES IDX 40 67 48 68 41 69 47 70 42 71 43 72 44 73 45 74 46 75 69 76
REMARK SMILES IDX 70 77 78 78 71 79 77 80 72 81 73 82 74 83 75 84 76 85 55 86
REMARK SMILES IDX 56 87 64 88 57 89 63 90 58 91 59 92 60 93 61 94 62 95
REMARK H PARENT 17 10 8 18 83 51 53 62
REMARK Flexibility Score: inf
ROOT
ATOM      1  C   UNL A   1      34.506  30.396  27.068  1.00  0.00     0.202 C 
ENDROOT
BRANCH   1   2
ATOM      2  C   UNL A   1      33.179  29.657  26.832  1.00  0.00     0.261 C 
BRANCH   2   3
ATOM      3  O   UNL A   1      33.228  28.320  27.356  1.00  0.00    -0.462 OA
BRANCH   3   4
ATOM      4  C   UNL A   1      32.036  27.668  27.432  1.00  0.00     0.325 C 
ATOM      5  O   UNL A   1      31.035  28.087  27.998  1.00  0.00    -0.250 OA
BRANCH   4   6
ATOM      6  C   UNL A   1      32.045  26.461  26.509  1.00  0.00     0.239 C 
BRANCH   6   7
ATOM      7  N   UNL A   1      30.850  25.694  26.293  1.00  0.00    -0.341 N 
ATOM      8  C   UNL A   1      30.848  24.323  26.412  1.00  0.00     0.253 C 
ATOM      9  O   UNL A   1      30.111  23.804  27.249  1.00  0.00    -0.269 OA
ATOM     10  H   UNL A   1      30.015  26.158  26.053  1.00  0.00     0.164 HD
BRANCH   8  11
ATOM     11  C   UNL A   1      31.431  23.511  25.312  1.00  0.00     0.063 A 
ATOM     12  C   UNL A   1      31.252  23.648  23.921  1.00  0.00     0.051 A 
ATOM     13  C   UNL A   1      31.797  22.626  23.106  1.00  0.00     0.027 A 
ATOM     14  C   UNL A   1      32.531  21.557  23.626  1.00  0.00     0.002 A 
ATOM     15  C   UNL A   1      32.200  22.441  25.824  1.00  0.00     0.016 A 
ATOM     16  C   UNL A   1      32.755  21.476  24.990  1.00  0.00     0.001 A 
BRANCH  12  17
ATOM     17  N   UNL A   1      30.681  24.720  23.200  1.00  0.00    -0.352 N 
ATOM     18  H   UNL A   1      29.897  24.437  22.678  1.00  0.00     0.167 HD
BRANCH  17  19
ATOM     19  C   UNL A   1      30.957  26.101  23.043  1.00  0.00     0.077 A 
ATOM     20  C   UNL A   1      33.838  28.568  22.439  1.00  0.00     0.046 C 
ATOM     21  C   UNL A   1      32.495  28.000  22.811  1.00  0.00    -0.030 A 
ATOM     22  C   UNL A   1      31.543  28.847  23.396  1.00  0.00     0.006 A 
ATOM     23  C   UNL A   1      32.180  26.637  22.597  1.00  0.00     0.069 A 
ATOM     24  C   UNL A   1      30.275  28.370  23.703  1.00  0.00     0.023 A 
ATOM     25  Cl  UNL A   1      33.267  25.676  21.639  1.00  0.00    -0.082 Cl
ATOM     26  C   UNL A   1      29.982  27.021  23.507  1.00  0.00     0.066 A 
ATOM     27  Cl  UNL A   1      28.371  26.499  23.877  1.00  0.00    -0.082 Cl
ENDBRANCH  17  19
ENDBRANCH  12  17
ENDBRANCH   8  11
ENDBRANCH   6   7
ENDBRANCH   4   6
ENDBRANCH   3   4
ENDBRANCH   2   3
ENDBRANCH   1   2
BRANCH   1  28
ATOM     28  O   UNL A   1      34.454  31.701  27.644  1.00  0.00    -0.374 OA
BRANCH  28  29
ATOM     29  C   UNL A   1      34.746  31.850  29.030  1.00  0.00     0.202 C 
BRANCH  29  30
ATOM     30  C   UNL A   1      36.108  31.361  29.559  1.00  0.00     0.261 C 
BRANCH  30  31
ATOM     31  O   UNL A   1      36.405  29.993  29.217  1.00  0.00    -0.460 OA
BRANCH  31  32
ATOM     32  C   UNL A   1      37.149  29.323  30.130  1.00  0.00     0.338 C 
ATOM     33  O   UNL A   1      36.811  29.012  31.265  1.00  0.00    -0.246 OA
BRANCH  32  34
ATOM     34  C   UNL A   1      38.396  28.821  29.525  1.00  0.00     0.060 A 
ATOM     35  C   UNL A   1      39.460  28.524  30.388  1.00  0.00     0.016 A 
ATOM     36  C   UNL A   1      38.579  28.792  28.141  1.00  0.00     0.016 A 
ATOM     37  C   UNL A   1      40.718  28.229  29.873  1.00  0.00     0.010 A 
ATOM     38  C   UNL A   1      39.853  28.514  27.625  1.00  0.00     0.010 A 
ATOM     39  C   UNL A   1      40.934  28.271  28.490  1.00  0.00    -0.014 A 
BRANCH  39  40
ATOM     40  C   UNL A   1      42.334  28.230  27.998  1.00  0.00     0.031 A 
ATOM     41  C   UNL A   1      43.208  29.442  28.182  1.00  0.00     0.074 A 
ATOM     42  C   UNL A   1      42.849  27.099  27.485  1.00  0.00     0.049 A 
ATOM     43  N   UNL A   1      44.480  29.595  27.914  1.00  0.00    -0.248 NA
ATOM     44  C   UNL A   1      42.562  30.636  28.751  1.00  0.00     0.031 C 
ATOM     45  C   UNL A   1      42.118  25.848  27.298  1.00  0.00     0.029 A 
ATOM     46  N   UNL A   1      44.116  26.821  27.040  1.00  0.00    -0.354 N 
ATOM     47  C   UNL A   1      44.790  30.896  28.291  1.00  0.00     0.074 A 
ATOM     48  C   UNL A   1      43.566  31.501  28.769  1.00  0.00     0.031 C 
ATOM     49  C   UNL A   1      42.950  24.932  26.773  1.00  0.00     0.029 A 
ATOM     50  C   UNL A   1      44.266  25.538  26.572  1.00  0.00     0.049 A 
ATOM     51  H   UNL A   1      44.849  27.478  27.054  1.00  0.00     0.167 HD
ATOM     52  C   UNL A   1      45.987  31.531  28.251  1.00  0.00     0.031 A 
ATOM     53  C   UNL A   1      45.338  24.923  26.037  1.00  0.00     0.031 A 
ATOM     54  C   UNL A   1      47.198  30.942  27.742  1.00  0.00     0.049 A 
ATOM     55  C   UNL A   1      46.644  25.664  25.943  1.00  0.00     0.074 A 
ATOM     56  C   UNL A   1      48.458  31.507  27.645  1.00  0.00     0.029 A 
ATOM     57  N   UNL A   1      47.296  29.656  27.234  1.00  0.00    -0.354 N 
ATOM     58  N   UNL A   1      46.925  26.891  26.317  1.00  0.00    -0.248 NA
ATOM     59  C   UNL A   1      47.783  24.931  25.372  1.00  0.00     0.031 C 
ATOM     60  C   UNL A   1      49.307  30.576  27.033  1.00  0.00     0.029 A 
ATOM     61  C   UNL A   1      48.590  29.413  26.801  1.00  0.00     0.049 A 
ATOM     62  H   UNL A   1      46.555  29.009  27.186  1.00  0.00     0.167 HD
ATOM     63  C   UNL A   1      48.277  27.072  26.042  1.00  0.00     0.074 A 
ATOM     64  C   UNL A   1      48.760  25.821  25.489  1.00  0.00     0.031 C 
ATOM     65  C   UNL A   1      49.051  28.170  26.233  1.00  0.00     0.031 A 
BRANCH  52  66
ATOM     66  C   UNL A   1      46.021  32.957  28.738  1.00  0.00    -0.014 A 
ATOM     67  C   UNL A   1      45.901  34.035  27.840  1.00  0.00     0.010 A 
ATOM     68  C   UNL A   1      46.183  33.224  30.108  1.00  0.00     0.010 A 
ATOM     69  C   UNL A   1      45.999  35.352  28.298  1.00  0.00     0.020 A 
ATOM     70  C   UNL A   1      46.256  34.540  30.574  1.00  0.00     0.020 A 
ATOM     71  C   UNL A   1      46.187  35.596  29.662  1.00  0.00     0.054 A 
BRANCH  71  72
ATOM     72  S   UNL A   1      46.328  37.312  30.231  1.00  0.00     0.124 S 
ATOM     73  O   UNL A   1      45.951  37.193  31.638  1.00  0.00    -0.237 OA
ATOM     74  O   UNL A   1      47.734  37.621  29.983  1.00  0.00    -0.237 OA
ATOM     75  O   UNL A   1      45.377  38.035  29.391  1.00  0.00    -0.744 OA
ENDBRANCH  71  72
ENDBRANCH  52  66
BRANCH  53  76
ATOM     76  C   UNL A   1      45.210  23.526  25.542  1.00  0.00    -0.014 A 
ATOM     77  C   UNL A   1      45.552  22.433  26.357  1.00  0.00     0.010 A 
ATOM     78  C   UNL A   1      44.707  23.285  24.250  1.00  0.00     0.010 A 
ATOM     79  C   UNL A   1      45.392  21.125  25.889  1.00  0.00     0.020 A 
ATOM     80  C   UNL A   1      44.523  21.979  23.787  1.00  0.00     0.020 A 
ATOM     81  C   UNL A   1      44.872  20.907  24.609  1.00  0.00     0.054 A 
BRANCH  81  82
ATOM     82  S   UNL A   1      44.592  19.201  24.054  1.00  0.00     0.124 S 
ATOM     83  O   UNL A   1      45.747  18.507  24.613  1.00  0.00    -0.237 OA
ATOM     84  O   UNL A   1      43.303  18.880  24.662  1.00  0.00    -0.237 OA
ATOM     85  O   UNL A   1      44.573  19.317  22.597  1.00  0.00    -0.744 OA
ENDBRANCH  81  82
ENDBRANCH  53  76
BRANCH  65  86
ATOM     86  C   UNL A   1      50.504  28.060  25.855  1.00  0.00    -0.014 A 
ATOM     87  C   UNL A   1      51.468  27.618  26.779  1.00  0.00     0.010 A 
ATOM     88  C   UNL A   1      50.909  28.385  24.547  1.00  0.00     0.010 A 
ATOM     89  C   UNL A   1      52.817  27.553  26.417  1.00  0.00     0.020 A 
ATOM     90  C   UNL A   1      52.252  28.296  24.174  1.00  0.00     0.020 A 
ATOM     91  C   UNL A   1      53.202  27.901  25.119  1.00  0.00     0.054 A 
BRANCH  91  92
ATOM     92  S   UNL A   1      54.956  27.806  24.669  1.00  0.00     0.124 S 
ATOM     93  O   UNL A   1      55.011  28.656  23.482  1.00  0.00    -0.237 OA
ATOM     94  O   UNL A   1      55.624  28.338  25.854  1.00  0.00    -0.237 OA
ATOM     95  O   UNL A   1      55.174  26.381  24.426  1.00  0.00    -0.744 OA
ENDBRANCH  91  92
ENDBRANCH  65  86
ENDBRANCH  39  40
ENDBRANCH  32  34
ENDBRANCH  31  32
ENDBRANCH  30  31
ENDBRANCH  29  30
ENDBRANCH  28  29
ENDBRANCH   1  28
TORSDOF 21
ENDMDL
MODEL 2
REMARK VINA RESULT:     -10.6      3.208      9.663
REMARK SMILES Cc1ccc(Cl)c(Nc2ccccc2C(=O)NCC(=O)OCCOCCOC(=O)c2ccc(-c3c4nc(c(-c5ccc(S(=O)(=O)[O-])cc5)c5ccc([nH]5)c(-c5ccc(S(=O)(=O)[O-])cc5)c5nc(c(-c6ccc(S(=O)(=O)[O-])cc6)c6ccc3[nH]6)C=C5)C=C4)cc2)c1Cl
REMARK SMILES IDX 23 1 22 2 21 3 19 4 20 5 18 6 17 7 15 8 16 9 14 11 9 12
REMARK SMILES IDX 10 13 11 14 13 15 12 16 8 17 7 19 1 20 2 21 3 22 90 23 4 24
REMARK SMILES IDX 91 25 5 26 6 27 24 28 25 29 26 30 27 31 28 32 29 33 30 34
REMARK SMILES IDX 31 35 89 36 32 37 88 38 33 39 34 40 35 41 82 42 36 43 87 44
REMARK SMILES IDX 81 45 83 46 37 47 86 48 80 49 79 50 38 52 68 53 49 54 67 55
REMARK SMILES IDX 50 56 53 57 66 58 84 59 51 60 52 61 65 63 85 64 54 65 39 66
REMARK SMILES IDX 40 67 48 68 41 69 47 70 42 71 43 72 44 73 45 74 46 75 69 76
REMARK SMILES IDX 70 77 78 78 71 79 77 80 72 81 73 82 74 83 75 84 76 85 55 86
REMARK SMILES IDX 56 87 64 88 57 89 63 90 58 91 59 92 60 93 61 94 62 95
REMARK H PARENT 17 10 8 18 83 51 53 62
REMARK Flexibility Score: inf
ROOT
ATOM      1  C   UNL A   1      34.051  22.499  26.414  1.00  0.00     0.202 C 
ENDROOT
BRANCH   1   2
ATOM      2  C   UNL A   1      33.160  22.032  25.251  1.00  0.00     0.261 C 
BRANCH   2   3
ATOM      3  O   UNL A   1      33.078  23.034  24.225  1.00  0.00    -0.462 OA
BRANCH   3   4
ATOM      4  C   UNL A   1      31.934  23.035  23.487  1.00  0.00     0.325 C 
ATOM      5  O   UNL A   1      31.585  22.148  22.720  1.00  0.00    -0.250 OA
BRANCH   4   6
ATOM      6  C   UNL A   1      31.032  24.175  23.931  1.00  0.00     0.239 C 
BRANCH   6   7
ATOM      7  N   UNL A   1      31.516  25.187  24.829  1.00  0.00    -0.341 N 
ATOM      8  C   UNL A   1      30.677  26.149  25.341  1.00  0.00     0.253 C 
ATOM      9  O   UNL A   1      30.534  26.220  26.561  1.00  0.00    -0.269 OA
ATOM     10  H   UNL A   1      32.467  25.192  25.081  1.00  0.00     0.164 HD
BRANCH   8  11
ATOM     11  C   UNL A   1      30.272  27.282  24.467  1.00  0.00     0.063 A 
ATOM     12  C   UNL A   1      30.930  28.508  24.247  1.00  0.00     0.051 A 
ATOM     13  C   UNL A   1      30.231  29.478  23.488  1.00  0.00     0.027 A 
ATOM     14  C   UNL A   1      28.976  29.233  22.923  1.00  0.00     0.002 A 
ATOM     15  C   UNL A   1      29.017  27.034  23.866  1.00  0.00     0.016 A 
ATOM     16  C   UNL A   1      28.376  27.996  23.092  1.00  0.00     0.001 A 
BRANCH  12  17
ATOM     17  N   UNL A   1      32.244  28.887  24.598  1.00  0.00    -0.352 N 
ATOM     18  H   UNL A   1      32.855  28.857  23.827  1.00  0.00     0.167 HD
BRANCH  17  19
ATOM     19  C   UNL A   1      32.901  29.301  25.784  1.00  0.00     0.077 A 
ATOM     20  C   UNL A   1      33.558  32.395  27.963  1.00  0.00     0.046 C 
ATOM     21  C   UNL A   1      33.667  31.020  27.360  1.00  0.00    -0.030 A 
ATOM     22  C   UNL A   1      34.737  30.198  27.742  1.00  0.00     0.006 A 
ATOM     23  C   UNL A   1      32.728  30.549  26.412  1.00  0.00     0.069 A 
ATOM     24  C   UNL A   1      34.838  28.905  27.246  1.00  0.00     0.023 A 
ATOM     25  Cl  UNL A   1      31.277  31.473  26.153  1.00  0.00    -0.082 Cl
ATOM     26  C   UNL A   1      33.919  28.457  26.298  1.00  0.00     0.066 A 
ATOM     27  Cl  UNL A   1      34.082  26.822  25.747  1.00  0.00    -0.082 Cl
ENDBRANCH  17  19
ENDBRANCH  12  17
ENDBRANCH   8  11
ENDBRANCH   6   7
ENDBRANCH   4   6
ENDBRANCH   3   4
ENDBRANCH   2   3
ENDBRANCH   1   2
BRANCH   1  28
ATOM     28  O   UNL A   1      35.329  21.883  26.569  1.00  0.00    -0.374 OA
BRANCH  28  29
ATOM     29  C   UNL A   1      35.931  21.261  25.438  1.00  0.00     0.202 C 
BRANCH  29  30
ATOM     30  C   UNL A   1      37.466  21.129  25.394  1.00  0.00     0.261 C 
BRANCH  30  31
ATOM     31  O   UNL A   1      38.156  22.394  25.383  1.00  0.00    -0.460 OA
BRANCH  31  32
ATOM     32  C   UNL A   1      39.232  22.467  26.204  1.00  0.00     0.338 C 
ATOM     33  O   UNL A   1      40.062  21.589  26.404  1.00  0.00    -0.246 OA
BRANCH  32  34
ATOM     34  C   UNL A   1      39.415  23.839  26.710  1.00  0.00     0.060 A 
ATOM     35  C   UNL A   1      40.073  24.754  25.876  1.00  0.00     0.016 A 
ATOM     36  C   UNL A   1      39.096  24.184  28.025  1.00  0.00     0.016 A 
ATOM     37  C   UNL A   1      40.445  26.003  26.363  1.00  0.00     0.010 A 
ATOM     38  C   UNL A   1      39.489  25.436  28.519  1.00  0.00     0.010 A 
ATOM     39  C   UNL A   1      40.199  26.333  27.701  1.00  0.00    -0.014 A 
BRANCH  39  40
ATOM     40  C   UNL A   1      40.852  27.545  28.256  1.00  0.00     0.031 A 
ATOM     41  C   UNL A   1      42.350  27.668  28.178  1.00  0.00     0.074 A 
ATOM     42  C   UNL A   1      40.116  28.565  28.731  1.00  0.00     0.049 A 
ATOM     43  N   UNL A   1      43.118  28.673  28.512  1.00  0.00    -0.248 NA
ATOM     44  C   UNL A   1      43.076  26.504  27.643  1.00  0.00     0.031 C 
ATOM     45  C   UNL A   1      38.657  28.585  28.817  1.00  0.00     0.029 A 
ATOM     46  N   UNL A   1      40.501  29.787  29.220  1.00  0.00    -0.354 N 
ATOM     47  C   UNL A   1      44.416  28.269  28.221  1.00  0.00     0.074 A 
ATOM     48  C   UNL A   1      44.334  26.915  27.718  1.00  0.00     0.031 C 
ATOM     49  C   UNL A   1      38.268  29.765  29.330  1.00  0.00     0.029 A 
ATOM     50  C   UNL A   1      39.450  30.574  29.625  1.00  0.00     0.049 A 
ATOM     51  H   UNL A   1      41.442  30.074  29.275  1.00  0.00     0.167 HD
ATOM     52  C   UNL A   1      45.573  28.964  28.351  1.00  0.00     0.031 A 
ATOM     53  C   UNL A   1      39.441  31.803  30.176  1.00  0.00     0.031 A 
ATOM     54  C   UNL A   1      45.659  30.298  28.884  1.00  0.00     0.049 A 
ATOM     55  C   UNL A   1      40.741  32.535  30.370  1.00  0.00     0.074 A 
ATOM     56  C   UNL A   1      46.784  31.082  29.070  1.00  0.00     0.029 A 
ATOM     57  N   UNL A   1      44.576  31.042  29.327  1.00  0.00    -0.354 N 
ATOM     58  N   UNL A   1      41.959  32.145  30.076  1.00  0.00    -0.248 NA
ATOM     59  C   UNL A   1      40.663  33.882  30.954  1.00  0.00     0.031 C 
ATOM     60  C   UNL A   1      46.384  32.283  29.671  1.00  0.00     0.029 A 
ATOM     61  C   UNL A   1      45.005  32.269  29.806  1.00  0.00     0.049 A 
ATOM     62  H   UNL A   1      43.638  30.742  29.305  1.00  0.00     0.167 HD
ATOM     63  C   UNL A   1      42.792  33.205  30.423  1.00  0.00     0.074 A 
ATOM     64  C   UNL A   1      41.934  34.258  30.931  1.00  0.00     0.031 C 
ATOM     65  C   UNL A   1      44.143  33.300  30.328  1.00  0.00     0.031 A 
BRANCH  52  66
ATOM     66  C   UNL A   1      46.841  28.261  27.943  1.00  0.00    -0.014 A 
ATOM     67  C   UNL A   1      47.579  27.497  28.867  1.00  0.00     0.010 A 
ATOM     68  C   UNL A   1      47.307  28.370  26.621  1.00  0.00     0.010 A 
ATOM     69  C   UNL A   1      48.788  26.905  28.492  1.00  0.00     0.020 A 
ATOM     70  C   UNL A   1      48.503  27.757  26.234  1.00  0.00     0.020 A 
ATOM     71  C   UNL A   1      49.248  27.047  27.179  1.00  0.00     0.054 A 
BRANCH  71  72
ATOM     72  S   UNL A   1      50.827  26.283  26.718  1.00  0.00     0.124 S 
ATOM     73  O   UNL A   1      50.795  26.386  25.261  1.00  0.00    -0.237 OA
ATOM     74  O   UNL A   1      51.806  27.137  27.386  1.00  0.00    -0.237 OA
ATOM     75  O   UNL A   1      50.723  24.926  27.249  1.00  0.00    -0.744 OA
ENDBRANCH  71  72
ENDBRANCH  52  66
BRANCH  53  76
ATOM     76  C   UNL A   1      38.147  32.411  30.588  1.00  0.00    -0.014 A 
ATOM     77  C   UNL A   1      37.622  32.197  31.874  1.00  0.00     0.010 A 
ATOM     78  C   UNL A   1      37.449  33.243  29.693  1.00  0.00     0.010 A 
ATOM     79  C   UNL A   1      36.422  32.804  32.257  1.00  0.00     0.020 A 
ATOM     80  C   UNL A   1      36.262  33.871  30.081  1.00  0.00     0.020 A 
ATOM     81  C   UNL A   1      35.754  33.643  31.360  1.00  0.00     0.054 A 
BRANCH  81  82
ATOM     82  S   UNL A   1      34.244  34.490  31.907  1.00  0.00     0.124 S 
ATOM     83  O   UNL A   1      33.516  34.654  30.652  1.00  0.00    -0.237 OA
ATOM     84  O   UNL A   1      33.672  33.535  32.852  1.00  0.00    -0.237 OA
ATOM     85  O   UNL A   1      34.745  35.725  32.508  1.00  0.00    -0.744 OA
ENDBRANCH  81  82
ENDBRANCH  53  76
BRANCH  65  86
ATOM     86  C   UNL A   1      44.772  34.595  30.767  1.00  0.00    -0.014 A 
ATOM     87  C   UNL A   1      45.339  34.736  32.046  1.00  0.00     0.010 A 
ATOM     88  C   UNL A   1      44.813  35.685  29.877  1.00  0.00     0.010 A 
ATOM     89  C   UNL A   1      45.890  35.958  32.445  1.00  0.00     0.020 A 
ATOM     90  C   UNL A   1      45.386  36.899  30.262  1.00  0.00     0.020 A 
ATOM     91  C   UNL A   1      45.902  37.034  31.553  1.00  0.00     0.054 A 
BRANCH  91  92
ATOM     92  S   UNL A   1      46.625  38.609  32.089  1.00  0.00     0.124 S 
ATOM     93  O   UNL A   1      48.010  38.230  32.359  1.00  0.00    -0.237 OA
ATOM     94  O   UNL A   1      46.424  39.470  30.926  1.00  0.00    -0.237 OA
ATOM     95  O   UNL A   1      45.836  38.969  33.266  1.00  0.00    -0.744 OA
ENDBRANCH  91  92
ENDBRANCH  65  86
ENDBRANCH  39  40
ENDBRANCH  32  34
ENDBRANCH  31  32
ENDBRANCH  30  31
ENDBRANCH  29  30
ENDBRANCH  28  29
ENDBRANCH   1  28
TORSDOF 21
ENDMDL
MODEL 3
REMARK VINA RESULT:     -10.6      6.281     11.911
REMARK SMILES Cc1ccc(Cl)c(Nc2ccccc2C(=O)NCC(=O)OCCOCCOC(=O)c2ccc(-c3c4nc(c(-c5ccc(S(=O)(=O)[O-])cc5)c5ccc([nH]5)c(-c5ccc(S(=O)(=O)[O-])cc5)c5nc(c(-c6ccc(S(=O)(=O)[O-])cc6)c6ccc3[nH]6)C=C5)C=C4)cc2)c1Cl
REMARK SMILES IDX 23 1 22 2 21 3 19 4 20 5 18 6 17 7 15 8 16 9 14 11 9 12
REMARK SMILES IDX 10 13 11 14 13 15 12 16 8 17 7 19 1 20 2 21 3 22 90 23 4 24
REMARK SMILES IDX 91 25 5 26 6 27 24 28 25 29 26 30 27 31 28 32 29 33 30 34
REMARK SMILES IDX 31 35 89 36 32 37 88 38 33 39 34 40 35 41 82 42 36 43 87 44
REMARK SMILES IDX 81 45 83 46 37 47 86 48 80 49 79 50 38 52 68 53 49 54 67 55
REMARK SMILES IDX 50 56 53 57 66 58 84 59 51 60 52 61 65 63 85 64 54 65 39 66
REMARK SMILES IDX 40 67 48 68 41 69 47 70 42 71 43 72 44 73 45 74 46 75 69 76
REMARK SMILES IDX 70 77 78 78 71 79 77 80 72 81 73 82 74 83 75 84 76 85 55 86
REMARK SMILES IDX 56 87 64 88 57 89 63 90 58 91 59 92 60 93 61 94 62 95
REMARK H PARENT 17 10 8 18 83 51 53 62
REMARK Flexibility Score: inf
ROOT
ATOM      1  C   UNL A   1      38.874  22.143  26.101  1.00  0.00     0.202 C 
ENDROOT
BRANCH   1   2
ATOM      2  C   UNL A   1      37.696  21.448  25.401  1.00  0.00     0.261 C 
BRANCH   2   3
ATOM      3  O   UNL A   1      36.552  22.314  25.322  1.00  0.00    -0.462 OA
BRANCH   3   4
ATOM      4  C   UNL A   1      36.041  22.510  24.077  1.00  0.00     0.325 C 
ATOM      5  O   UNL A   1      36.668  22.924  23.111  1.00  0.00    -0.250 OA
BRANCH   4   6
ATOM      6  C   UNL A   1      34.645  21.916  23.989  1.00  0.00     0.239 C 
BRANCH   6   7
ATOM      7  N   UNL A   1      33.692  22.418  23.038  1.00  0.00    -0.341 N 
ATOM      8  C   UNL A   1      33.275  23.728  23.067  1.00  0.00     0.253 C 
ATOM      9  O   UNL A   1      33.479  24.435  22.081  1.00  0.00    -0.269 OA
ATOM     10  H   UNL A   1      33.329  21.811  22.353  1.00  0.00     0.164 HD
BRANCH   8  11
ATOM     11  C   UNL A   1      32.288  24.140  24.100  1.00  0.00     0.063 A 
ATOM     12  C   UNL A   1      32.063  25.418  24.649  1.00  0.00     0.051 A 
ATOM     13  C   UNL A   1      31.168  25.491  25.744  1.00  0.00     0.027 A 
ATOM     14  C   UNL A   1      30.484  24.376  26.235  1.00  0.00     0.002 A 
ATOM     15  C   UNL A   1      31.568  23.024  24.585  1.00  0.00     0.016 A 
ATOM     16  C   UNL A   1      30.665  23.140  25.638  1.00  0.00     0.001 A 
BRANCH  12  17
ATOM     17  N   UNL A   1      32.534  26.672  24.203  1.00  0.00    -0.352 N 
ATOM     18  H   UNL A   1      33.224  26.580  23.507  1.00  0.00     0.167 HD
BRANCH  17  19
ATOM     19  C   UNL A   1      32.259  28.029  24.505  1.00  0.00     0.077 A 
ATOM     20  C   UNL A   1      32.783  30.695  27.221  1.00  0.00     0.046 C 
ATOM     21  C   UNL A   1      32.250  29.961  26.020  1.00  0.00    -0.030 A 
ATOM     22  C   UNL A   1      31.138  30.488  25.346  1.00  0.00     0.006 A 
ATOM     23  C   UNL A   1      32.832  28.753  25.568  1.00  0.00     0.069 A 
ATOM     24  C   UNL A   1      30.652  29.866  24.203  1.00  0.00     0.023 A 
ATOM     25  Cl  UNL A   1      34.355  28.263  26.250  1.00  0.00    -0.082 Cl
ATOM     26  C   UNL A   1      31.221  28.666  23.778  1.00  0.00     0.066 A 
ATOM     27  Cl  UNL A   1      30.591  27.962  22.325  1.00  0.00    -0.082 Cl
ENDBRANCH  17  19
ENDBRANCH  12  17
ENDBRANCH   8  11
ENDBRANCH   6   7
ENDBRANCH   4   6
ENDBRANCH   3   4
ENDBRANCH   2   3
ENDBRANCH   1   2
BRANCH   1  28
ATOM     28  O   UNL A   1      40.101  21.425  26.222  1.00  0.00    -0.374 OA
BRANCH  28  29
ATOM     29  C   UNL A   1      40.993  21.767  27.278  1.00  0.00     0.202 C 
BRANCH  29  30
ATOM     30  C   UNL A   1      42.398  22.291  26.923  1.00  0.00     0.261 C 
BRANCH  30  31
ATOM     31  O   UNL A   1      42.742  23.523  27.587  1.00  0.00    -0.460 OA
BRANCH  31  32
ATOM     32  C   UNL A   1      42.584  24.641  26.837  1.00  0.00     0.338 C 
ATOM     33  O   UNL A   1      42.758  24.744  25.630  1.00  0.00    -0.246 OA
BRANCH  32  34
ATOM     34  C   UNL A   1      41.974  25.723  27.630  1.00  0.00     0.060 A 
ATOM     35  C   UNL A   1      42.736  26.880  27.840  1.00  0.00     0.016 A 
ATOM     36  C   UNL A   1      40.754  25.550  28.288  1.00  0.00     0.016 A 
ATOM     37  C   UNL A   1      42.299  27.855  28.732  1.00  0.00     0.010 A 
ATOM     38  C   UNL A   1      40.325  26.525  29.201  1.00  0.00     0.010 A 
ATOM     39  C   UNL A   1      41.115  27.660  29.454  1.00  0.00    -0.014 A 
BRANCH  39  40
ATOM     40  C   UNL A   1      40.828  28.574  30.588  1.00  0.00     0.031 A 
ATOM     41  C   UNL A   1      41.685  28.495  31.824  1.00  0.00     0.074 A 
ATOM     42  C   UNL A   1      39.884  29.525  30.482  1.00  0.00     0.049 A 
ATOM     43  N   UNL A   1      41.674  29.254  32.890  1.00  0.00    -0.248 NA
ATOM     44  C   UNL A   1      42.694  27.424  31.855  1.00  0.00     0.031 C 
ATOM     45  C   UNL A   1      39.021  29.732  29.321  1.00  0.00     0.029 A 
ATOM     46  N   UNL A   1      39.506  30.504  31.365  1.00  0.00    -0.354 N 
ATOM     47  C   UNL A   1      42.677  28.759  33.715  1.00  0.00     0.074 A 
ATOM     48  C   UNL A   1      43.251  27.614  33.042  1.00  0.00     0.031 C 
ATOM     49  C   UNL A   1      38.209  30.775  29.563  1.00  0.00     0.029 A 
ATOM     50  C   UNL A   1      38.484  31.298  30.901  1.00  0.00     0.049 A 
ATOM     51  H   UNL A   1      39.926  30.628  32.247  1.00  0.00     0.167 HD
ATOM     52  C   UNL A   1      43.092  29.220  34.920  1.00  0.00     0.031 A 
ATOM     53  C   UNL A   1      37.839  32.324  31.489  1.00  0.00     0.031 A 
ATOM     54  C   UNL A   1      42.498  30.338  35.607  1.00  0.00     0.049 A 
ATOM     55  C   UNL A   1      38.272  32.782  32.855  1.00  0.00     0.074 A 
ATOM     56  C   UNL A   1      42.835  30.873  36.837  1.00  0.00     0.029 A 
ATOM     57  N   UNL A   1      41.434  31.085  35.124  1.00  0.00    -0.354 N 
ATOM     58  N   UNL A   1      39.233  32.314  33.617  1.00  0.00    -0.248 NA
ATOM     59  C   UNL A   1      37.545  33.921  33.433  1.00  0.00     0.031 C 
ATOM     60  C   UNL A   1      41.942  31.915  37.119  1.00  0.00     0.029 A 
ATOM     61  C   UNL A   1      41.086  32.065  36.039  1.00  0.00     0.049 A 
ATOM     62  H   UNL A   1      40.989  30.940  34.257  1.00  0.00     0.167 HD
ATOM     63  C   UNL A   1      39.238  33.111  34.757  1.00  0.00     0.074 A 
ATOM     64  C   UNL A   1      38.196  34.103  34.574  1.00  0.00     0.031 C 
ATOM     65  C   UNL A   1      40.033  33.032  35.854  1.00  0.00     0.031 A 
BRANCH  52  66
ATOM     66  C   UNL A   1      44.221  28.476  35.585  1.00  0.00    -0.014 A 
ATOM     67  C   UNL A   1      43.969  27.396  36.452  1.00  0.00     0.010 A 
ATOM     68  C   UNL A   1      45.550  28.866  35.348  1.00  0.00     0.010 A 
ATOM     69  C   UNL A   1      45.023  26.757  37.111  1.00  0.00     0.020 A 
ATOM     70  C   UNL A   1      46.609  28.213  35.986  1.00  0.00     0.020 A 
ATOM     71  C   UNL A   1      46.336  27.177  36.882  1.00  0.00     0.054 A 
BRANCH  71  72
ATOM     72  S   UNL A   1      47.686  26.344  37.761  1.00  0.00     0.124 S 
ATOM     73  O   UNL A   1      48.720  27.376  37.770  1.00  0.00    -0.237 OA
ATOM     74  O   UNL A   1      47.089  26.043  39.060  1.00  0.00    -0.237 OA
ATOM     75  O   UNL A   1      47.976  25.180  36.928  1.00  0.00    -0.744 OA
ENDBRANCH  71  72
ENDBRANCH  52  66
BRANCH  53  76
ATOM     76  C   UNL A   1      36.707  32.979  30.781  1.00  0.00    -0.014 A 
ATOM     77  C   UNL A   1      35.374  32.707  31.135  1.00  0.00     0.010 A 
ATOM     78  C   UNL A   1      36.968  33.915  29.762  1.00  0.00     0.010 A 
ATOM     79  C   UNL A   1      34.323  33.358  30.482  1.00  0.00     0.020 A 
ATOM     80  C   UNL A   1      35.920  34.586  29.125  1.00  0.00     0.020 A 
ATOM     81  C   UNL A   1      34.604  34.299  29.486  1.00  0.00     0.054 A 
BRANCH  81  82
ATOM     82  S   UNL A   1      33.228  35.196  28.713  1.00  0.00     0.124 S 
ATOM     83  O   UNL A   1      32.553  34.136  27.971  1.00  0.00    -0.237 OA
ATOM     84  O   UNL A   1      32.505  35.722  29.868  1.00  0.00    -0.237 OA
ATOM     85  O   UNL A   1      33.897  36.206  27.895  1.00  0.00    -0.744 OA
ENDBRANCH  81  82
ENDBRANCH  53  76
BRANCH  65  86
ATOM     86  C   UNL A   1      39.817  34.060  36.933  1.00  0.00    -0.014 A 
ATOM     87  C   UNL A   1      40.283  35.379  36.791  1.00  0.00     0.010 A 
ATOM     88  C   UNL A   1      39.117  33.703  38.102  1.00  0.00     0.010 A 
ATOM     89  C   UNL A   1      40.099  36.309  37.819  1.00  0.00     0.020 A 
ATOM     90  C   UNL A   1      38.908  34.637  39.120  1.00  0.00     0.020 A 
ATOM     91  C   UNL A   1      39.420  35.929  38.980  1.00  0.00     0.054 A 
BRANCH  91  92
ATOM     92  S   UNL A   1      39.188  37.152  40.300  1.00  0.00     0.124 S 
ATOM     93  O   UNL A   1      40.566  37.458  40.674  1.00  0.00    -0.237 OA
ATOM     94  O   UNL A   1      38.466  38.227  39.623  1.00  0.00    -0.237 OA
ATOM     95  O   UNL A   1      38.414  36.430  41.308  1.00  0.00    -0.744 OA
ENDBRANCH  91  92
ENDBRANCH  65  86
ENDBRANCH  39  40
ENDBRANCH  32  34
ENDBRANCH  31  32
ENDBRANCH  30  31
ENDBRANCH  29  30
ENDBRANCH  28  29
ENDBRANCH   1  28
TORSDOF 21
ENDMDL
