MODEL 1
REMARK VINA RESULT:     -10.5      0.000      0.000
REMARK SMILES Cc1nc2scc(C)n2c1CNc1ccc(C(=O)OCCOCCOC(=O)c2ccc(-c3c4nc(c(-c5ccc(S(=O)(=O)[O-])cc5)c5ccc([nH]5)c(-c5ccc(S(=O)(=O)[O-])cc5)c5nc(c(-c6ccc(S(=O)(=O)[O-])cc6)c6ccc3[nH]6)C=C5)C=C4)cc2)cc1
REMARK SMILES IDX 22 1 21 2 20 3 19 4 17 5 18 6 16 7 13 8 14 9 89 10 15 11
REMARK SMILES IDX 88 12 12 13 11 15 10 16 1 17 2 18 3 19 4 20 9 21 5 22 7 23
REMARK SMILES IDX 6 24 8 25 23 26 24 27 25 28 26 29 27 30 28 31 29 32 87 33
REMARK SMILES IDX 30 34 86 35 31 36 32 37 33 38 80 39 34 40 85 41 79 42 81 43
REMARK SMILES IDX 35 44 84 45 78 46 77 47 36 49 66 50 47 51 65 52 48 53 51 54
REMARK SMILES IDX 64 55 82 56 49 57 50 58 63 60 83 61 52 62 37 63 38 64 46 65
REMARK SMILES IDX 39 66 45 67 40 68 41 69 42 70 43 71 44 72 67 73 68 74 76 75
REMARK SMILES IDX 69 76 75 77 70 78 71 79 72 80 73 81 74 82 53 83 54 84 62 85
REMARK SMILES IDX 55 86 61 87 56 88 57 89 58 90 59 91 60 92
REMARK H PARENT 12 14 81 48 51 59
REMARK Flexibility Score: inf
ROOT
ATOM      1  O   UNL A   1      41.684  21.118  27.345  1.00  0.00    -0.374 OA
ENDROOT
BRANCH   1   2
ATOM      2  C   UNL A   1      40.553  21.861  26.885  1.00  0.00     0.202 C 
BRANCH   2   3
ATOM      3  C   UNL A   1      39.471  21.107  26.113  1.00  0.00     0.261 C 
BRANCH   3   4
ATOM      4  O   UNL A   1      38.274  21.888  25.972  1.00  0.00    -0.460 OA
BRANCH   4   5
ATOM      5  C   UNL A   1      37.335  21.330  25.177  1.00  0.00     0.338 C 
ATOM      6  O   UNL A   1      37.383  20.238  24.624  1.00  0.00    -0.246 OA
BRANCH   5   7
ATOM      7  C   UNL A   1      36.116  22.155  25.155  1.00  0.00     0.060 A 
ATOM      8  C   UNL A   1      33.883  23.706  25.763  1.00  0.00     0.034 A 
ATOM      9  C   UNL A   1      35.139  24.306  25.656  1.00  0.00     0.026 A 
ATOM     10  C   UNL A   1      33.738  22.367  25.367  1.00  0.00     0.026 A 
ATOM     11  C   UNL A   1      36.261  23.526  25.389  1.00  0.00     0.018 A 
ATOM     12  C   UNL A   1      34.851  21.584  25.053  1.00  0.00     0.018 A 
BRANCH   8  13
ATOM     13  N   UNL A   1      32.891  24.363  26.482  1.00  0.00    -0.379 N 
ATOM     14  H   UNL A   1      32.892  24.354  27.466  1.00  0.00     0.160 HD
BRANCH  13  15
ATOM     15  C   UNL A   1      31.854  25.063  25.742  1.00  0.00     0.169 C 
BRANCH  15  16
ATOM     16  C   UNL A   1      32.207  26.447  25.332  1.00  0.00     0.066 A 
ATOM     17  C   UNL A   1      31.795  27.823  27.502  1.00  0.00     0.069 C 
ATOM     18  C   UNL A   1      32.179  27.625  26.083  1.00  0.00     0.062 A 
ATOM     19  N   UNL A   1      32.632  28.704  25.355  1.00  0.00    -0.224 NA
ATOM     20  C   UNL A   1      32.939  28.183  24.204  1.00  0.00     0.194 A 
ATOM     21  N   UNL A   1      32.745  26.829  24.117  1.00  0.00    -0.290 N 
ATOM     22  S   UNL A   1      33.628  28.845  22.755  1.00  0.00    -0.105 S 
ATOM     23  C   UNL A   1      33.156  26.279  22.904  1.00  0.00     0.032 A 
ATOM     24  C   UNL A   1      33.651  27.223  22.078  1.00  0.00     0.090 A 
ATOM     25  C   UNL A   1      33.109  24.842  22.543  1.00  0.00     0.066 C 
ENDBRANCH  15  16
ENDBRANCH  13  15
ENDBRANCH   8  13
ENDBRANCH   5   7
ENDBRANCH   4   5
ENDBRANCH   3   4
ENDBRANCH   2   3
ENDBRANCH   1   2
BRANCH   1  26
ATOM     26  C   UNL A   1      41.762  19.719  27.095  1.00  0.00     0.202 C 
BRANCH  26  27
ATOM     27  C   UNL A   1      42.800  19.212  26.104  1.00  0.00     0.261 C 
BRANCH  27  28
ATOM     28  O   UNL A   1      43.023  20.128  25.046  1.00  0.00    -0.460 OA
BRANCH  28  29
ATOM     29  C   UNL A   1      44.327  20.338  24.770  1.00  0.00     0.338 C 
ATOM     30  O   UNL A   1      45.179  19.488  24.535  1.00  0.00    -0.246 OA
BRANCH  29  31
ATOM     31  C   UNL A   1      44.616  21.764  24.923  1.00  0.00     0.060 A 
ATOM     32  C   UNL A   1      45.656  22.092  25.795  1.00  0.00     0.016 A 
ATOM     33  C   UNL A   1      43.682  22.712  24.479  1.00  0.00     0.016 A 
ATOM     34  C   UNL A   1      45.616  23.313  26.423  1.00  0.00     0.010 A 
ATOM     35  C   UNL A   1      43.624  23.917  25.130  1.00  0.00     0.010 A 
ATOM     36  C   UNL A   1      44.538  24.159  26.153  1.00  0.00    -0.014 A 
BRANCH  36  37
ATOM     37  C   UNL A   1      44.376  25.329  26.982  1.00  0.00     0.031 A 
ATOM     38  C   UNL A   1      45.446  26.324  26.808  1.00  0.00     0.074 A 
ATOM     39  C   UNL A   1      43.266  25.515  27.717  1.00  0.00     0.049 A 
ATOM     40  N   UNL A   1      46.386  26.638  27.633  1.00  0.00    -0.248 NA
ATOM     41  C   UNL A   1      45.595  26.905  25.463  1.00  0.00     0.031 C 
ATOM     42  C   UNL A   1      42.026  24.730  27.665  1.00  0.00     0.029 A 
ATOM     43  N   UNL A   1      42.959  26.533  28.563  1.00  0.00    -0.354 N 
ATOM     44  C   UNL A   1      47.105  27.634  26.986  1.00  0.00     0.074 A 
ATOM     45  C   UNL A   1      46.746  27.557  25.595  1.00  0.00     0.031 C 
ATOM     46  C   UNL A   1      41.038  25.435  28.258  1.00  0.00     0.029 A 
ATOM     47  C   UNL A   1      41.603  26.647  28.829  1.00  0.00     0.049 A 
ATOM     48  H   UNL A   1      43.636  27.133  28.950  1.00  0.00     0.167 HD
ATOM     49  C   UNL A   1      47.665  28.666  27.673  1.00  0.00     0.031 A 
ATOM     50  C   UNL A   1      40.982  27.714  29.388  1.00  0.00     0.031 A 
ATOM     51  C   UNL A   1      47.732  28.396  29.085  1.00  0.00     0.049 A 
ATOM     52  C   UNL A   1      42.017  28.534  30.066  1.00  0.00     0.074 A 
ATOM     53  C   UNL A   1      48.364  27.460  29.876  1.00  0.00     0.029 A 
ATOM     54  N   UNL A   1      46.745  28.966  29.854  1.00  0.00    -0.354 N 
ATOM     55  N   UNL A   1      42.692  28.132  31.108  1.00  0.00    -0.248 NA
ATOM     56  C   UNL A   1      42.600  29.662  29.354  1.00  0.00     0.031 C 
ATOM     57  C   UNL A   1      47.499  27.255  30.990  1.00  0.00     0.029 A 
ATOM     58  C   UNL A   1      46.391  28.094  30.850  1.00  0.00     0.049 A 
ATOM     59  H   UNL A   1      46.355  29.858  29.711  1.00  0.00     0.167 HD
ATOM     60  C   UNL A   1      43.961  28.666  30.943  1.00  0.00     0.074 A 
ATOM     61  C   UNL A   1      43.803  29.705  29.932  1.00  0.00     0.031 C 
ATOM     62  C   UNL A   1      45.062  28.022  31.430  1.00  0.00     0.031 A 
BRANCH  49  63
ATOM     63  C   UNL A   1      47.698  30.080  27.132  1.00  0.00    -0.014 A 
ATOM     64  C   UNL A   1      48.885  30.825  27.262  1.00  0.00     0.010 A 
ATOM     65  C   UNL A   1      46.535  30.793  26.770  1.00  0.00     0.010 A 
ATOM     66  C   UNL A   1      48.886  32.218  27.116  1.00  0.00     0.020 A 
ATOM     67  C   UNL A   1      46.533  32.173  26.572  1.00  0.00     0.020 A 
ATOM     68  C   UNL A   1      47.703  32.883  26.789  1.00  0.00     0.054 A 
BRANCH  68  69
ATOM     69  S   UNL A   1      47.673  34.688  26.736  1.00  0.00     0.124 S 
ATOM     70  O   UNL A   1      48.517  34.963  25.578  1.00  0.00    -0.237 OA
ATOM     71  O   UNL A   1      46.250  34.969  26.569  1.00  0.00    -0.237 OA
ATOM     72  O   UNL A   1      48.233  35.077  28.029  1.00  0.00    -0.744 OA
ENDBRANCH  68  69
ENDBRANCH  49  63
BRANCH  50  73
ATOM     73  C   UNL A   1      39.619  28.212  29.085  1.00  0.00    -0.014 A 
ATOM     74  C   UNL A   1      38.613  28.235  30.066  1.00  0.00     0.010 A 
ATOM     75  C   UNL A   1      39.373  28.902  27.877  1.00  0.00     0.010 A 
ATOM     76  C   UNL A   1      37.423  28.955  29.863  1.00  0.00     0.020 A 
ATOM     77  C   UNL A   1      38.188  29.612  27.663  1.00  0.00     0.020 A 
ATOM     78  C   UNL A   1      37.225  29.653  28.667  1.00  0.00     0.054 A 
BRANCH  78  79
ATOM     79  S   UNL A   1      35.757  30.703  28.472  1.00  0.00     0.124 S 
ATOM     80  O   UNL A   1      35.451  31.068  29.852  1.00  0.00    -0.237 OA
ATOM     81  O   UNL A   1      36.251  31.787  27.626  1.00  0.00    -0.237 OA
ATOM     82  O   UNL A   1      34.782  29.819  27.835  1.00  0.00    -0.744 OA
ENDBRANCH  78  79
ENDBRANCH  50  73
BRANCH  62  83
ATOM     83  C   UNL A   1      44.856  26.982  32.504  1.00  0.00    -0.014 A 
ATOM     84  C   UNL A   1      44.555  25.632  32.240  1.00  0.00     0.010 A 
ATOM     85  C   UNL A   1      45.119  27.366  33.832  1.00  0.00     0.010 A 
ATOM     86  C   UNL A   1      44.500  24.697  33.284  1.00  0.00     0.020 A 
ATOM     87  C   UNL A   1      45.085  26.437  34.872  1.00  0.00     0.020 A 
ATOM     88  C   UNL A   1      44.769  25.106  34.594  1.00  0.00     0.054 A 
BRANCH  88  89
ATOM     89  S   UNL A   1      44.760  23.880  35.932  1.00  0.00     0.124 S 
ATOM     90  O   UNL A   1      43.824  24.460  36.889  1.00  0.00    -0.237 OA
ATOM     91  O   UNL A   1      44.302  22.667  35.259  1.00  0.00    -0.237 OA
ATOM     92  O   UNL A   1      46.154  23.840  36.377  1.00  0.00    -0.744 OA
ENDBRANCH  88  89
ENDBRANCH  62  83
ENDBRANCH  36  37
ENDBRANCH  29  31
ENDBRANCH  28  29
ENDBRANCH  27  28
ENDBRANCH  26  27
ENDBRANCH   1  26
TORSDOF 20
ENDMDL
MODEL 2
REMARK VINA RESULT:     -10.5      1.584      2.080
REMARK SMILES Cc1nc2scc(C)n2c1CNc1ccc(C(=O)OCCOCCOC(=O)c2ccc(-c3c4nc(c(-c5ccc(S(=O)(=O)[O-])cc5)c5ccc([nH]5)c(-c5ccc(S(=O)(=O)[O-])cc5)c5nc(c(-c6ccc(S(=O)(=O)[O-])cc6)c6ccc3[nH]6)C=C5)C=C4)cc2)cc1
REMARK SMILES IDX 22 1 21 2 20 3 19 4 17 5 18 6 16 7 13 8 14 9 89 10 15 11
REMARK SMILES IDX 88 12 12 13 11 15 10 16 1 17 2 18 3 19 4 20 9 21 5 22 7 23
REMARK SMILES IDX 6 24 8 25 23 26 24 27 25 28 26 29 27 30 28 31 29 32 87 33
REMARK SMILES IDX 30 34 86 35 31 36 32 37 33 38 80 39 34 40 85 41 79 42 81 43
REMARK SMILES IDX 35 44 84 45 78 46 77 47 36 49 66 50 47 51 65 52 48 53 51 54
REMARK SMILES IDX 64 55 82 56 49 57 50 58 63 60 83 61 52 62 37 63 38 64 46 65
REMARK SMILES IDX 39 66 45 67 40 68 41 69 42 70 43 71 44 72 67 73 68 74 76 75
REMARK SMILES IDX 69 76 75 77 70 78 71 79 72 80 73 81 74 82 53 83 54 84 62 85
REMARK SMILES IDX 55 86 61 87 56 88 57 89 58 90 59 91 60 92
REMARK H PARENT 12 14 81 48 51 59
REMARK Flexibility Score: inf
ROOT
ATOM      1  O   UNL A   1      40.044  22.069  26.457  1.00  0.00    -0.374 OA
ENDROOT
BRANCH   1   2
ATOM      2  C   UNL A   1      38.890  21.562  25.783  1.00  0.00     0.202 C 
BRANCH   2   3
ATOM      3  C   UNL A   1      37.699  22.503  25.604  1.00  0.00     0.261 C 
BRANCH   3   4
ATOM      4  O   UNL A   1      36.946  22.191  24.421  1.00  0.00    -0.460 OA
BRANCH   4   5
ATOM      5  C   UNL A   1      35.761  21.587  24.659  1.00  0.00     0.338 C 
ATOM      6  O   UNL A   1      35.540  20.664  25.432  1.00  0.00    -0.246 OA
BRANCH   5   7
ATOM      7  C   UNL A   1      34.672  22.285  23.956  1.00  0.00     0.060 A 
ATOM      8  C   UNL A   1      32.573  23.946  23.184  1.00  0.00     0.034 A 
ATOM      9  C   UNL A   1      33.892  24.380  23.041  1.00  0.00     0.026 A 
ATOM     10  C   UNL A   1      32.336  22.605  23.528  1.00  0.00     0.026 A 
ATOM     11  C   UNL A   1      34.940  23.565  23.461  1.00  0.00     0.018 A 
ATOM     12  C   UNL A   1      33.383  21.763  23.909  1.00  0.00     0.018 A 
BRANCH   8  13
ATOM     13  N   UNL A   1      31.561  24.897  23.229  1.00  0.00    -0.379 N 
ATOM     14  H   UNL A   1      30.753  24.801  22.676  1.00  0.00     0.160 HD
BRANCH  13  15
ATOM     15  C   UNL A   1      31.728  26.039  24.115  1.00  0.00     0.169 C 
BRANCH  15  16
ATOM     16  C   UNL A   1      31.534  27.362  23.468  1.00  0.00     0.066 A 
ATOM     17  C   UNL A   1      33.954  28.048  22.800  1.00  0.00     0.069 C 
ATOM     18  C   UNL A   1      32.485  28.221  22.910  1.00  0.00     0.062 A 
ATOM     19  N   UNL A   1      31.899  29.340  22.358  1.00  0.00    -0.224 NA
ATOM     20  C   UNL A   1      30.630  29.149  22.565  1.00  0.00     0.194 A 
ATOM     21  N   UNL A   1      30.323  27.971  23.197  1.00  0.00    -0.290 N 
ATOM     22  S   UNL A   1      29.214  30.054  22.133  1.00  0.00    -0.105 S 
ATOM     23  C   UNL A   1      28.954  27.748  23.336  1.00  0.00     0.032 A 
ATOM     24  C   UNL A   1      28.234  28.765  22.817  1.00  0.00     0.090 A 
ATOM     25  C   UNL A   1      28.327  26.546  23.937  1.00  0.00     0.066 C 
ENDBRANCH  15  16
ENDBRANCH  13  15
ENDBRANCH   8  13
ENDBRANCH   5   7
ENDBRANCH   4   5
ENDBRANCH   3   4
ENDBRANCH   2   3
ENDBRANCH   1   2
BRANCH   1  26
ATOM     26  C   UNL A   1      40.684  21.283  27.456  1.00  0.00     0.202 C 
BRANCH  26  27
ATOM     27  C   UNL A   1      41.937  20.504  27.080  1.00  0.00     0.261 C 
BRANCH  27  28
ATOM     28  O   UNL A   1      42.236  20.606  25.699  1.00  0.00    -0.460 OA
BRANCH  28  29
ATOM     29  C   UNL A   1      43.552  20.743  25.432  1.00  0.00     0.338 C 
ATOM     30  O   UNL A   1      44.366  19.844  25.246  1.00  0.00    -0.246 OA
BRANCH  29  31
ATOM     31  C   UNL A   1      43.905  22.159  25.526  1.00  0.00     0.060 A 
ATOM     32  C   UNL A   1      44.900  22.485  26.450  1.00  0.00     0.016 A 
ATOM     33  C   UNL A   1      43.055  23.124  24.966  1.00  0.00     0.016 A 
ATOM     34  C   UNL A   1      44.882  23.741  27.006  1.00  0.00     0.010 A 
ATOM     35  C   UNL A   1      43.018  24.366  25.544  1.00  0.00     0.010 A 
ATOM     36  C   UNL A   1      43.872  24.622  26.614  1.00  0.00    -0.014 A 
BRANCH  36  37
ATOM     37  C   UNL A   1      43.717  25.845  27.364  1.00  0.00     0.031 A 
ATOM     38  C   UNL A   1      44.800  26.816  27.135  1.00  0.00     0.074 A 
ATOM     39  C   UNL A   1      42.603  26.091  28.076  1.00  0.00     0.049 A 
ATOM     40  N   UNL A   1      45.738  27.171  27.947  1.00  0.00    -0.248 NA
ATOM     41  C   UNL A   1      44.967  27.306  25.757  1.00  0.00     0.031 C 
ATOM     42  C   UNL A   1      41.355  25.319  28.064  1.00  0.00     0.029 A 
ATOM     43  N   UNL A   1      42.302  27.166  28.851  1.00  0.00    -0.354 N 
ATOM     44  C   UNL A   1      46.474  28.116  27.243  1.00  0.00     0.074 A 
ATOM     45  C   UNL A   1      46.125  27.952  25.857  1.00  0.00     0.031 C 
ATOM     46  C   UNL A   1      40.370  26.072  28.601  1.00  0.00     0.029 A 
ATOM     47  C   UNL A   1      40.945  27.312  29.098  1.00  0.00     0.049 A 
ATOM     48  H   UNL A   1      42.983  27.782  29.205  1.00  0.00     0.167 HD
ATOM     49  C   UNL A   1      47.039  29.183  27.867  1.00  0.00     0.031 A 
ATOM     50  C   UNL A   1      40.332  28.419  29.581  1.00  0.00     0.031 A 
ATOM     51  C   UNL A   1      47.092  29.004  29.294  1.00  0.00     0.049 A 
ATOM     52  C   UNL A   1      41.371  29.270  30.213  1.00  0.00     0.074 A 
ATOM     53  C   UNL A   1      47.706  28.115  30.149  1.00  0.00     0.029 A 
ATOM     54  N   UNL A   1      46.105  29.635  30.016  1.00  0.00    -0.354 N 
ATOM     55  N   UNL A   1      42.032  28.929  31.285  1.00  0.00    -0.248 NA
ATOM     56  C   UNL A   1      41.973  30.344  29.434  1.00  0.00     0.031 C 
ATOM     57  C   UNL A   1      46.830  27.993  31.267  1.00  0.00     0.029 A 
ATOM     58  C   UNL A   1      45.733  28.833  31.063  1.00  0.00     0.049 A 
ATOM     59  H   UNL A   1      45.727  30.520  29.812  1.00  0.00     0.167 HD
ATOM     60  C   UNL A   1      43.310  29.438  31.097  1.00  0.00     0.074 A 
ATOM     61  C   UNL A   1      43.172  30.410  30.019  1.00  0.00     0.031 C 
ATOM     62  C   UNL A   1      44.399  28.814  31.635  1.00  0.00     0.031 A 
BRANCH  49  63
ATOM     63  C   UNL A   1      47.093  30.559  27.236  1.00  0.00    -0.014 A 
ATOM     64  C   UNL A   1      48.301  31.280  27.292  1.00  0.00     0.010 A 
ATOM     65  C   UNL A   1      45.939  31.277  26.854  1.00  0.00     0.010 A 
ATOM     66  C   UNL A   1      48.331  32.661  27.057  1.00  0.00     0.020 A 
ATOM     67  C   UNL A   1      45.966  32.640  26.567  1.00  0.00     0.020 A 
ATOM     68  C   UNL A   1      47.157  33.333  26.714  1.00  0.00     0.054 A 
BRANCH  68  69
ATOM     69  S   UNL A   1      47.169  35.132  26.545  1.00  0.00     0.124 S 
ATOM     70  O   UNL A   1      46.382  35.320  25.332  1.00  0.00    -0.237 OA
ATOM     71  O   UNL A   1      46.538  35.562  27.789  1.00  0.00    -0.237 OA
ATOM     72  O   UNL A   1      48.590  35.454  26.429  1.00  0.00    -0.744 OA
ENDBRANCH  68  69
ENDBRANCH  49  63
BRANCH  50  73
ATOM     73  C   UNL A   1      38.977  28.912  29.233  1.00  0.00    -0.014 A 
ATOM     74  C   UNL A   1      38.060  29.293  30.228  1.00  0.00     0.010 A 
ATOM     75  C   UNL A   1      38.669  29.242  27.895  1.00  0.00     0.010 A 
ATOM     76  C   UNL A   1      36.899  30.014  29.900  1.00  0.00     0.020 A 
ATOM     77  C   UNL A   1      37.511  29.949  27.559  1.00  0.00     0.020 A 
ATOM     78  C   UNL A   1      36.639  30.351  28.568  1.00  0.00     0.054 A 
BRANCH  78  79
ATOM     79  S   UNL A   1      35.219  31.410  28.169  1.00  0.00     0.124 S 
ATOM     80  O   UNL A   1      35.859  32.567  27.549  1.00  0.00    -0.237 OA
ATOM     81  O   UNL A   1      34.434  30.565  27.273  1.00  0.00    -0.237 OA
ATOM     82  O   UNL A   1      34.604  31.667  29.471  1.00  0.00    -0.744 OA
ENDBRANCH  78  79
ENDBRANCH  50  73
BRANCH  62  83
ATOM     83  C   UNL A   1      44.172  27.848  32.772  1.00  0.00    -0.014 A 
ATOM     84  C   UNL A   1      43.928  28.243  34.100  1.00  0.00     0.010 A 
ATOM     85  C   UNL A   1      44.065  26.483  32.445  1.00  0.00     0.010 A 
ATOM     86  C   UNL A   1      43.604  27.292  35.079  1.00  0.00     0.020 A 
ATOM     87  C   UNL A   1      43.724  25.535  33.409  1.00  0.00     0.020 A 
ATOM     88  C   UNL A   1      43.500  25.943  34.726  1.00  0.00     0.054 A 
BRANCH  88  89
ATOM     89  S   UNL A   1      43.016  24.726  35.981  1.00  0.00     0.124 S 
ATOM     90  O   UNL A   1      41.921  24.015  35.329  1.00  0.00    -0.237 OA
ATOM     91  O   UNL A   1      44.241  23.954  36.175  1.00  0.00    -0.237 OA
ATOM     92  O   UNL A   1      42.624  25.546  37.128  1.00  0.00    -0.744 OA
ENDBRANCH  88  89
ENDBRANCH  62  83
ENDBRANCH  36  37
ENDBRANCH  29  31
ENDBRANCH  28  29
ENDBRANCH  27  28
ENDBRANCH  26  27
ENDBRANCH   1  26
TORSDOF 20
ENDMDL
MODEL 3
REMARK VINA RESULT:     -10.2      2.978      9.555
REMARK SMILES Cc1nc2scc(C)n2c1CNc1ccc(C(=O)OCCOCCOC(=O)c2ccc(-c3c4nc(c(-c5ccc(S(=O)(=O)[O-])cc5)c5ccc([nH]5)c(-c5ccc(S(=O)(=O)[O-])cc5)c5nc(c(-c6ccc(S(=O)(=O)[O-])cc6)c6ccc3[nH]6)C=C5)C=C4)cc2)cc1
REMARK SMILES IDX 22 1 21 2 20 3 19 4 17 5 18 6 16 7 13 8 14 9 89 10 15 11
REMARK SMILES IDX 88 12 12 13 11 15 10 16 1 17 2 18 3 19 4 20 9 21 5 22 7 23
REMARK SMILES IDX 6 24 8 25 23 26 24 27 25 28 26 29 27 30 28 31 29 32 87 33
REMARK SMILES IDX 30 34 86 35 31 36 32 37 33 38 80 39 34 40 85 41 79 42 81 43
REMARK SMILES IDX 35 44 84 45 78 46 77 47 36 49 66 50 47 51 65 52 48 53 51 54
REMARK SMILES IDX 64 55 82 56 49 57 50 58 63 60 83 61 52 62 37 63 38 64 46 65
REMARK SMILES IDX 39 66 45 67 40 68 41 69 42 70 43 71 44 72 67 73 68 74 76 75
REMARK SMILES IDX 69 76 75 77 70 78 71 79 72 80 73 81 74 82 53 83 54 84 62 85
REMARK SMILES IDX 55 86 61 87 56 88 57 89 58 90 59 91 60 92
REMARK H PARENT 12 14 81 48 51 59
REMARK Flexibility Score: inf
ROOT
ATOM      1  O   UNL A   1      35.255  31.319  27.622  1.00  0.00    -0.374 OA
ENDROOT
BRANCH   1   2
ATOM      2  C   UNL A   1      34.795  29.974  27.476  1.00  0.00     0.202 C 
BRANCH   2   3
ATOM      3  C   UNL A   1      33.297  29.751  27.277  1.00  0.00     0.261 C 
BRANCH   3   4
ATOM      4  O   UNL A   1      33.033  28.788  26.245  1.00  0.00    -0.460 OA
BRANCH   4   5
ATOM      5  C   UNL A   1      31.835  28.934  25.638  1.00  0.00     0.338 C 
ATOM      6  O   UNL A   1      31.370  29.957  25.150  1.00  0.00    -0.246 OA
BRANCH   5   7
ATOM      7  C   UNL A   1      31.165  27.632  25.489  1.00  0.00     0.060 A 
ATOM      8  C   UNL A   1      30.481  24.980  24.979  1.00  0.00     0.034 A 
ATOM      9  C   UNL A   1      31.091  25.321  26.188  1.00  0.00     0.026 A 
ATOM     10  C   UNL A   1      30.044  26.008  24.129  1.00  0.00     0.026 A 
ATOM     11  C   UNL A   1      31.467  26.640  26.428  1.00  0.00     0.018 A 
ATOM     12  C   UNL A   1      30.376  27.341  24.380  1.00  0.00     0.018 A 
BRANCH   8  13
ATOM     13  N   UNL A   1      30.552  23.661  24.549  1.00  0.00    -0.379 N 
ATOM     14  H   UNL A   1      30.173  22.932  25.090  1.00  0.00     0.160 HD
BRANCH  13  15
ATOM     15  C   UNL A   1      31.201  23.386  23.276  1.00  0.00     0.169 C 
BRANCH  15  16
ATOM     16  C   UNL A   1      32.685  23.440  23.310  1.00  0.00     0.066 A 
ATOM     17  C   UNL A   1      33.209  25.783  22.305  1.00  0.00     0.069 C 
ATOM     18  C   UNL A   1      33.542  24.462  22.892  1.00  0.00     0.062 A 
ATOM     19  N   UNL A   1      34.862  24.152  23.137  1.00  0.00    -0.224 NA
ATOM     20  C   UNL A   1      34.797  22.982  23.702  1.00  0.00     0.194 A 
ATOM     21  N   UNL A   1      33.526  22.497  23.871  1.00  0.00    -0.290 N 
ATOM     22  S   UNL A   1      36.001  21.923  24.365  1.00  0.00    -0.105 S 
ATOM     23  C   UNL A   1      33.474  21.281  24.551  1.00  0.00     0.032 A 
ATOM     24  C   UNL A   1      34.709  20.849  24.882  1.00  0.00     0.090 A 
ATOM     25  C   UNL A   1      32.241  20.543  24.916  1.00  0.00     0.066 C 
ENDBRANCH  15  16
ENDBRANCH  13  15
ENDBRANCH   8  13
ENDBRANCH   5   7
ENDBRANCH   4   5
ENDBRANCH   3   4
ENDBRANCH   2   3
ENDBRANCH   1   2
BRANCH   1  26
ATOM     26  C   UNL A   1      34.317  32.373  27.809  1.00  0.00     0.202 C 
BRANCH  26  27
ATOM     27  C   UNL A   1      34.508  33.321  28.984  1.00  0.00     0.261 C 
BRANCH  27  28
ATOM     28  O   UNL A   1      34.495  32.641  30.227  1.00  0.00    -0.460 OA
BRANCH  28  29
ATOM     29  C   UNL A   1      34.986  33.366  31.254  1.00  0.00     0.338 C 
ATOM     30  O   UNL A   1      34.641  34.493  31.595  1.00  0.00    -0.246 OA
BRANCH  29  31
ATOM     31  C   UNL A   1      36.114  32.644  31.842  1.00  0.00     0.060 A 
ATOM     32  C   UNL A   1      37.308  33.359  31.960  1.00  0.00     0.016 A 
ATOM     33  C   UNL A   1      36.062  31.247  31.950  1.00  0.00     0.016 A 
ATOM     34  C   UNL A   1      38.489  32.658  31.938  1.00  0.00     0.010 A 
ATOM     35  C   UNL A   1      37.241  30.550  31.895  1.00  0.00     0.010 A 
ATOM     36  C   UNL A   1      38.430  31.270  31.799  1.00  0.00    -0.014 A 
BRANCH  36  37
ATOM     37  C   UNL A   1      39.663  30.566  31.542  1.00  0.00     0.031 A 
ATOM     38  C   UNL A   1      40.509  30.408  32.736  1.00  0.00     0.074 A 
ATOM     39  C   UNL A   1      39.906  29.999  30.347  1.00  0.00     0.049 A 
ATOM     40  N   UNL A   1      41.628  30.993  33.003  1.00  0.00    -0.248 NA
ATOM     41  C   UNL A   1      39.934  29.646  33.857  1.00  0.00     0.031 C 
ATOM     42  C   UNL A   1      38.961  29.828  29.238  1.00  0.00     0.029 A 
ATOM     43  N   UNL A   1      41.010  29.326  29.928  1.00  0.00    -0.354 N 
ATOM     44  C   UNL A   1      42.008  30.479  34.236  1.00  0.00     0.074 A 
ATOM     45  C   UNL A   1      40.828  29.888  34.811  1.00  0.00     0.031 C 
ATOM     46  C   UNL A   1      39.452  28.904  28.383  1.00  0.00     0.029 A 
ATOM     47  C   UNL A   1      40.784  28.519  28.822  1.00  0.00     0.049 A 
ATOM     48  H   UNL A   1      41.887  29.405  30.366  1.00  0.00     0.167 HD
ATOM     49  C   UNL A   1      43.314  30.261  34.543  1.00  0.00     0.031 A 
ATOM     50  C   UNL A   1      41.596  27.535  28.368  1.00  0.00     0.031 A 
ATOM     51  C   UNL A   1      44.198  30.943  33.635  1.00  0.00     0.049 A 
ATOM     52  C   UNL A   1      42.942  27.754  28.956  1.00  0.00     0.074 A 
ATOM     53  C   UNL A   1      44.442  32.259  33.306  1.00  0.00     0.029 A 
ATOM     54  N   UNL A   1      44.738  30.174  32.629  1.00  0.00    -0.354 N 
ATOM     55  N   UNL A   1      43.698  28.778  28.672  1.00  0.00    -0.248 NA
ATOM     56  C   UNL A   1      43.304  27.040  30.173  1.00  0.00     0.031 C 
ATOM     57  C   UNL A   1      44.816  32.246  31.930  1.00  0.00     0.029 A 
ATOM     58  C   UNL A   1      44.814  30.922  31.484  1.00  0.00     0.049 A 
ATOM     59  H   UNL A   1      45.023  29.236  32.719  1.00  0.00     0.167 HD
ATOM     60  C   UNL A   1      44.350  29.084  29.857  1.00  0.00     0.074 A 
ATOM     61  C   UNL A   1      44.177  27.904  30.696  1.00  0.00     0.031 C 
ATOM     62  C   UNL A   1      44.715  30.368  30.146  1.00  0.00     0.031 A 
BRANCH  49  63
ATOM     63  C   UNL A   1      43.772  29.063  35.348  1.00  0.00    -0.014 A 
ATOM     64  C   UNL A   1      44.301  29.277  36.635  1.00  0.00     0.010 A 
ATOM     65  C   UNL A   1      43.969  27.785  34.783  1.00  0.00     0.010 A 
ATOM     66  C   UNL A   1      45.055  28.289  37.281  1.00  0.00     0.020 A 
ATOM     67  C   UNL A   1      44.674  26.777  35.438  1.00  0.00     0.020 A 
ATOM     68  C   UNL A   1      45.250  27.051  36.667  1.00  0.00     0.054 A 
BRANCH  68  69
ATOM     69  S   UNL A   1      46.335  25.828  37.437  1.00  0.00     0.124 S 
ATOM     70  O   UNL A   1      47.653  26.391  37.166  1.00  0.00    -0.237 OA
ATOM     71  O   UNL A   1      45.899  25.863  38.829  1.00  0.00    -0.237 OA
ATOM     72  O   UNL A   1      46.019  24.594  36.720  1.00  0.00    -0.744 OA
ENDBRANCH  68  69
ENDBRANCH  49  63
BRANCH  50  73
ATOM     73  C   UNL A   1      41.183  26.261  27.731  1.00  0.00    -0.014 A 
ATOM     74  C   UNL A   1      41.961  25.659  26.727  1.00  0.00     0.010 A 
ATOM     75  C   UNL A   1      40.133  25.501  28.290  1.00  0.00     0.010 A 
ATOM     76  C   UNL A   1      41.724  24.333  26.328  1.00  0.00     0.020 A 
ATOM     77  C   UNL A   1      39.882  24.185  27.891  1.00  0.00     0.020 A 
ATOM     78  C   UNL A   1      40.693  23.599  26.924  1.00  0.00     0.054 A 
BRANCH  78  79
ATOM     79  S   UNL A   1      40.488  21.841  26.514  1.00  0.00     0.124 S 
ATOM     80  O   UNL A   1      41.639  21.588  25.653  1.00  0.00    -0.237 OA
ATOM     81  O   UNL A   1      40.526  21.202  27.827  1.00  0.00    -0.237 OA
ATOM     82  O   UNL A   1      39.190  21.794  25.842  1.00  0.00    -0.744 OA
ENDBRANCH  78  79
ENDBRANCH  50  73
BRANCH  62  83
ATOM     83  C   UNL A   1      44.801  31.353  29.006  1.00  0.00    -0.014 A 
ATOM     84  C   UNL A   1      45.922  31.482  28.164  1.00  0.00     0.010 A 
ATOM     85  C   UNL A   1      43.637  32.079  28.693  1.00  0.00     0.010 A 
ATOM     86  C   UNL A   1      45.882  32.332  27.049  1.00  0.00     0.020 A 
ATOM     87  C   UNL A   1      43.585  32.911  27.575  1.00  0.00     0.020 A 
ATOM     88  C   UNL A   1      44.711  33.039  26.760  1.00  0.00     0.054 A 
BRANCH  88  89
ATOM     89  S   UNL A   1      44.642  34.087  25.280  1.00  0.00     0.124 S 
ATOM     90  O   UNL A   1      46.009  34.591  25.184  1.00  0.00    -0.237 OA
ATOM     91  O   UNL A   1      44.243  33.147  24.234  1.00  0.00    -0.237 OA
ATOM     92  O   UNL A   1      43.634  35.094  25.612  1.00  0.00    -0.744 OA
ENDBRANCH  88  89
ENDBRANCH  62  83
ENDBRANCH  36  37
ENDBRANCH  29  31
ENDBRANCH  28  29
ENDBRANCH  27  28
ENDBRANCH  26  27
ENDBRANCH   1  26
TORSDOF 20
ENDMDL
