MODEL 1
REMARK VINA RESULT:     -11.7      0.000      0.000
REMARK SMILES Cc1c(C(=O)OCCOCCOC(=O)c2ccc(-c3c4nc(c(-c5ccc(S(=O)(=O)[O-])cc5)c5ccc([nH]5)c(-c5ccc(S(=O)(=O)[O-])cc5)c5nc(c(-c6ccc(S(=O)(=O)[O-])cc6)c6ccc3[nH]6)C=C5)C=C4)cc2)sc2ncnc(NCc3cn4c(n3)SCC4)c12
REMARK SMILES IDX 9 1 8 2 7 3 6 4 4 5 5 6 3 7 1 8 2 9 91 10 75 11 76 12 80 13
REMARK SMILES IDX 77 14 79 15 78 16 81 17 82 19 83 20 84 21 87 22 85 23 86 24
REMARK SMILES IDX 90 25 88 26 89 27 10 28 11 29 12 30 13 31 14 32 15 33 16 34
REMARK SMILES IDX 74 35 17 36 73 37 18 38 19 39 20 40 67 41 21 42 72 43 66 44
REMARK SMILES IDX 68 45 22 46 71 47 65 48 64 49 23 51 53 52 34 53 52 54 35 55
REMARK SMILES IDX 38 56 51 57 69 58 36 59 37 60 50 62 70 63 39 64 24 65 25 66
REMARK SMILES IDX 33 67 26 68 32 69 27 70 28 71 29 72 30 73 31 74 54 75 55 76
REMARK SMILES IDX 63 77 56 78 62 79 57 80 58 81 59 82 60 83 61 84 40 85 41 86
REMARK SMILES IDX 49 87 42 88 48 89 43 90 44 91 45 92 46 93 47 94
REMARK H PARENT 81 18 68 50 38 61
REMARK Flexibility Score: inf
ROOT
ATOM      1  O   UNL A   1      42.648  19.244  25.177  1.00  0.00    -0.374 OA
ENDROOT
BRANCH   1   2
ATOM      2  C   UNL A   1      42.418  19.383  26.583  1.00  0.00     0.202 C 
BRANCH   2   3
ATOM      3  C   UNL A   1      41.020  19.811  27.047  1.00  0.00     0.261 C 
BRANCH   3   4
ATOM      4  O   UNL A   1      40.175  20.229  25.954  1.00  0.00    -0.459 OA
BRANCH   4   5
ATOM      5  C   UNL A   1      39.611  21.461  26.085  1.00  0.00     0.348 C 
ATOM      6  O   UNL A   1      40.237  22.487  26.378  1.00  0.00    -0.245 OA
BRANCH   5   7
ATOM      7  C   UNL A   1      38.225  21.475  25.664  1.00  0.00     0.118 A 
ATOM      8  C   UNL A   1      37.841  23.948  25.913  1.00  0.00     0.047 C 
ATOM      9  C   UNL A   1      37.352  22.561  25.696  1.00  0.00    -0.012 A 
ATOM     10  C   UNL A   1      35.964  22.158  25.508  1.00  0.00     0.058 A 
ATOM     11  S   UNL A   1      37.471  20.070  25.090  1.00  0.00    -0.108 S 
ATOM     12  C   UNL A   1      35.942  20.822  25.105  1.00  0.00     0.129 A 
ATOM     13  C   UNL A   1      34.685  22.773  25.610  1.00  0.00     0.138 A 
ATOM     14  N   UNL A   1      34.872  20.090  24.760  1.00  0.00    -0.225 NA
ATOM     15  N   UNL A   1      33.599  22.038  25.257  1.00  0.00    -0.219 NA
ATOM     16  C   UNL A   1      33.741  20.774  24.848  1.00  0.00     0.225 A 
BRANCH  13  17
ATOM     17  N   UNL A   1      34.291  24.002  26.044  1.00  0.00    -0.364 N 
ATOM     18  H   UNL A   1      33.838  23.951  26.917  1.00  0.00     0.162 HD
BRANCH  17  19
ATOM     19  C   UNL A   1      34.364  25.353  25.562  1.00  0.00     0.172 C 
BRANCH  19  20
ATOM     20  C   UNL A   1      33.215  25.793  24.697  1.00  0.00     0.079 A 
ATOM     21  C   UNL A   1      33.188  26.678  23.621  1.00  0.00     0.113 A 
ATOM     22  N   UNL A   1      31.931  25.330  24.979  1.00  0.00    -0.226 NA
ATOM     23  N   UNL A   1      31.877  26.769  23.301  1.00  0.00    -0.325 N 
ATOM     24  C   UNL A   1      31.174  25.948  24.120  1.00  0.00     0.168 A 
ATOM     25  C   UNL A   1      31.116  27.706  22.501  1.00  0.00     0.135 C 
ATOM     26  S   UNL A   1      29.478  26.229  24.040  1.00  0.00    -0.086 SA
ATOM     27  C   UNL A   1      29.784  27.859  23.241  1.00  0.00     0.100 C 
ENDBRANCH  19  20
ENDBRANCH  17  19
ENDBRANCH  13  17
ENDBRANCH   5   7
ENDBRANCH   4   5
ENDBRANCH   3   4
ENDBRANCH   2   3
ENDBRANCH   1   2
BRANCH   1  28
ATOM     28  C   UNL A   1      43.968  18.996  24.721  1.00  0.00     0.202 C 
BRANCH  28  29
ATOM     29  C   UNL A   1      44.900  20.163  24.432  1.00  0.00     0.261 C 
BRANCH  29  30
ATOM     30  O   UNL A   1      44.267  21.405  24.659  1.00  0.00    -0.460 OA
BRANCH  30  31
ATOM     31  C   UNL A   1      44.977  22.209  25.472  1.00  0.00     0.338 C 
ATOM     32  O   UNL A   1      46.197  22.211  25.635  1.00  0.00    -0.246 OA
BRANCH  31  33
ATOM     33  C   UNL A   1      44.056  23.016  26.259  1.00  0.00     0.060 A 
ATOM     34  C   UNL A   1      43.339  23.990  25.560  1.00  0.00     0.016 A 
ATOM     35  C   UNL A   1      44.175  23.018  27.656  1.00  0.00     0.016 A 
ATOM     36  C   UNL A   1      42.942  25.109  26.245  1.00  0.00     0.010 A 
ATOM     37  C   UNL A   1      43.804  24.148  28.333  1.00  0.00     0.010 A 
ATOM     38  C   UNL A   1      43.276  25.206  27.598  1.00  0.00    -0.014 A 
BRANCH  38  39
ATOM     39  C   UNL A   1      42.977  26.440  28.281  1.00  0.00     0.031 A 
ATOM     40  C   UNL A   1      44.070  27.422  28.147  1.00  0.00     0.074 A 
ATOM     41  C   UNL A   1      41.774  26.655  28.841  1.00  0.00     0.049 A 
ATOM     42  N   UNL A   1      44.871  27.845  29.065  1.00  0.00    -0.248 NA
ATOM     43  C   UNL A   1      44.453  27.815  26.777  1.00  0.00     0.031 C 
ATOM     44  C   UNL A   1      40.571  25.819  28.733  1.00  0.00     0.029 A 
ATOM     45  N   UNL A   1      41.332  27.743  29.518  1.00  0.00    -0.354 N 
ATOM     46  C   UNL A   1      45.712  28.739  28.416  1.00  0.00     0.074 A 
ATOM     47  C   UNL A   1      45.574  28.493  27.006  1.00  0.00     0.031 C 
ATOM     48  C   UNL A   1      39.494  26.546  29.108  1.00  0.00     0.029 A 
ATOM     49  C   UNL A   1      39.949  27.834  29.605  1.00  0.00     0.049 A 
ATOM     50  H   UNL A   1      41.939  28.410  29.914  1.00  0.00     0.167 HD
ATOM     51  C   UNL A   1      46.204  29.837  29.050  1.00  0.00     0.031 A 
ATOM     52  C   UNL A   1      39.248  28.933  29.981  1.00  0.00     0.031 A 
ATOM     53  C   UNL A   1      46.058  29.743  30.476  1.00  0.00     0.049 A 
ATOM     54  C   UNL A   1      40.191  29.821  30.703  1.00  0.00     0.074 A 
ATOM     55  C   UNL A   1      46.602  28.949  31.461  1.00  0.00     0.029 A 
ATOM     56  N   UNL A   1      44.904  30.290  30.983  1.00  0.00    -0.354 N 
ATOM     57  N   UNL A   1      40.741  29.511  31.844  1.00  0.00    -0.248 NA
ATOM     58  C   UNL A   1      40.845  30.898  29.974  1.00  0.00     0.031 C 
ATOM     59  C   UNL A   1      45.572  28.788  32.433  1.00  0.00     0.029 A 
ATOM     60  C   UNL A   1      44.457  29.528  32.033  1.00  0.00     0.049 A 
ATOM     61  H   UNL A   1      44.466  31.105  30.646  1.00  0.00     0.167 HD
ATOM     62  C   UNL A   1      42.021  30.040  31.777  1.00  0.00     0.074 A 
ATOM     63  C   UNL A   1      41.973  31.004  30.683  1.00  0.00     0.031 C 
ATOM     64  C   UNL A   1      43.061  29.437  32.424  1.00  0.00     0.031 A 
BRANCH  51  65
ATOM     65  C   UNL A   1      46.375  31.152  28.335  1.00  0.00    -0.014 A 
ATOM     66  C   UNL A   1      45.248  31.931  28.030  1.00  0.00     0.010 A 
ATOM     67  C   UNL A   1      47.600  31.529  27.737  1.00  0.00     0.010 A 
ATOM     68  C   UNL A   1      45.349  33.040  27.176  1.00  0.00     0.020 A 
ATOM     69  C   UNL A   1      47.722  32.654  26.927  1.00  0.00     0.020 A 
ATOM     70  C   UNL A   1      46.588  33.394  26.634  1.00  0.00     0.054 A 
BRANCH  70  71
ATOM     71  S   UNL A   1      46.704  34.801  25.505  1.00  0.00     0.124 S 
ATOM     72  O   UNL A   1      46.478  35.929  26.402  1.00  0.00    -0.237 OA
ATOM     73  O   UNL A   1      48.060  34.665  24.981  1.00  0.00    -0.237 OA
ATOM     74  O   UNL A   1      45.640  34.551  24.534  1.00  0.00    -0.744 OA
ENDBRANCH  70  71
ENDBRANCH  51  65
BRANCH  52  75
ATOM     75  C   UNL A   1      37.938  29.416  29.476  1.00  0.00    -0.014 A 
ATOM     76  C   UNL A   1      36.923  29.794  30.376  1.00  0.00     0.010 A 
ATOM     77  C   UNL A   1      37.791  29.795  28.126  1.00  0.00     0.010 A 
ATOM     78  C   UNL A   1      35.847  30.595  29.959  1.00  0.00     0.020 A 
ATOM     79  C   UNL A   1      36.716  30.587  27.701  1.00  0.00     0.020 A 
ATOM     80  C   UNL A   1      35.767  31.010  28.629  1.00  0.00     0.054 A 
BRANCH  80  81
ATOM     81  S   UNL A   1      34.488  32.210  28.148  1.00  0.00     0.124 S 
ATOM     82  O   UNL A   1      33.592  31.400  27.329  1.00  0.00    -0.237 OA
ATOM     83  O   UNL A   1      33.955  32.635  29.440  1.00  0.00    -0.237 OA
ATOM     84  O   UNL A   1      35.234  33.236  27.421  1.00  0.00    -0.744 OA
ENDBRANCH  80  81
ENDBRANCH  52  75
BRANCH  64  85
ATOM     85  C   UNL A   1      42.725  28.453  33.522  1.00  0.00    -0.014 A 
ATOM     86  C   UNL A   1      43.005  27.073  33.466  1.00  0.00     0.010 A 
ATOM     87  C   UNL A   1      42.204  28.984  34.714  1.00  0.00     0.010 A 
ATOM     88  C   UNL A   1      42.752  26.248  34.574  1.00  0.00     0.020 A 
ATOM     89  C   UNL A   1      41.968  28.173  35.825  1.00  0.00     0.020 A 
ATOM     90  C   UNL A   1      42.236  26.806  35.748  1.00  0.00     0.054 A 
BRANCH  90  91
ATOM     91  S   UNL A   1      41.951  25.746  37.195  1.00  0.00     0.124 S 
ATOM     92  O   UNL A   1      42.159  24.405  36.654  1.00  0.00    -0.237 OA
ATOM     93  O   UNL A   1      42.964  26.208  38.140  1.00  0.00    -0.237 OA
ATOM     94  O   UNL A   1      40.573  26.048  37.582  1.00  0.00    -0.744 OA
ENDBRANCH  90  91
ENDBRANCH  64  85
ENDBRANCH  38  39
ENDBRANCH  31  33
ENDBRANCH  30  31
ENDBRANCH  29  30
ENDBRANCH  28  29
ENDBRANCH   1  28
TORSDOF 20
ENDMDL
MODEL 2
REMARK VINA RESULT:     -11.1      1.748      2.798
REMARK SMILES Cc1c(C(=O)OCCOCCOC(=O)c2ccc(-c3c4nc(c(-c5ccc(S(=O)(=O)[O-])cc5)c5ccc([nH]5)c(-c5ccc(S(=O)(=O)[O-])cc5)c5nc(c(-c6ccc(S(=O)(=O)[O-])cc6)c6ccc3[nH]6)C=C5)C=C4)cc2)sc2ncnc(NCc3cn4c(n3)SCC4)c12
REMARK SMILES IDX 9 1 8 2 7 3 6 4 4 5 5 6 3 7 1 8 2 9 91 10 75 11 76 12 80 13
REMARK SMILES IDX 77 14 79 15 78 16 81 17 82 19 83 20 84 21 87 22 85 23 86 24
REMARK SMILES IDX 90 25 88 26 89 27 10 28 11 29 12 30 13 31 14 32 15 33 16 34
REMARK SMILES IDX 74 35 17 36 73 37 18 38 19 39 20 40 67 41 21 42 72 43 66 44
REMARK SMILES IDX 68 45 22 46 71 47 65 48 64 49 23 51 53 52 34 53 52 54 35 55
REMARK SMILES IDX 38 56 51 57 69 58 36 59 37 60 50 62 70 63 39 64 24 65 25 66
REMARK SMILES IDX 33 67 26 68 32 69 27 70 28 71 29 72 30 73 31 74 54 75 55 76
REMARK SMILES IDX 63 77 56 78 62 79 57 80 58 81 59 82 60 83 61 84 40 85 41 86
REMARK SMILES IDX 49 87 42 88 48 89 43 90 44 91 45 92 46 93 47 94
REMARK H PARENT 81 18 68 50 38 61
REMARK Flexibility Score: inf
ROOT
ATOM      1  O   UNL A   1      39.716  20.167  25.752  1.00  0.00    -0.374 OA
ENDROOT
BRANCH   1   2
ATOM      2  C   UNL A   1      38.899  21.303  26.057  1.00  0.00     0.202 C 
BRANCH   2   3
ATOM      3  C   UNL A   1      37.835  21.721  25.035  1.00  0.00     0.261 C 
BRANCH   3   4
ATOM      4  O   UNL A   1      36.516  21.819  25.612  1.00  0.00    -0.459 OA
BRANCH   4   5
ATOM      5  C   UNL A   1      36.144  23.063  26.023  1.00  0.00     0.348 C 
ATOM      6  O   UNL A   1      36.929  24.002  26.201  1.00  0.00    -0.245 OA
BRANCH   5   7
ATOM      7  C   UNL A   1      34.704  23.220  26.054  1.00  0.00     0.118 A 
ATOM      8  C   UNL A   1      34.582  25.318  24.672  1.00  0.00     0.047 C 
ATOM      9  C   UNL A   1      33.970  24.298  25.564  1.00  0.00    -0.012 A 
ATOM     10  C   UNL A   1      32.591  24.286  26.037  1.00  0.00     0.058 A 
ATOM     11  S   UNL A   1      33.711  22.047  26.770  1.00  0.00    -0.108 S 
ATOM     12  C   UNL A   1      32.344  23.056  26.649  1.00  0.00     0.129 A 
ATOM     13  C   UNL A   1      31.479  25.174  26.009  1.00  0.00     0.138 A 
ATOM     14  N   UNL A   1      31.183  22.614  27.154  1.00  0.00    -0.225 NA
ATOM     15  N   UNL A   1      30.301  24.728  26.514  1.00  0.00    -0.219 NA
ATOM     16  C   UNL A   1      30.208  23.502  27.035  1.00  0.00     0.225 A 
BRANCH  13  17
ATOM     17  N   UNL A   1      31.346  26.462  25.590  1.00  0.00    -0.364 N 
ATOM     18  H   UNL A   1      30.970  27.037  26.296  1.00  0.00     0.162 HD
BRANCH  17  19
ATOM     19  C   UNL A   1      31.613  27.203  24.389  1.00  0.00     0.172 C 
BRANCH  19  20
ATOM     20  C   UNL A   1      30.488  28.077  23.907  1.00  0.00     0.079 A 
ATOM     21  C   UNL A   1      29.239  27.733  23.392  1.00  0.00     0.113 A 
ATOM     22  N   UNL A   1      30.656  29.461  23.892  1.00  0.00    -0.226 NA
ATOM     23  N   UNL A   1      28.693  28.917  23.031  1.00  0.00    -0.325 N 
ATOM     24  C   UNL A   1      29.559  29.909  23.355  1.00  0.00     0.168 A 
ATOM     25  C   UNL A   1      27.574  29.274  22.185  1.00  0.00     0.135 C 
ATOM     26  S   UNL A   1      29.132  31.417  22.644  1.00  0.00    -0.086 SA
ATOM     27  C   UNL A   1      28.022  30.546  21.461  1.00  0.00     0.100 C 
ENDBRANCH  19  20
ENDBRANCH  17  19
ENDBRANCH  13  17
ENDBRANCH   5   7
ENDBRANCH   4   5
ENDBRANCH   3   4
ENDBRANCH   2   3
ENDBRANCH   1   2
BRANCH   1  28
ATOM     28  C   UNL A   1      40.917  19.971  26.482  1.00  0.00     0.202 C 
BRANCH  28  29
ATOM     29  C   UNL A   1      42.193  19.590  25.749  1.00  0.00     0.261 C 
BRANCH  29  30
ATOM     30  O   UNL A   1      43.295  20.360  26.183  1.00  0.00    -0.460 OA
BRANCH  30  31
ATOM     31  C   UNL A   1      44.028  20.839  25.162  1.00  0.00     0.338 C 
ATOM     32  O   UNL A   1      44.507  20.199  24.226  1.00  0.00    -0.246 OA
BRANCH  31  33
ATOM     33  C   UNL A   1      44.297  22.251  25.395  1.00  0.00     0.060 A 
ATOM     34  C   UNL A   1      45.160  22.546  26.453  1.00  0.00     0.016 A 
ATOM     35  C   UNL A   1      43.459  23.210  24.808  1.00  0.00     0.016 A 
ATOM     36  C   UNL A   1      45.006  23.751  27.089  1.00  0.00     0.010 A 
ATOM     37  C   UNL A   1      43.287  24.400  25.461  1.00  0.00     0.010 A 
ATOM     38  C   UNL A   1      43.999  24.610  26.638  1.00  0.00    -0.014 A 
BRANCH  38  39
ATOM     39  C   UNL A   1      43.752  25.813  27.391  1.00  0.00     0.031 A 
ATOM     40  C   UNL A   1      44.818  26.815  27.194  1.00  0.00     0.074 A 
ATOM     41  C   UNL A   1      42.604  25.991  28.069  1.00  0.00     0.049 A 
ATOM     42  N   UNL A   1      45.696  27.215  28.048  1.00  0.00    -0.248 NA
ATOM     43  C   UNL A   1      45.066  27.262  25.810  1.00  0.00     0.031 C 
ATOM     44  C   UNL A   1      41.406  25.143  28.042  1.00  0.00     0.029 A 
ATOM     45  N   UNL A   1      42.216  27.047  28.824  1.00  0.00    -0.354 N 
ATOM     46  C   UNL A   1      46.463  28.144  27.359  1.00  0.00     0.074 A 
ATOM     47  C   UNL A   1      46.197  27.948  25.959  1.00  0.00     0.031 C 
ATOM     48  C   UNL A   1      40.360  25.841  28.543  1.00  0.00     0.029 A 
ATOM     49  C   UNL A   1      40.846  27.116  29.043  1.00  0.00     0.049 A 
ATOM     50  H   UNL A   1      42.850  27.708  29.187  1.00  0.00     0.167 HD
ATOM     51  C   UNL A   1      47.000  29.225  27.985  1.00  0.00     0.031 A 
ATOM     52  C   UNL A   1      40.171  28.190  29.523  1.00  0.00     0.031 A 
ATOM     53  C   UNL A   1      46.989  29.077  29.413  1.00  0.00     0.049 A 
ATOM     54  C   UNL A   1      41.169  29.065  30.188  1.00  0.00     0.074 A 
ATOM     55  C   UNL A   1      47.631  28.255  30.313  1.00  0.00     0.029 A 
ATOM     56  N   UNL A   1      45.882  29.589  30.046  1.00  0.00    -0.354 N 
ATOM     57  N   UNL A   1      41.826  28.721  31.260  1.00  0.00    -0.248 NA
ATOM     58  C   UNL A   1      41.740  30.177  29.442  1.00  0.00     0.031 C 
ATOM     59  C   UNL A   1      46.699  28.045  31.370  1.00  0.00     0.029 A 
ATOM     60  C   UNL A   1      45.543  28.783  31.103  1.00  0.00     0.049 A 
ATOM     61  H   UNL A   1      45.406  30.409  29.782  1.00  0.00     0.167 HD
ATOM     62  C   UNL A   1      43.088  29.269  31.094  1.00  0.00     0.074 A 
ATOM     63  C   UNL A   1      42.928  30.272  30.047  1.00  0.00     0.031 C 
ATOM     64  C   UNL A   1      44.191  28.658  31.618  1.00  0.00     0.031 A 
BRANCH  51  65
ATOM     65  C   UNL A   1      47.090  30.567  27.307  1.00  0.00    -0.014 A 
ATOM     66  C   UNL A   1      48.343  31.172  27.120  1.00  0.00     0.010 A 
ATOM     67  C   UNL A   1      45.948  31.365  27.065  1.00  0.00     0.010 A 
ATOM     68  C   UNL A   1      48.443  32.507  26.702  1.00  0.00     0.020 A 
ATOM     69  C   UNL A   1      46.034  32.675  26.604  1.00  0.00     0.020 A 
ATOM     70  C   UNL A   1      47.286  33.247  26.443  1.00  0.00     0.054 A 
BRANCH  70  71
ATOM     71  S   UNL A   1      47.421  34.978  25.940  1.00  0.00     0.124 S 
ATOM     72  O   UNL A   1      48.801  35.050  25.472  1.00  0.00    -0.237 OA
ATOM     73  O   UNL A   1      46.393  35.081  24.909  1.00  0.00    -0.237 OA
ATOM     74  O   UNL A   1      47.137  35.717  27.169  1.00  0.00    -0.744 OA
ENDBRANCH  70  71
ENDBRANCH  51  65
BRANCH  52  75
ATOM     75  C   UNL A   1      38.815  28.673  29.161  1.00  0.00    -0.014 A 
ATOM     76  C   UNL A   1      37.850  28.900  30.160  1.00  0.00     0.010 A 
ATOM     77  C   UNL A   1      38.567  29.200  27.877  1.00  0.00     0.010 A 
ATOM     78  C   UNL A   1      36.721  29.698  29.908  1.00  0.00     0.020 A 
ATOM     79  C   UNL A   1      37.439  29.990  27.616  1.00  0.00     0.020 A 
ATOM     80  C   UNL A   1      36.539  30.261  28.644  1.00  0.00     0.054 A 
BRANCH  80  81
ATOM     81  S   UNL A   1      35.191  31.454  28.389  1.00  0.00     0.124 S 
ATOM     82  O   UNL A   1      34.192  30.651  27.691  1.00  0.00    -0.237 OA
ATOM     83  O   UNL A   1      34.850  31.840  29.756  1.00  0.00    -0.237 OA
ATOM     84  O   UNL A   1      35.809  32.508  27.587  1.00  0.00    -0.744 OA
ENDBRANCH  80  81
ENDBRANCH  52  75
BRANCH  64  85
ATOM     85  C   UNL A   1      43.969  27.630  32.705  1.00  0.00    -0.014 A 
ATOM     86  C   UNL A   1      43.474  27.927  33.991  1.00  0.00     0.010 A 
ATOM     87  C   UNL A   1      44.166  26.283  32.357  1.00  0.00     0.010 A 
ATOM     88  C   UNL A   1      43.202  26.897  34.906  1.00  0.00     0.020 A 
ATOM     89  C   UNL A   1      43.879  25.254  33.255  1.00  0.00     0.020 A 
ATOM     90  C   UNL A   1      43.406  25.565  34.530  1.00  0.00     0.054 A 
BRANCH  90  91
ATOM     91  S   UNL A   1      43.011  24.232  35.698  1.00  0.00     0.124 S 
ATOM     92  O   UNL A   1      44.128  24.291  36.638  1.00  0.00    -0.237 OA
ATOM     93  O   UNL A   1      41.716  24.644  36.233  1.00  0.00    -0.237 OA
ATOM     94  O   UNL A   1      42.972  23.035  34.860  1.00  0.00    -0.744 OA
ENDBRANCH  90  91
ENDBRANCH  64  85
ENDBRANCH  38  39
ENDBRANCH  31  33
ENDBRANCH  30  31
ENDBRANCH  29  30
ENDBRANCH  28  29
ENDBRANCH   1  28
TORSDOF 20
ENDMDL
MODEL 3
REMARK VINA RESULT:     -10.8      2.350     10.140
REMARK SMILES Cc1c(C(=O)OCCOCCOC(=O)c2ccc(-c3c4nc(c(-c5ccc(S(=O)(=O)[O-])cc5)c5ccc([nH]5)c(-c5ccc(S(=O)(=O)[O-])cc5)c5nc(c(-c6ccc(S(=O)(=O)[O-])cc6)c6ccc3[nH]6)C=C5)C=C4)cc2)sc2ncnc(NCc3cn4c(n3)SCC4)c12
REMARK SMILES IDX 9 1 8 2 7 3 6 4 4 5 5 6 3 7 1 8 2 9 91 10 75 11 76 12 80 13
REMARK SMILES IDX 77 14 79 15 78 16 81 17 82 19 83 20 84 21 87 22 85 23 86 24
REMARK SMILES IDX 90 25 88 26 89 27 10 28 11 29 12 30 13 31 14 32 15 33 16 34
REMARK SMILES IDX 74 35 17 36 73 37 18 38 19 39 20 40 67 41 21 42 72 43 66 44
REMARK SMILES IDX 68 45 22 46 71 47 65 48 64 49 23 51 53 52 34 53 52 54 35 55
REMARK SMILES IDX 38 56 51 57 69 58 36 59 37 60 50 62 70 63 39 64 24 65 25 66
REMARK SMILES IDX 33 67 26 68 32 69 27 70 28 71 29 72 30 73 31 74 54 75 55 76
REMARK SMILES IDX 63 77 56 78 62 79 57 80 58 81 59 82 60 83 61 84 40 85 41 86
REMARK SMILES IDX 49 87 42 88 48 89 43 90 44 91 45 92 46 93 47 94
REMARK H PARENT 81 18 68 50 38 61
REMARK Flexibility Score: inf
ROOT
ATOM      1  O   UNL A   1      33.072  34.569  29.573  1.00  0.00    -0.374 OA
ENDROOT
BRANCH   1   2
ATOM      2  C   UNL A   1      33.529  33.950  28.366  1.00  0.00     0.202 C 
BRANCH   2   3
ATOM      3  C   UNL A   1      34.323  32.643  28.482  1.00  0.00     0.261 C 
BRANCH   3   4
ATOM      4  O   UNL A   1      34.336  31.887  27.253  1.00  0.00    -0.459 OA
BRANCH   4   5
ATOM      5  C   UNL A   1      34.112  30.550  27.381  1.00  0.00     0.348 C 
ATOM      6  O   UNL A   1      34.597  29.845  28.275  1.00  0.00    -0.245 OA
BRANCH   5   7
ATOM      7  C   UNL A   1      33.097  30.076  26.463  1.00  0.00     0.118 A 
ATOM      8  C   UNL A   1      34.120  27.827  25.993  1.00  0.00     0.047 C 
ATOM      9  C   UNL A   1      33.131  28.901  25.715  1.00  0.00    -0.012 A 
ATOM     10  C   UNL A   1      32.116  28.886  24.668  1.00  0.00     0.058 A 
ATOM     11  S   UNL A   1      31.696  30.981  26.164  1.00  0.00    -0.108 S 
ATOM     12  C   UNL A   1      31.245  29.954  24.881  1.00  0.00     0.129 A 
ATOM     13  C   UNL A   1      31.800  28.071  23.545  1.00  0.00     0.138 A 
ATOM     14  N   UNL A   1      30.137  30.256  24.188  1.00  0.00    -0.225 NA
ATOM     15  N   UNL A   1      30.677  28.369  22.843  1.00  0.00    -0.219 NA
ATOM     16  C   UNL A   1      29.914  29.407  23.195  1.00  0.00     0.225 A 
BRANCH  13  17
ATOM     17  N   UNL A   1      32.439  27.016  22.970  1.00  0.00    -0.364 N 
ATOM     18  H   UNL A   1      33.418  27.121  23.003  1.00  0.00     0.162 HD
BRANCH  17  19
ATOM     19  C   UNL A   1      32.060  25.788  22.328  1.00  0.00     0.172 C 
BRANCH  19  20
ATOM     20  C   UNL A   1      32.820  24.567  22.770  1.00  0.00     0.079 A 
ATOM     21  C   UNL A   1      32.373  23.412  23.408  1.00  0.00     0.113 A 
ATOM     22  N   UNL A   1      34.203  24.523  22.595  1.00  0.00    -0.226 NA
ATOM     23  N   UNL A   1      33.503  22.709  23.650  1.00  0.00    -0.325 N 
ATOM     24  C   UNL A   1      34.556  23.397  23.143  1.00  0.00     0.168 A 
ATOM     25  C   UNL A   1      33.807  21.591  24.518  1.00  0.00     0.135 C 
ATOM     26  S   UNL A   1      36.069  22.779  23.682  1.00  0.00    -0.086 SA
ATOM     27  C   UNL A   1      35.218  21.874  25.041  1.00  0.00     0.100 C 
ENDBRANCH  19  20
ENDBRANCH  17  19
ENDBRANCH  13  17
ENDBRANCH   5   7
ENDBRANCH   4   5
ENDBRANCH   3   4
ENDBRANCH   2   3
ENDBRANCH   1   2
BRANCH   1  28
ATOM     28  C   UNL A   1      34.028  34.960  30.546  1.00  0.00     0.202 C 
BRANCH  28  29
ATOM     29  C   UNL A   1      33.846  34.541  31.996  1.00  0.00     0.261 C 
BRANCH  29  30
ATOM     30  O   UNL A   1      34.024  33.150  32.164  1.00  0.00    -0.460 OA
BRANCH  30  31
ATOM     31  C   UNL A   1      35.144  32.849  32.846  1.00  0.00     0.338 C 
ATOM     32  O   UNL A   1      35.380  33.088  34.030  1.00  0.00    -0.246 OA
BRANCH  31  33
ATOM     33  C   UNL A   1      36.125  32.297  31.923  1.00  0.00     0.060 A 
ATOM     34  C   UNL A   1      36.019  30.931  31.655  1.00  0.00     0.016 A 
ATOM     35  C   UNL A   1      37.277  33.042  31.629  1.00  0.00     0.016 A 
ATOM     36  C   UNL A   1      37.161  30.254  31.315  1.00  0.00     0.010 A 
ATOM     37  C   UNL A   1      38.422  32.360  31.318  1.00  0.00     0.010 A 
ATOM     38  C   UNL A   1      38.359  30.971  31.255  1.00  0.00    -0.014 A 
BRANCH  38  39
ATOM     39  C   UNL A   1      39.577  30.233  31.030  1.00  0.00     0.031 A 
ATOM     40  C   UNL A   1      40.383  30.113  32.260  1.00  0.00     0.074 A 
ATOM     41  C   UNL A   1      39.826  29.638  29.850  1.00  0.00     0.049 A 
ATOM     42  N   UNL A   1      41.515  30.671  32.523  1.00  0.00    -0.248 NA
ATOM     43  C   UNL A   1      39.740  29.465  33.420  1.00  0.00     0.031 C 
ATOM     44  C   UNL A   1      38.914  29.489  28.709  1.00  0.00     0.029 A 
ATOM     45  N   UNL A   1      40.911  28.918  29.473  1.00  0.00    -0.354 N 
ATOM     46  C   UNL A   1      41.831  30.246  33.806  1.00  0.00     0.074 A 
ATOM     47  C   UNL A   1      40.619  29.730  34.384  1.00  0.00     0.031 C 
ATOM     48  C   UNL A   1      39.392  28.528  27.885  1.00  0.00     0.029 A 
ATOM     49  C   UNL A   1      40.694  28.102  28.369  1.00  0.00     0.049 A 
ATOM     50  H   UNL A   1      41.777  28.970  29.939  1.00  0.00     0.167 HD
ATOM     51  C   UNL A   1      43.118  30.034  34.186  1.00  0.00     0.031 A 
ATOM     52  C   UNL A   1      41.505  27.097  27.953  1.00  0.00     0.031 A 
ATOM     53  C   UNL A   1      44.052  30.632  33.273  1.00  0.00     0.049 A 
ATOM     54  C   UNL A   1      42.832  27.328  28.575  1.00  0.00     0.074 A 
ATOM     55  C   UNL A   1      44.384  31.922  32.924  1.00  0.00     0.029 A 
ATOM     56  N   UNL A   1      44.491  29.811  32.262  1.00  0.00    -0.354 N 
ATOM     57  N   UNL A   1      43.590  28.351  28.295  1.00  0.00    -0.248 NA
ATOM     58  C   UNL A   1      43.162  26.633  29.812  1.00  0.00     0.031 C 
ATOM     59  C   UNL A   1      44.730  31.867  31.543  1.00  0.00     0.029 A 
ATOM     60  C   UNL A   1      44.646  30.541  31.111  1.00  0.00     0.049 A 
ATOM     61  H   UNL A   1      44.667  28.846  32.351  1.00  0.00     0.167 HD
ATOM     62  C   UNL A   1      44.197  28.683  29.497  1.00  0.00     0.074 A 
ATOM     63  C   UNL A   1      44.019  27.510  30.345  1.00  0.00     0.031 C 
ATOM     64  C   UNL A   1      44.528  29.977  29.778  1.00  0.00     0.031 A 
BRANCH  51  65
ATOM     65  C   UNL A   1      43.494  28.904  35.109  1.00  0.00    -0.014 A 
ATOM     66  C   UNL A   1      44.170  29.179  36.308  1.00  0.00     0.010 A 
ATOM     67  C   UNL A   1      43.414  27.549  34.711  1.00  0.00     0.010 A 
ATOM     68  C   UNL A   1      44.729  28.144  37.074  1.00  0.00     0.020 A 
ATOM     69  C   UNL A   1      43.922  26.511  35.486  1.00  0.00     0.020 A 
ATOM     70  C   UNL A   1      44.596  26.817  36.657  1.00  0.00     0.054 A 
BRANCH  70  71
ATOM     71  S   UNL A   1      45.350  25.492  37.628  1.00  0.00     0.124 S 
ATOM     72  O   UNL A   1      44.403  24.398  37.434  1.00  0.00    -0.237 OA
ATOM     73  O   UNL A   1      46.648  25.334  36.979  1.00  0.00    -0.237 OA
ATOM     74  O   UNL A   1      45.401  26.043  38.981  1.00  0.00    -0.744 OA
ENDBRANCH  70  71
ENDBRANCH  51  65
BRANCH  52  75
ATOM     75  C   UNL A   1      41.132  25.794  27.347  1.00  0.00    -0.014 A 
ATOM     76  C   UNL A   1      41.971  25.187  26.394  1.00  0.00     0.010 A 
ATOM     77  C   UNL A   1      40.117  25.006  27.924  1.00  0.00     0.010 A 
ATOM     78  C   UNL A   1      41.855  23.819  26.094  1.00  0.00     0.020 A 
ATOM     79  C   UNL A   1      39.988  23.643  27.624  1.00  0.00     0.020 A 
ATOM     80  C   UNL A   1      40.881  23.050  26.733  1.00  0.00     0.054 A 
BRANCH  80  81
ATOM     81  S   UNL A   1      40.873  21.248  26.493  1.00  0.00     0.124 S 
ATOM     82  O   UNL A   1      39.664  21.044  25.701  1.00  0.00    -0.237 OA
ATOM     83  O   UNL A   1      42.134  21.019  25.793  1.00  0.00    -0.237 OA
ATOM     84  O   UNL A   1      40.819  20.718  27.854  1.00  0.00    -0.744 OA
ENDBRANCH  80  81
ENDBRANCH  52  75
BRANCH  64  85
ATOM     85  C   UNL A   1      44.604  30.947  28.620  1.00  0.00    -0.014 A 
ATOM     86  C   UNL A   1      45.330  30.715  27.435  1.00  0.00     0.010 A 
ATOM     87  C   UNL A   1      43.800  32.096  28.700  1.00  0.00     0.010 A 
ATOM     88  C   UNL A   1      45.263  31.624  26.367  1.00  0.00     0.020 A 
ATOM     89  C   UNL A   1      43.713  32.994  27.634  1.00  0.00     0.020 A 
ATOM     90  C   UNL A   1      44.452  32.759  26.475  1.00  0.00     0.054 A 
BRANCH  90  91
ATOM     91  S   UNL A   1      44.330  33.911  25.076  1.00  0.00     0.124 S 
ATOM     92  O   UNL A   1      44.176  33.011  23.935  1.00  0.00    -0.237 OA
ATOM     93  O   UNL A   1      43.152  34.706  25.414  1.00  0.00    -0.237 OA
ATOM     94  O   UNL A   1      45.594  34.644  25.117  1.00  0.00    -0.744 OA
ENDBRANCH  90  91
ENDBRANCH  64  85
ENDBRANCH  38  39
ENDBRANCH  31  33
ENDBRANCH  30  31
ENDBRANCH  29  30
ENDBRANCH  28  29
ENDBRANCH   1  28
TORSDOF 20
ENDMDL
