MODEL 1
REMARK VINA RESULT:     -11.0      0.000      0.000
REMARK SMILES Cc1nn(C)c2c1nc(SCC(=O)OCCOCCOC(=O)c1ccc(-c3c4nc(c(-c5ccc(S(=O)(=O)[O-])cc5)c5ccc([nH]5)c(-c5ccc(S(=O)(=O)[O-])cc5)c5nc(c(-c6ccc(S(=O)(=O)[O-])cc6)c6ccc3[nH]6)C=C5)C=C4)cc1)n2[C@H]1CC[N@@H+](C)C1
REMARK SMILES IDX 17 1 16 2 15 3 14 4 12 5 13 6 11 7 10 8 9 9 1 10 2 11 3 12
REMARK SMILES IDX 7 13 4 14 6 15 8 16 5 17 83 18 84 19 85 20 89 21 86 22 87 23
REMARK SMILES IDX 88 24 18 26 19 27 20 28 21 29 22 30 23 31 24 32 82 33 25 34
REMARK SMILES IDX 81 35 26 36 27 37 28 38 75 39 29 40 80 41 74 42 76 43 30 44
REMARK SMILES IDX 79 45 73 46 72 47 31 49 61 50 42 51 60 52 43 53 46 54 59 55
REMARK SMILES IDX 77 56 44 57 45 58 58 60 78 61 47 62 32 63 33 64 41 65 34 66
REMARK SMILES IDX 40 67 35 68 36 69 37 70 38 71 39 72 62 73 63 74 71 75 64 76
REMARK SMILES IDX 70 77 65 78 66 79 67 80 68 81 69 82 48 83 49 84 57 85 50 86
REMARK SMILES IDX 56 87 51 88 52 89 53 90 54 91 55 92
REMARK H PARENT 87 25 76 48 46 59
REMARK Flexibility Score: inf
ROOT
ATOM      1  O   UNL A   1      41.868  19.089  25.930  1.00  0.00    -0.374 OA
ENDROOT
BRANCH   1   2
ATOM      2  C   UNL A   1      41.583  19.649  27.208  1.00  0.00     0.202 C 
BRANCH   2   3
ATOM      3  C   UNL A   1      41.267  21.152  27.277  1.00  0.00     0.261 C 
BRANCH   3   4
ATOM      4  O   UNL A   1      39.858  21.452  27.329  1.00  0.00    -0.463 OA
BRANCH   4   5
ATOM      5  C   UNL A   1      39.385  22.310  26.383  1.00  0.00     0.316 C 
ATOM      6  O   UNL A   1      39.965  23.338  26.041  1.00  0.00    -0.251 OA
BRANCH   5   7
ATOM      7  C   UNL A   1      38.100  21.876  25.697  1.00  0.00     0.200 C 
BRANCH   7   8
ATOM      8  S   UNL A   1      37.105  23.182  24.961  1.00  0.00    -0.076 SA
BRANCH   8   9
ATOM      9  C   UNL A   1      35.525  22.496  24.658  1.00  0.00     0.171 A 
ATOM     10  C   UNL A   1      32.867  18.884  25.416  1.00  0.00     0.071 C 
ATOM     11  C   UNL A   1      32.839  20.317  25.061  1.00  0.00     0.087 A 
ATOM     12  N   UNL A   1      31.669  20.968  25.149  1.00  0.00    -0.174 NA
ATOM     13  C   UNL A   1      33.860  21.224  24.752  1.00  0.00     0.132 A 
ATOM     14  N   UNL A   1      31.986  22.277  25.008  1.00  0.00    -0.250 N 
ATOM     15  C   UNL A   1      33.321  22.467  24.773  1.00  0.00     0.159 A 
ATOM     16  N   UNL A   1      35.214  21.211  24.637  1.00  0.00    -0.219 NA
ATOM     17  C   UNL A   1      30.921  23.216  25.262  1.00  0.00     0.176 C 
ATOM     18  N   UNL A   1      34.384  23.318  24.610  1.00  0.00    -0.295 N 
BRANCH  18  19
ATOM     19  C   UNL A   1      34.439  24.771  24.511  1.00  0.00     0.152 C 
ATOM     20  C   UNL A   1      33.655  25.323  23.304  1.00  0.00     0.093 C 
ATOM     21  C   UNL A   1      33.880  25.567  25.687  1.00  0.00     0.288 C 
ATOM     22  C   UNL A   1      32.504  26.109  23.912  1.00  0.00     0.264 C 
ATOM     23  N   UNL A   1      33.126  26.679  25.107  1.00  0.00    -0.336 N 
ATOM     24  C   UNL A   1      32.128  27.171  26.057  1.00  0.00     0.332 C 
ATOM     25  H   UNL A   1      33.713  27.482  24.881  1.00  0.00     0.347 HD
ENDBRANCH  18  19
ENDBRANCH   8   9
ENDBRANCH   7   8
ENDBRANCH   5   7
ENDBRANCH   4   5
ENDBRANCH   3   4
ENDBRANCH   2   3
ENDBRANCH   1   2
BRANCH   1  26
ATOM     26  C   UNL A   1      43.101  18.397  25.761  1.00  0.00     0.202 C 
BRANCH  26  27
ATOM     27  C   UNL A   1      44.142  19.012  24.839  1.00  0.00     0.261 C 
BRANCH  27  28
ATOM     28  O   UNL A   1      44.073  20.426  24.717  1.00  0.00    -0.460 OA
BRANCH  28  29
ATOM     29  C   UNL A   1      45.254  21.018  25.009  1.00  0.00     0.338 C 
ATOM     30  O   UNL A   1      46.321  20.461  25.179  1.00  0.00    -0.246 OA
BRANCH  29  31
ATOM     31  C   UNL A   1      44.997  22.426  25.342  1.00  0.00     0.060 A 
ATOM     32  C   UNL A   1      45.704  22.930  26.432  1.00  0.00     0.016 A 
ATOM     33  C   UNL A   1      43.935  23.137  24.759  1.00  0.00     0.016 A 
ATOM     34  C   UNL A   1      45.243  24.076  27.039  1.00  0.00     0.010 A 
ATOM     35  C   UNL A   1      43.478  24.290  25.367  1.00  0.00     0.010 A 
ATOM     36  C   UNL A   1      44.097  24.710  26.538  1.00  0.00    -0.014 A 
BRANCH  36  37
ATOM     37  C   UNL A   1      43.706  25.954  27.172  1.00  0.00     0.031 A 
ATOM     38  C   UNL A   1      44.675  27.031  26.890  1.00  0.00     0.074 A 
ATOM     39  C   UNL A   1      42.598  26.132  27.913  1.00  0.00     0.049 A 
ATOM     40  N   UNL A   1      45.596  27.449  27.692  1.00  0.00    -0.248 NA
ATOM     41  C   UNL A   1      44.802  27.519  25.509  1.00  0.00     0.031 C 
ATOM     42  C   UNL A   1      41.473  25.228  28.110  1.00  0.00     0.029 A 
ATOM     43  N   UNL A   1      42.222  27.231  28.613  1.00  0.00    -0.354 N 
ATOM     44  C   UNL A   1      46.274  28.433  26.991  1.00  0.00     0.074 A 
ATOM     45  C   UNL A   1      45.892  28.281  25.610  1.00  0.00     0.031 C 
ATOM     46  C   UNL A   1      40.435  25.907  28.658  1.00  0.00     0.029 A 
ATOM     47  C   UNL A   1      40.890  27.243  29.011  1.00  0.00     0.049 A 
ATOM     48  H   UNL A   1      42.844  27.964  28.824  1.00  0.00     0.167 HD
ATOM     49  C   UNL A   1      46.864  29.468  27.647  1.00  0.00     0.031 A 
ATOM     50  C   UNL A   1      40.226  28.289  29.569  1.00  0.00     0.031 A 
ATOM     51  C   UNL A   1      47.015  29.188  29.054  1.00  0.00     0.049 A 
ATOM     52  C   UNL A   1      41.254  29.180  30.164  1.00  0.00     0.074 A 
ATOM     53  C   UNL A   1      47.682  28.228  29.789  1.00  0.00     0.029 A 
ATOM     54  N   UNL A   1      46.070  29.727  29.896  1.00  0.00    -0.354 N 
ATOM     55  N   UNL A   1      41.985  28.830  31.185  1.00  0.00    -0.248 NA
ATOM     56  C   UNL A   1      41.806  30.240  29.335  1.00  0.00     0.031 C 
ATOM     57  C   UNL A   1      46.807  27.917  30.871  1.00  0.00     0.029 A 
ATOM     58  C   UNL A   1      45.693  28.755  30.785  1.00  0.00     0.049 A 
ATOM     59  H   UNL A   1      45.726  30.649  29.866  1.00  0.00     0.167 HD
ATOM     60  C   UNL A   1      43.259  29.289  30.882  1.00  0.00     0.074 A 
ATOM     61  C   UNL A   1      43.070  30.222  29.770  1.00  0.00     0.031 C 
ATOM     62  C   UNL A   1      44.371  28.664  31.372  1.00  0.00     0.031 A 
BRANCH  49  63
ATOM     63  C   UNL A   1      46.862  30.873  27.104  1.00  0.00    -0.014 A 
ATOM     64  C   UNL A   1      48.045  31.630  27.188  1.00  0.00     0.010 A 
ATOM     65  C   UNL A   1      45.677  31.569  26.784  1.00  0.00     0.010 A 
ATOM     66  C   UNL A   1      48.026  33.022  27.037  1.00  0.00     0.020 A 
ATOM     67  C   UNL A   1      45.653  32.949  26.589  1.00  0.00     0.020 A 
ATOM     68  C   UNL A   1      46.824  33.671  26.751  1.00  0.00     0.054 A 
BRANCH  68  69
ATOM     69  S   UNL A   1      46.792  35.474  26.650  1.00  0.00     0.124 S 
ATOM     70  O   UNL A   1      47.789  35.734  25.617  1.00  0.00    -0.237 OA
ATOM     71  O   UNL A   1      45.404  35.735  26.278  1.00  0.00    -0.237 OA
ATOM     72  O   UNL A   1      47.160  35.898  28.000  1.00  0.00    -0.744 OA
ENDBRANCH  68  69
ENDBRANCH  49  63
BRANCH  50  73
ATOM     73  C   UNL A   1      38.839  28.754  29.296  1.00  0.00    -0.014 A 
ATOM     74  C   UNL A   1      37.961  29.094  30.345  1.00  0.00     0.010 A 
ATOM     75  C   UNL A   1      38.485  29.162  27.995  1.00  0.00     0.010 A 
ATOM     76  C   UNL A   1      36.811  29.870  30.108  1.00  0.00     0.020 A 
ATOM     77  C   UNL A   1      37.338  29.929  27.750  1.00  0.00     0.020 A 
ATOM     78  C   UNL A   1      36.518  30.301  28.812  1.00  0.00     0.054 A 
BRANCH  78  79
ATOM     79  S   UNL A   1      35.136  31.455  28.537  1.00  0.00     0.124 S 
ATOM     80  O   UNL A   1      34.847  31.922  29.888  1.00  0.00    -0.237 OA
ATOM     81  O   UNL A   1      35.722  32.444  27.637  1.00  0.00    -0.237 OA
ATOM     82  O   UNL A   1      34.102  30.613  27.939  1.00  0.00    -0.744 OA
ENDBRANCH  78  79
ENDBRANCH  50  73
BRANCH  62  83
ATOM     83  C   UNL A   1      44.199  27.654  32.484  1.00  0.00    -0.014 A 
ATOM     84  C   UNL A   1      43.942  27.986  33.830  1.00  0.00     0.010 A 
ATOM     85  C   UNL A   1      44.160  26.301  32.111  1.00  0.00     0.010 A 
ATOM     86  C   UNL A   1      43.683  26.981  34.778  1.00  0.00     0.020 A 
ATOM     87  C   UNL A   1      43.884  25.298  33.042  1.00  0.00     0.020 A 
ATOM     88  C   UNL A   1      43.659  25.640  34.375  1.00  0.00     0.054 A 
BRANCH  88  89
ATOM     89  S   UNL A   1      43.303  24.340  35.590  1.00  0.00     0.124 S 
ATOM     90  O   UNL A   1      43.626  24.993  36.856  1.00  0.00    -0.237 OA
ATOM     91  O   UNL A   1      41.885  24.066  35.366  1.00  0.00    -0.237 OA
ATOM     92  O   UNL A   1      44.202  23.251  35.209  1.00  0.00    -0.744 OA
ENDBRANCH  88  89
ENDBRANCH  62  83
ENDBRANCH  36  37
ENDBRANCH  29  31
ENDBRANCH  28  29
ENDBRANCH  27  28
ENDBRANCH  26  27
ENDBRANCH   1  26
TORSDOF 20
ENDMDL
MODEL 2
REMARK VINA RESULT:     -10.8      2.923      5.085
REMARK SMILES Cc1nn(C)c2c1nc(SCC(=O)OCCOCCOC(=O)c1ccc(-c3c4nc(c(-c5ccc(S(=O)(=O)[O-])cc5)c5ccc([nH]5)c(-c5ccc(S(=O)(=O)[O-])cc5)c5nc(c(-c6ccc(S(=O)(=O)[O-])cc6)c6ccc3[nH]6)C=C5)C=C4)cc1)n2[C@H]1CC[N@@H+](C)C1
REMARK SMILES IDX 17 1 16 2 15 3 14 4 12 5 13 6 11 7 10 8 9 9 1 10 2 11 3 12
REMARK SMILES IDX 7 13 4 14 6 15 8 16 5 17 83 18 84 19 85 20 89 21 86 22 87 23
REMARK SMILES IDX 88 24 18 26 19 27 20 28 21 29 22 30 23 31 24 32 82 33 25 34
REMARK SMILES IDX 81 35 26 36 27 37 28 38 75 39 29 40 80 41 74 42 76 43 30 44
REMARK SMILES IDX 79 45 73 46 72 47 31 49 61 50 42 51 60 52 43 53 46 54 59 55
REMARK SMILES IDX 77 56 44 57 45 58 58 60 78 61 47 62 32 63 33 64 41 65 34 66
REMARK SMILES IDX 40 67 35 68 36 69 37 70 38 71 39 72 62 73 63 74 71 75 64 76
REMARK SMILES IDX 70 77 65 78 66 79 67 80 68 81 69 82 48 83 49 84 57 85 50 86
REMARK SMILES IDX 56 87 51 88 52 89 53 90 54 91 55 92
REMARK H PARENT 87 25 76 48 46 59
REMARK Flexibility Score: inf
ROOT
ATOM      1  O   UNL A   1      35.453  22.428  25.325  1.00  0.00    -0.374 OA
ENDROOT
BRANCH   1   2
ATOM      2  C   UNL A   1      34.323  22.815  24.550  1.00  0.00     0.202 C 
BRANCH   2   3
ATOM      3  C   UNL A   1      32.985  23.007  25.282  1.00  0.00     0.261 C 
BRANCH   3   4
ATOM      4  O   UNL A   1      32.272  24.200  24.896  1.00  0.00    -0.463 OA
BRANCH   4   5
ATOM      5  C   UNL A   1      31.838  24.255  23.606  1.00  0.00     0.316 C 
ATOM      6  O   UNL A   1      30.703  23.940  23.253  1.00  0.00    -0.251 OA
BRANCH   5   7
ATOM      7  C   UNL A   1      32.836  24.817  22.608  1.00  0.00     0.200 C 
BRANCH   7   8
ATOM      8  S   UNL A   1      32.566  26.514  22.074  1.00  0.00    -0.076 SA
BRANCH   8   9
ATOM      9  C   UNL A   1      32.263  27.451  23.519  1.00  0.00     0.171 A 
ATOM     10  C   UNL A   1      34.241  29.502  27.064  1.00  0.00     0.071 C 
ATOM     11  C   UNL A   1      33.015  29.487  26.242  1.00  0.00     0.087 A 
ATOM     12  N   UNL A   1      32.173  30.527  26.343  1.00  0.00    -0.174 NA
ATOM     13  C   UNL A   1      32.579  28.626  25.227  1.00  0.00     0.132 A 
ATOM     14  N   UNL A   1      31.294  30.365  25.326  1.00  0.00    -0.250 N 
ATOM     15  C   UNL A   1      31.522  29.216  24.620  1.00  0.00     0.159 A 
ATOM     16  N   UNL A   1      33.029  27.510  24.595  1.00  0.00    -0.219 NA
ATOM     17  C   UNL A   1      30.391  31.465  25.089  1.00  0.00     0.176 C 
ATOM     18  N   UNL A   1      31.230  28.406  23.551  1.00  0.00    -0.295 N 
BRANCH  18  19
ATOM     19  C   UNL A   1      30.177  28.490  22.547  1.00  0.00     0.152 C 
ATOM     20  C   UNL A   1      28.776  28.197  23.118  1.00  0.00     0.093 C 
ATOM     21  C   UNL A   1      29.997  29.832  21.843  1.00  0.00     0.288 C 
ATOM     22  C   UNL A   1      28.024  29.513  23.002  1.00  0.00     0.264 C 
ATOM     23  N   UNL A   1      28.553  30.055  21.751  1.00  0.00    -0.336 N 
ATOM     24  C   UNL A   1      28.264  31.482  21.611  1.00  0.00     0.332 C 
ATOM     25  H   UNL A   1      28.133  29.606  20.937  1.00  0.00     0.347 HD
ENDBRANCH  18  19
ENDBRANCH   8   9
ENDBRANCH   7   8
ENDBRANCH   5   7
ENDBRANCH   4   5
ENDBRANCH   3   4
ENDBRANCH   2   3
ENDBRANCH   1   2
BRANCH   1  26
ATOM     26  C   UNL A   1      36.270  21.369  24.836  1.00  0.00     0.202 C 
BRANCH  26  27
ATOM     27  C   UNL A   1      37.720  21.320  25.291  1.00  0.00     0.261 C 
BRANCH  27  28
ATOM     28  O   UNL A   1      38.237  22.550  25.776  1.00  0.00    -0.460 OA
BRANCH  28  29
ATOM     29  C   UNL A   1      39.474  22.407  26.307  1.00  0.00     0.338 C 
ATOM     30  O   UNL A   1      40.174  21.415  26.253  1.00  0.00    -0.246 OA
BRANCH  29  31
ATOM     31  C   UNL A   1      39.738  23.556  27.184  1.00  0.00     0.060 A 
ATOM     32  C   UNL A   1      38.851  24.623  27.069  1.00  0.00     0.016 A 
ATOM     33  C   UNL A   1      40.940  23.670  27.904  1.00  0.00     0.016 A 
ATOM     34  C   UNL A   1      39.242  25.856  27.543  1.00  0.00     0.010 A 
ATOM     35  C   UNL A   1      41.326  24.905  28.384  1.00  0.00     0.010 A 
ATOM     36  C   UNL A   1      40.503  25.998  28.140  1.00  0.00    -0.014 A 
BRANCH  36  37
ATOM     37  C   UNL A   1      40.826  27.300  28.688  1.00  0.00     0.031 A 
ATOM     38  C   UNL A   1      42.034  27.866  28.058  1.00  0.00     0.074 A 
ATOM     39  C   UNL A   1      40.119  27.939  29.637  1.00  0.00     0.049 A 
ATOM     40  N   UNL A   1      43.220  27.872  28.566  1.00  0.00    -0.248 NA
ATOM     41  C   UNL A   1      41.979  28.234  26.635  1.00  0.00     0.031 C 
ATOM     42  C   UNL A   1      38.821  27.593  30.199  1.00  0.00     0.029 A 
ATOM     43  N   UNL A   1      40.414  29.105  30.264  1.00  0.00    -0.354 N 
ATOM     44  C   UNL A   1      44.027  28.469  27.610  1.00  0.00     0.074 A 
ATOM     45  C   UNL A   1      43.268  28.470  26.385  1.00  0.00     0.031 C 
ATOM     46  C   UNL A   1      38.325  28.654  30.885  1.00  0.00     0.029 A 
ATOM     47  C   UNL A   1      39.354  29.681  30.954  1.00  0.00     0.049 A 
ATOM     48  H   UNL A   1      41.309  29.513  30.232  1.00  0.00     0.167 HD
ATOM     49  C   UNL A   1      45.132  29.171  27.978  1.00  0.00     0.031 A 
ATOM     50  C   UNL A   1      39.337  30.919  31.516  1.00  0.00     0.031 A 
ATOM     51  C   UNL A   1      45.521  28.875  29.335  1.00  0.00     0.049 A 
ATOM     52  C   UNL A   1      40.753  31.305  31.742  1.00  0.00     0.074 A 
ATOM     53  C   UNL A   1      45.914  27.736  30.010  1.00  0.00     0.029 A 
ATOM     54  N   UNL A   1      45.129  29.775  30.301  1.00  0.00    -0.354 N 
ATOM     55  N   UNL A   1      41.522  30.696  32.601  1.00  0.00    -0.248 NA
ATOM     56  C   UNL A   1      41.446  32.021  30.683  1.00  0.00     0.031 C 
ATOM     57  C   UNL A   1      45.305  27.839  31.295  1.00  0.00     0.029 A 
ATOM     58  C   UNL A   1      44.641  29.066  31.367  1.00  0.00     0.049 A 
ATOM     59  H   UNL A   1      45.189  30.756  30.236  1.00  0.00     0.167 HD
ATOM     60  C   UNL A   1      42.745  30.573  31.957  1.00  0.00     0.074 A 
ATOM     61  C   UNL A   1      42.661  31.482  30.812  1.00  0.00     0.031 C 
ATOM     62  C   UNL A   1      43.599  29.547  32.249  1.00  0.00     0.031 A 
BRANCH  49  63
ATOM     63  C   UNL A   1      45.551  30.439  27.281  1.00  0.00    -0.014 A 
ATOM     64  C   UNL A   1      46.922  30.656  27.045  1.00  0.00     0.010 A 
ATOM     65  C   UNL A   1      44.689  31.542  27.112  1.00  0.00     0.010 A 
ATOM     66  C   UNL A   1      47.409  31.931  26.734  1.00  0.00     0.020 A 
ATOM     67  C   UNL A   1      45.156  32.807  26.760  1.00  0.00     0.020 A 
ATOM     68  C   UNL A   1      46.520  33.000  26.607  1.00  0.00     0.054 A 
BRANCH  68  69
ATOM     69  S   UNL A   1      47.166  34.659  26.298  1.00  0.00     0.124 S 
ATOM     70  O   UNL A   1      48.042  34.857  27.448  1.00  0.00    -0.237 OA
ATOM     71  O   UNL A   1      47.832  34.492  25.009  1.00  0.00    -0.237 OA
ATOM     72  O   UNL A   1      45.966  35.493  26.271  1.00  0.00    -0.744 OA
ENDBRANCH  68  69
ENDBRANCH  49  63
BRANCH  50  73
ATOM     73  C   UNL A   1      38.235  31.918  31.517  1.00  0.00    -0.014 A 
ATOM     74  C   UNL A   1      37.122  31.781  30.663  1.00  0.00     0.010 A 
ATOM     75  C   UNL A   1      38.128  32.835  32.581  1.00  0.00     0.010 A 
ATOM     76  C   UNL A   1      35.927  32.484  30.906  1.00  0.00     0.020 A 
ATOM     77  C   UNL A   1      36.944  33.545  32.825  1.00  0.00     0.020 A 
ATOM     78  C   UNL A   1      35.839  33.347  32.001  1.00  0.00     0.054 A 
BRANCH  78  79
ATOM     79  S   UNL A   1      34.241  34.113  32.419  1.00  0.00     0.124 S 
ATOM     80  O   UNL A   1      34.650  35.296  33.168  1.00  0.00    -0.237 OA
ATOM     81  O   UNL A   1      33.656  34.365  31.106  1.00  0.00    -0.237 OA
ATOM     82  O   UNL A   1      33.566  33.084  33.209  1.00  0.00    -0.744 OA
ENDBRANCH  78  79
ENDBRANCH  50  73
BRANCH  62  83
ATOM     83  C   UNL A   1      43.334  28.721  33.488  1.00  0.00    -0.014 A 
ATOM     84  C   UNL A   1      43.830  29.026  34.772  1.00  0.00     0.010 A 
ATOM     85  C   UNL A   1      42.421  27.661  33.359  1.00  0.00     0.010 A 
ATOM     86  C   UNL A   1      43.441  28.266  35.888  1.00  0.00     0.020 A 
ATOM     87  C   UNL A   1      42.015  26.914  34.466  1.00  0.00     0.020 A 
ATOM     88  C   UNL A   1      42.535  27.211  35.725  1.00  0.00     0.054 A 
BRANCH  88  89
ATOM     89  S   UNL A   1      42.013  26.240  37.167  1.00  0.00     0.124 S 
ATOM     90  O   UNL A   1      40.702  26.808  37.472  1.00  0.00    -0.237 OA
ATOM     91  O   UNL A   1      42.003  24.874  36.652  1.00  0.00    -0.237 OA
ATOM     92  O   UNL A   1      43.049  26.510  38.163  1.00  0.00    -0.744 OA
ENDBRANCH  88  89
ENDBRANCH  62  83
ENDBRANCH  36  37
ENDBRANCH  29  31
ENDBRANCH  28  29
ENDBRANCH  27  28
ENDBRANCH  26  27
ENDBRANCH   1  26
TORSDOF 20
ENDMDL
MODEL 3
REMARK VINA RESULT:     -10.5      2.661      4.329
REMARK SMILES Cc1nn(C)c2c1nc(SCC(=O)OCCOCCOC(=O)c1ccc(-c3c4nc(c(-c5ccc(S(=O)(=O)[O-])cc5)c5ccc([nH]5)c(-c5ccc(S(=O)(=O)[O-])cc5)c5nc(c(-c6ccc(S(=O)(=O)[O-])cc6)c6ccc3[nH]6)C=C5)C=C4)cc1)n2[C@H]1CC[N@@H+](C)C1
REMARK SMILES IDX 17 1 16 2 15 3 14 4 12 5 13 6 11 7 10 8 9 9 1 10 2 11 3 12
REMARK SMILES IDX 7 13 4 14 6 15 8 16 5 17 83 18 84 19 85 20 89 21 86 22 87 23
REMARK SMILES IDX 88 24 18 26 19 27 20 28 21 29 22 30 23 31 24 32 82 33 25 34
REMARK SMILES IDX 81 35 26 36 27 37 28 38 75 39 29 40 80 41 74 42 76 43 30 44
REMARK SMILES IDX 79 45 73 46 72 47 31 49 61 50 42 51 60 52 43 53 46 54 59 55
REMARK SMILES IDX 77 56 44 57 45 58 58 60 78 61 47 62 32 63 33 64 41 65 34 66
REMARK SMILES IDX 40 67 35 68 36 69 37 70 38 71 39 72 62 73 63 74 71 75 64 76
REMARK SMILES IDX 70 77 65 78 66 79 67 80 68 81 69 82 48 83 49 84 57 85 50 86
REMARK SMILES IDX 56 87 51 88 52 89 53 90 54 91 55 92
REMARK H PARENT 87 25 76 48 46 59
REMARK Flexibility Score: inf
ROOT
ATOM      1  O   UNL A   1      36.265  22.239  26.261  1.00  0.00    -0.374 OA
ENDROOT
BRANCH   1   2
ATOM      2  C   UNL A   1      34.877  22.555  26.227  1.00  0.00     0.202 C 
BRANCH   2   3
ATOM      3  C   UNL A   1      34.093  22.475  27.546  1.00  0.00     0.261 C 
BRANCH   3   4
ATOM      4  O   UNL A   1      32.662  22.555  27.383  1.00  0.00    -0.463 OA
BRANCH   4   5
ATOM      5  C   UNL A   1      32.135  21.887  26.319  1.00  0.00     0.316 C 
ATOM      6  O   UNL A   1      32.555  20.805  25.914  1.00  0.00    -0.251 OA
BRANCH   5   7
ATOM      7  C   UNL A   1      30.915  22.535  25.687  1.00  0.00     0.200 C 
BRANCH   7   8
ATOM      8  S   UNL A   1      30.805  24.326  25.807  1.00  0.00    -0.076 SA
BRANCH   8   9
ATOM      9  C   UNL A   1      31.887  24.976  24.597  1.00  0.00     0.171 A 
ATOM     10  C   UNL A   1      32.638  25.310  20.123  1.00  0.00     0.071 C 
ATOM     11  C   UNL A   1      32.946  25.940  21.422  1.00  0.00     0.087 A 
ATOM     12  N   UNL A   1      33.471  27.174  21.418  1.00  0.00    -0.174 NA
ATOM     13  C   UNL A   1      32.676  25.548  22.739  1.00  0.00     0.132 A 
ATOM     14  N   UNL A   1      33.419  27.581  22.708  1.00  0.00    -0.250 N 
ATOM     15  C   UNL A   1      32.928  26.611  23.540  1.00  0.00     0.159 A 
ATOM     16  N   UNL A   1      32.075  24.507  23.374  1.00  0.00    -0.219 NA
ATOM     17  C   UNL A   1      33.746  28.965  22.948  1.00  0.00     0.176 C 
ATOM     18  N   UNL A   1      32.512  26.222  24.788  1.00  0.00    -0.295 N 
BRANCH  18  19
ATOM     19  C   UNL A   1      32.557  26.914  26.070  1.00  0.00     0.152 C 
ATOM     20  C   UNL A   1      33.956  27.469  26.405  1.00  0.00     0.093 C 
ATOM     21  C   UNL A   1      31.649  28.129  26.234  1.00  0.00     0.288 C 
ATOM     22  C   UNL A   1      33.790  28.980  26.390  1.00  0.00     0.264 C 
ATOM     23  N   UNL A   1      32.442  29.142  26.931  1.00  0.00    -0.336 N 
ATOM     24  C   UNL A   1      31.908  30.479  26.671  1.00  0.00     0.332 C 
ATOM     25  H   UNL A   1      32.426  29.030  27.945  1.00  0.00     0.347 HD
ENDBRANCH  18  19
ENDBRANCH   8   9
ENDBRANCH   7   8
ENDBRANCH   5   7
ENDBRANCH   4   5
ENDBRANCH   3   4
ENDBRANCH   2   3
ENDBRANCH   1   2
BRANCH   1  26
ATOM     26  C   UNL A   1      36.765  21.315  25.299  1.00  0.00     0.202 C 
BRANCH  26  27
ATOM     27  C   UNL A   1      38.245  20.968  25.347  1.00  0.00     0.261 C 
BRANCH  27  28
ATOM     28  O   UNL A   1      39.117  22.082  25.470  1.00  0.00    -0.460 OA
BRANCH  28  29
ATOM     29  C   UNL A   1      40.086  21.868  26.390  1.00  0.00     0.338 C 
ATOM     30  O   UNL A   1      40.644  20.814  26.622  1.00  0.00    -0.246 OA
BRANCH  29  31
ATOM     31  C   UNL A   1      40.182  23.057  27.248  1.00  0.00     0.060 A 
ATOM     32  C   UNL A   1      39.197  24.024  27.058  1.00  0.00     0.016 A 
ATOM     33  C   UNL A   1      41.324  23.311  28.028  1.00  0.00     0.016 A 
ATOM     34  C   UNL A   1      39.433  25.300  27.518  1.00  0.00     0.010 A 
ATOM     35  C   UNL A   1      41.554  24.590  28.494  1.00  0.00     0.010 A 
ATOM     36  C   UNL A   1      40.637  25.585  28.177  1.00  0.00    -0.014 A 
BRANCH  36  37
ATOM     37  C   UNL A   1      40.793  26.925  28.706  1.00  0.00     0.031 A 
ATOM     38  C   UNL A   1      41.933  27.624  28.080  1.00  0.00     0.074 A 
ATOM     39  C   UNL A   1      40.003  27.489  29.635  1.00  0.00     0.049 A 
ATOM     40  N   UNL A   1      43.103  27.780  28.601  1.00  0.00    -0.248 NA
ATOM     41  C   UNL A   1      41.853  27.959  26.650  1.00  0.00     0.031 C 
ATOM     42  C   UNL A   1      38.748  26.999  30.189  1.00  0.00     0.029 A 
ATOM     43  N   UNL A   1      40.146  28.693  30.245  1.00  0.00    -0.354 N 
ATOM     44  C   UNL A   1      43.844  28.455  27.644  1.00  0.00     0.074 A 
ATOM     45  C   UNL A   1      43.107  28.345  26.411  1.00  0.00     0.031 C 
ATOM     46  C   UNL A   1      38.119  28.003  30.850  1.00  0.00     0.029 A 
ATOM     47  C   UNL A   1      39.015  29.148  30.913  1.00  0.00     0.049 A 
ATOM     48  H   UNL A   1      40.986  29.205  30.216  1.00  0.00     0.167 HD
ATOM     49  C   UNL A   1      44.852  29.291  28.012  1.00  0.00     0.031 A 
ATOM     50  C   UNL A   1      38.842  30.383  31.453  1.00  0.00     0.031 A 
ATOM     51  C   UNL A   1      45.256  29.066  29.379  1.00  0.00     0.049 A 
ATOM     52  C   UNL A   1      40.198  30.941  31.688  1.00  0.00     0.074 A 
ATOM     53  C   UNL A   1      45.773  27.994  30.077  1.00  0.00     0.029 A 
ATOM     54  N   UNL A   1      44.745  29.928  30.324  1.00  0.00    -0.354 N 
ATOM     55  N   UNL A   1      41.023  30.443  32.567  1.00  0.00    -0.248 NA
ATOM     56  C   UNL A   1      40.813  31.719  30.624  1.00  0.00     0.031 C 
ATOM     57  C   UNL A   1      45.139  28.043  31.353  1.00  0.00     0.029 A 
ATOM     58  C   UNL A   1      44.332  29.182  31.396  1.00  0.00     0.049 A 
ATOM     59  H   UNL A   1      44.687  30.907  30.243  1.00  0.00     0.167 HD
ATOM     60  C   UNL A   1      42.260  30.459  31.938  1.00  0.00     0.074 A 
ATOM     61  C   UNL A   1      42.083  31.332  30.777  1.00  0.00     0.031 C 
ATOM     62  C   UNL A   1      43.227  29.548  32.259  1.00  0.00     0.031 A 
BRANCH  49  63
ATOM     63  C   UNL A   1      45.125  30.589  27.297  1.00  0.00    -0.014 A 
ATOM     64  C   UNL A   1      46.453  30.902  26.953  1.00  0.00     0.010 A 
ATOM     65  C   UNL A   1      44.178  31.631  27.213  1.00  0.00     0.010 A 
ATOM     66  C   UNL A   1      46.824  32.209  26.618  1.00  0.00     0.020 A 
ATOM     67  C   UNL A   1      44.527  32.927  26.839  1.00  0.00     0.020 A 
ATOM     68  C   UNL A   1      45.857  33.215  26.577  1.00  0.00     0.054 A 
BRANCH  68  69
ATOM     69  S   UNL A   1      46.360  34.916  26.235  1.00  0.00     0.124 S 
ATOM     70  O   UNL A   1      45.123  35.650  26.483  1.00  0.00    -0.237 OA
ATOM     71  O   UNL A   1      47.429  35.120  27.211  1.00  0.00    -0.237 OA
ATOM     72  O   UNL A   1      46.796  34.870  24.841  1.00  0.00    -0.744 OA
ENDBRANCH  68  69
ENDBRANCH  49  63
BRANCH  50  73
ATOM     73  C   UNL A   1      37.627  31.241  31.424  1.00  0.00    -0.014 A 
ATOM     74  C   UNL A   1      36.644  31.153  32.430  1.00  0.00     0.010 A 
ATOM     75  C   UNL A   1      37.591  32.367  30.578  1.00  0.00     0.010 A 
ATOM     76  C   UNL A   1      35.704  32.184  32.622  1.00  0.00     0.020 A 
ATOM     77  C   UNL A   1      36.655  33.394  30.758  1.00  0.00     0.020 A 
ATOM     78  C   UNL A   1      35.730  33.310  31.796  1.00  0.00     0.054 A 
BRANCH  78  79
ATOM     79  S   UNL A   1      34.639  34.721  32.161  1.00  0.00     0.124 S 
ATOM     80  O   UNL A   1      33.559  34.091  32.914  1.00  0.00    -0.237 OA
ATOM     81  O   UNL A   1      35.510  35.608  32.925  1.00  0.00    -0.237 OA
ATOM     82  O   UNL A   1      34.264  35.214  30.837  1.00  0.00    -0.744 OA
ENDBRANCH  78  79
ENDBRANCH  50  73
BRANCH  62  83
ATOM     83  C   UNL A   1      43.048  28.716  33.509  1.00  0.00    -0.014 A 
ATOM     84  C   UNL A   1      42.360  27.486  33.557  1.00  0.00     0.010 A 
ATOM     85  C   UNL A   1      43.734  29.143  34.658  1.00  0.00     0.010 A 
ATOM     86  C   UNL A   1      42.339  26.724  34.738  1.00  0.00     0.020 A 
ATOM     87  C   UNL A   1      43.733  28.383  35.828  1.00  0.00     0.020 A 
ATOM     88  C   UNL A   1      43.026  27.182  35.869  1.00  0.00     0.054 A 
BRANCH  88  89
ATOM     89  S   UNL A   1      43.021  26.191  37.390  1.00  0.00     0.124 S 
ATOM     90  O   UNL A   1      43.498  24.893  36.923  1.00  0.00    -0.237 OA
ATOM     91  O   UNL A   1      43.938  26.926  38.258  1.00  0.00    -0.237 OA
ATOM     92  O   UNL A   1      41.623  26.218  37.818  1.00  0.00    -0.744 OA
ENDBRANCH  88  89
ENDBRANCH  62  83
ENDBRANCH  36  37
ENDBRANCH  29  31
ENDBRANCH  28  29
ENDBRANCH  27  28
ENDBRANCH  26  27
ENDBRANCH   1  26
TORSDOF 20
ENDMDL
