MODEL 1
REMARK VINA RESULT:     -11.4      0.000      0.000
REMARK SMILES Cc1ccnc(C(=O)c2[nH]c3cc(F)ccc3c2CC(=O)OCCOCCOC(=O)c2ccc(-c3c4nc(c(-c5ccc(S(=O)(=O)[O-])cc5)c5ccc([nH]5)c(-c5ccc(S(=O)(=O)[O-])cc5)c5nc(c(-c6ccc(S(=O)(=O)[O-])cc6)c6ccc3[nH]6)C=C5)C=C4)cc2)c1
REMARK SMILES IDX 25 1 24 2 23 3 22 4 20 5 21 6 19 7 18 8 9 9 10 10 11 11
REMARK SMILES IDX 17 13 12 14 16 15 13 16 15 17 14 18 7 19 8 20 6 21 1 22 2 23
REMARK SMILES IDX 3 24 91 25 4 26 5 27 26 28 27 29 28 30 29 31 30 32 31 33
REMARK SMILES IDX 32 34 90 35 33 36 89 37 34 38 35 39 36 40 83 41 37 42 88 43
REMARK SMILES IDX 82 44 84 45 38 46 87 47 81 48 80 49 39 51 69 52 50 53 68 54
REMARK SMILES IDX 51 55 54 56 67 57 85 58 52 59 53 60 66 62 86 63 55 64 40 65
REMARK SMILES IDX 41 66 49 67 42 68 48 69 43 70 44 71 45 72 46 73 47 74 70 75
REMARK SMILES IDX 71 76 79 77 72 78 78 79 73 80 74 81 75 82 76 83 77 84 56 85
REMARK SMILES IDX 57 86 65 87 58 88 64 89 59 90 60 91 61 92 62 93 63 94
REMARK H PARENT 10 12 84 50 54 61
REMARK Flexibility Score: inf
ROOT
ATOM      1  O   UNL A   1      37.368  22.923  25.101  1.00  0.00    -0.374 OA
ENDROOT
BRANCH   1   2
ATOM      2  C   UNL A   1      35.984  22.579  25.072  1.00  0.00     0.202 C 
BRANCH   2   3
ATOM      3  C   UNL A   1      35.006  23.414  25.908  1.00  0.00     0.261 C 
BRANCH   3   4
ATOM      4  O   UNL A   1      35.122  24.838  25.687  1.00  0.00    -0.463 OA
BRANCH   4   5
ATOM      5  C   UNL A   1      34.096  25.399  24.988  1.00  0.00     0.310 C 
ATOM      6  O   UNL A   1      34.033  25.422  23.760  1.00  0.00    -0.252 OA
BRANCH   5   7
ATOM      7  C   UNL A   1      33.049  26.103  25.822  1.00  0.00     0.161 C 
BRANCH   7   8
ATOM      8  C   UNL A   1      31.610  26.090  25.369  1.00  0.00     0.000 A 
ATOM      9  C   UNL A   1      30.709  25.020  25.425  1.00  0.00     0.093 A 
ATOM     10  N   UNL A   1      29.518  25.482  24.904  1.00  0.00    -0.351 N 
ATOM     11  C   UNL A   1      29.705  26.686  24.265  1.00  0.00     0.049 A 
ATOM     12  H   UNL A   1      28.655  25.016  24.980  1.00  0.00     0.167 HD
ATOM     13  C   UNL A   1      30.996  27.111  24.570  1.00  0.00     0.004 A 
ATOM     14  C   UNL A   1      28.843  27.419  23.438  1.00  0.00     0.066 A 
ATOM     15  C   UNL A   1      31.451  28.333  24.026  1.00  0.00     0.013 A 
ATOM     16  C   UNL A   1      29.342  28.598  22.884  1.00  0.00     0.125 A 
ATOM     17  C   UNL A   1      30.619  29.059  23.168  1.00  0.00     0.040 A 
ATOM     18  F   UNL A   1      28.571  29.294  22.038  1.00  0.00    -0.207 F 
BRANCH   9  19
ATOM     19  C   UNL A   1      30.962  23.679  25.944  1.00  0.00     0.227 C 
ATOM     20  O   UNL A   1      30.706  23.375  27.108  1.00  0.00    -0.285 OA
BRANCH  19  21
ATOM     21  C   UNL A   1      31.606  22.624  25.102  1.00  0.00     0.113 A 
ATOM     22  C   UNL A   1      32.684  19.001  25.294  1.00  0.00     0.044 C 
ATOM     23  C   UNL A   1      32.364  20.372  24.779  1.00  0.00    -0.047 A 
ATOM     24  C   UNL A   1      32.348  20.615  23.402  1.00  0.00     0.023 A 
ATOM     25  C   UNL A   1      31.979  21.399  25.648  1.00  0.00     0.036 A 
ATOM     26  C   UNL A   1      31.989  21.874  22.951  1.00  0.00     0.112 A 
ATOM     27  N   UNL A   1      31.632  22.884  23.768  1.00  0.00    -0.253 NA
ENDBRANCH  19  21
ENDBRANCH   9  19
ENDBRANCH   7   8
ENDBRANCH   5   7
ENDBRANCH   4   5
ENDBRANCH   3   4
ENDBRANCH   2   3
ENDBRANCH   1   2
BRANCH   1  28
ATOM     28  C   UNL A   1      38.257  21.973  25.682  1.00  0.00     0.202 C 
BRANCH  28  29
ATOM     29  C   UNL A   1      39.467  22.515  26.455  1.00  0.00     0.261 C 
BRANCH  29  30
ATOM     30  O   UNL A   1      39.474  23.942  26.594  1.00  0.00    -0.460 OA
BRANCH  30  31
ATOM     31  C   UNL A   1      40.690  24.475  26.867  1.00  0.00     0.338 C 
ATOM     32  O   UNL A   1      41.761  24.197  26.344  1.00  0.00    -0.246 OA
BRANCH  31  33
ATOM     33  C   UNL A   1      40.533  25.593  27.808  1.00  0.00     0.060 A 
ATOM     34  C   UNL A   1      41.567  26.535  27.878  1.00  0.00     0.016 A 
ATOM     35  C   UNL A   1      39.407  25.703  28.626  1.00  0.00     0.016 A 
ATOM     36  C   UNL A   1      41.483  27.591  28.782  1.00  0.00     0.010 A 
ATOM     37  C   UNL A   1      39.332  26.754  29.542  1.00  0.00     0.010 A 
ATOM     38  C   UNL A   1      40.377  27.691  29.635  1.00  0.00    -0.014 A 
BRANCH  38  39
ATOM     39  C   UNL A   1      40.350  28.735  30.683  1.00  0.00     0.031 A 
ATOM     40  C   UNL A   1      41.296  28.627  31.845  1.00  0.00     0.074 A 
ATOM     41  C   UNL A   1      39.492  29.767  30.582  1.00  0.00     0.049 A 
ATOM     42  N   UNL A   1      41.411  29.404  32.889  1.00  0.00    -0.248 NA
ATOM     43  C   UNL A   1      42.236  27.493  31.831  1.00  0.00     0.031 C 
ATOM     44  C   UNL A   1      38.563  29.986  29.473  1.00  0.00     0.029 A 
ATOM     45  N   UNL A   1      39.259  30.821  31.428  1.00  0.00    -0.354 N 
ATOM     46  C   UNL A   1      42.425  28.850  33.663  1.00  0.00     0.074 A 
ATOM     47  C   UNL A   1      42.879  27.660  32.979  1.00  0.00     0.031 C 
ATOM     48  C   UNL A   1      37.857  31.104  29.709  1.00  0.00     0.029 A 
ATOM     49  C   UNL A   1      38.253  31.656  31.002  1.00  0.00     0.049 A 
ATOM     50  H   UNL A   1      39.765  30.966  32.260  1.00  0.00     0.167 HD
ATOM     51  C   UNL A   1      42.926  29.297  34.839  1.00  0.00     0.031 A 
ATOM     52  C   UNL A   1      37.699  32.726  31.604  1.00  0.00     0.031 A 
ATOM     53  C   UNL A   1      42.453  30.478  35.511  1.00  0.00     0.049 A 
ATOM     54  C   UNL A   1      38.221  33.152  32.952  1.00  0.00     0.074 A 
ATOM     55  C   UNL A   1      42.913  31.038  36.689  1.00  0.00     0.029 A 
ATOM     56  N   UNL A   1      41.403  31.273  35.072  1.00  0.00    -0.354 N 
ATOM     57  N   UNL A   1      39.214  32.646  33.647  1.00  0.00    -0.248 NA
ATOM     58  C   UNL A   1      37.551  34.289  33.596  1.00  0.00     0.031 C 
ATOM     59  C   UNL A   1      42.096  32.129  36.999  1.00  0.00     0.029 A 
ATOM     60  C   UNL A   1      41.170  32.291  35.980  1.00  0.00     0.049 A 
ATOM     61  H   UNL A   1      40.899  31.133  34.238  1.00  0.00     0.167 HD
ATOM     62  C   UNL A   1      39.297  33.417  34.801  1.00  0.00     0.074 A 
ATOM     63  C   UNL A   1      38.273  34.436  34.698  1.00  0.00     0.031 C 
ATOM     64  C   UNL A   1      40.141  33.292  35.856  1.00  0.00     0.031 A 
BRANCH  51  65
ATOM     65  C   UNL A   1      44.011  28.489  35.498  1.00  0.00    -0.014 A 
ATOM     66  C   UNL A   1      45.371  28.741  35.243  1.00  0.00     0.010 A 
ATOM     67  C   UNL A   1      43.665  27.509  36.447  1.00  0.00     0.010 A 
ATOM     68  C   UNL A   1      46.363  28.015  35.910  1.00  0.00     0.020 A 
ATOM     69  C   UNL A   1      44.653  26.799  37.135  1.00  0.00     0.020 A 
ATOM     70  C   UNL A   1      45.997  27.052  36.855  1.00  0.00     0.054 A 
BRANCH  70  71
ATOM     71  S   UNL A   1      47.305  26.164  37.746  1.00  0.00     0.124 S 
ATOM     72  O   UNL A   1      48.356  27.176  37.829  1.00  0.00    -0.237 OA
ATOM     73  O   UNL A   1      46.657  25.826  39.010  1.00  0.00    -0.237 OA
ATOM     74  O   UNL A   1      47.606  25.027  36.880  1.00  0.00    -0.744 OA
ENDBRANCH  70  71
ENDBRANCH  51  65
BRANCH  52  75
ATOM     75  C   UNL A   1      36.564  33.449  30.962  1.00  0.00    -0.014 A 
ATOM     76  C   UNL A   1      35.319  33.551  31.607  1.00  0.00     0.010 A 
ATOM     77  C   UNL A   1      36.720  34.024  29.687  1.00  0.00     0.010 A 
ATOM     78  C   UNL A   1      34.245  34.188  30.977  1.00  0.00     0.020 A 
ATOM     79  C   UNL A   1      35.658  34.690  29.068  1.00  0.00     0.020 A 
ATOM     80  C   UNL A   1      34.422  34.753  29.711  1.00  0.00     0.054 A 
BRANCH  80  81
ATOM     81  S   UNL A   1      33.021  35.598  28.927  1.00  0.00     0.124 S 
ATOM     82  O   UNL A   1      32.419  34.523  28.144  1.00  0.00    -0.237 OA
ATOM     83  O   UNL A   1      32.245  36.057  30.076  1.00  0.00    -0.237 OA
ATOM     84  O   UNL A   1      33.655  36.661  28.148  1.00  0.00    -0.744 OA
ENDBRANCH  80  81
ENDBRANCH  52  75
BRANCH  64  85
ATOM     85  C   UNL A   1      40.002  34.291  36.975  1.00  0.00    -0.014 A 
ATOM     86  C   UNL A   1      40.636  35.543  36.910  1.00  0.00     0.010 A 
ATOM     87  C   UNL A   1      39.173  33.996  38.073  1.00  0.00     0.010 A 
ATOM     88  C   UNL A   1      40.465  36.474  37.938  1.00  0.00     0.020 A 
ATOM     89  C   UNL A   1      38.974  34.936  39.087  1.00  0.00     0.020 A 
ATOM     90  C   UNL A   1      39.632  36.165  39.018  1.00  0.00     0.054 A 
BRANCH  90  91
ATOM     91  S   UNL A   1      39.384  37.414  40.309  1.00  0.00     0.124 S 
ATOM     92  O   UNL A   1      38.576  38.413  39.616  1.00  0.00    -0.237 OA
ATOM     93  O   UNL A   1      38.693  36.661  41.353  1.00  0.00    -0.237 OA
ATOM     94  O   UNL A   1      40.741  37.837  40.649  1.00  0.00    -0.744 OA
ENDBRANCH  90  91
ENDBRANCH  64  85
ENDBRANCH  38  39
ENDBRANCH  31  33
ENDBRANCH  30  31
ENDBRANCH  29  30
ENDBRANCH  28  29
ENDBRANCH   1  28
TORSDOF 20
ENDMDL
MODEL 2
REMARK VINA RESULT:     -11.3      3.481      5.315
REMARK SMILES Cc1ccnc(C(=O)c2[nH]c3cc(F)ccc3c2CC(=O)OCCOCCOC(=O)c2ccc(-c3c4nc(c(-c5ccc(S(=O)(=O)[O-])cc5)c5ccc([nH]5)c(-c5ccc(S(=O)(=O)[O-])cc5)c5nc(c(-c6ccc(S(=O)(=O)[O-])cc6)c6ccc3[nH]6)C=C5)C=C4)cc2)c1
REMARK SMILES IDX 25 1 24 2 23 3 22 4 20 5 21 6 19 7 18 8 9 9 10 10 11 11
REMARK SMILES IDX 17 13 12 14 16 15 13 16 15 17 14 18 7 19 8 20 6 21 1 22 2 23
REMARK SMILES IDX 3 24 91 25 4 26 5 27 26 28 27 29 28 30 29 31 30 32 31 33
REMARK SMILES IDX 32 34 90 35 33 36 89 37 34 38 35 39 36 40 83 41 37 42 88 43
REMARK SMILES IDX 82 44 84 45 38 46 87 47 81 48 80 49 39 51 69 52 50 53 68 54
REMARK SMILES IDX 51 55 54 56 67 57 85 58 52 59 53 60 66 62 86 63 55 64 40 65
REMARK SMILES IDX 41 66 49 67 42 68 48 69 43 70 44 71 45 72 46 73 47 74 70 75
REMARK SMILES IDX 71 76 79 77 72 78 78 79 73 80 74 81 75 82 76 83 77 84 56 85
REMARK SMILES IDX 57 86 65 87 58 88 64 89 59 90 60 91 61 92 62 93 63 94
REMARK H PARENT 10 12 84 50 54 61
REMARK Flexibility Score: inf
ROOT
ATOM      1  O   UNL A   1      34.517  22.200  23.835  1.00  0.00    -0.374 OA
ENDROOT
BRANCH   1   2
ATOM      2  C   UNL A   1      33.545  23.166  24.233  1.00  0.00     0.202 C 
BRANCH   2   3
ATOM      3  C   UNL A   1      33.956  24.643  24.271  1.00  0.00     0.261 C 
BRANCH   3   4
ATOM      4  O   UNL A   1      34.042  25.256  22.965  1.00  0.00    -0.463 OA
BRANCH   4   5
ATOM      5  C   UNL A   1      33.397  26.448  22.843  1.00  0.00     0.310 C 
ATOM      6  O   UNL A   1      33.758  27.352  22.091  1.00  0.00    -0.252 OA
BRANCH   5   7
ATOM      7  C   UNL A   1      32.227  26.654  23.780  1.00  0.00     0.161 C 
BRANCH   7   8
ATOM      8  C   UNL A   1      32.053  27.986  24.466  1.00  0.00     0.000 A 
ATOM      9  C   UNL A   1      31.233  29.048  24.068  1.00  0.00     0.093 A 
ATOM     10  N   UNL A   1      31.402  30.047  25.005  1.00  0.00    -0.351 N 
ATOM     11  C   UNL A   1      32.490  29.782  25.803  1.00  0.00     0.049 A 
ATOM     12  H   UNL A   1      30.823  30.838  25.091  1.00  0.00     0.167 HD
ATOM     13  C   UNL A   1      32.898  28.481  25.515  1.00  0.00     0.004 A 
ATOM     14  C   UNL A   1      33.148  30.590  26.741  1.00  0.00     0.066 A 
ATOM     15  C   UNL A   1      34.017  27.957  26.200  1.00  0.00     0.013 A 
ATOM     16  C   UNL A   1      34.275  30.053  27.365  1.00  0.00     0.125 A 
ATOM     17  C   UNL A   1      34.708  28.761  27.110  1.00  0.00     0.040 A 
ATOM     18  F   UNL A   1      34.967  30.818  28.221  1.00  0.00    -0.207 F 
BRANCH   9  19
ATOM     19  C   UNL A   1      30.356  29.098  22.902  1.00  0.00     0.227 C 
ATOM     20  O   UNL A   1      30.294  28.170  22.098  1.00  0.00    -0.285 OA
BRANCH  19  21
ATOM     21  C   UNL A   1      29.537  30.311  22.593  1.00  0.00     0.113 A 
ATOM     22  C   UNL A   1      27.801  31.984  19.676  1.00  0.00     0.044 C 
ATOM     23  C   UNL A   1      28.264  31.646  21.061  1.00  0.00    -0.047 A 
ATOM     24  C   UNL A   1      27.672  32.264  22.166  1.00  0.00     0.023 A 
ATOM     25  C   UNL A   1      29.214  30.642  21.280  1.00  0.00     0.036 A 
ATOM     26  C   UNL A   1      28.076  31.888  23.436  1.00  0.00     0.112 A 
ATOM     27  N   UNL A   1      29.001  30.938  23.673  1.00  0.00    -0.253 NA
ENDBRANCH  19  21
ENDBRANCH   9  19
ENDBRANCH   7   8
ENDBRANCH   5   7
ENDBRANCH   4   5
ENDBRANCH   3   4
ENDBRANCH   2   3
ENDBRANCH   1   2
BRANCH   1  28
ATOM     28  C   UNL A   1      35.615  21.988  24.719  1.00  0.00     0.202 C 
BRANCH  28  29
ATOM     29  C   UNL A   1      36.959  22.630  24.346  1.00  0.00     0.261 C 
BRANCH  29  30
ATOM     30  O   UNL A   1      37.455  23.548  25.331  1.00  0.00    -0.460 OA
BRANCH  30  31
ATOM     31  C   UNL A   1      38.559  23.121  25.992  1.00  0.00     0.338 C 
ATOM     32  O   UNL A   1      39.073  22.012  25.946  1.00  0.00    -0.246 OA
BRANCH  31  33
ATOM     33  C   UNL A   1      39.184  24.258  26.683  1.00  0.00     0.060 A 
ATOM     34  C   UNL A   1      38.858  24.460  28.030  1.00  0.00     0.016 A 
ATOM     35  C   UNL A   1      40.050  25.127  26.018  1.00  0.00     0.016 A 
ATOM     36  C   UNL A   1      39.392  25.547  28.717  1.00  0.00     0.010 A 
ATOM     37  C   UNL A   1      40.573  26.224  26.704  1.00  0.00     0.010 A 
ATOM     38  C   UNL A   1      40.233  26.447  28.051  1.00  0.00    -0.014 A 
BRANCH  38  39
ATOM     39  C   UNL A   1      40.694  27.671  28.743  1.00  0.00     0.031 A 
ATOM     40  C   UNL A   1      42.087  27.712  29.304  1.00  0.00     0.074 A 
ATOM     41  C   UNL A   1      39.871  28.729  28.855  1.00  0.00     0.049 A 
ATOM     42  N   UNL A   1      42.676  28.663  29.979  1.00  0.00    -0.248 NA
ATOM     43  C   UNL A   1      42.928  26.525  29.076  1.00  0.00     0.031 C 
ATOM     44  C   UNL A   1      38.515  28.806  28.308  1.00  0.00     0.029 A 
ATOM     45  N   UNL A   1      40.052  29.941  29.470  1.00  0.00    -0.354 N 
ATOM     46  C   UNL A   1      43.950  28.188  30.269  1.00  0.00     0.074 A 
ATOM     47  C   UNL A   1      44.043  26.857  29.713  1.00  0.00     0.031 C 
ATOM     48  C   UNL A   1      37.986  30.002  28.617  1.00  0.00     0.029 A 
ATOM     49  C   UNL A   1      38.947  30.757  29.416  1.00  0.00     0.049 A 
ATOM     50  H   UNL A   1      40.895  30.202  29.908  1.00  0.00     0.167 HD
ATOM     51  C   UNL A   1      44.947  28.810  30.940  1.00  0.00     0.031 A 
ATOM     52  C   UNL A   1      38.729  31.964  29.974  1.00  0.00     0.031 A 
ATOM     53  C   UNL A   1      44.832  30.132  31.496  1.00  0.00     0.049 A 
ATOM     54  C   UNL A   1      39.829  32.596  30.786  1.00  0.00     0.074 A 
ATOM     55  C   UNL A   1      45.792  30.870  32.165  1.00  0.00     0.029 A 
ATOM     56  N   UNL A   1      43.683  30.910  31.460  1.00  0.00    -0.354 N 
ATOM     57  N   UNL A   1      41.046  32.155  31.009  1.00  0.00    -0.248 NA
ATOM     58  C   UNL A   1      39.529  33.886  31.423  1.00  0.00     0.031 C 
ATOM     59  C   UNL A   1      45.203  32.062  32.596  1.00  0.00     0.029 A 
ATOM     60  C   UNL A   1      43.896  32.099  32.136  1.00  0.00     0.049 A 
ATOM     61  H   UNL A   1      42.841  30.654  31.019  1.00  0.00     0.167 HD
ATOM     62  C   UNL A   1      41.661  33.124  31.795  1.00  0.00     0.074 A 
ATOM     63  C   UNL A   1      40.691  34.184  31.986  1.00  0.00     0.031 C 
ATOM     64  C   UNL A   1      42.912  33.136  32.317  1.00  0.00     0.031 A 
BRANCH  51  65
ATOM     65  C   UNL A   1      46.235  28.060  31.150  1.00  0.00    -0.014 A 
ATOM     66  C   UNL A   1      47.278  28.115  30.207  1.00  0.00     0.010 A 
ATOM     67  C   UNL A   1      46.432  27.345  32.346  1.00  0.00     0.010 A 
ATOM     68  C   UNL A   1      48.486  27.454  30.451  1.00  0.00     0.020 A 
ATOM     69  C   UNL A   1      47.648  26.706  32.605  1.00  0.00     0.020 A 
ATOM     70  C   UNL A   1      48.665  26.758  31.650  1.00  0.00     0.054 A 
BRANCH  70  71
ATOM     71  S   UNL A   1      50.263  25.957  31.962  1.00  0.00     0.124 S 
ATOM     72  O   UNL A   1      50.123  25.535  33.354  1.00  0.00    -0.237 OA
ATOM     73  O   UNL A   1      50.276  24.878  30.978  1.00  0.00    -0.237 OA
ATOM     74  O   UNL A   1      51.237  27.020  31.731  1.00  0.00    -0.744 OA
ENDBRANCH  70  71
ENDBRANCH  51  65
BRANCH  52  75
ATOM     75  C   UNL A   1      37.409  32.639  29.820  1.00  0.00    -0.014 A 
ATOM     76  C   UNL A   1      37.174  33.526  28.756  1.00  0.00     0.010 A 
ATOM     77  C   UNL A   1      36.383  32.413  30.757  1.00  0.00     0.010 A 
ATOM     78  C   UNL A   1      35.950  34.195  28.646  1.00  0.00     0.020 A 
ATOM     79  C   UNL A   1      35.147  33.054  30.633  1.00  0.00     0.020 A 
ATOM     80  C   UNL A   1      34.945  33.954  29.587  1.00  0.00     0.054 A 
BRANCH  80  81
ATOM     81  S   UNL A   1      33.356  34.813  29.408  1.00  0.00     0.124 S 
ATOM     82  O   UNL A   1      32.903  34.902  30.793  1.00  0.00    -0.237 OA
ATOM     83  O   UNL A   1      33.748  36.074  28.786  1.00  0.00    -0.237 OA
ATOM     84  O   UNL A   1      32.579  33.919  28.551  1.00  0.00    -0.744 OA
ENDBRANCH  80  81
ENDBRANCH  52  75
BRANCH  64  85
ATOM     85  C   UNL A   1      43.310  34.339  33.132  1.00  0.00    -0.014 A 
ATOM     86  C   UNL A   1      43.250  34.314  34.536  1.00  0.00     0.010 A 
ATOM     87  C   UNL A   1      43.812  35.483  32.485  1.00  0.00     0.010 A 
ATOM     88  C   UNL A   1      43.660  35.424  35.278  1.00  0.00     0.020 A 
ATOM     89  C   UNL A   1      44.253  36.583  33.226  1.00  0.00     0.020 A 
ATOM     90  C   UNL A   1      44.163  36.550  34.618  1.00  0.00     0.054 A 
BRANCH  90  91
ATOM     91  S   UNL A   1      44.739  37.954  35.610  1.00  0.00     0.124 S 
ATOM     92  O   UNL A   1      44.762  39.033  34.627  1.00  0.00    -0.237 OA
ATOM     93  O   UNL A   1      43.708  38.063  36.639  1.00  0.00    -0.237 OA
ATOM     94  O   UNL A   1      46.049  37.524  36.093  1.00  0.00    -0.744 OA
ENDBRANCH  90  91
ENDBRANCH  64  85
ENDBRANCH  38  39
ENDBRANCH  31  33
ENDBRANCH  30  31
ENDBRANCH  29  30
ENDBRANCH  28  29
ENDBRANCH   1  28
TORSDOF 20
ENDMDL
MODEL 3
REMARK VINA RESULT:     -11.3      2.309      8.693
REMARK SMILES Cc1ccnc(C(=O)c2[nH]c3cc(F)ccc3c2CC(=O)OCCOCCOC(=O)c2ccc(-c3c4nc(c(-c5ccc(S(=O)(=O)[O-])cc5)c5ccc([nH]5)c(-c5ccc(S(=O)(=O)[O-])cc5)c5nc(c(-c6ccc(S(=O)(=O)[O-])cc6)c6ccc3[nH]6)C=C5)C=C4)cc2)c1
REMARK SMILES IDX 25 1 24 2 23 3 22 4 20 5 21 6 19 7 18 8 9 9 10 10 11 11
REMARK SMILES IDX 17 13 12 14 16 15 13 16 15 17 14 18 7 19 8 20 6 21 1 22 2 23
REMARK SMILES IDX 3 24 91 25 4 26 5 27 26 28 27 29 28 30 29 31 30 32 31 33
REMARK SMILES IDX 32 34 90 35 33 36 89 37 34 38 35 39 36 40 83 41 37 42 88 43
REMARK SMILES IDX 82 44 84 45 38 46 87 47 81 48 80 49 39 51 69 52 50 53 68 54
REMARK SMILES IDX 51 55 54 56 67 57 85 58 52 59 53 60 66 62 86 63 55 64 40 65
REMARK SMILES IDX 41 66 49 67 42 68 48 69 43 70 44 71 45 72 46 73 47 74 70 75
REMARK SMILES IDX 71 76 79 77 72 78 78 79 73 80 74 81 75 82 76 83 77 84 56 85
REMARK SMILES IDX 57 86 65 87 58 88 64 89 59 90 60 91 61 92 62 93 63 94
REMARK H PARENT 10 12 84 50 54 61
REMARK Flexibility Score: inf
ROOT
ATOM      1  O   UNL A   1      36.893  23.687  25.073  1.00  0.00    -0.374 OA
ENDROOT
BRANCH   1   2
ATOM      2  C   UNL A   1      35.553  24.035  25.418  1.00  0.00     0.202 C 
BRANCH   2   3
ATOM      3  C   UNL A   1      34.696  24.766  24.377  1.00  0.00     0.261 C 
BRANCH   3   4
ATOM      4  O   UNL A   1      34.032  25.941  24.893  1.00  0.00    -0.463 OA
BRANCH   4   5
ATOM      5  C   UNL A   1      33.117  26.501  24.054  1.00  0.00     0.310 C 
ATOM      6  O   UNL A   1      33.328  26.737  22.865  1.00  0.00    -0.252 OA
BRANCH   5   7
ATOM      7  C   UNL A   1      31.816  26.924  24.699  1.00  0.00     0.161 C 
BRANCH   7   8
ATOM      8  C   UNL A   1      31.460  28.389  24.759  1.00  0.00     0.000 A 
ATOM      9  C   UNL A   1      31.738  29.292  25.791  1.00  0.00     0.093 A 
ATOM     10  N   UNL A   1      31.224  30.510  25.396  1.00  0.00    -0.351 N 
ATOM     11  C   UNL A   1      30.394  30.355  24.311  1.00  0.00     0.049 A 
ATOM     12  H   UNL A   1      31.425  31.370  25.831  1.00  0.00     0.167 HD
ATOM     13  C   UNL A   1      30.549  29.044  23.865  1.00  0.00     0.004 A 
ATOM     14  C   UNL A   1      29.517  31.262  23.701  1.00  0.00     0.066 A 
ATOM     15  C   UNL A   1      29.793  28.616  22.751  1.00  0.00     0.013 A 
ATOM     16  C   UNL A   1      28.754  30.791  22.632  1.00  0.00     0.125 A 
ATOM     17  C   UNL A   1      28.884  29.495  22.154  1.00  0.00     0.040 A 
ATOM     18  F   UNL A   1      27.858  31.609  22.064  1.00  0.00    -0.207 F 
BRANCH   9  19
ATOM     19  C   UNL A   1      32.445  29.017  27.039  1.00  0.00     0.227 C 
ATOM     20  O   UNL A   1      32.094  28.114  27.797  1.00  0.00    -0.285 OA
BRANCH  19  21
ATOM     21  C   UNL A   1      33.592  29.864  27.489  1.00  0.00     0.113 A 
ATOM     22  C   UNL A   1      37.355  29.703  27.867  1.00  0.00     0.044 C 
ATOM     23  C   UNL A   1      35.943  30.205  27.818  1.00  0.00    -0.047 A 
ATOM     24  C   UNL A   1      35.688  31.579  27.869  1.00  0.00     0.023 A 
ATOM     25  C   UNL A   1      34.871  29.328  27.617  1.00  0.00     0.036 A 
ATOM     26  C   UNL A   1      34.379  32.018  27.759  1.00  0.00     0.112 A 
ATOM     27  N   UNL A   1      33.328  31.193  27.583  1.00  0.00    -0.253 NA
ENDBRANCH  19  21
ENDBRANCH   9  19
ENDBRANCH   7   8
ENDBRANCH   5   7
ENDBRANCH   4   5
ENDBRANCH   3   4
ENDBRANCH   2   3
ENDBRANCH   1   2
BRANCH   1  28
ATOM     28  C   UNL A   1      37.732  23.229  26.129  1.00  0.00     0.202 C 
BRANCH  28  29
ATOM     29  C   UNL A   1      39.013  24.027  26.413  1.00  0.00     0.261 C 
BRANCH  29  30
ATOM     30  O   UNL A   1      38.812  25.154  27.277  1.00  0.00    -0.460 OA
BRANCH  30  31
ATOM     31  C   UNL A   1      39.796  26.086  27.221  1.00  0.00     0.338 C 
ATOM     32  O   UNL A   1      40.533  26.337  26.278  1.00  0.00    -0.246 OA
BRANCH  31  33
ATOM     33  C   UNL A   1      39.761  26.905  28.441  1.00  0.00     0.060 A 
ATOM     34  C   UNL A   1      40.639  27.994  28.520  1.00  0.00     0.016 A 
ATOM     35  C   UNL A   1      38.906  26.597  29.500  1.00  0.00     0.016 A 
ATOM     36  C   UNL A   1      40.673  28.775  29.672  1.00  0.00     0.010 A 
ATOM     37  C   UNL A   1      38.952  27.373  30.660  1.00  0.00     0.010 A 
ATOM     38  C   UNL A   1      39.846  28.454  30.756  1.00  0.00    -0.014 A 
BRANCH  38  39
ATOM     39  C   UNL A   1      39.976  29.203  32.026  1.00  0.00     0.031 A 
ATOM     40  C   UNL A   1      38.984  30.286  32.340  1.00  0.00     0.074 A 
ATOM     41  C   UNL A   1      40.968  28.903  32.883  1.00  0.00     0.049 A 
ATOM     42  N   UNL A   1      38.938  31.088  33.370  1.00  0.00    -0.248 NA
ATOM     43  C   UNL A   1      37.901  30.496  31.363  1.00  0.00     0.031 C 
ATOM     44  C   UNL A   1      41.957  27.841  32.692  1.00  0.00     0.029 A 
ATOM     45  N   UNL A   1      41.312  29.467  34.085  1.00  0.00    -0.354 N 
ATOM     46  C   UNL A   1      37.833  31.906  33.163  1.00  0.00     0.074 A 
ATOM     47  C   UNL A   1      37.246  31.516  31.900  1.00  0.00     0.031 C 
ATOM     48  C   UNL A   1      42.799  27.834  33.739  1.00  0.00     0.029 A 
ATOM     49  C   UNL A   1      42.436  28.914  34.652  1.00  0.00     0.049 A 
ATOM     50  H   UNL A   1      40.801  30.198  34.502  1.00  0.00     0.167 HD
ATOM     51  C   UNL A   1      37.356  32.893  33.958  1.00  0.00     0.031 A 
ATOM     52  C   UNL A   1      43.107  29.261  35.767  1.00  0.00     0.031 A 
ATOM     53  C   UNL A   1      37.959  33.274  35.207  1.00  0.00     0.049 A 
ATOM     54  C   UNL A   1      42.600  30.418  36.589  1.00  0.00     0.074 A 
ATOM     55  C   UNL A   1      37.538  34.237  36.107  1.00  0.00     0.029 A 
ATOM     56  N   UNL A   1      39.121  32.721  35.727  1.00  0.00    -0.354 N 
ATOM     57  N   UNL A   1      41.525  31.149  36.406  1.00  0.00    -0.248 NA
ATOM     58  C   UNL A   1      43.394  30.798  37.765  1.00  0.00     0.031 C 
ATOM     59  C   UNL A   1      38.483  34.316  37.133  1.00  0.00     0.029 A 
ATOM     60  C   UNL A   1      39.457  33.355  36.910  1.00  0.00     0.049 A 
ATOM     61  H   UNL A   1      39.631  31.987  35.315  1.00  0.00     0.167 HD
ATOM     62  C   UNL A   1      41.505  32.061  37.455  1.00  0.00     0.074 A 
ATOM     63  C   UNL A   1      42.660  31.773  38.281  1.00  0.00     0.031 C 
ATOM     64  C   UNL A   1      40.616  33.052  37.712  1.00  0.00     0.031 A 
BRANCH  51  65
ATOM     65  C   UNL A   1      36.148  33.659  33.488  1.00  0.00    -0.014 A 
ATOM     66  C   UNL A   1      36.273  34.914  32.864  1.00  0.00     0.010 A 
ATOM     67  C   UNL A   1      34.872  33.079  33.606  1.00  0.00     0.010 A 
ATOM     68  C   UNL A   1      35.141  35.581  32.385  1.00  0.00     0.020 A 
ATOM     69  C   UNL A   1      33.741  33.731  33.105  1.00  0.00     0.020 A 
ATOM     70  C   UNL A   1      33.883  34.983  32.505  1.00  0.00     0.054 A 
BRANCH  70  71
ATOM     71  S   UNL A   1      32.439  35.847  31.825  1.00  0.00     0.124 S 
ATOM     72  O   UNL A   1      31.342  35.239  32.574  1.00  0.00    -0.237 OA
ATOM     73  O   UNL A   1      32.723  37.243  32.148  1.00  0.00    -0.237 OA
ATOM     74  O   UNL A   1      32.476  35.520  30.402  1.00  0.00    -0.744 OA
ENDBRANCH  70  71
ENDBRANCH  51  65
BRANCH  52  75
ATOM     75  C   UNL A   1      44.351  28.537  36.155  1.00  0.00    -0.014 A 
ATOM     76  C   UNL A   1      44.298  27.427  37.016  1.00  0.00     0.010 A 
ATOM     77  C   UNL A   1      45.603  28.971  35.680  1.00  0.00     0.010 A 
ATOM     78  C   UNL A   1      45.474  26.782  37.416  1.00  0.00     0.020 A 
ATOM     79  C   UNL A   1      46.777  28.310  36.051  1.00  0.00     0.020 A 
ATOM     80  C   UNL A   1      46.706  27.230  36.930  1.00  0.00     0.054 A 
BRANCH  80  81
ATOM     81  S   UNL A   1      48.215  26.361  37.442  1.00  0.00     0.124 S 
ATOM     82  O   UNL A   1      47.937  26.073  38.845  1.00  0.00    -0.237 OA
ATOM     83  O   UNL A   1      48.233  25.206  36.549  1.00  0.00    -0.237 OA
ATOM     84  O   UNL A   1      49.272  27.342  37.201  1.00  0.00    -0.744 OA
ENDBRANCH  80  81
ENDBRANCH  52  75
BRANCH  64  85
ATOM     85  C   UNL A   1      40.849  33.888  38.944  1.00  0.00    -0.014 A 
ATOM     86  C   UNL A   1      41.488  35.137  38.861  1.00  0.00     0.010 A 
ATOM     87  C   UNL A   1      40.362  33.446  40.188  1.00  0.00     0.010 A 
ATOM     88  C   UNL A   1      41.661  35.918  40.006  1.00  0.00     0.020 A 
ATOM     89  C   UNL A   1      40.505  34.238  41.329  1.00  0.00     0.020 A 
ATOM     90  C   UNL A   1      41.164  35.464  41.233  1.00  0.00     0.054 A 
BRANCH  90  91
ATOM     91  S   UNL A   1      41.354  36.524  42.692  1.00  0.00     0.124 S 
ATOM     92  O   UNL A   1      42.224  37.583  42.189  1.00  0.00    -0.237 OA
ATOM     93  O   UNL A   1      39.978  36.924  42.977  1.00  0.00    -0.237 OA
ATOM     94  O   UNL A   1      41.959  35.641  43.687  1.00  0.00    -0.744 OA
ENDBRANCH  90  91
ENDBRANCH  64  85
ENDBRANCH  38  39
ENDBRANCH  31  33
ENDBRANCH  30  31
ENDBRANCH  29  30
ENDBRANCH  28  29
ENDBRANCH   1  28
TORSDOF 20
ENDMDL
