MODEL 1
REMARK VINA RESULT:     -11.6      0.000      0.000
REMARK SMILES O=C(OCCOCCOC(=O)c1ccc(-c2c3nc(c(-c4ccc(S(=O)(=O)[O-])cc4)c4ccc([nH]4)c(-c4ccc(S(=O)(=O)[O-])cc4)c4nc(c(-c5ccc(S(=O)(=O)[O-])cc5)c5ccc2[nH]5)C=C4)C=C3)cc1)C1=Cc2cc(Cl)cc(Cl)c2O[C@@H]1C(F)(F)F
REMARK SMILES IDX 7 1 6 2 5 3 4 4 3 5 2 6 1 7 72 8 73 9 83 10 74 11 82 12
REMARK SMILES IDX 75 13 81 14 76 15 79 16 77 17 78 18 80 19 84 20 85 21 86 22
REMARK SMILES IDX 87 23 8 24 9 25 10 26 11 27 12 28 13 29 71 30 14 31 70 32
REMARK SMILES IDX 15 33 16 34 17 35 64 36 18 37 69 38 63 39 65 40 19 41 68 42
REMARK SMILES IDX 62 43 61 44 20 46 50 47 31 48 49 49 32 50 35 51 48 52 66 53
REMARK SMILES IDX 33 54 34 55 47 57 67 58 36 59 21 60 22 61 30 62 23 63 29 64
REMARK SMILES IDX 24 65 25 66 26 67 27 68 28 69 51 70 52 71 60 72 53 73 59 74
REMARK SMILES IDX 54 75 55 76 56 77 57 78 58 79 37 80 38 81 46 82 39 83 45 84
REMARK SMILES IDX 40 85 41 86 42 87 43 88 44 89
REMARK H PARENT 65 45 35 56
REMARK Flexibility Score: inf
ROOT
ATOM      1  C   UNL A   1      42.297  21.816  26.011  1.00  0.00     0.202 C 
ENDROOT
BRANCH   1   2
ATOM      2  O   UNL A   1      40.994  21.276  26.273  1.00  0.00    -0.374 OA
BRANCH   2   3
ATOM      3  C   UNL A   1      39.536  21.854  26.228  1.00  0.00     0.202 C 
BRANCH   3   4
ATOM      4  C   UNL A   1      37.847  21.502  24.893  1.00  0.00     0.261 C 
BRANCH   4   5
ATOM      5  O   UNL A   1      36.348  21.724  25.217  1.00  0.00    -0.460 OA
BRANCH   5   6
ATOM      6  C   UNL A   1      35.704  22.415  24.275  1.00  0.00     0.338 C 
ATOM      7  O   UNL A   1      36.102  22.899  23.248  1.00  0.00    -0.246 OA
BRANCH   6   8
ATOM      8  C   UNL A   1      34.513  22.627  25.060  1.00  0.00     0.087 C 
ATOM      9  C   UNL A   1      34.589  23.957  25.752  1.00  0.00     0.027 C 
ATOM     10  C   UNL A   1      33.232  22.178  23.674  1.00  0.00     0.316 C 
ATOM     11  C   UNL A   1      33.558  25.388  25.279  1.00  0.00     0.020 A 
ATOM     12  O   UNL A   1      32.187  23.701  23.135  1.00  0.00    -0.474 OA
ATOM     13  C   UNL A   1      33.829  26.615  25.825  1.00  0.00     0.032 A 
ATOM     14  C   UNL A   1      32.475  25.316  23.922  1.00  0.00     0.146 A 
ATOM     15  C   UNL A   1      33.224  27.706  25.170  1.00  0.00     0.043 A 
ATOM     16  C   UNL A   1      32.068  26.448  23.276  1.00  0.00     0.085 A 
ATOM     17  Cl  UNL A   1      33.526  29.279  25.842  1.00  0.00    -0.084 Cl
ATOM     18  C   UNL A   1      32.434  27.637  23.949  1.00  0.00     0.045 A 
ATOM     19  Cl  UNL A   1      31.491  26.454  21.676  1.00  0.00    -0.080 Cl
BRANCH  10  20
ATOM     20  C   UNL A   1      32.777  20.735  24.111  1.00  0.00     0.430 C 
ATOM     21  F   UNL A   1      31.928  20.691  25.153  1.00  0.00    -0.167 F 
ATOM     22  F   UNL A   1      32.076  20.203  23.063  1.00  0.00    -0.167 F 
ATOM     23  F   UNL A   1      33.785  19.856  24.315  1.00  0.00    -0.167 F 
ENDBRANCH  10  20
ENDBRANCH   6   8
ENDBRANCH   5   6
ENDBRANCH   4   5
ENDBRANCH   3   4
ENDBRANCH   2   3
ENDBRANCH   1   2
BRANCH   1  24
ATOM     24  C   UNL A   1      42.530  23.285  25.720  1.00  0.00     0.261 C 
BRANCH  24  25
ATOM     25  O   UNL A   1      41.903  24.132  26.658  1.00  0.00    -0.460 OA
BRANCH  25  26
ATOM     26  C   UNL A   1      41.684  25.389  26.221  1.00  0.00     0.338 C 
ATOM     27  O   UNL A   1      41.658  25.787  25.073  1.00  0.00    -0.246 OA
BRANCH  26  28
ATOM     28  C   UNL A   1      41.429  26.213  27.412  1.00  0.00     0.060 A 
ATOM     29  C   UNL A   1      42.219  27.348  27.616  1.00  0.00     0.016 A 
ATOM     30  C   UNL A   1      40.370  25.899  28.276  1.00  0.00     0.016 A 
ATOM     31  C   UNL A   1      41.916  28.209  28.665  1.00  0.00     0.010 A 
ATOM     32  C   UNL A   1      40.067  26.758  29.320  1.00  0.00     0.010 A 
ATOM     33  C   UNL A   1      40.846  27.909  29.518  1.00  0.00    -0.014 A 
BRANCH  33  34
ATOM     34  C   UNL A   1      40.671  28.633  30.786  1.00  0.00     0.031 A 
ATOM     35  C   UNL A   1      39.618  29.695  30.807  1.00  0.00     0.074 A 
ATOM     36  C   UNL A   1      41.483  28.418  31.833  1.00  0.00     0.049 A 
ATOM     37  N   UNL A   1      39.334  30.559  31.739  1.00  0.00    -0.248 NA
ATOM     38  C   UNL A   1      38.786  29.809  29.593  1.00  0.00     0.031 C 
ATOM     39  C   UNL A   1      42.533  27.404  31.899  1.00  0.00     0.029 A 
ATOM     40  N   UNL A   1      41.566  29.075  33.032  1.00  0.00    -0.354 N 
ATOM     41  C   UNL A   1      38.300  31.328  31.222  1.00  0.00     0.074 A 
ATOM     42  C   UNL A   1      38.034  30.855  29.883  1.00  0.00     0.031 C 
ATOM     43  C   UNL A   1      43.174  27.521  33.076  1.00  0.00     0.029 A 
ATOM     44  C   UNL A   1      42.603  28.641  33.822  1.00  0.00     0.049 A 
ATOM     45  H   UNL A   1      40.944  29.788  33.302  1.00  0.00     0.167 HD
ATOM     46  C   UNL A   1      37.634  32.343  31.814  1.00  0.00     0.031 A 
ATOM     47  C   UNL A   1      43.053  29.123  34.998  1.00  0.00     0.031 A 
ATOM     48  C   UNL A   1      37.963  32.840  33.119  1.00  0.00     0.049 A 
ATOM     49  C   UNL A   1      42.344  30.299  35.618  1.00  0.00     0.074 A 
ATOM     50  C   UNL A   1      37.358  33.858  33.830  1.00  0.00     0.029 A 
ATOM     51  N   UNL A   1      39.013  32.370  33.897  1.00  0.00    -0.354 N 
ATOM     52  N   UNL A   1      41.325  30.984  35.151  1.00  0.00    -0.248 NA
ATOM     53  C   UNL A   1      42.833  30.761  36.923  1.00  0.00     0.031 C 
ATOM     54  C   UNL A   1      38.088  34.053  35.005  1.00  0.00     0.029 A 
ATOM     55  C   UNL A   1      39.093  33.098  35.069  1.00  0.00     0.049 A 
ATOM     56  H   UNL A   1      39.611  31.628  33.651  1.00  0.00     0.167 HD
ATOM     57  C   UNL A   1      41.026  31.934  36.123  1.00  0.00     0.074 A 
ATOM     58  C   UNL A   1      41.974  31.735  37.201  1.00  0.00     0.031 C 
ATOM     59  C   UNL A   1      40.047  32.875  36.130  1.00  0.00     0.031 A 
BRANCH  46  60
ATOM     60  C   UNL A   1      36.552  33.004  31.007  1.00  0.00    -0.014 A 
ATOM     61  C   UNL A   1      36.857  33.812  29.894  1.00  0.00     0.010 A 
ATOM     62  C   UNL A   1      35.210  32.859  31.400  1.00  0.00     0.010 A 
ATOM     63  C   UNL A   1      35.848  34.518  29.236  1.00  0.00     0.020 A 
ATOM     64  C   UNL A   1      34.194  33.533  30.720  1.00  0.00     0.020 A 
ATOM     65  C   UNL A   1      34.523  34.381  29.660  1.00  0.00     0.054 A 
BRANCH  65  66
ATOM     66  S   UNL A   1      33.236  35.328  28.806  1.00  0.00     0.124 S 
ATOM     67  O   UNL A   1      32.552  34.286  28.043  1.00  0.00    -0.237 OA
ATOM     68  O   UNL A   1      32.473  35.898  29.914  1.00  0.00    -0.237 OA
ATOM     69  O   UNL A   1      33.987  36.293  28.007  1.00  0.00    -0.744 OA
ENDBRANCH  65  66
ENDBRANCH  46  60
BRANCH  47  70
ATOM     70  C   UNL A   1      44.232  28.488  35.650  1.00  0.00    -0.014 A 
ATOM     71  C   UNL A   1      44.075  27.378  36.498  1.00  0.00     0.010 A 
ATOM     72  C   UNL A   1      45.531  28.961  35.380  1.00  0.00     0.010 A 
ATOM     73  C   UNL A   1      45.192  26.749  37.057  1.00  0.00     0.020 A 
ATOM     74  C   UNL A   1      46.651  28.318  35.916  1.00  0.00     0.020 A 
ATOM     75  C   UNL A   1      46.474  27.215  36.753  1.00  0.00     0.054 A 
BRANCH  75  76
ATOM     76  S   UNL A   1      47.909  26.319  37.412  1.00  0.00     0.124 S 
ATOM     77  O   UNL A   1      48.898  26.506  36.354  1.00  0.00    -0.237 OA
ATOM     78  O   UNL A   1      48.173  27.031  38.659  1.00  0.00    -0.237 OA
ATOM     79  O   UNL A   1      47.417  24.953  37.574  1.00  0.00    -0.744 OA
ENDBRANCH  75  76
ENDBRANCH  47  70
BRANCH  59  80
ATOM     80  C   UNL A   1      39.901  33.732  37.359  1.00  0.00    -0.014 A 
ATOM     81  C   UNL A   1      40.501  34.998  37.455  1.00  0.00     0.010 A 
ATOM     82  C   UNL A   1      39.044  33.299  38.389  1.00  0.00     0.010 A 
ATOM     83  C   UNL A   1      40.253  35.812  38.564  1.00  0.00     0.020 A 
ATOM     84  C   UNL A   1      38.767  34.121  39.481  1.00  0.00     0.020 A 
ATOM     85  C   UNL A   1      39.380  35.373  39.566  1.00  0.00     0.054 A 
BRANCH  85  86
ATOM     86  S   UNL A   1      39.007  36.483  40.950  1.00  0.00     0.124 S 
ATOM     87  O   UNL A   1      40.306  36.595  41.607  1.00  0.00    -0.237 OA
ATOM     88  O   UNL A   1      38.539  37.690  40.273  1.00  0.00    -0.237 OA
ATOM     89  O   UNL A   1      37.985  35.764  41.707  1.00  0.00    -0.744 OA
ENDBRANCH  85  86
ENDBRANCH  59  80
ENDBRANCH  33  34
ENDBRANCH  26  28
ENDBRANCH  25  26
ENDBRANCH  24  25
ENDBRANCH   1  24
TORSDOF 18
ENDMDL
MODEL 2
REMARK VINA RESULT:     -11.6      0.442      8.203
REMARK SMILES O=C(OCCOCCOC(=O)c1ccc(-c2c3nc(c(-c4ccc(S(=O)(=O)[O-])cc4)c4ccc([nH]4)c(-c4ccc(S(=O)(=O)[O-])cc4)c4nc(c(-c5ccc(S(=O)(=O)[O-])cc5)c5ccc2[nH]5)C=C4)C=C3)cc1)C1=Cc2cc(Cl)cc(Cl)c2O[C@@H]1C(F)(F)F
REMARK SMILES IDX 7 1 6 2 5 3 4 4 3 5 2 6 1 7 72 8 73 9 83 10 74 11 82 12
REMARK SMILES IDX 75 13 81 14 76 15 79 16 77 17 78 18 80 19 84 20 85 21 86 22
REMARK SMILES IDX 87 23 8 24 9 25 10 26 11 27 12 28 13 29 71 30 14 31 70 32
REMARK SMILES IDX 15 33 16 34 17 35 64 36 18 37 69 38 63 39 65 40 19 41 68 42
REMARK SMILES IDX 62 43 61 44 20 46 50 47 31 48 49 49 32 50 35 51 48 52 66 53
REMARK SMILES IDX 33 54 34 55 47 57 67 58 36 59 21 60 22 61 30 62 23 63 29 64
REMARK SMILES IDX 24 65 25 66 26 67 27 68 28 69 51 70 52 71 60 72 53 73 59 74
REMARK SMILES IDX 54 75 55 76 56 77 57 78 58 79 37 80 38 81 46 82 39 83 45 84
REMARK SMILES IDX 40 85 41 86 42 87 43 88 44 89
REMARK H PARENT 65 45 35 56
REMARK Flexibility Score: inf
ROOT
ATOM      1  C   UNL A   1      42.006  21.696  26.266  1.00  0.00     0.202 C 
ENDROOT
BRANCH   1   2
ATOM      2  O   UNL A   1      40.655  21.514  26.712  1.00  0.00    -0.374 OA
BRANCH   2   3
ATOM      3  C   UNL A   1      39.256  22.021  26.214  1.00  0.00     0.202 C 
BRANCH   3   4
ATOM      4  C   UNL A   1      37.683  21.089  25.025  1.00  0.00     0.261 C 
BRANCH   4   5
ATOM      5  O   UNL A   1      36.156  21.287  25.192  1.00  0.00    -0.460 OA
BRANCH   5   6
ATOM      6  C   UNL A   1      35.641  22.157  24.321  1.00  0.00     0.338 C 
ATOM      7  O   UNL A   1      36.149  22.731  23.393  1.00  0.00    -0.246 OA
BRANCH   6   8
ATOM      8  C   UNL A   1      34.425  22.382  25.063  1.00  0.00     0.087 C 
ATOM      9  C   UNL A   1      34.495  23.708  25.764  1.00  0.00     0.027 C 
ATOM     10  C   UNL A   1      33.189  21.957  23.630  1.00  0.00     0.316 C 
ATOM     11  C   UNL A   1      33.501  25.155  25.262  1.00  0.00     0.020 A 
ATOM     12  O   UNL A   1      32.186  23.497  23.061  1.00  0.00    -0.474 OA
ATOM     13  C   UNL A   1      33.768  26.376  25.823  1.00  0.00     0.032 A 
ATOM     14  C   UNL A   1      32.467  25.104  23.866  1.00  0.00     0.146 A 
ATOM     15  C   UNL A   1      33.202  27.478  25.153  1.00  0.00     0.043 A 
ATOM     16  C   UNL A   1      32.099  26.245  23.211  1.00  0.00     0.085 A 
ATOM     17  Cl  UNL A   1      33.501  29.043  25.843  1.00  0.00    -0.084 Cl
ATOM     18  C   UNL A   1      32.456  27.425  23.903  1.00  0.00     0.045 A 
ATOM     19  Cl  UNL A   1      31.580  26.266  21.591  1.00  0.00    -0.080 Cl
BRANCH  10  20
ATOM     20  C   UNL A   1      32.700  20.518  24.042  1.00  0.00     0.430 C 
ATOM     21  F   UNL A   1      31.842  20.478  25.078  1.00  0.00    -0.167 F 
ATOM     22  F   UNL A   1      31.994  20.017  22.982  1.00  0.00    -0.167 F 
ATOM     23  F   UNL A   1      33.687  19.615  24.240  1.00  0.00    -0.167 F 
ENDBRANCH  10  20
ENDBRANCH   6   8
ENDBRANCH   5   6
ENDBRANCH   4   5
ENDBRANCH   3   4
ENDBRANCH   2   3
ENDBRANCH   1   2
BRANCH   1  24
ATOM     24  C   UNL A   1      42.604  23.064  26.003  1.00  0.00     0.261 C 
BRANCH  24  25
ATOM     25  O   UNL A   1      42.146  24.041  26.912  1.00  0.00    -0.460 OA
BRANCH  25  26
ATOM     26  C   UNL A   1      41.900  25.248  26.362  1.00  0.00     0.338 C 
ATOM     27  O   UNL A   1      41.795  25.524  25.183  1.00  0.00    -0.246 OA
BRANCH  26  28
ATOM     28  C   UNL A   1      41.730  26.194  27.475  1.00  0.00     0.060 A 
ATOM     29  C   UNL A   1      40.679  25.984  28.371  1.00  0.00     0.016 A 
ATOM     30  C   UNL A   1      42.649  27.237  27.663  1.00  0.00     0.016 A 
ATOM     31  C   UNL A   1      40.573  26.791  29.499  1.00  0.00     0.010 A 
ATOM     32  C   UNL A   1      42.545  28.040  28.787  1.00  0.00     0.010 A 
ATOM     33  C   UNL A   1      41.502  27.821  29.700  1.00  0.00    -0.014 A 
BRANCH  33  34
ATOM     34  C   UNL A   1      41.263  28.858  30.715  1.00  0.00     0.031 A 
ATOM     35  C   UNL A   1      42.079  28.766  31.966  1.00  0.00     0.074 A 
ATOM     36  C   UNL A   1      40.294  29.775  30.566  1.00  0.00     0.049 A 
ATOM     37  N   UNL A   1      41.993  29.466  33.061  1.00  0.00    -0.248 NA
ATOM     38  C   UNL A   1      43.121  27.722  31.986  1.00  0.00     0.031 C 
ATOM     39  C   UNL A   1      39.454  29.937  29.381  1.00  0.00     0.029 A 
ATOM     40  N   UNL A   1      39.836  30.723  31.442  1.00  0.00    -0.354 N 
ATOM     41  C   UNL A   1      42.960  28.939  33.907  1.00  0.00     0.074 A 
ATOM     42  C   UNL A   1      43.592  27.840  33.215  1.00  0.00     0.031 C 
ATOM     43  C   UNL A   1      38.562  30.916  29.614  1.00  0.00     0.029 A 
ATOM     44  C   UNL A   1      38.747  31.417  30.974  1.00  0.00     0.049 A 
ATOM     45  H   UNL A   1      40.247  30.890  32.321  1.00  0.00     0.167 HD
ATOM     46  C   UNL A   1      43.288  29.338  35.155  1.00  0.00     0.031 A 
ATOM     47  C   UNL A   1      37.972  32.329  31.596  1.00  0.00     0.031 A 
ATOM     48  C   UNL A   1      42.599  30.389  35.848  1.00  0.00     0.049 A 
ATOM     49  C   UNL A   1      38.307  32.718  33.013  1.00  0.00     0.074 A 
ATOM     50  C   UNL A   1      42.843  30.889  37.112  1.00  0.00     0.029 A 
ATOM     51  N   UNL A   1      41.507  31.080  35.342  1.00  0.00    -0.354 N 
ATOM     52  N   UNL A   1      39.264  32.260  33.788  1.00  0.00    -0.248 NA
ATOM     53  C   UNL A   1      37.470  33.752  33.637  1.00  0.00     0.031 C 
ATOM     54  C   UNL A   1      41.851  31.831  37.399  1.00  0.00     0.029 A 
ATOM     55  C   UNL A   1      41.044  31.982  36.280  1.00  0.00     0.049 A 
ATOM     56  H   UNL A   1      41.119  30.946  34.446  1.00  0.00     0.167 HD
ATOM     57  C   UNL A   1      39.168  32.976  34.978  1.00  0.00     0.074 A 
ATOM     58  C   UNL A   1      38.059  33.895  34.818  1.00  0.00     0.031 C 
ATOM     59  C   UNL A   1      39.937  32.891  36.093  1.00  0.00     0.031 A 
BRANCH  46  60
ATOM     60  C   UNL A   1      44.384  28.573  35.844  1.00  0.00    -0.014 A 
ATOM     61  C   UNL A   1      44.101  27.455  36.653  1.00  0.00     0.010 A 
ATOM     62  C   UNL A   1      45.714  29.012  35.723  1.00  0.00     0.010 A 
ATOM     63  C   UNL A   1      45.118  26.838  37.384  1.00  0.00     0.020 A 
ATOM     64  C   UNL A   1      46.740  28.372  36.422  1.00  0.00     0.020 A 
ATOM     65  C   UNL A   1      46.430  27.306  37.271  1.00  0.00     0.054 A 
BRANCH  65  66
ATOM     66  S   UNL A   1      47.726  26.504  38.250  1.00  0.00     0.124 S 
ATOM     67  O   UNL A   1      47.003  25.379  38.840  1.00  0.00    -0.237 OA
ATOM     68  O   UNL A   1      48.717  26.151  37.237  1.00  0.00    -0.237 OA
ATOM     69  O   UNL A   1      48.141  27.539  39.192  1.00  0.00    -0.744 OA
ENDBRANCH  65  66
ENDBRANCH  46  60
BRANCH  47  70
ATOM     70  C   UNL A   1      36.813  32.923  30.875  1.00  0.00    -0.014 A 
ATOM     71  C   UNL A   1      35.494  32.605  31.247  1.00  0.00     0.010 A 
ATOM     72  C   UNL A   1      37.023  33.857  29.843  1.00  0.00     0.010 A 
ATOM     73  C   UNL A   1      34.410  33.214  30.606  1.00  0.00     0.020 A 
ATOM     74  C   UNL A   1      35.942  34.488  29.219  1.00  0.00     0.020 A 
ATOM     75  C   UNL A   1      34.641  34.162  29.605  1.00  0.00     0.054 A 
BRANCH  75  76
ATOM     76  S   UNL A   1      33.219  35.009  28.860  1.00  0.00     0.124 S 
ATOM     77  O   UNL A   1      33.841  36.192  28.272  1.00  0.00    -0.237 OA
ATOM     78  O   UNL A   1      32.727  34.015  27.910  1.00  0.00    -0.237 OA
ATOM     79  O   UNL A   1      32.337  35.265  29.996  1.00  0.00    -0.744 OA
ENDBRANCH  75  76
ENDBRANCH  47  70
BRANCH  59  80
ATOM     80  C   UNL A   1      39.656  33.851  37.218  1.00  0.00    -0.014 A 
ATOM     81  C   UNL A   1      38.837  33.501  38.304  1.00  0.00     0.010 A 
ATOM     82  C   UNL A   1      40.327  35.089  37.236  1.00  0.00     0.010 A 
ATOM     83  C   UNL A   1      38.688  34.375  39.384  1.00  0.00     0.020 A 
ATOM     84  C   UNL A   1      40.208  35.951  38.327  1.00  0.00     0.020 A 
ATOM     85  C   UNL A   1      39.382  35.591  39.393  1.00  0.00     0.054 A 
BRANCH  85  86
ATOM     86  S   UNL A   1      39.239  36.668  40.845  1.00  0.00     0.124 S 
ATOM     87  O   UNL A   1      38.560  37.836  40.290  1.00  0.00    -0.237 OA
ATOM     88  O   UNL A   1      38.445  35.857  41.765  1.00  0.00    -0.237 OA
ATOM     89  O   UNL A   1      40.625  36.888  41.253  1.00  0.00    -0.744 OA
ENDBRANCH  85  86
ENDBRANCH  59  80
ENDBRANCH  33  34
ENDBRANCH  26  28
ENDBRANCH  25  26
ENDBRANCH  24  25
ENDBRANCH   1  24
TORSDOF 18
ENDMDL
MODEL 3
REMARK VINA RESULT:     -11.5      5.935     12.210
REMARK SMILES O=C(OCCOCCOC(=O)c1ccc(-c2c3nc(c(-c4ccc(S(=O)(=O)[O-])cc4)c4ccc([nH]4)c(-c4ccc(S(=O)(=O)[O-])cc4)c4nc(c(-c5ccc(S(=O)(=O)[O-])cc5)c5ccc2[nH]5)C=C4)C=C3)cc1)C1=Cc2cc(Cl)cc(Cl)c2O[C@@H]1C(F)(F)F
REMARK SMILES IDX 7 1 6 2 5 3 4 4 3 5 2 6 1 7 72 8 73 9 83 10 74 11 82 12
REMARK SMILES IDX 75 13 81 14 76 15 79 16 77 17 78 18 80 19 84 20 85 21 86 22
REMARK SMILES IDX 87 23 8 24 9 25 10 26 11 27 12 28 13 29 71 30 14 31 70 32
REMARK SMILES IDX 15 33 16 34 17 35 64 36 18 37 69 38 63 39 65 40 19 41 68 42
REMARK SMILES IDX 62 43 61 44 20 46 50 47 31 48 49 49 32 50 35 51 48 52 66 53
REMARK SMILES IDX 33 54 34 55 47 57 67 58 36 59 21 60 22 61 30 62 23 63 29 64
REMARK SMILES IDX 24 65 25 66 26 67 27 68 28 69 51 70 52 71 60 72 53 73 59 74
REMARK SMILES IDX 54 75 55 76 56 77 57 78 58 79 37 80 38 81 46 82 39 83 45 84
REMARK SMILES IDX 40 85 41 86 42 87 43 88 44 89
REMARK H PARENT 65 45 35 56
REMARK Flexibility Score: inf
ROOT
ATOM      1  C   UNL A   1      34.126  34.210  29.383  1.00  0.00     0.202 C 
ENDROOT
BRANCH   1   2
ATOM      2  O   UNL A   1      33.998  33.800  30.752  1.00  0.00    -0.374 OA
BRANCH   2   3
ATOM      3  C   UNL A   1      34.684  32.702  31.639  1.00  0.00     0.202 C 
BRANCH   3   4
ATOM      4  C   UNL A   1      36.446  32.727  32.924  1.00  0.00     0.261 C 
BRANCH   4   5
ATOM      5  O   UNL A   1      37.836  32.125  32.601  1.00  0.00    -0.460 OA
BRANCH   5   6
ATOM      6  C   UNL A   1      38.810  32.607  33.375  1.00  0.00     0.338 C 
ATOM      7  O   UNL A   1      39.615  33.477  33.170  1.00  0.00    -0.246 OA
BRANCH   6   8
ATOM      8  C   UNL A   1      38.744  31.543  34.346  1.00  0.00     0.087 C 
ATOM      9  C   UNL A   1      39.297  30.279  33.754  1.00  0.00     0.027 C 
ATOM     10  C   UNL A   1      39.551  32.514  35.818  1.00  0.00     0.316 C 
ATOM     11  C   UNL A   1      40.894  29.554  34.263  1.00  0.00     0.020 A 
ATOM     12  O   UNL A   1      41.261  31.786  36.313  1.00  0.00    -0.474 OA
ATOM     13  C   UNL A   1      41.417  28.516  33.537  1.00  0.00     0.032 A 
ATOM     14  C   UNL A   1      41.923  30.347  35.417  1.00  0.00     0.146 A 
ATOM     15  C   UNL A   1      42.778  28.243  33.781  1.00  0.00     0.043 A 
ATOM     16  C   UNL A   1      43.265  30.100  35.462  1.00  0.00     0.085 A 
ATOM     17  Cl  UNL A   1      43.476  26.923  32.896  1.00  0.00    -0.084 Cl
ATOM     18  C   UNL A   1      43.659  29.012  34.650  1.00  0.00     0.045 A 
ATOM     19  Cl  UNL A   1      44.392  31.181  36.138  1.00  0.00    -0.080 Cl
BRANCH  10  20
ATOM     20  C   UNL A   1      38.295  32.857  36.705  1.00  0.00     0.430 C 
ATOM     21  F   UNL A   1      37.672  31.798  37.251  1.00  0.00    -0.167 F 
ATOM     22  F   UNL A   1      38.745  33.589  37.770  1.00  0.00    -0.167 F 
ATOM     23  F   UNL A   1      37.382  33.661  36.113  1.00  0.00    -0.167 F 
ENDBRANCH  10  20
ENDBRANCH   6   8
ENDBRANCH   5   6
ENDBRANCH   4   5
ENDBRANCH   3   4
ENDBRANCH   2   3
ENDBRANCH   1   2
BRANCH   1  24
ATOM     24  C   UNL A   1      33.934  33.254  28.222  1.00  0.00     0.261 C 
BRANCH  24  25
ATOM     25  O   UNL A   1      35.083  32.477  27.962  1.00  0.00    -0.460 OA
BRANCH  25  26
ATOM     26  C   UNL A   1      34.878  31.144  27.992  1.00  0.00     0.338 C 
ATOM     27  O   UNL A   1      33.851  30.541  27.748  1.00  0.00    -0.246 OA
BRANCH  26  28
ATOM     28  C   UNL A   1      36.166  30.524  28.337  1.00  0.00     0.060 A 
ATOM     29  C   UNL A   1      36.340  30.034  29.633  1.00  0.00     0.016 A 
ATOM     30  C   UNL A   1      37.161  30.370  27.360  1.00  0.00     0.016 A 
ATOM     31  C   UNL A   1      37.501  29.334  29.947  1.00  0.00     0.010 A 
ATOM     32  C   UNL A   1      38.315  29.671  27.672  1.00  0.00     0.010 A 
ATOM     33  C   UNL A   1      38.488  29.160  28.967  1.00  0.00    -0.014 A 
BRANCH  33  34
ATOM     34  C   UNL A   1      39.829  28.679  29.331  1.00  0.00     0.031 A 
ATOM     35  C   UNL A   1      40.745  29.676  29.966  1.00  0.00     0.074 A 
ATOM     36  C   UNL A   1      40.237  27.439  29.017  1.00  0.00     0.049 A 
ATOM     37  N   UNL A   1      42.006  29.561  30.275  1.00  0.00    -0.248 NA
ATOM     38  C   UNL A   1      40.158  30.995  30.272  1.00  0.00     0.031 C 
ATOM     39  C   UNL A   1      39.411  26.403  28.401  1.00  0.00     0.029 A 
ATOM     40  N   UNL A   1      41.471  26.859  29.148  1.00  0.00    -0.354 N 
ATOM     41  C   UNL A   1      42.366  30.795  30.799  1.00  0.00     0.074 A 
ATOM     42  C   UNL A   1      41.207  31.653  30.731  1.00  0.00     0.031 C 
ATOM     43  C   UNL A   1      40.172  25.315  28.185  1.00  0.00     0.029 A 
ATOM     44  C   UNL A   1      41.541  25.596  28.612  1.00  0.00     0.049 A 
ATOM     45  H   UNL A   1      42.234  27.303  29.584  1.00  0.00     0.167 HD
ATOM     46  C   UNL A   1      43.565  31.177  31.292  1.00  0.00     0.031 A 
ATOM     47  C   UNL A   1      42.603  24.780  28.459  1.00  0.00     0.031 A 
ATOM     48  C   UNL A   1      44.722  30.328  31.285  1.00  0.00     0.049 A 
ATOM     49  C   UNL A   1      43.950  25.244  28.951  1.00  0.00     0.074 A 
ATOM     50  C   UNL A   1      45.989  30.598  31.762  1.00  0.00     0.029 A 
ATOM     51  N   UNL A   1      44.755  29.050  30.744  1.00  0.00    -0.354 N 
ATOM     52  N   UNL A   1      44.273  26.391  29.505  1.00  0.00    -0.248 NA
ATOM     53  C   UNL A   1      45.071  24.306  28.812  1.00  0.00     0.031 C 
ATOM     54  C   UNL A   1      46.808  29.511  31.442  1.00  0.00     0.029 A 
ATOM     55  C   UNL A   1      46.030  28.528  30.848  1.00  0.00     0.049 A 
ATOM     56  H   UNL A   1      43.984  28.584  30.346  1.00  0.00     0.167 HD
ATOM     57  C   UNL A   1      45.627  26.298  29.814  1.00  0.00     0.074 A 
ATOM     58  C   UNL A   1      46.059  24.983  29.384  1.00  0.00     0.031 C 
ATOM     59  C   UNL A   1      46.433  27.211  30.413  1.00  0.00     0.031 A 
BRANCH  46  60
ATOM     60  C   UNL A   1      43.670  32.590  31.795  1.00  0.00    -0.014 A 
ATOM     61  C   UNL A   1      44.221  33.613  30.998  1.00  0.00     0.010 A 
ATOM     62  C   UNL A   1      43.261  32.889  33.106  1.00  0.00     0.010 A 
ATOM     63  C   UNL A   1      44.426  34.888  31.529  1.00  0.00     0.020 A 
ATOM     64  C   UNL A   1      43.429  34.173  33.627  1.00  0.00     0.020 A 
ATOM     65  C   UNL A   1      44.037  35.157  32.844  1.00  0.00     0.054 A 
BRANCH  65  66
ATOM     66  S   UNL A   1      44.339  36.812  33.517  1.00  0.00     0.124 S 
ATOM     67  O   UNL A   1      45.547  37.212  32.800  1.00  0.00    -0.237 OA
ATOM     68  O   UNL A   1      43.122  37.533  33.147  1.00  0.00    -0.237 OA
ATOM     69  O   UNL A   1      44.512  36.580  34.948  1.00  0.00    -0.744 OA
ENDBRANCH  65  66
ENDBRANCH  46  60
BRANCH  47  70
ATOM     70  C   UNL A   1      42.423  23.452  27.809  1.00  0.00    -0.014 A 
ATOM     71  C   UNL A   1      42.742  23.266  26.453  1.00  0.00     0.010 A 
ATOM     72  C   UNL A   1      41.980  22.349  28.563  1.00  0.00     0.010 A 
ATOM     73  C   UNL A   1      42.629  22.002  25.865  1.00  0.00     0.020 A 
ATOM     74  C   UNL A   1      41.892  21.078  27.986  1.00  0.00     0.020 A 
ATOM     75  C   UNL A   1      42.217  20.912  26.638  1.00  0.00     0.054 A 
BRANCH  75  76
ATOM     76  S   UNL A   1      42.175  19.265  25.877  1.00  0.00     0.124 S 
ATOM     77  O   UNL A   1      40.755  19.103  25.576  1.00  0.00    -0.237 OA
ATOM     78  O   UNL A   1      43.052  19.435  24.721  1.00  0.00    -0.237 OA
ATOM     79  O   UNL A   1      42.697  18.389  26.922  1.00  0.00    -0.744 OA
ENDBRANCH  75  76
ENDBRANCH  47  70
BRANCH  59  80
ATOM     80  C   UNL A   1      47.857  26.813  30.700  1.00  0.00    -0.014 A 
ATOM     81  C   UNL A   1      48.917  27.201  29.864  1.00  0.00     0.010 A 
ATOM     82  C   UNL A   1      48.142  26.134  31.900  1.00  0.00     0.010 A 
ATOM     83  C   UNL A   1      50.236  26.909  30.220  1.00  0.00     0.020 A 
ATOM     84  C   UNL A   1      49.460  25.871  32.276  1.00  0.00     0.020 A 
ATOM     85  C   UNL A   1      50.500  26.254  31.428  1.00  0.00     0.054 A 
BRANCH  85  86
ATOM     86  S   UNL A   1      52.225  25.964  31.908  1.00  0.00     0.124 S 
ATOM     87  O   UNL A   1      52.490  27.098  32.789  1.00  0.00    -0.237 OA
ATOM     88  O   UNL A   1      52.158  24.660  32.563  1.00  0.00    -0.237 OA
ATOM     89  O   UNL A   1      52.946  25.980  30.637  1.00  0.00    -0.744 OA
ENDBRANCH  85  86
ENDBRANCH  59  80
ENDBRANCH  33  34
ENDBRANCH  26  28
ENDBRANCH  25  26
ENDBRANCH  24  25
ENDBRANCH   1  24
TORSDOF 18
ENDMDL
