MODEL 1
REMARK VINA RESULT:     -11.1      0.000      0.000
REMARK SMILES O=C(OCCOCCOC(=O)[C@@H](Cc1ccccc1)N1C(=O)/C(=C/c2ccncc2)SC1=S)c1ccc(-c2c3nc(c(-c4ccc(S(=O)(=O)[O-])cc4)c4ccc([nH]4)c(-c4ccc(S(=O)(=O)[O-])cc4)c4nc(c(-c5ccc(S(=O)(=O)[O-])cc5)c5ccc2[nH]5)C=C4)C=C3)cc1
REMARK SMILES IDX 5 1 4 2 3 3 2 4 1 5 34 6 35 7 93 8 36 9 92 10 37 11 38 12
REMARK SMILES IDX 39 13 86 14 40 15 91 16 85 17 87 18 41 19 90 20 84 21 83 22
REMARK SMILES IDX 42 24 72 25 53 26 71 27 54 28 57 29 70 30 88 31 55 32 56 33
REMARK SMILES IDX 69 35 89 36 58 37 43 38 44 39 52 40 45 41 51 42 46 43 47 44
REMARK SMILES IDX 48 45 49 46 50 47 73 48 74 49 82 50 75 51 81 52 76 53 77 54
REMARK SMILES IDX 78 55 79 56 80 57 59 58 60 59 68 60 61 61 67 62 62 63 63 64
REMARK SMILES IDX 64 65 65 66 66 67 6 68 7 69 8 70 9 71 10 72 11 73 12 74
REMARK SMILES IDX 13 75 14 76 15 77 19 78 16 79 18 80 17 81 20 82 21 83 32 84
REMARK SMILES IDX 22 85 23 86 31 87 33 88 24 89 25 90 26 91 30 92 27 93 29 94
REMARK SMILES IDX 28 95
REMARK H PARENT 87 23 57 34
REMARK Flexibility Score: inf
ROOT
ATOM      1  C   UNL A   1      37.973  20.046  24.980  1.00  0.00     0.202 C 
ENDROOT
BRANCH   1   2
ATOM      2  C   UNL A   1      39.062  20.811  25.734  1.00  0.00     0.261 C 
BRANCH   2   3
ATOM      3  O   UNL A   1      40.139  19.936  26.117  1.00  0.00    -0.460 OA
BRANCH   3   4
ATOM      4  C   UNL A   1      41.466  20.213  26.042  1.00  0.00     0.338 C 
ATOM      5  O   UNL A   1      42.248  19.345  25.663  1.00  0.00    -0.246 OA
BRANCH   4   6
ATOM      6  C   UNL A   1      42.000  21.557  26.396  1.00  0.00     0.060 A 
ATOM      7  C   UNL A   1      42.152  22.574  25.462  1.00  0.00     0.016 A 
ATOM      8  C   UNL A   1      42.312  21.842  27.729  1.00  0.00     0.016 A 
ATOM      9  C   UNL A   1      42.687  23.795  25.770  1.00  0.00     0.010 A 
ATOM     10  C   UNL A   1      42.794  23.110  28.079  1.00  0.00     0.010 A 
ATOM     11  C   UNL A   1      42.986  24.080  27.087  1.00  0.00    -0.014 A 
BRANCH  11  12
ATOM     12  C   UNL A   1      43.614  25.385  27.302  1.00  0.00     0.031 A 
ATOM     13  C   UNL A   1      42.808  26.433  27.993  1.00  0.00     0.074 A 
ATOM     14  C   UNL A   1      44.942  25.497  27.111  1.00  0.00     0.049 A 
ATOM     15  N   UNL A   1      43.129  27.663  28.269  1.00  0.00    -0.248 NA
ATOM     16  C   UNL A   1      41.464  26.037  28.459  1.00  0.00     0.031 C 
ATOM     17  C   UNL A   1      45.826  24.415  26.652  1.00  0.00     0.029 A 
ATOM     18  N   UNL A   1      45.793  26.537  27.344  1.00  0.00    -0.354 N 
ATOM     19  C   UNL A   1      42.012  28.207  28.886  1.00  0.00     0.074 A 
ATOM     20  C   UNL A   1      41.010  27.171  28.970  1.00  0.00     0.031 C 
ATOM     21  C   UNL A   1      47.097  24.842  26.677  1.00  0.00     0.029 A 
ATOM     22  C   UNL A   1      47.104  26.250  27.047  1.00  0.00     0.049 A 
ATOM     23  H   UNL A   1      45.497  27.410  27.691  1.00  0.00     0.167 HD
ATOM     24  C   UNL A   1      41.847  29.479  29.310  1.00  0.00     0.031 A 
ATOM     25  C   UNL A   1      48.175  27.064  27.024  1.00  0.00     0.031 A 
ATOM     26  C   UNL A   1      42.882  30.467  29.188  1.00  0.00     0.049 A 
ATOM     27  C   UNL A   1      47.934  28.505  27.375  1.00  0.00     0.074 A 
ATOM     28  C   UNL A   1      42.831  31.819  29.457  1.00  0.00     0.029 A 
ATOM     29  N   UNL A   1      44.176  30.186  28.760  1.00  0.00    -0.354 N 
ATOM     30  N   UNL A   1      46.829  29.067  27.813  1.00  0.00    -0.248 NA
ATOM     31  C   UNL A   1      49.058  29.427  27.202  1.00  0.00     0.031 C 
ATOM     32  C   UNL A   1      44.082  32.363  29.148  1.00  0.00     0.029 A 
ATOM     33  C   UNL A   1      44.931  31.341  28.743  1.00  0.00     0.049 A 
ATOM     34  H   UNL A   1      44.506  29.293  28.507  1.00  0.00     0.167 HD
ATOM     35  C   UNL A   1      47.125  30.412  27.974  1.00  0.00     0.074 A 
ATOM     36  C   UNL A   1      48.523  30.570  27.610  1.00  0.00     0.031 C 
ATOM     37  C   UNL A   1      46.322  31.430  28.372  1.00  0.00     0.031 A 
BRANCH  24  38
ATOM     38  C   UNL A   1      40.482  29.860  29.805  1.00  0.00    -0.014 A 
ATOM     39  C   UNL A   1      39.454  30.248  28.926  1.00  0.00     0.010 A 
ATOM     40  C   UNL A   1      40.243  29.886  31.191  1.00  0.00     0.010 A 
ATOM     41  C   UNL A   1      38.228  30.698  29.428  1.00  0.00     0.020 A 
ATOM     42  C   UNL A   1      39.013  30.312  31.696  1.00  0.00     0.020 A 
ATOM     43  C   UNL A   1      38.019  30.736  30.812  1.00  0.00     0.054 A 
BRANCH  43  44
ATOM     44  S   UNL A   1      36.427  31.336  31.441  1.00  0.00     0.124 S 
ATOM     45  O   UNL A   1      36.038  30.261  32.350  1.00  0.00    -0.237 OA
ATOM     46  O   UNL A   1      36.791  32.597  32.082  1.00  0.00    -0.237 OA
ATOM     47  O   UNL A   1      35.606  31.465  30.240  1.00  0.00    -0.744 OA
ENDBRANCH  43  44
ENDBRANCH  24  38
BRANCH  25  48
ATOM     48  C   UNL A   1      49.498  26.566  26.553  1.00  0.00    -0.014 A 
ATOM     49  C   UNL A   1      49.911  26.730  25.221  1.00  0.00     0.010 A 
ATOM     50  C   UNL A   1      50.367  25.916  27.455  1.00  0.00     0.010 A 
ATOM     51  C   UNL A   1      51.152  26.240  24.795  1.00  0.00     0.020 A 
ATOM     52  C   UNL A   1      51.620  25.454  27.043  1.00  0.00     0.020 A 
ATOM     53  C   UNL A   1      51.998  25.605  25.710  1.00  0.00     0.054 A 
BRANCH  53  54
ATOM     54  S   UNL A   1      53.614  24.997  25.146  1.00  0.00     0.124 S 
ATOM     55  O   UNL A   1      53.477  23.556  25.333  1.00  0.00    -0.237 OA
ATOM     56  O   UNL A   1      53.659  25.455  23.760  1.00  0.00    -0.237 OA
ATOM     57  O   UNL A   1      54.560  25.658  26.044  1.00  0.00    -0.744 OA
ENDBRANCH  53  54
ENDBRANCH  25  48
BRANCH  37  58
ATOM     58  C   UNL A   1      46.960  32.784  28.466  1.00  0.00    -0.014 A 
ATOM     59  C   UNL A   1      47.736  33.141  29.580  1.00  0.00     0.010 A 
ATOM     60  C   UNL A   1      46.830  33.677  27.388  1.00  0.00     0.010 A 
ATOM     61  C   UNL A   1      48.357  34.389  29.626  1.00  0.00     0.020 A 
ATOM     62  C   UNL A   1      47.473  34.913  27.419  1.00  0.00     0.020 A 
ATOM     63  C   UNL A   1      48.223  35.265  28.543  1.00  0.00     0.054 A 
BRANCH  63  64
ATOM     64  S   UNL A   1      49.089  36.855  28.597  1.00  0.00     0.124 S 
ATOM     65  O   UNL A   1      47.996  37.786  28.864  1.00  0.00    -0.237 OA
ATOM     66  O   UNL A   1      50.037  36.666  29.693  1.00  0.00    -0.237 OA
ATOM     67  O   UNL A   1      49.694  36.965  27.272  1.00  0.00    -0.744 OA
ENDBRANCH  63  64
ENDBRANCH  37  58
ENDBRANCH  11  12
ENDBRANCH   4   6
ENDBRANCH   3   4
ENDBRANCH   2   3
ENDBRANCH   1   2
BRANCH   1  68
ATOM     68  O   UNL A   1      36.758  20.732  24.701  1.00  0.00    -0.374 OA
BRANCH  68  69
ATOM     69  C   UNL A   1      36.659  22.108  25.062  1.00  0.00     0.202 C 
BRANCH  69  70
ATOM     70  C   UNL A   1      36.153  22.902  23.853  1.00  0.00     0.261 C 
BRANCH  70  71
ATOM     71  O   UNL A   1      35.140  23.841  24.263  1.00  0.00    -0.462 OA
BRANCH  71  72
ATOM     72  C   UNL A   1      34.099  24.015  23.408  1.00  0.00     0.329 C 
ATOM     73  O   UNL A   1      34.191  24.421  22.256  1.00  0.00    -0.250 OA
BRANCH  72  74
ATOM     74  C   UNL A   1      32.755  23.651  24.053  1.00  0.00     0.206 C 
BRANCH  74  75
ATOM     75  C   UNL A   1      31.546  24.025  23.129  1.00  0.00     0.073 C 
BRANCH  75  76
ATOM     76  C   UNL A   1      30.841  25.383  23.187  1.00  0.00    -0.045 A 
ATOM     77  C   UNL A   1      29.695  25.647  23.953  1.00  0.00     0.004 A 
ATOM     78  C   UNL A   1      31.370  26.457  22.445  1.00  0.00     0.004 A 
ATOM     79  C   UNL A   1      29.061  26.895  23.924  1.00  0.00     0.000 A 
ATOM     80  C   UNL A   1      30.736  27.705  22.409  1.00  0.00     0.000 A 
ATOM     81  C   UNL A   1      29.575  27.922  23.143  1.00  0.00     0.000 A 
ENDBRANCH  75  76
ENDBRANCH  74  75
BRANCH  74  82
ATOM     82  N   UNL A   1      32.848  22.273  24.565  1.00  0.00    -0.278 N 
ATOM     83  C   UNL A   1      32.687  21.186  23.745  1.00  0.00     0.267 C 
ATOM     84  C   UNL A   1      32.889  21.961  25.917  1.00  0.00     0.149 C 
ATOM     85  O   UNL A   1      32.223  21.158  22.607  1.00  0.00    -0.268 OA
ATOM     86  C   UNL A   1      33.051  19.950  24.448  1.00  0.00     0.081 C 
ATOM     87  S   UNL A   1      33.273  20.257  26.112  1.00  0.00    -0.054 SA
ATOM     88  S   UNL A   1      32.612  22.931  27.243  1.00  0.00    -0.052 S 
ATOM     89  C   UNL A   1      33.167  18.808  23.761  1.00  0.00     0.029 C 
BRANCH  89  90
ATOM     90  C   UNL A   1      33.500  17.521  24.353  1.00  0.00    -0.021 A 
ATOM     91  C   UNL A   1      34.828  17.120  24.484  1.00  0.00     0.028 A 
ATOM     92  C   UNL A   1      32.480  16.689  24.802  1.00  0.00     0.028 A 
ATOM     93  C   UNL A   1      35.080  15.878  25.028  1.00  0.00     0.111 A 
ATOM     94  C   UNL A   1      32.838  15.468  25.343  1.00  0.00     0.111 A 
ATOM     95  N   UNL A   1      34.115  15.043  25.467  1.00  0.00    -0.265 NA
ENDBRANCH  89  90
ENDBRANCH  74  82
ENDBRANCH  72  74
ENDBRANCH  71  72
ENDBRANCH  70  71
ENDBRANCH  69  70
ENDBRANCH  68  69
ENDBRANCH   1  68
TORSDOF 21
ENDMDL
MODEL 2
REMARK VINA RESULT:     -10.8      5.995      9.041
REMARK SMILES O=C(OCCOCCOC(=O)[C@@H](Cc1ccccc1)N1C(=O)/C(=C/c2ccncc2)SC1=S)c1ccc(-c2c3nc(c(-c4ccc(S(=O)(=O)[O-])cc4)c4ccc([nH]4)c(-c4ccc(S(=O)(=O)[O-])cc4)c4nc(c(-c5ccc(S(=O)(=O)[O-])cc5)c5ccc2[nH]5)C=C4)C=C3)cc1
REMARK SMILES IDX 5 1 4 2 3 3 2 4 1 5 34 6 35 7 93 8 36 9 92 10 37 11 38 12
REMARK SMILES IDX 39 13 86 14 40 15 91 16 85 17 87 18 41 19 90 20 84 21 83 22
REMARK SMILES IDX 42 24 72 25 53 26 71 27 54 28 57 29 70 30 88 31 55 32 56 33
REMARK SMILES IDX 69 35 89 36 58 37 43 38 44 39 52 40 45 41 51 42 46 43 47 44
REMARK SMILES IDX 48 45 49 46 50 47 73 48 74 49 82 50 75 51 81 52 76 53 77 54
REMARK SMILES IDX 78 55 79 56 80 57 59 58 60 59 68 60 61 61 67 62 62 63 63 64
REMARK SMILES IDX 64 65 65 66 66 67 6 68 7 69 8 70 9 71 10 72 11 73 12 74
REMARK SMILES IDX 13 75 14 76 15 77 19 78 16 79 18 80 17 81 20 82 21 83 32 84
REMARK SMILES IDX 22 85 23 86 31 87 33 88 24 89 25 90 26 91 30 92 27 93 29 94
REMARK SMILES IDX 28 95
REMARK H PARENT 87 23 57 34
REMARK Flexibility Score: inf
ROOT
ATOM      1  C   UNL A   1      40.296  21.989  27.101  1.00  0.00     0.202 C 
ENDROOT
BRANCH   1   2
ATOM      2  C   UNL A   1      41.272  23.052  26.592  1.00  0.00     0.261 C 
BRANCH   2   3
ATOM      3  O   UNL A   1      40.583  24.271  26.259  1.00  0.00    -0.460 OA
BRANCH   3   4
ATOM      4  C   UNL A   1      41.108  25.523  26.276  1.00  0.00     0.338 C 
ATOM      5  O   UNL A   1      41.747  25.927  25.309  1.00  0.00    -0.246 OA
BRANCH   4   6
ATOM      6  C   UNL A   1      40.913  26.432  27.439  1.00  0.00     0.060 A 
ATOM      7  C   UNL A   1      41.622  27.617  27.594  1.00  0.00     0.016 A 
ATOM      8  C   UNL A   1      39.940  26.123  28.395  1.00  0.00     0.016 A 
ATOM      9  C   UNL A   1      41.483  28.431  28.684  1.00  0.00     0.010 A 
ATOM     10  C   UNL A   1      39.731  26.981  29.483  1.00  0.00     0.010 A 
ATOM     11  C   UNL A   1      40.516  28.131  29.623  1.00  0.00    -0.014 A 
BRANCH  11  12
ATOM     12  C   UNL A   1      40.493  29.026  30.782  1.00  0.00     0.031 A 
ATOM     13  C   UNL A   1      39.405  30.045  30.845  1.00  0.00     0.074 A 
ATOM     14  C   UNL A   1      41.270  28.726  31.839  1.00  0.00     0.049 A 
ATOM     15  N   UNL A   1      39.193  30.960  31.746  1.00  0.00    -0.248 NA
ATOM     16  C   UNL A   1      38.407  30.019  29.759  1.00  0.00     0.031 C 
ATOM     17  C   UNL A   1      42.194  27.583  31.915  1.00  0.00     0.029 A 
ATOM     18  N   UNL A   1      41.362  29.301  33.073  1.00  0.00    -0.354 N 
ATOM     19  C   UNL A   1      38.075  31.655  31.308  1.00  0.00     0.074 A 
ATOM     20  C   UNL A   1      37.634  31.046  30.076  1.00  0.00     0.031 C 
ATOM     21  C   UNL A   1      42.725  27.525  33.144  1.00  0.00     0.029 A 
ATOM     22  C   UNL A   1      42.265  28.679  33.902  1.00  0.00     0.049 A 
ATOM     23  H   UNL A   1      40.833  30.087  33.343  1.00  0.00     0.167 HD
ATOM     24  C   UNL A   1      37.500  32.732  31.888  1.00  0.00     0.031 A 
ATOM     25  C   UNL A   1      42.706  29.049  35.118  1.00  0.00     0.031 A 
ATOM     26  C   UNL A   1      37.994  33.298  33.112  1.00  0.00     0.049 A 
ATOM     27  C   UNL A   1      42.143  30.324  35.680  1.00  0.00     0.074 A 
ATOM     28  C   UNL A   1      37.601  34.451  33.758  1.00  0.00     0.029 A 
ATOM     29  N   UNL A   1      39.004  32.724  33.879  1.00  0.00    -0.354 N 
ATOM     30  N   UNL A   1      41.186  31.081  35.192  1.00  0.00    -0.248 NA
ATOM     31  C   UNL A   1      42.731  30.814  36.929  1.00  0.00     0.031 C 
ATOM     32  C   UNL A   1      38.405  34.598  34.894  1.00  0.00     0.029 A 
ATOM     33  C   UNL A   1      39.258  33.506  34.988  1.00  0.00     0.049 A 
ATOM     34  H   UNL A   1      39.468  31.883  33.664  1.00  0.00     0.167 HD
ATOM     35  C   UNL A   1      41.051  32.140  36.077  1.00  0.00     0.074 A 
ATOM     36  C   UNL A   1      42.010  31.906  37.144  1.00  0.00     0.031 C 
ATOM     37  C   UNL A   1      40.226  33.215  36.017  1.00  0.00     0.031 A 
BRANCH  24  38
ATOM     38  C   UNL A   1      36.389  33.401  31.131  1.00  0.00    -0.014 A 
ATOM     39  C   UNL A   1      36.576  33.912  29.834  1.00  0.00     0.010 A 
ATOM     40  C   UNL A   1      35.144  33.573  31.761  1.00  0.00     0.010 A 
ATOM     41  C   UNL A   1      35.550  34.622  29.200  1.00  0.00     0.020 A 
ATOM     42  C   UNL A   1      34.109  34.261  31.123  1.00  0.00     0.020 A 
ATOM     43  C   UNL A   1      34.325  34.800  29.854  1.00  0.00     0.054 A 
BRANCH  43  44
ATOM     44  S   UNL A   1      33.015  35.736  29.020  1.00  0.00     0.124 S 
ATOM     45  O   UNL A   1      32.372  34.701  28.214  1.00  0.00    -0.237 OA
ATOM     46  O   UNL A   1      32.222  36.243  30.136  1.00  0.00    -0.237 OA
ATOM     47  O   UNL A   1      33.742  36.752  28.264  1.00  0.00    -0.744 OA
ENDBRANCH  43  44
ENDBRANCH  24  38
BRANCH  25  48
ATOM     48  C   UNL A   1      43.788  28.283  35.799  1.00  0.00    -0.014 A 
ATOM     49  C   UNL A   1      43.494  27.256  36.712  1.00  0.00     0.010 A 
ATOM     50  C   UNL A   1      45.139  28.582  35.530  1.00  0.00     0.010 A 
ATOM     51  C   UNL A   1      44.526  26.560  37.353  1.00  0.00     0.020 A 
ATOM     52  C   UNL A   1      46.173  27.869  36.142  1.00  0.00     0.020 A 
ATOM     53  C   UNL A   1      45.859  26.871  37.065  1.00  0.00     0.054 A 
BRANCH  53  54
ATOM     54  S   UNL A   1      47.184  25.941  37.887  1.00  0.00     0.124 S 
ATOM     55  O   UNL A   1      46.524  25.494  39.111  1.00  0.00    -0.237 OA
ATOM     56  O   UNL A   1      47.489  24.896  36.914  1.00  0.00    -0.237 OA
ATOM     57  O   UNL A   1      48.237  26.937  38.072  1.00  0.00    -0.744 OA
ENDBRANCH  53  54
ENDBRANCH  25  48
BRANCH  37  58
ATOM     58  C   UNL A   1      40.308  34.184  37.158  1.00  0.00    -0.014 A 
ATOM     59  C   UNL A   1      41.200  35.269  37.122  1.00  0.00     0.010 A 
ATOM     60  C   UNL A   1      39.429  34.037  38.245  1.00  0.00     0.010 A 
ATOM     61  C   UNL A   1      41.227  36.183  38.174  1.00  0.00     0.020 A 
ATOM     62  C   UNL A   1      39.435  34.966  39.283  1.00  0.00     0.020 A 
ATOM     63  C   UNL A   1      40.342  36.027  39.246  1.00  0.00     0.054 A 
BRANCH  63  64
ATOM     64  S   UNL A   1      40.353  37.262  40.571  1.00  0.00     0.124 S 
ATOM     65  O   UNL A   1      40.821  38.454  39.869  1.00  0.00    -0.237 OA
ATOM     66  O   UNL A   1      38.955  37.289  40.994  1.00  0.00    -0.237 OA
ATOM     67  O   UNL A   1      41.283  36.709  41.552  1.00  0.00    -0.744 OA
ENDBRANCH  63  64
ENDBRANCH  37  58
ENDBRANCH  11  12
ENDBRANCH   4   6
ENDBRANCH   3   4
ENDBRANCH   2   3
ENDBRANCH   1   2
BRANCH   1  68
ATOM     68  O   UNL A   1      39.372  21.442  26.166  1.00  0.00    -0.374 OA
BRANCH  68  69
ATOM     69  C   UNL A   1      38.274  22.249  25.749  1.00  0.00     0.202 C 
BRANCH  69  70
ATOM     70  C   UNL A   1      37.220  21.350  25.093  1.00  0.00     0.261 C 
BRANCH  70  71
ATOM     71  O   UNL A   1      36.098  22.138  24.652  1.00  0.00    -0.462 OA
BRANCH  71  72
ATOM     72  C   UNL A   1      34.981  22.080  25.422  1.00  0.00     0.329 C 
ATOM     73  O   UNL A   1      34.968  22.051  26.646  1.00  0.00    -0.250 OA
BRANCH  72  74
ATOM     74  C   UNL A   1      33.699  22.044  24.580  1.00  0.00     0.206 C 
BRANCH  74  75
ATOM     75  C   UNL A   1      32.868  20.741  24.839  1.00  0.00     0.073 C 
BRANCH  75  76
ATOM     76  C   UNL A   1      33.264  19.373  24.277  1.00  0.00    -0.045 A 
ATOM     77  C   UNL A   1      34.389  18.644  24.694  1.00  0.00     0.004 A 
ATOM     78  C   UNL A   1      32.452  18.781  23.290  1.00  0.00     0.004 A 
ATOM     79  C   UNL A   1      34.733  17.422  24.103  1.00  0.00     0.000 A 
ATOM     80  C   UNL A   1      32.797  17.562  22.694  1.00  0.00     0.000 A 
ATOM     81  C   UNL A   1      33.943  16.885  23.095  1.00  0.00     0.000 A 
ENDBRANCH  75  76
ENDBRANCH  74  75
BRANCH  74  82
ATOM     82  N   UNL A   1      33.024  23.346  24.713  1.00  0.00    -0.278 N 
ATOM     83  C   UNL A   1      33.346  24.411  23.912  1.00  0.00     0.267 C 
ATOM     84  C   UNL A   1      32.184  23.667  25.770  1.00  0.00     0.149 C 
ATOM     85  O   UNL A   1      34.332  24.545  23.190  1.00  0.00    -0.268 OA
ATOM     86  C   UNL A   1      32.382  25.503  24.091  1.00  0.00     0.081 C 
ATOM     87  S   UNL A   1      31.371  25.188  25.429  1.00  0.00    -0.054 SA
ATOM     88  S   UNL A   1      31.913  22.857  27.200  1.00  0.00    -0.052 S 
ATOM     89  C   UNL A   1      32.394  26.542  23.249  1.00  0.00     0.029 C 
BRANCH  89  90
ATOM     90  C   UNL A   1      31.504  27.689  23.343  1.00  0.00    -0.021 A 
ATOM     91  C   UNL A   1      31.739  28.698  24.275  1.00  0.00     0.028 A 
ATOM     92  C   UNL A   1      30.414  27.783  22.483  1.00  0.00     0.028 A 
ATOM     93  C   UNL A   1      30.845  29.747  24.334  1.00  0.00     0.111 A 
ATOM     94  C   UNL A   1      29.584  28.881  22.615  1.00  0.00     0.111 A 
ATOM     95  N   UNL A   1      29.774  29.865  23.520  1.00  0.00    -0.265 NA
ENDBRANCH  89  90
ENDBRANCH  74  82
ENDBRANCH  72  74
ENDBRANCH  71  72
ENDBRANCH  70  71
ENDBRANCH  69  70
ENDBRANCH  68  69
ENDBRANCH   1  68
TORSDOF 21
ENDMDL
MODEL 3
REMARK VINA RESULT:     -10.8      6.145     12.146
REMARK SMILES O=C(OCCOCCOC(=O)[C@@H](Cc1ccccc1)N1C(=O)/C(=C/c2ccncc2)SC1=S)c1ccc(-c2c3nc(c(-c4ccc(S(=O)(=O)[O-])cc4)c4ccc([nH]4)c(-c4ccc(S(=O)(=O)[O-])cc4)c4nc(c(-c5ccc(S(=O)(=O)[O-])cc5)c5ccc2[nH]5)C=C4)C=C3)cc1
REMARK SMILES IDX 5 1 4 2 3 3 2 4 1 5 34 6 35 7 93 8 36 9 92 10 37 11 38 12
REMARK SMILES IDX 39 13 86 14 40 15 91 16 85 17 87 18 41 19 90 20 84 21 83 22
REMARK SMILES IDX 42 24 72 25 53 26 71 27 54 28 57 29 70 30 88 31 55 32 56 33
REMARK SMILES IDX 69 35 89 36 58 37 43 38 44 39 52 40 45 41 51 42 46 43 47 44
REMARK SMILES IDX 48 45 49 46 50 47 73 48 74 49 82 50 75 51 81 52 76 53 77 54
REMARK SMILES IDX 78 55 79 56 80 57 59 58 60 59 68 60 61 61 67 62 62 63 63 64
REMARK SMILES IDX 64 65 65 66 66 67 6 68 7 69 8 70 9 71 10 72 11 73 12 74
REMARK SMILES IDX 13 75 14 76 15 77 19 78 16 79 18 80 17 81 20 82 21 83 32 84
REMARK SMILES IDX 22 85 23 86 31 87 33 88 24 89 25 90 26 91 30 92 27 93 29 94
REMARK SMILES IDX 28 95
REMARK H PARENT 87 23 57 34
REMARK Flexibility Score: inf
ROOT
ATOM      1  C   UNL A   1      33.043  30.877  26.998  1.00  0.00     0.202 C 
ENDROOT
BRANCH   1   2
ATOM      2  C   UNL A   1      32.366  32.229  27.231  1.00  0.00     0.261 C 
BRANCH   2   3
ATOM      3  O   UNL A   1      33.338  33.288  27.313  1.00  0.00    -0.460 OA
BRANCH   3   4
ATOM      4  C   UNL A   1      33.689  33.974  28.430  1.00  0.00     0.338 C 
ATOM      5  O   UNL A   1      33.122  35.029  28.699  1.00  0.00    -0.246 OA
BRANCH   4   6
ATOM      6  C   UNL A   1      34.742  33.468  29.353  1.00  0.00     0.060 A 
ATOM      7  C   UNL A   1      36.051  33.934  29.326  1.00  0.00     0.016 A 
ATOM      8  C   UNL A   1      34.404  32.528  30.331  1.00  0.00     0.016 A 
ATOM      9  C   UNL A   1      37.035  33.440  30.139  1.00  0.00     0.010 A 
ATOM     10  C   UNL A   1      35.380  32.060  31.221  1.00  0.00     0.010 A 
ATOM     11  C   UNL A   1      36.699  32.518  31.109  1.00  0.00    -0.014 A 
BRANCH  11  12
ATOM     12  C   UNL A   1      37.832  32.003  31.880  1.00  0.00     0.031 A 
ATOM     13  C   UNL A   1      38.703  30.982  31.229  1.00  0.00     0.074 A 
ATOM     14  C   UNL A   1      38.186  32.648  33.008  1.00  0.00     0.049 A 
ATOM     15  N   UNL A   1      39.739  30.361  31.714  1.00  0.00    -0.248 NA
ATOM     16  C   UNL A   1      38.380  30.626  29.834  1.00  0.00     0.031 C 
ATOM     17  C   UNL A   1      37.492  33.818  33.569  1.00  0.00     0.029 A 
ATOM     18  N   UNL A   1      39.248  32.468  33.845  1.00  0.00    -0.354 N 
ATOM     19  C   UNL A   1      40.156  29.500  30.709  1.00  0.00     0.074 A 
ATOM     20  C   UNL A   1      39.282  29.692  29.577  1.00  0.00     0.031 C 
ATOM     21  C   UNL A   1      38.173  34.267  34.632  1.00  0.00     0.029 A 
ATOM     22  C   UNL A   1      39.281  33.361  34.889  1.00  0.00     0.049 A 
ATOM     23  H   UNL A   1      39.926  31.765  33.714  1.00  0.00     0.167 HD
ATOM     24  C   UNL A   1      41.169  28.608  30.763  1.00  0.00     0.031 A 
ATOM     25  C   UNL A   1      40.091  33.392  35.963  1.00  0.00     0.031 A 
ATOM     26  C   UNL A   1      41.998  28.458  31.926  1.00  0.00     0.049 A 
ATOM     27  C   UNL A   1      41.126  32.307  36.059  1.00  0.00     0.074 A 
ATOM     28  C   UNL A   1      42.980  27.524  32.180  1.00  0.00     0.029 A 
ATOM     29  N   UNL A   1      41.932  29.294  33.037  1.00  0.00    -0.354 N 
ATOM     30  N   UNL A   1      41.426  31.381  35.175  1.00  0.00    -0.248 NA
ATOM     31  C   UNL A   1      41.906  32.242  37.297  1.00  0.00     0.031 C 
ATOM     32  C   UNL A   1      43.477  27.767  33.466  1.00  0.00     0.029 A 
ATOM     33  C   UNL A   1      42.846  28.889  33.988  1.00  0.00     0.049 A 
ATOM     34  H   UNL A   1      41.323  30.061  33.131  1.00  0.00     0.167 HD
ATOM     35  C   UNL A   1      42.436  30.623  35.747  1.00  0.00     0.074 A 
ATOM     36  C   UNL A   1      42.712  31.219  37.043  1.00  0.00     0.031 C 
ATOM     37  C   UNL A   1      43.074  29.529  35.261  1.00  0.00     0.031 A 
BRANCH  24  38
ATOM     38  C   UNL A   1      41.320  27.679  29.592  1.00  0.00    -0.014 A 
ATOM     39  C   UNL A   1      40.290  26.805  29.199  1.00  0.00     0.010 A 
ATOM     40  C   UNL A   1      42.549  27.640  28.908  1.00  0.00     0.010 A 
ATOM     41  C   UNL A   1      40.503  25.879  28.172  1.00  0.00     0.020 A 
ATOM     42  C   UNL A   1      42.758  26.734  27.867  1.00  0.00     0.020 A 
ATOM     43  C   UNL A   1      41.741  25.844  27.518  1.00  0.00     0.054 A 
BRANCH  43  44
ATOM     44  S   UNL A   1      41.999  24.626  26.199  1.00  0.00     0.124 S 
ATOM     45  O   UNL A   1      41.788  25.432  25.000  1.00  0.00    -0.237 OA
ATOM     46  O   UNL A   1      43.375  24.192  26.429  1.00  0.00    -0.237 OA
ATOM     47  O   UNL A   1      40.979  23.613  26.457  1.00  0.00    -0.744 OA
ENDBRANCH  43  44
ENDBRANCH  24  38
BRANCH  25  48
ATOM     48  C   UNL A   1      39.876  34.390  37.049  1.00  0.00    -0.014 A 
ATOM     49  C   UNL A   1      39.002  34.131  38.118  1.00  0.00     0.010 A 
ATOM     50  C   UNL A   1      40.559  35.623  37.017  1.00  0.00     0.010 A 
ATOM     51  C   UNL A   1      38.801  35.090  39.119  1.00  0.00     0.020 A 
ATOM     52  C   UNL A   1      40.387  36.570  38.031  1.00  0.00     0.020 A 
ATOM     53  C   UNL A   1      39.495  36.303  39.068  1.00  0.00     0.054 A 
BRANCH  53  54
ATOM     54  S   UNL A   1      39.241  37.524  40.388  1.00  0.00     0.124 S 
ATOM     55  O   UNL A   1      38.156  38.336  39.845  1.00  0.00    -0.237 OA
ATOM     56  O   UNL A   1      38.894  36.686  41.533  1.00  0.00    -0.237 OA
ATOM     57  O   UNL A   1      40.536  38.195  40.488  1.00  0.00    -0.744 OA
ENDBRANCH  53  54
ENDBRANCH  25  48
BRANCH  37  58
ATOM     58  C   UNL A   1      44.150  28.945  36.126  1.00  0.00    -0.014 A 
ATOM     59  C   UNL A   1      43.883  27.862  36.979  1.00  0.00     0.010 A 
ATOM     60  C   UNL A   1      45.458  29.449  36.026  1.00  0.00     0.010 A 
ATOM     61  C   UNL A   1      44.909  27.305  37.741  1.00  0.00     0.020 A 
ATOM     62  C   UNL A   1      46.491  28.877  36.764  1.00  0.00     0.020 A 
ATOM     63  C   UNL A   1      46.207  27.815  37.626  1.00  0.00     0.054 A 
BRANCH  63  64
ATOM     64  S   UNL A   1      47.537  27.036  38.578  1.00  0.00     0.124 S 
ATOM     65  O   UNL A   1      47.752  28.007  39.648  1.00  0.00    -0.237 OA
ATOM     66  O   UNL A   1      46.936  25.770  38.990  1.00  0.00    -0.237 OA
ATOM     67  O   UNL A   1      48.628  26.916  37.614  1.00  0.00    -0.744 OA
ENDBRANCH  63  64
ENDBRANCH  37  58
ENDBRANCH  11  12
ENDBRANCH   4   6
ENDBRANCH   3   4
ENDBRANCH   2   3
ENDBRANCH   1   2
BRANCH   1  68
ATOM     68  O   UNL A   1      32.216  29.718  26.998  1.00  0.00    -0.374 OA
BRANCH  68  69
ATOM     69  C   UNL A   1      32.779  28.487  26.551  1.00  0.00     0.202 C 
BRANCH  69  70
ATOM     70  C   UNL A   1      32.038  27.329  27.231  1.00  0.00     0.261 C 
BRANCH  70  71
ATOM     71  O   UNL A   1      30.818  27.035  26.523  1.00  0.00    -0.462 OA
BRANCH  71  72
ATOM     72  C   UNL A   1      30.653  25.750  26.117  1.00  0.00     0.329 C 
ATOM     73  O   UNL A   1      30.201  24.844  26.807  1.00  0.00    -0.250 OA
BRANCH  72  74
ATOM     74  C   UNL A   1      31.110  25.537  24.669  1.00  0.00     0.206 C 
BRANCH  74  75
ATOM     75  C   UNL A   1      30.607  24.170  24.092  1.00  0.00     0.073 C 
BRANCH  75  76
ATOM     76  C   UNL A   1      31.447  22.891  24.126  1.00  0.00    -0.045 A 
ATOM     77  C   UNL A   1      32.201  22.413  23.043  1.00  0.00     0.004 A 
ATOM     78  C   UNL A   1      31.496  22.139  25.316  1.00  0.00     0.004 A 
ATOM     79  C   UNL A   1      32.907  21.205  23.114  1.00  0.00     0.000 A 
ATOM     80  C   UNL A   1      32.196  20.929  25.389  1.00  0.00     0.000 A 
ATOM     81  C   UNL A   1      32.896  20.457  24.284  1.00  0.00     0.000 A 
ENDBRANCH  75  76
ENDBRANCH  74  75
BRANCH  74  82
ATOM     82  N   UNL A   1      30.824  26.768  23.911  1.00  0.00    -0.278 N 
ATOM     83  C   UNL A   1      29.543  27.215  23.718  1.00  0.00     0.267 C 
ATOM     84  C   UNL A   1      31.778  27.444  23.162  1.00  0.00     0.149 C 
ATOM     85  O   UNL A   1      28.492  26.601  23.895  1.00  0.00    -0.268 OA
ATOM     86  C   UNL A   1      29.547  28.563  23.138  1.00  0.00     0.081 C 
ATOM     87  S   UNL A   1      31.123  28.990  22.641  1.00  0.00    -0.054 SA
ATOM     88  S   UNL A   1      33.316  26.978  22.725  1.00  0.00    -0.052 S 
ATOM     89  C   UNL A   1      28.407  29.259  23.072  1.00  0.00     0.029 C 
BRANCH  89  90
ATOM     90  C   UNL A   1      28.286  30.591  22.498  1.00  0.00    -0.021 A 
ATOM     91  C   UNL A   1      28.423  31.725  23.297  1.00  0.00     0.028 A 
ATOM     92  C   UNL A   1      28.044  30.732  21.136  1.00  0.00     0.028 A 
ATOM     93  C   UNL A   1      28.272  32.959  22.702  1.00  0.00     0.111 A 
ATOM     94  C   UNL A   1      27.920  32.014  20.634  1.00  0.00     0.111 A 
ATOM     95  N   UNL A   1      28.029  33.131  21.385  1.00  0.00    -0.265 NA
ENDBRANCH  89  90
ENDBRANCH  74  82
ENDBRANCH  72  74
ENDBRANCH  71  72
ENDBRANCH  70  71
ENDBRANCH  69  70
ENDBRANCH  68  69
ENDBRANCH   1  68
TORSDOF 21
ENDMDL
