MODEL 1
REMARK VINA RESULT:      -8.6      0.000      0.000
REMARK SMILES CCOc1ccc(-c2cc(Cl)cc3c2O[C@@H](C(F)(F)F)C(C(=O)OCCOCCOC(=O)c2ccc(-c4c5nc(c(-c6ccc(S(=O)(=O)[O-])cc6)c6ccc([nH]6)c(-c6ccc(S(=O)(=O)[O-])cc6)c6nc(c(-c7ccc(S(=O)(=O)[O-])cc7)c7ccc4[nH]7)C=C6)C=C5)cc2)=C3)cc1
REMARK SMILES IDX 27 1 26 2 25 3 24 4 22 5 23 6 21 7 8 8 9 9 14 10 10 11 13 12
REMARK SMILES IDX 15 13 11 14 12 15 93 16 16 17 7 18 4 19 5 20 95 21 6 22
REMARK SMILES IDX 94 23 3 24 2 25 1 26 17 27 18 28 19 29 20 30 28 31 29 32
REMARK SMILES IDX 30 33 31 34 32 35 33 36 34 37 92 38 35 39 91 40 36 41 37 42
REMARK SMILES IDX 38 43 85 44 39 45 90 46 84 47 86 48 40 49 89 50 83 51 82 52
REMARK SMILES IDX 41 54 71 55 52 56 70 57 53 58 56 59 69 60 87 61 54 62 55 63
REMARK SMILES IDX 68 65 88 66 57 67 42 68 43 69 51 70 44 71 50 72 45 73 46 74
REMARK SMILES IDX 47 75 48 76 49 77 72 78 73 79 81 80 74 81 80 82 75 83 76 84
REMARK SMILES IDX 77 85 78 86 79 87 58 88 59 89 67 90 60 91 66 92 61 93 62 94
REMARK SMILES IDX 63 95 64 96 65 97
REMARK H PARENT 86 53 56 64
REMARK Flexibility Score: inf
ROOT
ATOM      1  O   UNL A   1      48.857  23.864  39.568  1.00  0.00    -0.374 OA
ENDROOT
BRANCH   1   2
ATOM      2  C   UNL A   1      49.819  23.051  38.908  1.00  0.00     0.202 C 
BRANCH   2   3
ATOM      3  C   UNL A   1      49.387  22.261  37.662  1.00  0.00     0.261 C 
BRANCH   3   4
ATOM      4  O   UNL A   1      47.968  22.049  37.589  1.00  0.00    -0.460 OA
BRANCH   4   5
ATOM      5  C   UNL A   1      47.275  22.955  36.873  1.00  0.00     0.338 C 
ATOM      6  O   UNL A   1      46.557  23.827  37.341  1.00  0.00    -0.246 OA
BRANCH   5   7
ATOM      7  C   UNL A   1      47.604  22.910  35.428  1.00  0.00     0.087 C 
ATOM      8  C   UNL A   1      44.834  24.661  32.868  1.00  0.00     0.026 A 
ATOM      9  C   UNL A   1      43.639  24.691  33.619  1.00  0.00     0.033 A 
ATOM     10  C   UNL A   1      45.915  24.005  33.500  1.00  0.00     0.135 A 
ATOM     11  C   UNL A   1      43.435  23.796  34.670  1.00  0.00     0.042 A 
ATOM     12  C   UNL A   1      45.641  22.933  34.362  1.00  0.00     0.019 A 
ATOM     13  O   UNL A   1      47.119  24.707  33.724  1.00  0.00    -0.475 OA
ATOM     14  Cl  UNL A   1      41.936  23.799  35.509  1.00  0.00    -0.084 Cl
ATOM     15  C   UNL A   1      44.397  22.842  34.974  1.00  0.00     0.032 A 
ATOM     16  C   UNL A   1      46.763  22.074  34.798  1.00  0.00     0.027 C 
ATOM     17  C   UNL A   1      48.150  24.022  34.556  1.00  0.00     0.316 C 
BRANCH   8  18
ATOM     18  C   UNL A   1      44.583  24.608  31.374  1.00  0.00    -0.014 A 
ATOM     19  C   UNL A   1      44.765  24.198  28.538  1.00  0.00     0.119 A 
ATOM     20  C   UNL A   1      44.163  23.247  29.357  1.00  0.00     0.047 A 
ATOM     21  C   UNL A   1      45.223  25.378  29.111  1.00  0.00     0.047 A 
ATOM     22  C   UNL A   1      44.068  23.451  30.748  1.00  0.00     0.013 A 
ATOM     23  C   UNL A   1      45.134  25.578  30.507  1.00  0.00     0.013 A 
BRANCH  19  24
ATOM     24  O   UNL A   1      44.726  23.985  27.187  1.00  0.00    -0.494 OA
BRANCH  24  25
ATOM     25  C   UNL A   1      45.349  22.785  26.708  1.00  0.00     0.226 C 
ATOM     26  C   UNL A   1      44.696  22.276  25.431  1.00  0.00     0.049 C 
ENDBRANCH  24  25
ENDBRANCH  19  24
ENDBRANCH   8  18
BRANCH  17  27
ATOM     27  C   UNL A   1      49.217  24.918  35.227  1.00  0.00     0.430 C 
ATOM     28  F   UNL A   1      50.437  24.322  35.106  1.00  0.00    -0.167 F 
ATOM     29  F   UNL A   1      49.321  26.120  34.611  1.00  0.00    -0.167 F 
ATOM     30  F   UNL A   1      49.030  25.157  36.536  1.00  0.00    -0.167 F 
ENDBRANCH  17  27
ENDBRANCH   5   7
ENDBRANCH   4   5
ENDBRANCH   3   4
ENDBRANCH   2   3
ENDBRANCH   1   2
BRANCH   1  31
ATOM     31  C   UNL A   1      49.070  25.274  39.591  1.00  0.00     0.202 C 
BRANCH  31  32
ATOM     32  C   UNL A   1      47.874  26.202  39.820  1.00  0.00     0.261 C 
BRANCH  32  33
ATOM     33  O   UNL A   1      47.098  26.448  38.639  1.00  0.00    -0.460 OA
BRANCH  33  34
ATOM     34  C   UNL A   1      47.315  27.656  38.065  1.00  0.00     0.338 C 
ATOM     35  O   UNL A   1      48.341  28.325  38.110  1.00  0.00    -0.246 OA
BRANCH  34  36
ATOM     36  C   UNL A   1      46.175  28.015  37.211  1.00  0.00     0.060 A 
ATOM     37  C   UNL A   1      46.390  28.932  36.175  1.00  0.00     0.016 A 
ATOM     38  C   UNL A   1      44.895  27.537  37.489  1.00  0.00     0.016 A 
ATOM     39  C   UNL A   1      45.312  29.404  35.431  1.00  0.00     0.010 A 
ATOM     40  C   UNL A   1      43.813  28.018  36.748  1.00  0.00     0.010 A 
ATOM     41  C   UNL A   1      44.013  28.976  35.737  1.00  0.00    -0.014 A 
BRANCH  41  42
ATOM     42  C   UNL A   1      42.851  29.632  35.093  1.00  0.00     0.031 A 
ATOM     43  C   UNL A   1      42.355  29.103  33.774  1.00  0.00     0.074 A 
ATOM     44  C   UNL A   1      42.236  30.670  35.688  1.00  0.00     0.049 A 
ATOM     45  N   UNL A   1      41.402  29.562  33.005  1.00  0.00    -0.248 NA
ATOM     46  C   UNL A   1      43.022  27.897  33.253  1.00  0.00     0.031 C 
ATOM     47  C   UNL A   1      42.600  31.237  36.986  1.00  0.00     0.029 A 
ATOM     48  N   UNL A   1      41.179  31.437  35.270  1.00  0.00    -0.354 N 
ATOM     49  C   UNL A   1      41.354  28.703  31.912  1.00  0.00     0.074 A 
ATOM     50  C   UNL A   1      42.400  27.721  32.097  1.00  0.00     0.031 C 
ATOM     51  C   UNL A   1      41.785  32.273  37.253  1.00  0.00     0.029 A 
ATOM     52  C   UNL A   1      40.872  32.466  36.130  1.00  0.00     0.049 A 
ATOM     53  H   UNL A   1      40.685  31.267  34.434  1.00  0.00     0.167 HD
ATOM     54  C   UNL A   1      40.505  28.724  30.856  1.00  0.00     0.031 A 
ATOM     55  C   UNL A   1      39.977  33.466  36.007  1.00  0.00     0.031 A 
ATOM     56  C   UNL A   1      39.480  29.716  30.671  1.00  0.00     0.049 A 
ATOM     57  C   UNL A   1      39.109  33.523  34.774  1.00  0.00     0.074 A 
ATOM     58  C   UNL A   1      38.576  29.837  29.629  1.00  0.00     0.029 A 
ATOM     59  N   UNL A   1      39.221  30.759  31.547  1.00  0.00    -0.354 N 
ATOM     60  N   UNL A   1      39.069  32.699  33.753  1.00  0.00    -0.248 NA
ATOM     61  C   UNL A   1      38.157  34.639  34.683  1.00  0.00     0.031 C 
ATOM     62  C   UNL A   1      37.806  30.983  29.850  1.00  0.00     0.029 A 
ATOM     63  C   UNL A   1      38.183  31.538  31.062  1.00  0.00     0.049 A 
ATOM     64  H   UNL A   1      39.703  30.922  32.390  1.00  0.00     0.167 HD
ATOM     65  C   UNL A   1      38.065  33.181  32.918  1.00  0.00     0.074 A 
ATOM     66  C   UNL A   1      37.513  34.353  33.562  1.00  0.00     0.031 C 
ATOM     67  C   UNL A   1      37.638  32.696  31.725  1.00  0.00     0.031 A 
BRANCH  54  68
ATOM     68  C   UNL A   1      40.659  27.649  29.813  1.00  0.00    -0.014 A 
ATOM     69  C   UNL A   1      39.625  26.726  29.567  1.00  0.00     0.010 A 
ATOM     70  C   UNL A   1      41.827  27.591  29.030  1.00  0.00     0.010 A 
ATOM     71  C   UNL A   1      39.767  25.751  28.576  1.00  0.00     0.020 A 
ATOM     72  C   UNL A   1      41.960  26.635  28.018  1.00  0.00     0.020 A 
ATOM     73  C   UNL A   1      40.933  25.714  27.806  1.00  0.00     0.054 A 
BRANCH  73  74
ATOM     74  S   UNL A   1      41.069  24.463  26.499  1.00  0.00     0.124 S 
ATOM     75  O   UNL A   1      42.027  25.081  25.586  1.00  0.00    -0.237 OA
ATOM     76  O   UNL A   1      41.560  23.295  27.226  1.00  0.00    -0.237 OA
ATOM     77  O   UNL A   1      39.706  24.347  25.986  1.00  0.00    -0.744 OA
ENDBRANCH  73  74
ENDBRANCH  54  68
BRANCH  55  78
ATOM     78  C   UNL A   1      39.878  34.521  37.054  1.00  0.00    -0.014 A 
ATOM     79  C   UNL A   1      39.013  34.371  38.152  1.00  0.00     0.010 A 
ATOM     80  C   UNL A   1      40.628  35.706  36.936  1.00  0.00     0.010 A 
ATOM     81  C   UNL A   1      38.868  35.402  39.087  1.00  0.00     0.020 A 
ATOM     82  C   UNL A   1      40.513  36.723  37.886  1.00  0.00     0.020 A 
ATOM     83  C   UNL A   1      39.616  36.573  38.945  1.00  0.00     0.054 A 
BRANCH  83  84
ATOM     84  S   UNL A   1      39.417  37.895  40.172  1.00  0.00     0.124 S 
ATOM     85  O   UNL A   1      38.258  38.615  39.655  1.00  0.00    -0.237 OA
ATOM     86  O   UNL A   1      39.199  37.147  41.407  1.00  0.00    -0.237 OA
ATOM     87  O   UNL A   1      40.685  38.618  40.105  1.00  0.00    -0.744 OA
ENDBRANCH  83  84
ENDBRANCH  55  78
BRANCH  67  88
ATOM     88  C   UNL A   1      36.483  33.400  31.061  1.00  0.00    -0.014 A 
ATOM     89  C   UNL A   1      35.267  33.612  31.735  1.00  0.00     0.010 A 
ATOM     90  C   UNL A   1      36.639  33.903  29.756  1.00  0.00     0.010 A 
ATOM     91  C   UNL A   1      34.218  34.284  31.103  1.00  0.00     0.020 A 
ATOM     92  C   UNL A   1      35.603  34.604  29.134  1.00  0.00     0.020 A 
ATOM     93  C   UNL A   1      34.393  34.778  29.806  1.00  0.00     0.054 A 
BRANCH  93  94
ATOM     94  S   UNL A   1      33.030  35.686  29.026  1.00  0.00     0.124 S 
ATOM     95  O   UNL A   1      32.269  36.145  30.185  1.00  0.00    -0.237 OA
ATOM     96  O   UNL A   1      33.727  36.728  28.278  1.00  0.00    -0.237 OA
ATOM     97  O   UNL A   1      32.365  34.675  28.206  1.00  0.00    -0.744 OA
ENDBRANCH  93  94
ENDBRANCH  67  88
ENDBRANCH  41  42
ENDBRANCH  34  36
ENDBRANCH  33  34
ENDBRANCH  32  33
ENDBRANCH  31  32
ENDBRANCH   1  31
TORSDOF 21
ENDMDL
MODEL 2
REMARK VINA RESULT:      -8.5      5.310      9.433
REMARK SMILES CCOc1ccc(-c2cc(Cl)cc3c2O[C@@H](C(F)(F)F)C(C(=O)OCCOCCOC(=O)c2ccc(-c4c5nc(c(-c6ccc(S(=O)(=O)[O-])cc6)c6ccc([nH]6)c(-c6ccc(S(=O)(=O)[O-])cc6)c6nc(c(-c7ccc(S(=O)(=O)[O-])cc7)c7ccc4[nH]7)C=C6)C=C5)cc2)=C3)cc1
REMARK SMILES IDX 27 1 26 2 25 3 24 4 22 5 23 6 21 7 8 8 9 9 14 10 10 11 13 12
REMARK SMILES IDX 15 13 11 14 12 15 93 16 16 17 7 18 4 19 5 20 95 21 6 22
REMARK SMILES IDX 94 23 3 24 2 25 1 26 17 27 18 28 19 29 20 30 28 31 29 32
REMARK SMILES IDX 30 33 31 34 32 35 33 36 34 37 92 38 35 39 91 40 36 41 37 42
REMARK SMILES IDX 38 43 85 44 39 45 90 46 84 47 86 48 40 49 89 50 83 51 82 52
REMARK SMILES IDX 41 54 71 55 52 56 70 57 53 58 56 59 69 60 87 61 54 62 55 63
REMARK SMILES IDX 68 65 88 66 57 67 42 68 43 69 51 70 44 71 50 72 45 73 46 74
REMARK SMILES IDX 47 75 48 76 49 77 72 78 73 79 81 80 74 81 80 82 75 83 76 84
REMARK SMILES IDX 77 85 78 86 79 87 58 88 59 89 67 90 60 91 66 92 61 93 62 94
REMARK SMILES IDX 63 95 64 96 65 97
REMARK H PARENT 86 53 56 64
REMARK Flexibility Score: inf
ROOT
ATOM      1  O   UNL A   1      50.397  25.536  26.297  1.00  0.00    -0.374 OA
ENDROOT
BRANCH   1   2
ATOM      2  C   UNL A   1      49.816  24.809  27.373  1.00  0.00     0.202 C 
BRANCH   2   3
ATOM      3  C   UNL A   1      48.404  25.193  27.844  1.00  0.00     0.261 C 
BRANCH   3   4
ATOM      4  O   UNL A   1      47.379  24.333  27.322  1.00  0.00    -0.460 OA
BRANCH   4   5
ATOM      5  C   UNL A   1      46.332  24.951  26.743  1.00  0.00     0.338 C 
ATOM      6  O   UNL A   1      46.382  25.613  25.715  1.00  0.00    -0.246 OA
BRANCH   5   7
ATOM      7  C   UNL A   1      45.040  24.605  27.383  1.00  0.00     0.087 C 
ATOM      8  C   UNL A   1      41.965  27.361  26.897  1.00  0.00     0.026 A 
ATOM      9  C   UNL A   1      42.627  28.565  26.571  1.00  0.00     0.033 A 
ATOM     10  C   UNL A   1      42.820  26.282  27.215  1.00  0.00     0.135 A 
ATOM     11  C   UNL A   1      43.954  28.773  26.947  1.00  0.00     0.042 A 
ATOM     12  C   UNL A   1      44.050  26.556  27.833  1.00  0.00     0.019 A 
ATOM     13  O   UNL A   1      42.739  25.086  26.469  1.00  0.00    -0.475 OA
ATOM     14  Cl  UNL A   1      44.704  30.281  26.613  1.00  0.00    -0.084 Cl
ATOM     15  C   UNL A   1      44.635  27.806  27.675  1.00  0.00     0.032 A 
ATOM     16  C   UNL A   1      44.812  25.432  28.417  1.00  0.00     0.027 C 
ATOM     17  C   UNL A   1      43.788  24.059  26.731  1.00  0.00     0.316 C 
BRANCH   8  18
ATOM     18  C   UNL A   1      40.628  27.594  27.573  1.00  0.00    -0.014 A 
ATOM     19  C   UNL A   1      38.505  28.392  29.333  1.00  0.00     0.119 A 
ATOM     20  C   UNL A   1      38.851  29.176  28.237  1.00  0.00     0.047 A 
ATOM     21  C   UNL A   1      39.166  27.186  29.527  1.00  0.00     0.047 A 
ATOM     22  C   UNL A   1      39.890  28.781  27.368  1.00  0.00     0.013 A 
ATOM     23  C   UNL A   1      40.210  26.794  28.660  1.00  0.00     0.013 A 
BRANCH  19  24
ATOM     24  O   UNL A   1      37.420  28.781  30.070  1.00  0.00    -0.494 OA
BRANCH  24  25
ATOM     25  C   UNL A   1      37.472  30.092  30.649  1.00  0.00     0.226 C 
ATOM     26  C   UNL A   1      36.213  30.894  30.356  1.00  0.00     0.049 C 
ENDBRANCH  24  25
ENDBRANCH  19  24
ENDBRANCH   8  18
BRANCH  17  27
ATOM     27  C   UNL A   1      44.029  23.007  25.623  1.00  0.00     0.430 C 
ATOM     28  F   UNL A   1      44.347  23.648  24.464  1.00  0.00    -0.167 F 
ATOM     29  F   UNL A   1      45.083  22.206  25.913  1.00  0.00    -0.167 F 
ATOM     30  F   UNL A   1      42.984  22.206  25.351  1.00  0.00    -0.167 F 
ENDBRANCH  17  27
ENDBRANCH   5   7
ENDBRANCH   4   5
ENDBRANCH   3   4
ENDBRANCH   2   3
ENDBRANCH   1   2
BRANCH   1  31
ATOM     31  C   UNL A   1      51.803  25.766  26.323  1.00  0.00     0.202 C 
BRANCH  31  32
ATOM     32  C   UNL A   1      52.366  27.004  25.618  1.00  0.00     0.261 C 
BRANCH  32  33
ATOM     33  O   UNL A   1      51.388  27.735  24.864  1.00  0.00    -0.460 OA
BRANCH  33  34
ATOM     34  C   UNL A   1      51.190  29.007  25.283  1.00  0.00     0.338 C 
ATOM     35  O   UNL A   1      51.600  30.035  24.755  1.00  0.00    -0.246 OA
BRANCH  34  36
ATOM     36  C   UNL A   1      50.248  29.022  26.410  1.00  0.00     0.060 A 
ATOM     37  C   UNL A   1      48.936  28.590  26.180  1.00  0.00     0.016 A 
ATOM     38  C   UNL A   1      50.622  29.549  27.646  1.00  0.00     0.016 A 
ATOM     39  C   UNL A   1      47.979  28.717  27.182  1.00  0.00     0.010 A 
ATOM     40  C   UNL A   1      49.657  29.684  28.647  1.00  0.00     0.010 A 
ATOM     41  C   UNL A   1      48.326  29.298  28.410  1.00  0.00    -0.014 A 
BRANCH  41  42
ATOM     42  C   UNL A   1      47.268  29.627  29.394  1.00  0.00     0.031 A 
ATOM     43  C   UNL A   1      46.889  28.599  30.426  1.00  0.00     0.074 A 
ATOM     44  C   UNL A   1      46.673  30.833  29.379  1.00  0.00     0.049 A 
ATOM     45  N   UNL A   1      45.951  28.649  31.336  1.00  0.00    -0.248 NA
ATOM     46  C   UNL A   1      47.670  27.350  30.432  1.00  0.00     0.031 C 
ATOM     47  C   UNL A   1      46.991  31.923  28.456  1.00  0.00     0.029 A 
ATOM     48  N   UNL A   1      45.666  31.339  30.162  1.00  0.00    -0.354 N 
ATOM     49  C   UNL A   1      46.028  27.441  32.022  1.00  0.00     0.074 A 
ATOM     50  C   UNL A   1      47.077  26.664  31.399  1.00  0.00     0.031 C 
ATOM     51  C   UNL A   1      46.185  32.966  28.719  1.00  0.00     0.029 A 
ATOM     52  C   UNL A   1      45.270  32.604  29.798  1.00  0.00     0.049 A 
ATOM     53  H   UNL A   1      45.266  30.844  30.914  1.00  0.00     0.167 HD
ATOM     54  C   UNL A   1      45.300  27.025  33.085  1.00  0.00     0.031 A 
ATOM     55  C   UNL A   1      44.261  33.369  30.263  1.00  0.00     0.031 A 
ATOM     56  C   UNL A   1      44.246  27.796  33.688  1.00  0.00     0.049 A 
ATOM     57  C   UNL A   1      43.401  32.841  31.385  1.00  0.00     0.074 A 
ATOM     58  C   UNL A   1      43.436  27.460  34.760  1.00  0.00     0.029 A 
ATOM     59  N   UNL A   1      43.853  29.059  33.272  1.00  0.00    -0.354 N 
ATOM     60  N   UNL A   1      43.493  31.701  32.030  1.00  0.00    -0.248 NA
ATOM     61  C   UNL A   1      42.310  33.708  31.849  1.00  0.00     0.031 C 
ATOM     62  C   UNL A   1      42.520  28.498  34.956  1.00  0.00     0.029 A 
ATOM     63  C   UNL A   1      42.802  29.510  34.053  1.00  0.00     0.049 A 
ATOM     64  H   UNL A   1      44.261  29.562  32.530  1.00  0.00     0.167 HD
ATOM     65  C   UNL A   1      42.492  31.733  32.997  1.00  0.00     0.074 A 
ATOM     66  C   UNL A   1      41.822  33.009  32.863  1.00  0.00     0.031 C 
ATOM     67  C   UNL A   1      42.156  30.791  33.913  1.00  0.00     0.031 A 
BRANCH  54  68
ATOM     68  C   UNL A   1      45.610  25.666  33.658  1.00  0.00    -0.014 A 
ATOM     69  C   UNL A   1      46.619  25.502  34.625  1.00  0.00     0.010 A 
ATOM     70  C   UNL A   1      44.850  24.548  33.267  1.00  0.00     0.010 A 
ATOM     71  C   UNL A   1      46.878  24.242  35.170  1.00  0.00     0.020 A 
ATOM     72  C   UNL A   1      45.087  23.292  33.832  1.00  0.00     0.020 A 
ATOM     73  C   UNL A   1      46.108  23.144  34.772  1.00  0.00     0.054 A 
BRANCH  73  74
ATOM     74  S   UNL A   1      46.442  21.531  35.530  1.00  0.00     0.124 S 
ATOM     75  O   UNL A   1      45.320  21.392  36.454  1.00  0.00    -0.237 OA
ATOM     76  O   UNL A   1      46.423  20.629  34.381  1.00  0.00    -0.237 OA
ATOM     77  O   UNL A   1      47.748  21.706  36.160  1.00  0.00    -0.744 OA
ENDBRANCH  73  74
ENDBRANCH  54  68
BRANCH  55  78
ATOM     78  C   UNL A   1      43.978  34.696  29.649  1.00  0.00    -0.014 A 
ATOM     79  C   UNL A   1      44.559  35.869  30.161  1.00  0.00     0.010 A 
ATOM     80  C   UNL A   1      43.088  34.796  28.563  1.00  0.00     0.010 A 
ATOM     81  C   UNL A   1      44.223  37.118  29.628  1.00  0.00     0.020 A 
ATOM     82  C   UNL A   1      42.777  36.038  28.005  1.00  0.00     0.020 A 
ATOM     83  C   UNL A   1      43.331  37.194  28.556  1.00  0.00     0.054 A 
BRANCH  83  84
ATOM     84  S   UNL A   1      42.914  38.825  27.877  1.00  0.00     0.124 S 
ATOM     85  O   UNL A   1      44.075  39.619  28.261  1.00  0.00    -0.237 OA
ATOM     86  O   UNL A   1      42.780  38.546  26.449  1.00  0.00    -0.237 OA
ATOM     87  O   UNL A   1      41.666  39.169  28.556  1.00  0.00    -0.744 OA
ENDBRANCH  83  84
ENDBRANCH  55  78
BRANCH  67  88
ATOM     88  C   UNL A   1      41.050  31.123  34.880  1.00  0.00    -0.014 A 
ATOM     89  C   UNL A   1      39.741  30.643  34.693  1.00  0.00     0.010 A 
ATOM     90  C   UNL A   1      41.342  31.887  36.026  1.00  0.00     0.010 A 
ATOM     91  C   UNL A   1      38.738  30.952  35.615  1.00  0.00     0.020 A 
ATOM     92  C   UNL A   1      40.348  32.168  36.967  1.00  0.00     0.020 A 
ATOM     93  C   UNL A   1      39.048  31.711  36.749  1.00  0.00     0.054 A 
BRANCH  93  94
ATOM     94  S   UNL A   1      37.736  32.057  37.952  1.00  0.00     0.124 S 
ATOM     95  O   UNL A   1      38.501  32.471  39.125  1.00  0.00    -0.237 OA
ATOM     96  O   UNL A   1      36.971  33.113  37.295  1.00  0.00    -0.237 OA
ATOM     97  O   UNL A   1      37.040  30.778  38.083  1.00  0.00    -0.744 OA
ENDBRANCH  93  94
ENDBRANCH  67  88
ENDBRANCH  41  42
ENDBRANCH  34  36
ENDBRANCH  33  34
ENDBRANCH  32  33
ENDBRANCH  31  32
ENDBRANCH   1  31
TORSDOF 21
ENDMDL
MODEL 3
REMARK VINA RESULT:      -8.3     12.207     19.475
REMARK SMILES CCOc1ccc(-c2cc(Cl)cc3c2O[C@@H](C(F)(F)F)C(C(=O)OCCOCCOC(=O)c2ccc(-c4c5nc(c(-c6ccc(S(=O)(=O)[O-])cc6)c6ccc([nH]6)c(-c6ccc(S(=O)(=O)[O-])cc6)c6nc(c(-c7ccc(S(=O)(=O)[O-])cc7)c7ccc4[nH]7)C=C6)C=C5)cc2)=C3)cc1
REMARK SMILES IDX 27 1 26 2 25 3 24 4 22 5 23 6 21 7 8 8 9 9 14 10 10 11 13 12
REMARK SMILES IDX 15 13 11 14 12 15 93 16 16 17 7 18 4 19 5 20 95 21 6 22
REMARK SMILES IDX 94 23 3 24 2 25 1 26 17 27 18 28 19 29 20 30 28 31 29 32
REMARK SMILES IDX 30 33 31 34 32 35 33 36 34 37 92 38 35 39 91 40 36 41 37 42
REMARK SMILES IDX 38 43 85 44 39 45 90 46 84 47 86 48 40 49 89 50 83 51 82 52
REMARK SMILES IDX 41 54 71 55 52 56 70 57 53 58 56 59 69 60 87 61 54 62 55 63
REMARK SMILES IDX 68 65 88 66 57 67 42 68 43 69 51 70 44 71 50 72 45 73 46 74
REMARK SMILES IDX 47 75 48 76 49 77 72 78 73 79 81 80 74 81 80 82 75 83 76 84
REMARK SMILES IDX 77 85 78 86 79 87 58 88 59 89 67 90 60 91 66 92 61 93 62 94
REMARK SMILES IDX 63 95 64 96 65 97
REMARK H PARENT 86 53 56 64
REMARK Flexibility Score: inf
ROOT
ATOM      1  O   UNL A   1      44.171  40.000  28.321  1.00  0.00    -0.374 OA
ENDROOT
BRANCH   1   2
ATOM      2  C   UNL A   1      44.200  41.418  28.222  1.00  0.00     0.202 C 
BRANCH   2   3
ATOM      3  C   UNL A   1      45.037  42.062  27.105  1.00  0.00     0.261 C 
BRANCH   3   4
ATOM      4  O   UNL A   1      44.269  42.915  26.241  1.00  0.00    -0.460 OA
BRANCH   4   5
ATOM      5  C   UNL A   1      44.476  42.753  24.921  1.00  0.00     0.338 C 
ATOM      6  O   UNL A   1      45.023  41.789  24.404  1.00  0.00    -0.246 OA
BRANCH   5   7
ATOM      7  C   UNL A   1      43.807  43.797  24.107  1.00  0.00     0.087 C 
ATOM      8  C   UNL A   1      45.412  44.480  20.333  1.00  0.00     0.026 A 
ATOM      9  C   UNL A   1      46.726  43.971  20.418  1.00  0.00     0.033 A 
ATOM     10  C   UNL A   1      44.686  44.455  21.545  1.00  0.00     0.135 A 
ATOM     11  C   UNL A   1      47.370  43.864  21.650  1.00  0.00     0.042 A 
ATOM     12  C   UNL A   1      45.386  44.609  22.752  1.00  0.00     0.019 A 
ATOM     13  O   UNL A   1      43.461  43.756  21.608  1.00  0.00    -0.475 OA
ATOM     14  Cl  UNL A   1      48.999  43.323  21.713  1.00  0.00    -0.084 Cl
ATOM     15  C   UNL A   1      46.735  44.285  22.811  1.00  0.00     0.032 A 
ATOM     16  C   UNL A   1      44.614  44.864  23.987  1.00  0.00     0.027 C 
ATOM     17  C   UNL A   1      42.840  43.611  22.957  1.00  0.00     0.316 C 
BRANCH   8  18
ATOM     18  C   UNL A   1      45.279  45.586  19.304  1.00  0.00    -0.014 A 
ATOM     19  C   UNL A   1      44.324  47.514  17.404  1.00  0.00     0.119 A 
ATOM     20  C   UNL A   1      44.484  47.856  18.744  1.00  0.00     0.047 A 
ATOM     21  C   UNL A   1      44.692  46.240  16.991  1.00  0.00     0.047 A 
ATOM     22  C   UNL A   1      44.959  46.911  19.676  1.00  0.00     0.013 A 
ATOM     23  C   UNL A   1      45.162  45.292  17.927  1.00  0.00     0.013 A 
BRANCH  19  24
ATOM     24  O   UNL A   1      43.962  48.509  16.538  1.00  0.00    -0.494 OA
BRANCH  24  25
ATOM     25  C   UNL A   1      42.556  48.694  16.322  1.00  0.00     0.226 C 
ATOM     26  C   UNL A   1      41.803  47.372  16.319  1.00  0.00     0.049 C 
ENDBRANCH  24  25
ENDBRANCH  19  24
ENDBRANCH   8  18
BRANCH  17  27
ATOM     27  C   UNL A   1      41.817  42.465  23.136  1.00  0.00     0.430 C 
ATOM     28  F   UNL A   1      42.018  41.876  24.348  1.00  0.00    -0.167 F 
ATOM     29  F   UNL A   1      40.544  42.927  23.147  1.00  0.00    -0.167 F 
ATOM     30  F   UNL A   1      41.878  41.488  22.215  1.00  0.00    -0.167 F 
ENDBRANCH  17  27
ENDBRANCH   5   7
ENDBRANCH   4   5
ENDBRANCH   3   4
ENDBRANCH   2   3
ENDBRANCH   1   2
BRANCH   1  31
ATOM     31  C   UNL A   1      43.541  39.264  27.275  1.00  0.00     0.202 C 
BRANCH  31  32
ATOM     32  C   UNL A   1      43.943  37.805  27.047  1.00  0.00     0.261 C 
BRANCH  32  33
ATOM     33  O   UNL A   1      43.204  36.869  27.844  1.00  0.00    -0.460 OA
BRANCH  33  34
ATOM     34  C   UNL A   1      42.605  35.879  27.140  1.00  0.00     0.338 C 
ATOM     35  O   UNL A   1      41.533  35.933  26.548  1.00  0.00    -0.246 OA
BRANCH  34  36
ATOM     36  C   UNL A   1      43.509  34.726  27.032  1.00  0.00     0.060 A 
ATOM     37  C   UNL A   1      43.940  34.111  28.214  1.00  0.00     0.016 A 
ATOM     38  C   UNL A   1      44.005  34.321  25.793  1.00  0.00     0.016 A 
ATOM     39  C   UNL A   1      44.901  33.106  28.163  1.00  0.00     0.010 A 
ATOM     40  C   UNL A   1      44.977  33.319  25.745  1.00  0.00     0.010 A 
ATOM     41  C   UNL A   1      45.451  32.729  26.930  1.00  0.00    -0.014 A 
BRANCH  41  42
ATOM     42  C   UNL A   1      46.619  31.817  26.893  1.00  0.00     0.031 A 
ATOM     43  C   UNL A   1      48.003  32.404  26.929  1.00  0.00     0.074 A 
ATOM     44  C   UNL A   1      46.442  30.484  26.849  1.00  0.00     0.049 A 
ATOM     45  N   UNL A   1      49.160  31.801  26.840  1.00  0.00    -0.248 NA
ATOM     46  C   UNL A   1      48.097  33.866  27.086  1.00  0.00     0.031 C 
ATOM     47  C   UNL A   1      45.148  29.802  26.856  1.00  0.00     0.029 A 
ATOM     48  N   UNL A   1      47.359  29.466  26.780  1.00  0.00    -0.354 N 
ATOM     49  C   UNL A   1      50.117  32.805  26.930  1.00  0.00     0.074 A 
ATOM     50  C   UNL A   1      49.407  34.061  27.041  1.00  0.00     0.031 C 
ATOM     51  C   UNL A   1      45.355  28.475  26.781  1.00  0.00     0.029 A 
ATOM     52  C   UNL A   1      46.789  28.219  26.680  1.00  0.00     0.049 A 
ATOM     53  H   UNL A   1      48.333  29.615  26.800  1.00  0.00     0.167 HD
ATOM     54  C   UNL A   1      51.467  32.690  26.935  1.00  0.00     0.031 A 
ATOM     55  C   UNL A   1      47.361  27.012  26.497  1.00  0.00     0.031 A 
ATOM     56  C   UNL A   1      52.166  31.439  26.806  1.00  0.00     0.049 A 
ATOM     57  C   UNL A   1      48.864  26.922  26.408  1.00  0.00     0.074 A 
ATOM     58  C   UNL A   1      53.532  31.213  26.785  1.00  0.00     0.029 A 
ATOM     59  N   UNL A   1      51.554  30.201  26.677  1.00  0.00    -0.354 N 
ATOM     60  N   UNL A   1      49.757  27.880  26.504  1.00  0.00    -0.248 NA
ATOM     61  C   UNL A   1      49.438  25.585  26.197  1.00  0.00     0.031 C 
ATOM     62  C   UNL A   1      53.745  29.845  26.588  1.00  0.00     0.029 A 
ATOM     63  C   UNL A   1      52.514  29.210  26.557  1.00  0.00     0.049 A 
ATOM     64  H   UNL A   1      50.581  30.050  26.670  1.00  0.00     0.167 HD
ATOM     65  C   UNL A   1      50.996  27.254  26.400  1.00  0.00     0.074 A 
ATOM     66  C   UNL A   1      50.737  25.837  26.252  1.00  0.00     0.031 C 
ATOM     67  C   UNL A   1      52.236  27.801  26.423  1.00  0.00     0.031 A 
BRANCH  54  68
ATOM     68  C   UNL A   1      52.278  33.953  27.071  1.00  0.00    -0.014 A 
ATOM     69  C   UNL A   1      52.767  34.366  28.325  1.00  0.00     0.010 A 
ATOM     70  C   UNL A   1      52.601  34.707  25.929  1.00  0.00     0.010 A 
ATOM     71  C   UNL A   1      53.543  35.523  28.434  1.00  0.00     0.020 A 
ATOM     72  C   UNL A   1      53.401  35.849  26.032  1.00  0.00     0.020 A 
ATOM     73  C   UNL A   1      53.857  36.256  27.286  1.00  0.00     0.054 A 
BRANCH  73  74
ATOM     74  S   UNL A   1      54.901  37.730  27.458  1.00  0.00     0.124 S 
ATOM     75  O   UNL A   1      55.525  37.509  28.759  1.00  0.00    -0.237 OA
ATOM     76  O   UNL A   1      55.795  37.623  26.308  1.00  0.00    -0.237 OA
ATOM     77  O   UNL A   1      53.950  38.838  27.405  1.00  0.00    -0.744 OA
ENDBRANCH  73  74
ENDBRANCH  54  68
BRANCH  55  78
ATOM     78  C   UNL A   1      46.517  25.795  26.343  1.00  0.00    -0.014 A 
ATOM     79  C   UNL A   1      46.041  25.399  25.081  1.00  0.00     0.010 A 
ATOM     80  C   UNL A   1      46.150  25.042  27.475  1.00  0.00     0.010 A 
ATOM     81  C   UNL A   1      45.182  24.301  24.960  1.00  0.00     0.020 A 
ATOM     82  C   UNL A   1      45.322  23.924  27.354  1.00  0.00     0.020 A 
ATOM     83  C   UNL A   1      44.825  23.573  26.097  1.00  0.00     0.054 A 
BRANCH  83  84
ATOM     84  S   UNL A   1      43.715  22.149  25.915  1.00  0.00     0.124 S 
ATOM     85  O   UNL A   1      44.645  21.083  25.561  1.00  0.00    -0.237 OA
ATOM     86  O   UNL A   1      43.111  22.049  27.241  1.00  0.00    -0.237 OA
ATOM     87  O   UNL A   1      42.801  22.563  24.852  1.00  0.00    -0.744 OA
ENDBRANCH  83  84
ENDBRANCH  55  78
BRANCH  67  88
ATOM     88  C   UNL A   1      53.413  26.864  26.342  1.00  0.00    -0.014 A 
ATOM     89  C   UNL A   1      53.909  26.207  27.482  1.00  0.00     0.010 A 
ATOM     90  C   UNL A   1      53.997  26.597  25.089  1.00  0.00     0.010 A 
ATOM     91  C   UNL A   1      54.990  25.328  27.375  1.00  0.00     0.020 A 
ATOM     92  C   UNL A   1      55.056  25.693  24.974  1.00  0.00     0.020 A 
ATOM     93  C   UNL A   1      55.556  25.075  26.121  1.00  0.00     0.054 A 
BRANCH  93  94
ATOM     94  S   UNL A   1      56.929  23.895  26.005  1.00  0.00     0.124 S 
ATOM     95  O   UNL A   1      57.962  24.552  26.800  1.00  0.00    -0.237 OA
ATOM     96  O   UNL A   1      56.359  22.684  26.592  1.00  0.00    -0.237 OA
ATOM     97  O   UNL A   1      57.200  23.817  24.571  1.00  0.00    -0.744 OA
ENDBRANCH  93  94
ENDBRANCH  67  88
ENDBRANCH  41  42
ENDBRANCH  34  36
ENDBRANCH  33  34
ENDBRANCH  32  33
ENDBRANCH  31  32
ENDBRANCH   1  31
TORSDOF 21
ENDMDL
