MODEL 1
REMARK VINA RESULT:     -11.2      0.000      0.000
REMARK SMILES Cc1sc(NC(=O)[C@@H]2[C@@H](C(=O)OCCOCCOC(=O)c3ccc(-c4c5nc(c(-c6ccc(S(=O)(=O)[O-])cc6)c6ccc([nH]6)c(-c6ccc(S(=O)(=O)[O-])cc6)c6nc(c(-c7ccc(S(=O)(=O)[O-])cc7)c7ccc4[nH]7)C=C6)C=C5)cc3)[C@@H]3C=C[C@H]2C3)c(C#N)c1C
REMARK SMILES IDX 15 1 14 2 13 3 12 4 10 5 11 6 9 7 8 8 84 9 81 10 83 11 85 12
REMARK SMILES IDX 82 13 6 14 5 15 7 17 4 18 1 19 2 20 3 21 89 22 86 23 90 24
REMARK SMILES IDX 87 25 88 26 16 27 17 28 18 29 19 30 20 31 21 32 22 33 80 34
REMARK SMILES IDX 23 35 79 36 24 37 25 38 26 39 73 40 27 41 78 42 72 43 74 44
REMARK SMILES IDX 28 45 77 46 71 47 70 48 29 50 59 51 40 52 58 53 41 54 44 55
REMARK SMILES IDX 57 56 75 57 42 58 43 59 56 61 76 62 45 63 30 64 31 65 39 66
REMARK SMILES IDX 32 67 38 68 33 69 34 70 35 71 36 72 37 73 60 74 61 75 69 76
REMARK SMILES IDX 62 77 68 78 63 79 64 80 65 81 66 82 67 83 46 84 47 85 55 86
REMARK SMILES IDX 48 87 54 88 49 89 50 90 51 91 52 92 53 93
REMARK H PARENT 5 16 74 49 44 60
REMARK Flexibility Score: inf
ROOT
ATOM      1  O   UNL A   1      40.189  19.836  25.831  1.00  0.00    -0.374 OA
ENDROOT
BRANCH   1   2
ATOM      2  C   UNL A   1      39.548  21.078  26.100  1.00  0.00     0.202 C 
BRANCH   2   3
ATOM      3  C   UNL A   1      38.301  21.477  25.312  1.00  0.00     0.261 C 
BRANCH   3   4
ATOM      4  O   UNL A   1      37.208  21.969  26.105  1.00  0.00    -0.463 OA
BRANCH   4   5
ATOM      5  C   UNL A   1      36.545  23.011  25.528  1.00  0.00     0.310 C 
ATOM      6  O   UNL A   1      36.755  24.187  25.803  1.00  0.00    -0.252 OA
BRANCH   5   7
ATOM      7  C   UNL A   1      35.456  22.540  24.568  1.00  0.00     0.119 C 
ATOM      8  C   UNL A   1      34.515  23.747  24.229  1.00  0.00     0.100 C 
ATOM      9  C   UNL A   1      33.262  23.388  25.122  1.00  0.00     0.025 C 
ATOM     10  C   UNL A   1      34.553  21.600  25.412  1.00  0.00     0.027 C 
ATOM     11  C   UNL A   1      32.564  22.214  24.458  1.00  0.00    -0.027 C 
ATOM     12  C   UNL A   1      33.839  22.623  26.309  1.00  0.00     0.017 C 
ATOM     13  C   UNL A   1      33.371  21.152  24.587  1.00  0.00    -0.027 C 
BRANCH   8  14
ATOM     14  C   UNL A   1      33.943  24.089  22.850  1.00  0.00     0.229 C 
ATOM     15  N   UNL A   1      33.279  25.188  22.440  1.00  0.00    -0.316 N 
ATOM     16  H   UNL A   1      33.662  25.586  21.624  1.00  0.00     0.170 HD
ATOM     17  O   UNL A   1      34.196  23.296  21.922  1.00  0.00    -0.274 OA
BRANCH  15  18
ATOM     18  C   UNL A   1      32.181  25.879  22.911  1.00  0.00     0.113 A 
ATOM     19  C   UNL A   1      28.490  26.667  23.990  1.00  0.00     0.057 C 
ATOM     20  C   UNL A   1      29.932  26.644  23.588  1.00  0.00     0.008 A 
ATOM     21  S   UNL A   1      30.663  25.169  23.085  1.00  0.00    -0.122 S 
ATOM     22  C   UNL A   1      30.825  27.703  23.549  1.00  0.00    -0.017 A 
ATOM     23  C   UNL A   1      32.130  27.243  23.156  1.00  0.00     0.090 A 
ATOM     24  C   UNL A   1      30.501  29.139  23.851  1.00  0.00     0.047 C 
BRANCH  23  25
ATOM     25  C   UNL A   1      33.256  28.109  22.973  1.00  0.00     0.103 C 
ATOM     26  N   UNL A   1      34.152  28.834  22.784  1.00  0.00    -0.192 NA
ENDBRANCH  23  25
ENDBRANCH  15  18
ENDBRANCH   8  14
ENDBRANCH   5   7
ENDBRANCH   4   5
ENDBRANCH   3   4
ENDBRANCH   2   3
ENDBRANCH   1   2
BRANCH   1  27
ATOM     27  C   UNL A   1      41.326  19.428  26.579  1.00  0.00     0.202 C 
BRANCH  27  28
ATOM     28  C   UNL A   1      42.681  19.385  25.902  1.00  0.00     0.261 C 
BRANCH  28  29
ATOM     29  O   UNL A   1      43.391  20.598  26.043  1.00  0.00    -0.460 OA
BRANCH  29  30
ATOM     30  C   UNL A   1      44.102  20.919  24.941  1.00  0.00     0.338 C 
ATOM     31  O   UNL A   1      44.540  20.155  24.097  1.00  0.00    -0.246 OA
BRANCH  30  32
ATOM     32  C   UNL A   1      44.443  22.337  25.026  1.00  0.00     0.060 A 
ATOM     33  C   UNL A   1      45.355  22.669  26.026  1.00  0.00     0.016 A 
ATOM     34  C   UNL A   1      43.541  23.265  24.490  1.00  0.00     0.016 A 
ATOM     35  C   UNL A   1      45.112  23.817  26.739  1.00  0.00     0.010 A 
ATOM     36  C   UNL A   1      43.319  24.417  25.192  1.00  0.00     0.010 A 
ATOM     37  C   UNL A   1      44.005  24.602  26.389  1.00  0.00    -0.014 A 
BRANCH  37  38
ATOM     38  C   UNL A   1      43.704  25.797  27.146  1.00  0.00     0.031 A 
ATOM     39  C   UNL A   1      44.731  26.813  26.827  1.00  0.00     0.074 A 
ATOM     40  C   UNL A   1      42.590  25.961  27.890  1.00  0.00     0.049 A 
ATOM     41  N   UNL A   1      45.831  27.000  27.483  1.00  0.00    -0.248 NA
ATOM     42  C   UNL A   1      44.750  27.393  25.466  1.00  0.00     0.031 C 
ATOM     43  C   UNL A   1      41.448  25.062  28.087  1.00  0.00     0.029 A 
ATOM     44  N   UNL A   1      42.212  27.053  28.609  1.00  0.00    -0.354 N 
ATOM     45  C   UNL A   1      46.487  27.994  26.774  1.00  0.00     0.074 A 
ATOM     46  C   UNL A   1      45.981  27.909  25.432  1.00  0.00     0.031 C 
ATOM     47  C   UNL A   1      40.420  25.745  28.658  1.00  0.00     0.029 A 
ATOM     48  C   UNL A   1      40.869  27.084  28.997  1.00  0.00     0.049 A 
ATOM     49  H   UNL A   1      42.841  27.774  28.839  1.00  0.00     0.167 HD
ATOM     50  C   UNL A   1      46.990  29.072  27.438  1.00  0.00     0.031 A 
ATOM     51  C   UNL A   1      40.204  28.155  29.527  1.00  0.00     0.031 A 
ATOM     52  C   UNL A   1      47.083  28.798  28.855  1.00  0.00     0.049 A 
ATOM     53  C   UNL A   1      41.248  29.062  30.078  1.00  0.00     0.074 A 
ATOM     54  C   UNL A   1      47.711  27.848  29.634  1.00  0.00     0.029 A 
ATOM     55  N   UNL A   1      46.075  29.327  29.629  1.00  0.00    -0.354 N 
ATOM     56  N   UNL A   1      42.001  28.722  31.089  1.00  0.00    -0.248 NA
ATOM     57  C   UNL A   1      41.817  30.048  29.172  1.00  0.00     0.031 C 
ATOM     58  C   UNL A   1      46.783  27.546  30.675  1.00  0.00     0.029 A 
ATOM     59  C   UNL A   1      45.684  28.399  30.553  1.00  0.00     0.049 A 
ATOM     60  H   UNL A   1      45.695  30.230  29.532  1.00  0.00     0.167 HD
ATOM     61  C   UNL A   1      43.286  29.080  30.704  1.00  0.00     0.074 A 
ATOM     62  C   UNL A   1      43.102  29.935  29.526  1.00  0.00     0.031 C 
ATOM     63  C   UNL A   1      44.373  28.393  31.167  1.00  0.00     0.031 A 
BRANCH  50  64
ATOM     64  C   UNL A   1      46.839  30.491  26.921  1.00  0.00    -0.014 A 
ATOM     65  C   UNL A   1      47.948  31.349  27.047  1.00  0.00     0.010 A 
ATOM     66  C   UNL A   1      45.602  31.094  26.607  1.00  0.00     0.010 A 
ATOM     67  C   UNL A   1      47.802  32.738  26.973  1.00  0.00     0.020 A 
ATOM     68  C   UNL A   1      45.452  32.476  26.493  1.00  0.00     0.020 A 
ATOM     69  C   UNL A   1      46.550  33.291  26.708  1.00  0.00     0.054 A 
BRANCH  69  70
ATOM     70  S   UNL A   1      46.364  35.087  26.681  1.00  0.00     0.124 S 
ATOM     71  O   UNL A   1      44.970  35.236  26.279  1.00  0.00    -0.237 OA
ATOM     72  O   UNL A   1      46.670  35.440  28.065  1.00  0.00    -0.237 OA
ATOM     73  O   UNL A   1      47.355  35.516  25.698  1.00  0.00    -0.744 OA
ENDBRANCH  69  70
ENDBRANCH  50  64
BRANCH  51  74
ATOM     74  C   UNL A   1      38.825  28.648  29.212  1.00  0.00    -0.014 A 
ATOM     75  C   UNL A   1      37.876  28.930  30.223  1.00  0.00     0.010 A 
ATOM     76  C   UNL A   1      38.543  29.142  27.923  1.00  0.00     0.010 A 
ATOM     77  C   UNL A   1      36.728  29.715  29.962  1.00  0.00     0.020 A 
ATOM     78  C   UNL A   1      37.408  29.924  27.657  1.00  0.00     0.020 A 
ATOM     79  C   UNL A   1      36.514  30.226  28.681  1.00  0.00     0.054 A 
BRANCH  79  80
ATOM     80  S   UNL A   1      35.137  31.382  28.368  1.00  0.00     0.124 S 
ATOM     81  O   UNL A   1      34.754  31.786  29.718  1.00  0.00    -0.237 OA
ATOM     82  O   UNL A   1      35.764  32.419  27.553  1.00  0.00    -0.237 OA
ATOM     83  O   UNL A   1      34.152  30.560  27.667  1.00  0.00    -0.744 OA
ENDBRANCH  79  80
ENDBRANCH  51  74
BRANCH  63  84
ATOM     84  C   UNL A   1      44.192  27.443  32.328  1.00  0.00    -0.014 A 
ATOM     85  C   UNL A   1      43.879  27.823  33.650  1.00  0.00     0.010 A 
ATOM     86  C   UNL A   1      44.187  26.076  32.005  1.00  0.00     0.010 A 
ATOM     87  C   UNL A   1      43.599  26.846  34.625  1.00  0.00     0.020 A 
ATOM     88  C   UNL A   1      43.892  25.106  32.960  1.00  0.00     0.020 A 
ATOM     89  C   UNL A   1      43.612  25.492  34.270  1.00  0.00     0.054 A 
BRANCH  89  90
ATOM     90  S   UNL A   1      43.246  24.223  35.515  1.00  0.00     0.124 S 
ATOM     91  O   UNL A   1      43.783  23.012  34.902  1.00  0.00    -0.237 OA
ATOM     92  O   UNL A   1      43.966  24.707  36.692  1.00  0.00    -0.237 OA
ATOM     93  O   UNL A   1      41.789  24.262  35.633  1.00  0.00    -0.744 OA
ENDBRANCH  89  90
ENDBRANCH  63  84
ENDBRANCH  37  38
ENDBRANCH  30  32
ENDBRANCH  29  30
ENDBRANCH  28  29
ENDBRANCH  27  28
ENDBRANCH   1  27
TORSDOF 20
ENDMDL
MODEL 2
REMARK VINA RESULT:     -11.1      2.648      9.389
REMARK SMILES Cc1sc(NC(=O)[C@@H]2[C@@H](C(=O)OCCOCCOC(=O)c3ccc(-c4c5nc(c(-c6ccc(S(=O)(=O)[O-])cc6)c6ccc([nH]6)c(-c6ccc(S(=O)(=O)[O-])cc6)c6nc(c(-c7ccc(S(=O)(=O)[O-])cc7)c7ccc4[nH]7)C=C6)C=C5)cc3)[C@@H]3C=C[C@H]2C3)c(C#N)c1C
REMARK SMILES IDX 15 1 14 2 13 3 12 4 10 5 11 6 9 7 8 8 84 9 81 10 83 11 85 12
REMARK SMILES IDX 82 13 6 14 5 15 7 17 4 18 1 19 2 20 3 21 89 22 86 23 90 24
REMARK SMILES IDX 87 25 88 26 16 27 17 28 18 29 19 30 20 31 21 32 22 33 80 34
REMARK SMILES IDX 23 35 79 36 24 37 25 38 26 39 73 40 27 41 78 42 72 43 74 44
REMARK SMILES IDX 28 45 77 46 71 47 70 48 29 50 59 51 40 52 58 53 41 54 44 55
REMARK SMILES IDX 57 56 75 57 42 58 43 59 56 61 76 62 45 63 30 64 31 65 39 66
REMARK SMILES IDX 32 67 38 68 33 69 34 70 35 71 36 72 37 73 60 74 61 75 69 76
REMARK SMILES IDX 62 77 68 78 63 79 64 80 65 81 66 82 67 83 46 84 47 85 55 86
REMARK SMILES IDX 48 87 54 88 49 89 50 90 51 91 52 92 53 93
REMARK H PARENT 5 16 74 49 44 60
REMARK Flexibility Score: inf
ROOT
ATOM      1  O   UNL A   1      31.190  30.759  25.828  1.00  0.00    -0.374 OA
ENDROOT
BRANCH   1   2
ATOM      2  C   UNL A   1      31.360  29.489  25.209  1.00  0.00     0.202 C 
BRANCH   2   3
ATOM      3  C   UNL A   1      32.269  29.354  23.987  1.00  0.00     0.261 C 
BRANCH   3   4
ATOM      4  O   UNL A   1      32.307  28.046  23.395  1.00  0.00    -0.463 OA
BRANCH   4   5
ATOM      5  C   UNL A   1      32.899  27.108  24.188  1.00  0.00     0.310 C 
ATOM      6  O   UNL A   1      34.062  27.176  24.569  1.00  0.00    -0.252 OA
BRANCH   5   7
ATOM      7  C   UNL A   1      31.975  25.927  24.472  1.00  0.00     0.119 C 
ATOM      8  C   UNL A   1      32.843  24.675  24.839  1.00  0.00     0.100 C 
ATOM      9  C   UNL A   1      32.742  23.856  23.492  1.00  0.00     0.025 C 
ATOM     10  C   UNL A   1      31.362  25.554  23.095  1.00  0.00     0.027 C 
ATOM     11  C   UNL A   1      31.336  23.288  23.420  1.00  0.00    -0.027 C 
ATOM     12  C   UNL A   1      32.578  24.915  22.407  1.00  0.00     0.017 C 
ATOM     13  C   UNL A   1      30.503  24.321  23.236  1.00  0.00    -0.027 C 
BRANCH   8  14
ATOM     14  C   UNL A   1      32.545  23.663  25.950  1.00  0.00     0.229 C 
ATOM     15  N   UNL A   1      33.296  22.642  26.411  1.00  0.00    -0.316 N 
ATOM     16  H   UNL A   1      33.403  22.654  27.389  1.00  0.00     0.170 HD
ATOM     17  O   UNL A   1      31.503  23.840  26.610  1.00  0.00    -0.274 OA
BRANCH  15  18
ATOM     18  C   UNL A   1      33.948  21.582  25.812  1.00  0.00     0.113 A 
ATOM     19  C   UNL A   1      34.611  18.012  24.321  1.00  0.00     0.057 C 
ATOM     20  C   UNL A   1      34.636  19.401  24.880  1.00  0.00     0.008 A 
ATOM     21  S   UNL A   1      33.190  20.115  25.480  1.00  0.00    -0.122 S 
ATOM     22  C   UNL A   1      35.723  20.252  25.005  1.00  0.00    -0.017 A 
ATOM     23  C   UNL A   1      35.307  21.519  25.546  1.00  0.00     0.090 A 
ATOM     24  C   UNL A   1      37.145  19.920  24.651  1.00  0.00     0.047 C 
BRANCH  23  25
ATOM     25  C   UNL A   1      36.210  22.591  25.841  1.00  0.00     0.103 C 
ATOM     26  N   UNL A   1      36.978  23.443  26.054  1.00  0.00    -0.192 NA
ENDBRANCH  23  25
ENDBRANCH  15  18
ENDBRANCH   8  14
ENDBRANCH   5   7
ENDBRANCH   4   5
ENDBRANCH   3   4
ENDBRANCH   2   3
ENDBRANCH   1   2
BRANCH   1  27
ATOM     27  C   UNL A   1      32.258  31.371  26.538  1.00  0.00     0.202 C 
BRANCH  27  28
ATOM     28  C   UNL A   1      33.175  30.510  27.381  1.00  0.00     0.261 C 
BRANCH  28  29
ATOM     29  O   UNL A   1      34.523  30.592  26.966  1.00  0.00    -0.460 OA
BRANCH  29  30
ATOM     30  C   UNL A   1      35.240  31.479  27.688  1.00  0.00     0.338 C 
ATOM     31  O   UNL A   1      35.301  32.686  27.524  1.00  0.00    -0.246 OA
BRANCH  30  32
ATOM     32  C   UNL A   1      36.104  30.724  28.592  1.00  0.00     0.060 A 
ATOM     33  C   UNL A   1      36.941  31.496  29.395  1.00  0.00     0.016 A 
ATOM     34  C   UNL A   1      36.387  29.389  28.274  1.00  0.00     0.016 A 
ATOM     35  C   UNL A   1      38.228  31.049  29.569  1.00  0.00     0.010 A 
ATOM     36  C   UNL A   1      37.664  28.943  28.469  1.00  0.00     0.010 A 
ATOM     37  C   UNL A   1      38.603  29.836  28.979  1.00  0.00    -0.014 A 
BRANCH  37  38
ATOM     38  C   UNL A   1      39.961  29.360  29.114  1.00  0.00     0.031 A 
ATOM     39  C   UNL A   1      40.224  29.123  30.552  1.00  0.00     0.074 A 
ATOM     40  C   UNL A   1      40.767  29.060  28.073  1.00  0.00     0.049 A 
ATOM     41  N   UNL A   1      40.730  29.985  31.373  1.00  0.00    -0.248 NA
ATOM     42  C   UNL A   1      39.515  28.012  31.224  1.00  0.00     0.031 C 
ATOM     43  C   UNL A   1      40.494  29.092  26.632  1.00  0.00     0.029 A 
ATOM     44  N   UNL A   1      42.041  28.583  28.104  1.00  0.00    -0.354 N 
ATOM     45  C   UNL A   1      40.714  29.338  32.599  1.00  0.00     0.074 A 
ATOM     46  C   UNL A   1      39.670  28.356  32.504  1.00  0.00     0.031 C 
ATOM     47  C   UNL A   1      41.473  28.425  25.965  1.00  0.00     0.029 A 
ATOM     48  C   UNL A   1      42.511  28.040  26.905  1.00  0.00     0.049 A 
ATOM     49  H   UNL A   1      42.594  28.618  28.918  1.00  0.00     0.167 HD
ATOM     50  C   UNL A   1      41.840  29.327  33.366  1.00  0.00     0.031 A 
ATOM     51  C   UNL A   1      43.657  27.311  26.741  1.00  0.00     0.031 A 
ATOM     52  C   UNL A   1      42.769  30.343  32.921  1.00  0.00     0.049 A 
ATOM     53  C   UNL A   1      44.530  27.641  27.901  1.00  0.00     0.074 A 
ATOM     54  C   UNL A   1      42.724  31.713  32.760  1.00  0.00     0.029 A 
ATOM     55  N   UNL A   1      43.809  29.895  32.140  1.00  0.00    -0.354 N 
ATOM     56  N   UNL A   1      45.027  28.835  28.079  1.00  0.00    -0.248 NA
ATOM     57  C   UNL A   1      44.365  26.840  29.105  1.00  0.00     0.031 C 
ATOM     58  C   UNL A   1      43.454  31.970  31.561  1.00  0.00     0.029 A 
ATOM     59  C   UNL A   1      44.003  30.769  31.107  1.00  0.00     0.049 A 
ATOM     60  H   UNL A   1      44.331  29.076  32.299  1.00  0.00     0.167 HD
ATOM     61  C   UNL A   1      44.804  29.109  29.422  1.00  0.00     0.074 A 
ATOM     62  C   UNL A   1      44.431  27.819  30.014  1.00  0.00     0.031 C 
ATOM     63  C   UNL A   1      44.624  30.393  29.855  1.00  0.00     0.031 A 
BRANCH  50  64
ATOM     64  C   UNL A   1      42.325  28.080  34.083  1.00  0.00    -0.014 A 
ATOM     65  C   UNL A   1      42.468  28.150  35.482  1.00  0.00     0.010 A 
ATOM     66  C   UNL A   1      42.923  26.975  33.438  1.00  0.00     0.010 A 
ATOM     67  C   UNL A   1      43.255  27.227  36.178  1.00  0.00     0.020 A 
ATOM     68  C   UNL A   1      43.678  26.028  34.127  1.00  0.00     0.020 A 
ATOM     69  C   UNL A   1      43.865  26.179  35.490  1.00  0.00     0.054 A 
BRANCH  69  70
ATOM     70  S   UNL A   1      44.933  25.035  36.391  1.00  0.00     0.124 S 
ATOM     71  O   UNL A   1      46.203  25.752  36.394  1.00  0.00    -0.237 OA
ATOM     72  O   UNL A   1      44.252  24.940  37.679  1.00  0.00    -0.237 OA
ATOM     73  O   UNL A   1      44.894  23.822  35.578  1.00  0.00    -0.744 OA
ENDBRANCH  69  70
ENDBRANCH  50  64
BRANCH  51  74
ATOM     74  C   UNL A   1      43.866  26.069  25.932  1.00  0.00    -0.014 A 
ATOM     75  C   UNL A   1      45.152  25.645  25.520  1.00  0.00     0.010 A 
ATOM     76  C   UNL A   1      42.825  25.126  25.827  1.00  0.00     0.010 A 
ATOM     77  C   UNL A   1      45.388  24.322  25.077  1.00  0.00     0.020 A 
ATOM     78  C   UNL A   1      43.051  23.811  25.392  1.00  0.00     0.020 A 
ATOM     79  C   UNL A   1      44.335  23.405  25.037  1.00  0.00     0.054 A 
BRANCH  79  80
ATOM     80  S   UNL A   1      44.654  21.653  24.638  1.00  0.00     0.124 S 
ATOM     81  O   UNL A   1      45.986  21.441  25.195  1.00  0.00    -0.237 OA
ATOM     82  O   UNL A   1      43.565  20.963  25.323  1.00  0.00    -0.237 OA
ATOM     83  O   UNL A   1      44.583  21.617  23.177  1.00  0.00    -0.744 OA
ENDBRANCH  79  80
ENDBRANCH  51  74
BRANCH  63  84
ATOM     84  C   UNL A   1      44.967  31.529  28.920  1.00  0.00    -0.014 A 
ATOM     85  C   UNL A   1      46.197  32.219  28.893  1.00  0.00     0.010 A 
ATOM     86  C   UNL A   1      44.029  31.794  27.909  1.00  0.00     0.010 A 
ATOM     87  C   UNL A   1      46.458  33.172  27.890  1.00  0.00     0.020 A 
ATOM     88  C   UNL A   1      44.289  32.721  26.902  1.00  0.00     0.020 A 
ATOM     89  C   UNL A   1      45.496  33.418  26.903  1.00  0.00     0.054 A 
BRANCH  89  90
ATOM     90  S   UNL A   1      45.823  34.638  25.600  1.00  0.00     0.124 S 
ATOM     91  O   UNL A   1      45.437  35.894  26.237  1.00  0.00    -0.237 OA
ATOM     92  O   UNL A   1      47.253  34.471  25.350  1.00  0.00    -0.237 OA
ATOM     93  O   UNL A   1      44.957  34.213  24.500  1.00  0.00    -0.744 OA
ENDBRANCH  89  90
ENDBRANCH  63  84
ENDBRANCH  37  38
ENDBRANCH  30  32
ENDBRANCH  29  30
ENDBRANCH  28  29
ENDBRANCH  27  28
ENDBRANCH   1  27
TORSDOF 20
ENDMDL
MODEL 3
REMARK VINA RESULT:     -11.0      2.763      9.562
REMARK SMILES Cc1sc(NC(=O)[C@@H]2[C@@H](C(=O)OCCOCCOC(=O)c3ccc(-c4c5nc(c(-c6ccc(S(=O)(=O)[O-])cc6)c6ccc([nH]6)c(-c6ccc(S(=O)(=O)[O-])cc6)c6nc(c(-c7ccc(S(=O)(=O)[O-])cc7)c7ccc4[nH]7)C=C6)C=C5)cc3)[C@@H]3C=C[C@H]2C3)c(C#N)c1C
REMARK SMILES IDX 15 1 14 2 13 3 12 4 10 5 11 6 9 7 8 8 84 9 81 10 83 11 85 12
REMARK SMILES IDX 82 13 6 14 5 15 7 17 4 18 1 19 2 20 3 21 89 22 86 23 90 24
REMARK SMILES IDX 87 25 88 26 16 27 17 28 18 29 19 30 20 31 21 32 22 33 80 34
REMARK SMILES IDX 23 35 79 36 24 37 25 38 26 39 73 40 27 41 78 42 72 43 74 44
REMARK SMILES IDX 28 45 77 46 71 47 70 48 29 50 59 51 40 52 58 53 41 54 44 55
REMARK SMILES IDX 57 56 75 57 42 58 43 59 56 61 76 62 45 63 30 64 31 65 39 66
REMARK SMILES IDX 32 67 38 68 33 69 34 70 35 71 36 72 37 73 60 74 61 75 69 76
REMARK SMILES IDX 62 77 68 78 63 79 64 80 65 81 66 82 67 83 46 84 47 85 55 86
REMARK SMILES IDX 48 87 54 88 49 89 50 90 51 91 52 92 53 93
REMARK H PARENT 5 16 74 49 44 60
REMARK Flexibility Score: inf
ROOT
ATOM      1  O   UNL A   1      34.299  30.998  27.931  1.00  0.00    -0.374 OA
ENDROOT
BRANCH   1   2
ATOM      2  C   UNL A   1      34.713  29.735  27.423  1.00  0.00     0.202 C 
BRANCH   2   3
ATOM      3  C   UNL A   1      34.075  29.181  26.149  1.00  0.00     0.261 C 
BRANCH   3   4
ATOM      4  O   UNL A   1      33.758  27.779  26.184  1.00  0.00    -0.463 OA
BRANCH   4   5
ATOM      5  C   UNL A   1      32.422  27.527  26.285  1.00  0.00     0.310 C 
ATOM      6  O   UNL A   1      31.733  27.883  27.234  1.00  0.00    -0.252 OA
BRANCH   5   7
ATOM      7  C   UNL A   1      31.907  26.679  25.126  1.00  0.00     0.119 C 
ATOM      8  C   UNL A   1      32.912  26.785  23.928  1.00  0.00     0.100 C 
ATOM      9  C   UNL A   1      32.116  27.766  22.978  1.00  0.00     0.025 C 
ATOM     10  C   UNL A   1      30.645  27.422  24.610  1.00  0.00     0.027 C 
ATOM     11  C   UNL A   1      30.962  26.975  22.387  1.00  0.00    -0.027 C 
ATOM     12  C   UNL A   1      31.291  28.634  23.923  1.00  0.00     0.017 C 
ATOM     13  C   UNL A   1      30.106  26.723  23.387  1.00  0.00    -0.027 C 
BRANCH   8  14
ATOM     14  C   UNL A   1      33.370  25.634  23.026  1.00  0.00     0.229 C 
ATOM     15  N   UNL A   1      33.100  24.315  23.106  1.00  0.00    -0.316 N 
ATOM     16  H   UNL A   1      32.766  23.940  22.259  1.00  0.00     0.170 HD
ATOM     17  O   UNL A   1      34.012  25.941  22.003  1.00  0.00    -0.274 OA
BRANCH  15  18
ATOM     18  C   UNL A   1      33.190  23.376  24.114  1.00  0.00     0.113 A 
ATOM     19  C   UNL A   1      34.132  21.698  27.535  1.00  0.00     0.057 C 
ATOM     20  C   UNL A   1      33.706  22.078  26.150  1.00  0.00     0.008 A 
ATOM     21  S   UNL A   1      33.951  23.685  25.584  1.00  0.00    -0.122 S 
ATOM     22  C   UNL A   1      33.113  21.275  25.188  1.00  0.00    -0.017 A 
ATOM     23  C   UNL A   1      32.816  22.044  24.009  1.00  0.00     0.090 A 
ATOM     24  C   UNL A   1      32.827  19.807  25.322  1.00  0.00     0.047 C 
BRANCH  23  25
ATOM     25  C   UNL A   1      32.247  21.486  22.819  1.00  0.00     0.103 C 
ATOM     26  N   UNL A   1      31.816  21.057  21.823  1.00  0.00    -0.192 NA
ENDBRANCH  23  25
ENDBRANCH  15  18
ENDBRANCH   8  14
ENDBRANCH   5   7
ENDBRANCH   4   5
ENDBRANCH   3   4
ENDBRANCH   2   3
ENDBRANCH   1   2
BRANCH   1  27
ATOM     27  C   UNL A   1      35.181  32.113  27.914  1.00  0.00     0.202 C 
BRANCH  27  28
ATOM     28  C   UNL A   1      34.732  33.422  28.529  1.00  0.00     0.261 C 
BRANCH  28  29
ATOM     29  O   UNL A   1      33.957  33.232  29.695  1.00  0.00    -0.460 OA
BRANCH  29  30
ATOM     30  C   UNL A   1      34.321  34.051  30.705  1.00  0.00     0.338 C 
ATOM     31  O   UNL A   1      33.986  35.211  30.870  1.00  0.00    -0.246 OA
BRANCH  30  32
ATOM     32  C   UNL A   1      35.360  33.374  31.477  1.00  0.00     0.060 A 
ATOM     33  C   UNL A   1      36.588  34.031  31.522  1.00  0.00     0.016 A 
ATOM     34  C   UNL A   1      35.236  31.994  31.682  1.00  0.00     0.016 A 
ATOM     35  C   UNL A   1      37.717  33.258  31.406  1.00  0.00     0.010 A 
ATOM     36  C   UNL A   1      36.367  31.230  31.587  1.00  0.00     0.010 A 
ATOM     37  C   UNL A   1      37.570  31.869  31.301  1.00  0.00    -0.014 A 
BRANCH  37  38
ATOM     38  C   UNL A   1      38.739  31.033  31.140  1.00  0.00     0.031 A 
ATOM     39  C   UNL A   1      39.341  30.823  32.476  1.00  0.00     0.074 A 
ATOM     40  C   UNL A   1      39.100  30.449  29.976  1.00  0.00     0.049 A 
ATOM     41  N   UNL A   1      40.268  31.553  33.004  1.00  0.00    -0.248 NA
ATOM     42  C   UNL A   1      38.600  30.006  33.462  1.00  0.00     0.031 C 
ATOM     43  C   UNL A   1      38.435  30.467  28.669  1.00  0.00     0.029 A 
ATOM     44  N   UNL A   1      40.160  29.631  29.739  1.00  0.00    -0.354 N 
ATOM     45  C   UNL A   1      40.447  31.018  34.270  1.00  0.00     0.074 A 
ATOM     46  C   UNL A   1      39.205  30.372  34.594  1.00  0.00     0.031 C 
ATOM     47  C   UNL A   1      38.970  29.506  27.870  1.00  0.00     0.029 A 
ATOM     48  C   UNL A   1      40.102  28.900  28.549  1.00  0.00     0.049 A 
ATOM     49  H   UNL A   1      40.916  29.557  30.365  1.00  0.00     0.167 HD
ATOM     50  C   UNL A   1      41.705  30.733  34.707  1.00  0.00     0.031 A 
ATOM     51  C   UNL A   1      40.923  27.865  28.194  1.00  0.00     0.031 A 
ATOM     52  C   UNL A   1      42.692  31.410  33.893  1.00  0.00     0.049 A 
ATOM     53  C   UNL A   1      42.151  28.004  29.024  1.00  0.00     0.074 A 
ATOM     54  C   UNL A   1      42.954  32.722  33.556  1.00  0.00     0.029 A 
ATOM     55  N   UNL A   1      43.307  30.634  32.938  1.00  0.00    -0.354 N 
ATOM     56  N   UNL A   1      42.968  29.014  28.893  1.00  0.00    -0.248 NA
ATOM     57  C   UNL A   1      42.146  27.362  30.330  1.00  0.00     0.031 C 
ATOM     58  C   UNL A   1      43.342  32.682  32.183  1.00  0.00     0.029 A 
ATOM     59  C   UNL A   1      43.407  31.348  31.776  1.00  0.00     0.049 A 
ATOM     60  H   UNL A   1      43.623  29.711  33.068  1.00  0.00     0.167 HD
ATOM     61  C   UNL A   1      43.226  29.425  30.194  1.00  0.00     0.074 A 
ATOM     62  C   UNL A   1      42.724  28.336  31.040  1.00  0.00     0.031 C 
ATOM     63  C   UNL A   1      43.516  30.731  30.472  1.00  0.00     0.031 A 
BRANCH  50  64
ATOM     64  C   UNL A   1      42.042  29.448  35.440  1.00  0.00    -0.014 A 
ATOM     65  C   UNL A   1      43.030  29.511  36.442  1.00  0.00     0.010 A 
ATOM     66  C   UNL A   1      41.668  28.160  34.998  1.00  0.00     0.010 A 
ATOM     67  C   UNL A   1      43.681  28.359  36.893  1.00  0.00     0.020 A 
ATOM     68  C   UNL A   1      42.284  27.001  35.468  1.00  0.00     0.020 A 
ATOM     69  C   UNL A   1      43.310  27.112  36.391  1.00  0.00     0.054 A 
BRANCH  69  70
ATOM     70  S   UNL A   1      44.205  25.640  36.933  1.00  0.00     0.124 S 
ATOM     71  O   UNL A   1      44.319  25.872  38.368  1.00  0.00    -0.237 OA
ATOM     72  O   UNL A   1      43.296  24.571  36.529  1.00  0.00    -0.237 OA
ATOM     73  O   UNL A   1      45.456  25.708  36.181  1.00  0.00    -0.744 OA
ENDBRANCH  69  70
ENDBRANCH  50  64
BRANCH  51  74
ATOM     74  C   UNL A   1      40.560  26.566  27.543  1.00  0.00    -0.014 A 
ATOM     75  C   UNL A   1      41.288  26.041  26.449  1.00  0.00     0.010 A 
ATOM     76  C   UNL A   1      39.681  25.683  28.201  1.00  0.00     0.010 A 
ATOM     77  C   UNL A   1      41.178  24.682  26.071  1.00  0.00     0.020 A 
ATOM     78  C   UNL A   1      39.568  24.333  27.834  1.00  0.00     0.020 A 
ATOM     79  C   UNL A   1      40.331  23.830  26.784  1.00  0.00     0.054 A 
BRANCH  79  80
ATOM     80  S   UNL A   1      40.309  22.041  26.423  1.00  0.00     0.124 S 
ATOM     81  O   UNL A   1      41.510  21.869  25.612  1.00  0.00    -0.237 OA
ATOM     82  O   UNL A   1      40.353  21.443  27.754  1.00  0.00    -0.237 OA
ATOM     83  O   UNL A   1      39.048  21.852  25.706  1.00  0.00    -0.744 OA
ENDBRANCH  79  80
ENDBRANCH  51  74
BRANCH  63  84
ATOM     84  C   UNL A   1      43.850  31.660  29.327  1.00  0.00    -0.014 A 
ATOM     85  C   UNL A   1      44.650  31.326  28.214  1.00  0.00     0.010 A 
ATOM     86  C   UNL A   1      43.174  32.890  29.320  1.00  0.00     0.010 A 
ATOM     87  C   UNL A   1      44.785  32.224  27.139  1.00  0.00     0.020 A 
ATOM     88  C   UNL A   1      43.288  33.776  28.251  1.00  0.00     0.020 A 
ATOM     89  C   UNL A   1      44.104  33.447  27.170  1.00  0.00     0.054 A 
BRANCH  89  90
ATOM     90  S   UNL A   1      44.264  34.612  25.787  1.00  0.00     0.124 S 
ATOM     91  O   UNL A   1      44.982  33.823  24.790  1.00  0.00    -0.237 OA
ATOM     92  O   UNL A   1      42.874  34.924  25.463  1.00  0.00    -0.237 OA
ATOM     93  O   UNL A   1      45.023  35.726  26.356  1.00  0.00    -0.744 OA
ENDBRANCH  89  90
ENDBRANCH  63  84
ENDBRANCH  37  38
ENDBRANCH  30  32
ENDBRANCH  29  30
ENDBRANCH  28  29
ENDBRANCH  27  28
ENDBRANCH   1  27
TORSDOF 20
ENDMDL
