MODEL 1
REMARK VINA RESULT:     -11.8      0.000      0.000
REMARK SMILES O=C(OCCOCCOC(=O)c1ccc2nc(-c3c[nH]nc3-c3ccc(F)cc3F)[nH]c2c1)c1ccc(-c2c3nc(c(-c4ccc(S(=O)(=O)[O-])cc4)c4ccc([nH]4)c(-c4ccc(S(=O)(=O)[O-])cc4)c4nc(c(-c5ccc(S(=O)(=O)[O-])cc5)c5ccc2[nH]5)C=C4)C=C3)cc1
REMARK SMILES IDX 5 1 4 2 3 3 2 4 1 5 34 6 35 7 93 8 36 9 92 10 37 11 38 12
REMARK SMILES IDX 39 13 86 14 40 15 91 16 85 17 87 18 41 19 90 20 84 21 83 22
REMARK SMILES IDX 42 24 72 25 53 26 71 27 54 28 57 29 70 30 88 31 55 32 56 33
REMARK SMILES IDX 69 35 89 36 58 37 43 38 44 39 52 40 45 41 51 42 46 43 47 44
REMARK SMILES IDX 48 45 49 46 50 47 73 48 74 49 82 50 75 51 81 52 76 53 77 54
REMARK SMILES IDX 78 55 79 56 80 57 59 58 60 59 68 60 61 61 67 62 62 63 63 64
REMARK SMILES IDX 64 65 65 66 66 67 6 68 7 69 8 70 9 71 10 72 11 73 12 74
REMARK SMILES IDX 13 75 33 76 14 77 32 78 15 79 31 80 16 81 17 82 18 84 19 85
REMARK SMILES IDX 22 86 20 87 21 88 23 90 24 91 29 92 25 93 28 94 30 95 26 96
REMARK SMILES IDX 27 97
REMARK H PARENT 87 23 57 34 31 83 20 89
REMARK Flexibility Score: inf
ROOT
ATOM      1  C   UNL A   1      32.904  30.650  27.285  1.00  0.00     0.202 C 
ENDROOT
BRANCH   1   2
ATOM      2  C   UNL A   1      34.102  31.384  27.886  1.00  0.00     0.261 C 
BRANCH   2   3
ATOM      3  O   UNL A   1      35.232  30.501  27.966  1.00  0.00    -0.460 OA
BRANCH   3   4
ATOM      4  C   UNL A   1      36.155  30.439  28.954  1.00  0.00     0.338 C 
ATOM      5  O   UNL A   1      35.868  30.875  30.065  1.00  0.00    -0.246 OA
BRANCH   4   6
ATOM      6  C   UNL A   1      37.522  29.877  28.744  1.00  0.00     0.060 A 
ATOM      7  C   UNL A   1      38.142  29.775  27.496  1.00  0.00     0.016 A 
ATOM      8  C   UNL A   1      38.270  29.545  29.884  1.00  0.00     0.016 A 
ATOM      9  C   UNL A   1      39.440  29.307  27.366  1.00  0.00     0.010 A 
ATOM     10  C   UNL A   1      39.601  29.132  29.768  1.00  0.00     0.010 A 
ATOM     11  C   UNL A   1      40.188  29.018  28.503  1.00  0.00    -0.014 A 
BRANCH  11  12
ATOM     12  C   UNL A   1      41.596  28.622  28.325  1.00  0.00     0.031 A 
ATOM     13  C   UNL A   1      42.670  29.646  28.503  1.00  0.00     0.074 A 
ATOM     14  C   UNL A   1      41.878  27.325  28.095  1.00  0.00     0.049 A 
ATOM     15  N   UNL A   1      43.957  29.520  28.336  1.00  0.00    -0.248 NA
ATOM     16  C   UNL A   1      42.244  30.987  28.941  1.00  0.00     0.031 C 
ATOM     17  C   UNL A   1      40.885  26.247  28.010  1.00  0.00     0.029 A 
ATOM     18  N   UNL A   1      43.074  26.685  27.911  1.00  0.00    -0.354 N 
ATOM     19  C   UNL A   1      44.493  30.770  28.609  1.00  0.00     0.074 A 
ATOM     20  C   UNL A   1      43.397  31.640  28.971  1.00  0.00     0.031 C 
ATOM     21  C   UNL A   1      41.516  25.079  27.809  1.00  0.00     0.029 A 
ATOM     22  C   UNL A   1      42.943  25.336  27.672  1.00  0.00     0.049 A 
ATOM     23  H   UNL A   1      43.943  27.145  27.946  1.00  0.00     0.167 HD
ATOM     24  C   UNL A   1      45.789  31.149  28.540  1.00  0.00     0.031 A 
ATOM     25  C   UNL A   1      43.874  24.424  27.328  1.00  0.00     0.031 A 
ATOM     26  C   UNL A   1      46.852  30.257  28.168  1.00  0.00     0.049 A 
ATOM     27  C   UNL A   1      45.292  24.900  27.170  1.00  0.00     0.074 A 
ATOM     28  C   UNL A   1      48.199  30.531  28.028  1.00  0.00     0.029 A 
ATOM     29  N   UNL A   1      46.679  28.913  27.867  1.00  0.00    -0.354 N 
ATOM     30  N   UNL A   1      45.787  26.094  27.405  1.00  0.00    -0.248 NA
ATOM     31  C   UNL A   1      46.269  23.925  26.675  1.00  0.00     0.031 C 
ATOM     32  C   UNL A   1      48.832  29.364  27.588  1.00  0.00     0.029 A 
ATOM     33  C   UNL A   1      47.888  28.350  27.506  1.00  0.00     0.049 A 
ATOM     34  H   UNL A   1      45.821  28.431  27.906  1.00  0.00     0.167 HD
ATOM     35  C   UNL A   1      47.135  26.011  27.084  1.00  0.00     0.074 A 
ATOM     36  C   UNL A   1      47.383  24.643  26.674  1.00  0.00     0.031 C 
ATOM     37  C   UNL A   1      48.084  26.980  27.106  1.00  0.00     0.031 A 
BRANCH  24  38
ATOM     38  C   UNL A   1      46.107  32.596  28.788  1.00  0.00    -0.014 A 
ATOM     39  C   UNL A   1      46.446  33.070  30.068  1.00  0.00     0.010 A 
ATOM     40  C   UNL A   1      46.095  33.494  27.705  1.00  0.00     0.010 A 
ATOM     41  C   UNL A   1      46.748  34.422  30.261  1.00  0.00     0.020 A 
ATOM     42  C   UNL A   1      46.415  34.842  27.891  1.00  0.00     0.020 A 
ATOM     43  C   UNL A   1      46.729  35.299  29.172  1.00  0.00     0.054 A 
BRANCH  43  44
ATOM     44  S   UNL A   1      47.159  37.040  29.445  1.00  0.00     0.124 S 
ATOM     45  O   UNL A   1      47.601  37.026  30.838  1.00  0.00    -0.237 OA
ATOM     46  O   UNL A   1      48.209  37.269  28.456  1.00  0.00    -0.237 OA
ATOM     47  O   UNL A   1      45.908  37.750  29.197  1.00  0.00    -0.744 OA
ENDBRANCH  43  44
ENDBRANCH  24  38
BRANCH  25  48
ATOM     48  C   UNL A   1      43.483  23.022  27.005  1.00  0.00    -0.014 A 
ATOM     49  C   UNL A   1      42.749  22.240  27.913  1.00  0.00     0.010 A 
ATOM     50  C   UNL A   1      43.884  22.445  25.783  1.00  0.00     0.010 A 
ATOM     51  C   UNL A   1      42.455  20.902  27.622  1.00  0.00     0.020 A 
ATOM     52  C   UNL A   1      43.564  21.121  25.475  1.00  0.00     0.020 A 
ATOM     53  C   UNL A   1      42.871  20.349  26.407  1.00  0.00     0.054 A 
BRANCH  53  54
ATOM     54  S   UNL A   1      42.485  18.614  26.045  1.00  0.00     0.124 S 
ATOM     55  O   UNL A   1      43.360  18.342  24.909  1.00  0.00    -0.237 OA
ATOM     56  O   UNL A   1      42.838  17.942  27.292  1.00  0.00    -0.237 OA
ATOM     57  O   UNL A   1      41.056  18.637  25.742  1.00  0.00    -0.744 OA
ENDBRANCH  53  54
ENDBRANCH  25  48
BRANCH  37  58
ATOM     58  C   UNL A   1      49.468  26.582  26.682  1.00  0.00    -0.014 A 
ATOM     59  C   UNL A   1      50.334  25.938  27.581  1.00  0.00     0.010 A 
ATOM     60  C   UNL A   1      49.873  26.789  25.352  1.00  0.00     0.010 A 
ATOM     61  C   UNL A   1      51.597  25.519  27.159  1.00  0.00     0.020 A 
ATOM     62  C   UNL A   1      51.125  26.347  24.920  1.00  0.00     0.020 A 
ATOM     63  C   UNL A   1      51.982  25.723  25.831  1.00  0.00     0.054 A 
BRANCH  63  64
ATOM     64  S   UNL A   1      53.597  25.107  25.288  1.00  0.00     0.124 S 
ATOM     65  O   UNL A   1      54.496  25.708  26.270  1.00  0.00    -0.237 OA
ATOM     66  O   UNL A   1      53.439  23.658  25.386  1.00  0.00    -0.237 OA
ATOM     67  O   UNL A   1      53.724  25.622  23.927  1.00  0.00    -0.744 OA
ENDBRANCH  63  64
ENDBRANCH  37  58
ENDBRANCH  11  12
ENDBRANCH   4   6
ENDBRANCH   3   4
ENDBRANCH   2   3
ENDBRANCH   1   2
BRANCH   1  68
ATOM     68  O   UNL A   1      33.014  30.356  25.894  1.00  0.00    -0.374 OA
BRANCH  68  69
ATOM     69  C   UNL A   1      31.909  29.649  25.313  1.00  0.00     0.202 C 
BRANCH  69  70
ATOM     70  C   UNL A   1      32.391  28.889  24.070  1.00  0.00     0.261 C 
BRANCH  70  71
ATOM     71  O   UNL A   1      31.319  28.877  23.112  1.00  0.00    -0.460 OA
BRANCH  71  72
ATOM     72  C   UNL A   1      30.446  27.845  23.263  1.00  0.00     0.338 C 
ATOM     73  O   UNL A   1      29.239  27.892  23.355  1.00  0.00    -0.246 OA
BRANCH  72  74
ATOM     74  C   UNL A   1      31.210  26.604  23.006  1.00  0.00     0.062 A 
ATOM     75  C   UNL A   1      31.963  26.451  21.836  1.00  0.00     0.018 A 
ATOM     76  C   UNL A   1      31.051  25.554  23.930  1.00  0.00     0.044 A 
ATOM     77  C   UNL A   1      32.599  25.237  21.563  1.00  0.00     0.031 A 
ATOM     78  C   UNL A   1      31.629  24.334  23.584  1.00  0.00     0.067 A 
ATOM     79  C   UNL A   1      32.428  24.171  22.457  1.00  0.00     0.089 A 
ATOM     80  N   UNL A   1      31.595  23.087  24.160  1.00  0.00    -0.338 N 
ATOM     81  N   UNL A   1      32.974  22.920  22.431  1.00  0.00    -0.228 NA
ATOM     82  C   UNL A   1      32.471  22.291  23.471  1.00  0.00     0.142 A 
ATOM     83  H   UNL A   1      31.041  22.815  24.928  1.00  0.00     0.168 HD
BRANCH  82  84
ATOM     84  C   UNL A   1      32.975  20.988  23.943  1.00  0.00     0.063 A 
ATOM     85  C   UNL A   1      32.323  19.783  23.967  1.00  0.00     0.117 A 
ATOM     86  C   UNL A   1      34.254  20.757  24.511  1.00  0.00     0.106 A 
ATOM     87  N   UNL A   1      33.251  18.893  24.433  1.00  0.00    -0.284 N 
ATOM     88  N   UNL A   1      34.404  19.463  24.830  1.00  0.00    -0.175 NA
ATOM     89  H   UNL A   1      33.090  17.923  24.473  1.00  0.00     0.189 HD
BRANCH  86  90
ATOM     90  C   UNL A   1      35.215  21.783  24.886  1.00  0.00     0.039 A 
ATOM     91  C   UNL A   1      36.448  21.838  24.211  1.00  0.00     0.016 A 
ATOM     92  C   UNL A   1      34.986  22.647  25.957  1.00  0.00     0.135 A 
ATOM     93  C   UNL A   1      37.436  22.734  24.619  1.00  0.00     0.040 A 
ATOM     94  C   UNL A   1      35.967  23.548  26.364  1.00  0.00     0.079 A 
ATOM     95  F   UNL A   1      33.832  22.609  26.640  1.00  0.00    -0.206 F 
ATOM     96  C   UNL A   1      37.185  23.579  25.692  1.00  0.00     0.126 A 
ATOM     97  F   UNL A   1      38.135  24.434  26.090  1.00  0.00    -0.207 F 
ENDBRANCH  86  90
ENDBRANCH  82  84
ENDBRANCH  72  74
ENDBRANCH  71  72
ENDBRANCH  70  71
ENDBRANCH  69  70
ENDBRANCH  68  69
ENDBRANCH   1  68
TORSDOF 19
ENDMDL
MODEL 2
REMARK VINA RESULT:     -11.4      0.852      7.982
REMARK SMILES O=C(OCCOCCOC(=O)c1ccc2nc(-c3c[nH]nc3-c3ccc(F)cc3F)[nH]c2c1)c1ccc(-c2c3nc(c(-c4ccc(S(=O)(=O)[O-])cc4)c4ccc([nH]4)c(-c4ccc(S(=O)(=O)[O-])cc4)c4nc(c(-c5ccc(S(=O)(=O)[O-])cc5)c5ccc2[nH]5)C=C4)C=C3)cc1
REMARK SMILES IDX 5 1 4 2 3 3 2 4 1 5 34 6 35 7 93 8 36 9 92 10 37 11 38 12
REMARK SMILES IDX 39 13 86 14 40 15 91 16 85 17 87 18 41 19 90 20 84 21 83 22
REMARK SMILES IDX 42 24 72 25 53 26 71 27 54 28 57 29 70 30 88 31 55 32 56 33
REMARK SMILES IDX 69 35 89 36 58 37 43 38 44 39 52 40 45 41 51 42 46 43 47 44
REMARK SMILES IDX 48 45 49 46 50 47 73 48 74 49 82 50 75 51 81 52 76 53 77 54
REMARK SMILES IDX 78 55 79 56 80 57 59 58 60 59 68 60 61 61 67 62 62 63 63 64
REMARK SMILES IDX 64 65 65 66 66 67 6 68 7 69 8 70 9 71 10 72 11 73 12 74
REMARK SMILES IDX 13 75 33 76 14 77 32 78 15 79 31 80 16 81 17 82 18 84 19 85
REMARK SMILES IDX 22 86 20 87 21 88 23 90 24 91 29 92 25 93 28 94 30 95 26 96
REMARK SMILES IDX 27 97
REMARK H PARENT 87 23 57 34 31 83 20 89
REMARK Flexibility Score: inf
ROOT
ATOM      1  C   UNL A   1      33.805  30.083  27.106  1.00  0.00     0.202 C 
ENDROOT
BRANCH   1   2
ATOM      2  C   UNL A   1      35.049  29.333  27.583  1.00  0.00     0.261 C 
BRANCH   2   3
ATOM      3  O   UNL A   1      35.712  30.083  28.612  1.00  0.00    -0.460 OA
BRANCH   3   4
ATOM      4  C   UNL A   1      36.626  29.627  29.500  1.00  0.00     0.338 C 
ATOM      5  O   UNL A   1      36.258  29.335  30.635  1.00  0.00    -0.246 OA
BRANCH   4   6
ATOM      6  C   UNL A   1      38.072  29.479  29.163  1.00  0.00     0.060 A 
ATOM      7  C   UNL A   1      39.058  29.128  30.089  1.00  0.00     0.016 A 
ATOM      8  C   UNL A   1      38.439  29.582  27.813  1.00  0.00     0.016 A 
ATOM      9  C   UNL A   1      40.378  28.940  29.708  1.00  0.00     0.010 A 
ATOM     10  C   UNL A   1      39.754  29.331  27.410  1.00  0.00     0.010 A 
ATOM     11  C   UNL A   1      40.726  29.004  28.363  1.00  0.00    -0.014 A 
BRANCH  11  12
ATOM     12  C   UNL A   1      42.117  28.696  27.990  1.00  0.00     0.031 A 
ATOM     13  C   UNL A   1      42.476  27.296  27.606  1.00  0.00     0.074 A 
ATOM     14  C   UNL A   1      43.005  29.705  27.919  1.00  0.00     0.049 A 
ATOM     15  N   UNL A   1      43.646  26.805  27.304  1.00  0.00    -0.248 NA
ATOM     16  C   UNL A   1      41.374  26.321  27.539  1.00  0.00     0.031 C 
ATOM     17  C   UNL A   1      42.702  31.118  28.181  1.00  0.00     0.029 A 
ATOM     18  N   UNL A   1      44.334  29.711  27.589  1.00  0.00    -0.354 N 
ATOM     19  C   UNL A   1      43.431  25.459  27.048  1.00  0.00     0.074 A 
ATOM     20  C   UNL A   1      42.016  25.209  27.212  1.00  0.00     0.031 C 
ATOM     21  C   UNL A   1      43.808  31.852  27.983  1.00  0.00     0.029 A 
ATOM     22  C   UNL A   1      44.911  30.959  27.660  1.00  0.00     0.049 A 
ATOM     23  H   UNL A   1      44.828  28.902  27.326  1.00  0.00     0.167 HD
ATOM     24  C   UNL A   1      44.348  24.520  26.725  1.00  0.00     0.031 A 
ATOM     25  C   UNL A   1      46.202  31.323  27.530  1.00  0.00     0.031 A 
ATOM     26  C   UNL A   1      45.748  24.804  26.578  1.00  0.00     0.049 A 
ATOM     27  C   UNL A   1      47.209  30.238  27.262  1.00  0.00     0.074 A 
ATOM     28  C   UNL A   1      46.780  23.932  26.287  1.00  0.00     0.029 A 
ATOM     29  N   UNL A   1      46.312  26.065  26.722  1.00  0.00    -0.354 N 
ATOM     30  N   UNL A   1      47.000  28.959  27.047  1.00  0.00    -0.248 NA
ATOM     31  C   UNL A   1      48.622  30.632  27.246  1.00  0.00     0.031 C 
ATOM     32  C   UNL A   1      47.976  24.658  26.311  1.00  0.00     0.029 A 
ATOM     33  C   UNL A   1      47.683  25.990  26.563  1.00  0.00     0.049 A 
ATOM     34  H   UNL A   1      45.810  26.891  26.908  1.00  0.00     0.167 HD
ATOM     35  C   UNL A   1      48.257  28.396  26.873  1.00  0.00     0.074 A 
ATOM     36  C   UNL A   1      49.216  29.479  26.971  1.00  0.00     0.031 C 
ATOM     37  C   UNL A   1      48.596  27.099  26.668  1.00  0.00     0.031 A 
BRANCH  24  38
ATOM     38  C   UNL A   1      43.877  23.100  26.596  1.00  0.00    -0.014 A 
ATOM     39  C   UNL A   1      42.938  22.548  27.486  1.00  0.00     0.010 A 
ATOM     40  C   UNL A   1      44.366  22.310  25.539  1.00  0.00     0.010 A 
ATOM     41  C   UNL A   1      42.512  21.226  27.330  1.00  0.00     0.020 A 
ATOM     42  C   UNL A   1      43.929  20.994  25.369  1.00  0.00     0.020 A 
ATOM     43  C   UNL A   1      43.011  20.456  26.273  1.00  0.00     0.054 A 
BRANCH  43  44
ATOM     44  S   UNL A   1      42.415  18.755  26.074  1.00  0.00     0.124 S 
ATOM     45  O   UNL A   1      43.253  18.268  24.982  1.00  0.00    -0.237 OA
ATOM     46  O   UNL A   1      42.685  18.166  27.384  1.00  0.00    -0.237 OA
ATOM     47  O   UNL A   1      41.001  18.917  25.748  1.00  0.00    -0.744 OA
ENDBRANCH  43  44
ENDBRANCH  24  38
BRANCH  25  48
ATOM     48  C   UNL A   1      46.622  32.735  27.760  1.00  0.00    -0.014 A 
ATOM     49  C   UNL A   1      46.938  33.202  29.047  1.00  0.00     0.010 A 
ATOM     50  C   UNL A   1      46.670  33.639  26.680  1.00  0.00     0.010 A 
ATOM     51  C   UNL A   1      47.259  34.549  29.255  1.00  0.00     0.020 A 
ATOM     52  C   UNL A   1      47.022  34.975  26.878  1.00  0.00     0.020 A 
ATOM     53  C   UNL A   1      47.292  35.429  28.169  1.00  0.00     0.054 A 
BRANCH  53  54
ATOM     54  S   UNL A   1      47.707  37.172  28.453  1.00  0.00     0.124 S 
ATOM     55  O   UNL A   1      46.844  37.507  29.581  1.00  0.00    -0.237 OA
ATOM     56  O   UNL A   1      49.137  37.116  28.745  1.00  0.00    -0.237 OA
ATOM     57  O   UNL A   1      47.362  37.816  27.188  1.00  0.00    -0.744 OA
ENDBRANCH  53  54
ENDBRANCH  25  48
BRANCH  37  58
ATOM     58  C   UNL A   1      50.060  26.796  26.532  1.00  0.00    -0.014 A 
ATOM     59  C   UNL A   1      50.681  26.817  25.272  1.00  0.00     0.010 A 
ATOM     60  C   UNL A   1      50.831  26.562  27.684  1.00  0.00     0.010 A 
ATOM     61  C   UNL A   1      52.054  26.591  25.163  1.00  0.00     0.020 A 
ATOM     62  C   UNL A   1      52.209  26.364  27.581  1.00  0.00     0.020 A 
ATOM     63  C   UNL A   1      52.809  26.370  26.319  1.00  0.00     0.054 A 
BRANCH  63  64
ATOM     64  S   UNL A   1      54.601  26.151  26.159  1.00  0.00     0.124 S 
ATOM     65  O   UNL A   1      54.722  25.628  24.801  1.00  0.00    -0.237 OA
ATOM     66  O   UNL A   1      55.109  27.506  26.359  1.00  0.00    -0.237 OA
ATOM     67  O   UNL A   1      54.929  25.206  27.224  1.00  0.00    -0.744 OA
ENDBRANCH  63  64
ENDBRANCH  37  58
ENDBRANCH  11  12
ENDBRANCH   4   6
ENDBRANCH   3   4
ENDBRANCH   2   3
ENDBRANCH   1   2
BRANCH   1  68
ATOM     68  O   UNL A   1      32.730  29.253  26.675  1.00  0.00    -0.374 OA
BRANCH  68  69
ATOM     69  C   UNL A   1      31.817  29.843  25.738  1.00  0.00     0.202 C 
BRANCH  69  70
ATOM     70  C   UNL A   1      31.910  29.098  24.401  1.00  0.00     0.261 C 
BRANCH  70  71
ATOM     71  O   UNL A   1      30.694  28.350  24.223  1.00  0.00    -0.460 OA
BRANCH  71  72
ATOM     72  C   UNL A   1      30.475  27.937  22.945  1.00  0.00     0.338 C 
ATOM     73  O   UNL A   1      29.948  28.546  22.041  1.00  0.00    -0.246 OA
BRANCH  72  74
ATOM     74  C   UNL A   1      31.259  26.695  22.762  1.00  0.00     0.062 A 
ATOM     75  C   UNL A   1      32.100  26.531  21.656  1.00  0.00     0.018 A 
ATOM     76  C   UNL A   1      31.031  25.655  23.682  1.00  0.00     0.044 A 
ATOM     77  C   UNL A   1      32.758  25.315  21.446  1.00  0.00     0.031 A 
ATOM     78  C   UNL A   1      31.636  24.433  23.396  1.00  0.00     0.067 A 
ATOM     79  C   UNL A   1      32.520  24.260  22.336  1.00  0.00     0.089 A 
ATOM     80  N   UNL A   1      31.560  23.192  23.982  1.00  0.00    -0.338 N 
ATOM     81  N   UNL A   1      33.069  23.009  22.366  1.00  0.00    -0.228 NA
ATOM     82  C   UNL A   1      32.488  22.391  23.371  1.00  0.00     0.142 A 
ATOM     83  H   UNL A   1      30.949  22.927  24.708  1.00  0.00     0.168 HD
BRANCH  82  84
ATOM     84  C   UNL A   1      32.957  21.095  23.896  1.00  0.00     0.063 A 
ATOM     85  C   UNL A   1      32.280  19.904  23.946  1.00  0.00     0.117 A 
ATOM     86  C   UNL A   1      34.220  20.858  24.496  1.00  0.00     0.106 A 
ATOM     87  N   UNL A   1      33.181  19.012  24.459  1.00  0.00    -0.284 N 
ATOM     88  N   UNL A   1      34.337  19.572  24.860  1.00  0.00    -0.175 NA
ATOM     89  H   UNL A   1      32.999  18.047  24.527  1.00  0.00     0.189 HD
BRANCH  86  90
ATOM     90  C   UNL A   1      35.194  21.876  24.857  1.00  0.00     0.039 A 
ATOM     91  C   UNL A   1      36.184  22.230  23.922  1.00  0.00     0.016 A 
ATOM     92  C   UNL A   1      35.231  22.437  26.133  1.00  0.00     0.135 A 
ATOM     93  C   UNL A   1      37.199  23.119  24.273  1.00  0.00     0.040 A 
ATOM     94  C   UNL A   1      36.239  23.331  26.487  1.00  0.00     0.079 A 
ATOM     95  F   UNL A   1      34.317  22.107  27.059  1.00  0.00    -0.206 F 
ATOM     96  C   UNL A   1      37.216  23.659  25.553  1.00  0.00     0.126 A 
ATOM     97  F   UNL A   1      38.196  24.507  25.895  1.00  0.00    -0.207 F 
ENDBRANCH  86  90
ENDBRANCH  82  84
ENDBRANCH  72  74
ENDBRANCH  71  72
ENDBRANCH  70  71
ENDBRANCH  69  70
ENDBRANCH  68  69
ENDBRANCH   1  68
TORSDOF 19
ENDMDL
MODEL 3
REMARK VINA RESULT:     -11.4      6.373     11.546
REMARK SMILES O=C(OCCOCCOC(=O)c1ccc2nc(-c3c[nH]nc3-c3ccc(F)cc3F)[nH]c2c1)c1ccc(-c2c3nc(c(-c4ccc(S(=O)(=O)[O-])cc4)c4ccc([nH]4)c(-c4ccc(S(=O)(=O)[O-])cc4)c4nc(c(-c5ccc(S(=O)(=O)[O-])cc5)c5ccc2[nH]5)C=C4)C=C3)cc1
REMARK SMILES IDX 5 1 4 2 3 3 2 4 1 5 34 6 35 7 93 8 36 9 92 10 37 11 38 12
REMARK SMILES IDX 39 13 86 14 40 15 91 16 85 17 87 18 41 19 90 20 84 21 83 22
REMARK SMILES IDX 42 24 72 25 53 26 71 27 54 28 57 29 70 30 88 31 55 32 56 33
REMARK SMILES IDX 69 35 89 36 58 37 43 38 44 39 52 40 45 41 51 42 46 43 47 44
REMARK SMILES IDX 48 45 49 46 50 47 73 48 74 49 82 50 75 51 81 52 76 53 77 54
REMARK SMILES IDX 78 55 79 56 80 57 59 58 60 59 68 60 61 61 67 62 62 63 63 64
REMARK SMILES IDX 64 65 65 66 66 67 6 68 7 69 8 70 9 71 10 72 11 73 12 74
REMARK SMILES IDX 13 75 33 76 14 77 32 78 15 79 31 80 16 81 17 82 18 84 19 85
REMARK SMILES IDX 22 86 20 87 21 88 23 90 24 91 29 92 25 93 28 94 30 95 26 96
REMARK SMILES IDX 27 97
REMARK H PARENT 87 23 57 34 31 83 20 89
REMARK Flexibility Score: inf
ROOT
ATOM      1  C   UNL A   1      43.741  23.617  26.885  1.00  0.00     0.202 C 
ENDROOT
BRANCH   1   2
ATOM      2  C   UNL A   1      43.328  24.216  25.541  1.00  0.00     0.261 C 
BRANCH   2   3
ATOM      3  O   UNL A   1      42.133  24.997  25.696  1.00  0.00    -0.460 OA
BRANCH   3   4
ATOM      4  C   UNL A   1      42.032  26.347  25.708  1.00  0.00     0.338 C 
ATOM      5  O   UNL A   1      42.281  26.972  24.680  1.00  0.00    -0.246 OA
BRANCH   4   6
ATOM      6  C   UNL A   1      41.645  27.115  26.928  1.00  0.00     0.060 A 
ATOM      7  C   UNL A   1      40.890  26.586  27.977  1.00  0.00     0.016 A 
ATOM      8  C   UNL A   1      42.177  28.405  27.080  1.00  0.00     0.016 A 
ATOM      9  C   UNL A   1      40.616  27.324  29.119  1.00  0.00     0.010 A 
ATOM     10  C   UNL A   1      41.960  29.132  28.254  1.00  0.00     0.010 A 
ATOM     11  C   UNL A   1      41.179  28.585  29.279  1.00  0.00    -0.014 A 
BRANCH  11  12
ATOM     12  C   UNL A   1      40.948  29.292  30.550  1.00  0.00     0.031 A 
ATOM     13  C   UNL A   1      39.815  30.263  30.649  1.00  0.00     0.074 A 
ATOM     14  C   UNL A   1      41.710  28.975  31.614  1.00  0.00     0.049 A 
ATOM     15  N   UNL A   1      39.478  31.028  31.651  1.00  0.00    -0.248 NA
ATOM     16  C   UNL A   1      38.936  30.382  29.473  1.00  0.00     0.031 C 
ATOM     17  C   UNL A   1      42.771  27.960  31.620  1.00  0.00     0.029 A 
ATOM     18  N   UNL A   1      41.704  29.451  32.898  1.00  0.00    -0.354 N 
ATOM     19  C   UNL A   1      38.373  31.746  31.216  1.00  0.00     0.074 A 
ATOM     20  C   UNL A   1      38.083  31.316  29.866  1.00  0.00     0.031 C 
ATOM     21  C   UNL A   1      43.298  27.879  32.852  1.00  0.00     0.029 A 
ATOM     22  C   UNL A   1      42.672  28.885  33.697  1.00  0.00     0.049 A 
ATOM     23  H   UNL A   1      41.069  30.131  33.218  1.00  0.00     0.167 HD
ATOM     24  C   UNL A   1      37.684  32.694  31.889  1.00  0.00     0.031 A 
ATOM     25  C   UNL A   1      43.039  29.190  34.957  1.00  0.00     0.031 A 
ATOM     26  C   UNL A   1      38.007  33.101  33.229  1.00  0.00     0.049 A 
ATOM     27  C   UNL A   1      42.311  30.313  35.643  1.00  0.00     0.074 A 
ATOM     28  C   UNL A   1      37.405  34.074  34.004  1.00  0.00     0.029 A 
ATOM     29  N   UNL A   1      39.034  32.557  33.988  1.00  0.00    -0.354 N 
ATOM     30  N   UNL A   1      41.282  31.008  35.214  1.00  0.00    -0.248 NA
ATOM     31  C   UNL A   1      42.806  30.716  36.965  1.00  0.00     0.031 C 
ATOM     32  C   UNL A   1      38.106  34.156  35.212  1.00  0.00     0.029 A 
ATOM     33  C   UNL A   1      39.109  33.197  35.210  1.00  0.00     0.049 A 
ATOM     34  H   UNL A   1      39.622  31.821  33.699  1.00  0.00     0.167 HD
ATOM     35  C   UNL A   1      41.008  31.931  36.214  1.00  0.00     0.074 A 
ATOM     36  C   UNL A   1      41.954  31.682  37.283  1.00  0.00     0.031 C 
ATOM     37  C   UNL A   1      40.071  32.911  36.244  1.00  0.00     0.031 A 
BRANCH  24  38
ATOM     38  C   UNL A   1      36.580  33.404  31.160  1.00  0.00    -0.014 A 
ATOM     39  C   UNL A   1      36.781  33.977  29.892  1.00  0.00     0.010 A 
ATOM     40  C   UNL A   1      35.303  33.472  31.749  1.00  0.00     0.010 A 
ATOM     41  C   UNL A   1      35.727  34.621  29.235  1.00  0.00     0.020 A 
ATOM     42  C   UNL A   1      34.244  34.099  31.087  1.00  0.00     0.020 A 
ATOM     43  C   UNL A   1      34.466  34.679  29.837  1.00  0.00     0.054 A 
BRANCH  43  44
ATOM     44  S   UNL A   1      33.110  35.490  28.948  1.00  0.00     0.124 S 
ATOM     45  O   UNL A   1      33.826  36.473  28.138  1.00  0.00    -0.237 OA
ATOM     46  O   UNL A   1      32.507  34.385  28.206  1.00  0.00    -0.237 OA
ATOM     47  O   UNL A   1      32.280  36.048  30.012  1.00  0.00    -0.744 OA
ENDBRANCH  43  44
ENDBRANCH  24  38
BRANCH  25  48
ATOM     48  C   UNL A   1      44.204  28.513  35.595  1.00  0.00    -0.014 A 
ATOM     49  C   UNL A   1      44.034  27.380  36.409  1.00  0.00     0.010 A 
ATOM     50  C   UNL A   1      45.502  29.031  35.418  1.00  0.00     0.010 A 
ATOM     51  C   UNL A   1      45.131  26.802  37.059  1.00  0.00     0.020 A 
ATOM     52  C   UNL A   1      46.604  28.438  36.038  1.00  0.00     0.020 A 
ATOM     53  C   UNL A   1      46.408  27.339  36.875  1.00  0.00     0.054 A 
BRANCH  53  54
ATOM     54  S   UNL A   1      47.820  26.581  37.725  1.00  0.00     0.124 S 
ATOM     55  O   UNL A   1      48.893  27.525  37.429  1.00  0.00    -0.237 OA
ATOM     56  O   UNL A   1      47.374  26.545  39.115  1.00  0.00    -0.237 OA
ATOM     57  O   UNL A   1      47.943  25.272  37.085  1.00  0.00    -0.744 OA
ENDBRANCH  53  54
ENDBRANCH  25  48
BRANCH  37  58
ATOM     58  C   UNL A   1      40.030  33.771  37.473  1.00  0.00    -0.014 A 
ATOM     59  C   UNL A   1      40.792  34.949  37.549  1.00  0.00     0.010 A 
ATOM     60  C   UNL A   1      39.164  33.435  38.528  1.00  0.00     0.010 A 
ATOM     61  C   UNL A   1      40.701  35.772  38.672  1.00  0.00     0.020 A 
ATOM     62  C   UNL A   1      39.050  34.270  39.640  1.00  0.00     0.020 A 
ATOM     63  C   UNL A   1      39.828  35.429  39.708  1.00  0.00     0.054 A 
BRANCH  63  64
ATOM     64  S   UNL A   1      39.674  36.550  41.123  1.00  0.00     0.124 S 
ATOM     65  O   UNL A   1      38.688  37.514  40.640  1.00  0.00    -0.237 OA
ATOM     66  O   UNL A   1      39.216  35.663  42.189  1.00  0.00    -0.237 OA
ATOM     67  O   UNL A   1      41.027  37.075  41.296  1.00  0.00    -0.744 OA
ENDBRANCH  63  64
ENDBRANCH  37  58
ENDBRANCH  11  12
ENDBRANCH   4   6
ENDBRANCH   3   4
ENDBRANCH   2   3
ENDBRANCH   1   2
BRANCH   1  68
ATOM     68  O   UNL A   1      43.919  22.202  26.884  1.00  0.00    -0.374 OA
BRANCH  68  69
ATOM     69  C   UNL A   1      43.564  21.526  25.670  1.00  0.00     0.202 C 
BRANCH  69  70
ATOM     70  C   UNL A   1      42.501  20.462  25.974  1.00  0.00     0.261 C 
BRANCH  70  71
ATOM     71  O   UNL A   1      41.212  21.023  25.672  1.00  0.00    -0.460 OA
BRANCH  71  72
ATOM     72  C   UNL A   1      40.476  21.354  26.768  1.00  0.00     0.338 C 
ATOM     73  O   UNL A   1      40.803  21.302  27.932  1.00  0.00    -0.246 OA
BRANCH  72  74
ATOM     74  C   UNL A   1      39.281  22.073  26.273  1.00  0.00     0.062 A 
ATOM     75  C   UNL A   1      39.051  23.410  26.617  1.00  0.00     0.018 A 
ATOM     76  C   UNL A   1      38.340  21.321  25.545  1.00  0.00     0.044 A 
ATOM     77  C   UNL A   1      37.869  24.045  26.222  1.00  0.00     0.031 A 
ATOM     78  C   UNL A   1      37.139  21.960  25.242  1.00  0.00     0.067 A 
ATOM     79  C   UNL A   1      36.909  23.302  25.522  1.00  0.00     0.089 A 
ATOM     80  N   UNL A   1      35.972  21.529  24.659  1.00  0.00    -0.338 N 
ATOM     81  N   UNL A   1      35.713  23.705  25.000  1.00  0.00    -0.228 NA
ATOM     82  C   UNL A   1      35.174  22.627  24.474  1.00  0.00     0.142 A 
ATOM     83  H   UNL A   1      35.750  20.600  24.419  1.00  0.00     0.168 HD
BRANCH  82  84
ATOM     84  C   UNL A   1      33.984  22.665  23.605  1.00  0.00     0.063 A 
ATOM     85  C   UNL A   1      33.502  23.717  22.870  1.00  0.00     0.117 A 
ATOM     86  C   UNL A   1      33.078  21.593  23.402  1.00  0.00     0.106 A 
ATOM     87  N   UNL A   1      32.425  23.209  22.197  1.00  0.00    -0.284 N 
ATOM     88  N   UNL A   1      32.106  21.949  22.548  1.00  0.00    -0.175 NA
ATOM     89  H   UNL A   1      31.928  23.719  21.518  1.00  0.00     0.189 HD
BRANCH  86  90
ATOM     90  C   UNL A   1      33.062  20.342  24.144  1.00  0.00     0.039 A 
ATOM     91  C   UNL A   1      33.243  19.135  23.444  1.00  0.00     0.016 A 
ATOM     92  C   UNL A   1      32.778  20.301  25.509  1.00  0.00     0.135 A 
ATOM     93  C   UNL A   1      33.123  17.913  24.104  1.00  0.00     0.040 A 
ATOM     94  C   UNL A   1      32.663  19.082  26.174  1.00  0.00     0.079 A 
ATOM     95  F   UNL A   1      32.577  21.430  26.206  1.00  0.00    -0.206 F 
ATOM     96  C   UNL A   1      32.833  17.900  25.462  1.00  0.00     0.126 A 
ATOM     97  F   UNL A   1      32.708  16.726  26.095  1.00  0.00    -0.207 F 
ENDBRANCH  86  90
ENDBRANCH  82  84
ENDBRANCH  72  74
ENDBRANCH  71  72
ENDBRANCH  70  71
ENDBRANCH  69  70
ENDBRANCH  68  69
ENDBRANCH   1  68
TORSDOF 19
ENDMDL
