MODEL 1
REMARK VINA RESULT:     -10.1      0.000      0.000
REMARK SMILES C[C@@H](C(=O)OCCOCCOC(=O)c1ccc(-c2c3nc(c(-c4ccc(S(=O)(=O)[O-])cc4)c4ccc([nH]4)c(-c4ccc(S(=O)(=O)[O-])cc4)c4nc(c(-c5ccc(S(=O)(=O)[O-])cc5)c5ccc2[nH]5)C=C4)C=C3)cc1)c1ccc(Cc2ccoc2)cc1F
REMARK SMILES IDX 8 1 7 2 6 3 5 4 3 5 4 6 2 7 1 8 74 9 75 10 85 11 76 12 84 13
REMARK SMILES IDX 86 14 77 15 78 16 79 17 80 18 83 19 81 20 82 21 9 22 10 23
REMARK SMILES IDX 11 24 12 25 13 26 14 27 15 28 73 29 16 30 72 31 17 32 18 33
REMARK SMILES IDX 19 34 66 35 20 36 71 37 65 38 67 39 21 40 70 41 64 42 63 43
REMARK SMILES IDX 22 45 52 46 33 47 51 48 34 49 37 50 50 51 68 52 35 53 36 54
REMARK SMILES IDX 49 56 69 57 38 58 23 59 24 60 32 61 25 62 31 63 26 64 27 65
REMARK SMILES IDX 28 66 29 67 30 68 53 69 54 70 62 71 55 72 61 73 56 74 57 75
REMARK SMILES IDX 58 76 59 77 60 78 39 79 40 80 48 81 41 82 47 83 42 84 43 85
REMARK SMILES IDX 44 86 45 87 46 88
REMARK H PARENT 67 44 37 55
REMARK Flexibility Score: inf
ROOT
ATOM      1  O   UNL A   1      33.314  28.656  27.604  1.00  0.00    -0.374 OA
ENDROOT
BRANCH   1   2
ATOM      2  C   UNL A   1      32.766  28.000  26.456  1.00  0.00     0.202 C 
BRANCH   2   3
ATOM      3  C   UNL A   1      33.610  28.064  25.179  1.00  0.00     0.261 C 
BRANCH   3   4
ATOM      4  O   UNL A   1      33.272  26.974  24.297  1.00  0.00    -0.463 OA
BRANCH   4   5
ATOM      5  C   UNL A   1      34.010  25.841  24.442  1.00  0.00     0.313 C 
ATOM      6  O   UNL A   1      34.640  25.558  25.455  1.00  0.00    -0.252 OA
BRANCH   5   7
ATOM      7  C   UNL A   1      33.943  24.927  23.208  1.00  0.00     0.129 C 
ATOM      8  C   UNL A   1      33.060  25.437  22.062  1.00  0.00     0.025 C 
BRANCH   7   9
ATOM      9  C   UNL A   1      33.580  23.512  23.649  1.00  0.00     0.002 A 
ATOM     10  C   UNL A   1      32.278  23.139  24.009  1.00  0.00     0.008 A 
ATOM     11  C   UNL A   1      34.598  22.567  23.824  1.00  0.00     0.127 A 
ATOM     12  C   UNL A   1      32.015  21.872  24.542  1.00  0.00     0.004 A 
ATOM     13  C   UNL A   1      34.345  21.304  24.358  1.00  0.00     0.043 A 
ATOM     14  F   UNL A   1      35.856  22.872  23.474  1.00  0.00    -0.207 F 
ATOM     15  C   UNL A   1      33.045  20.940  24.736  1.00  0.00    -0.041 A 
BRANCH  15  16
ATOM     16  C   UNL A   1      32.757  19.571  25.298  1.00  0.00     0.074 C 
BRANCH  16  17
ATOM     17  C   UNL A   1      33.123  18.557  24.267  1.00  0.00    -0.005 A 
ATOM     18  C   UNL A   1      34.125  17.541  24.335  1.00  0.00     0.046 A 
ATOM     19  C   UNL A   1      32.493  18.349  23.054  1.00  0.00     0.198 A 
ATOM     20  C   UNL A   1      34.028  16.808  23.176  1.00  0.00     0.195 A 
ATOM     21  O   UNL A   1      33.031  17.292  22.395  1.00  0.00    -0.472 OA
ENDBRANCH  16  17
ENDBRANCH  15  16
ENDBRANCH   7   9
ENDBRANCH   5   7
ENDBRANCH   4   5
ENDBRANCH   3   4
ENDBRANCH   2   3
ENDBRANCH   1   2
BRANCH   1  22
ATOM     22  C   UNL A   1      33.681  30.024  27.449  1.00  0.00     0.202 C 
BRANCH  22  23
ATOM     23  C   UNL A   1      35.134  30.388  27.776  1.00  0.00     0.261 C 
BRANCH  23  24
ATOM     24  O   UNL A   1      35.895  29.256  28.222  1.00  0.00    -0.460 OA
BRANCH  24  25
ATOM     25  C   UNL A   1      36.566  29.461  29.381  1.00  0.00     0.338 C 
ATOM     26  O   UNL A   1      36.095  29.474  30.511  1.00  0.00    -0.246 OA
BRANCH  25  27
ATOM     27  C   UNL A   1      38.017  29.495  29.133  1.00  0.00     0.060 A 
ATOM     28  C   UNL A   1      38.437  29.517  27.797  1.00  0.00     0.016 A 
ATOM     29  C   UNL A   1      38.952  29.445  30.171  1.00  0.00     0.016 A 
ATOM     30  C   UNL A   1      39.792  29.431  27.490  1.00  0.00     0.010 A 
ATOM     31  C   UNL A   1      40.312  29.349  29.859  1.00  0.00     0.010 A 
ATOM     32  C   UNL A   1      40.734  29.304  28.518  1.00  0.00    -0.014 A 
BRANCH  32  33
ATOM     33  C   UNL A   1      42.135  28.964  28.174  1.00  0.00     0.031 A 
ATOM     34  C   UNL A   1      42.469  27.542  27.809  1.00  0.00     0.074 A 
ATOM     35  C   UNL A   1      43.085  29.915  28.135  1.00  0.00     0.049 A 
ATOM     36  N   UNL A   1      43.619  27.026  27.460  1.00  0.00    -0.248 NA
ATOM     37  C   UNL A   1      41.359  26.575  27.839  1.00  0.00     0.031 C 
ATOM     38  C   UNL A   1      42.874  31.334  28.419  1.00  0.00     0.029 A 
ATOM     39  N   UNL A   1      44.422  29.828  27.833  1.00  0.00    -0.354 N 
ATOM     40  C   UNL A   1      43.374  25.675  27.236  1.00  0.00     0.074 A 
ATOM     41  C   UNL A   1      41.973  25.447  27.515  1.00  0.00     0.031 C 
ATOM     42  C   UNL A   1      44.042  31.985  28.278  1.00  0.00     0.029 A 
ATOM     43  C   UNL A   1      45.086  31.027  27.923  1.00  0.00     0.049 A 
ATOM     44  H   UNL A   1      44.862  28.985  27.576  1.00  0.00     0.167 HD
ATOM     45  C   UNL A   1      44.237  24.713  26.832  1.00  0.00     0.031 A 
ATOM     46  C   UNL A   1      46.392  31.315  27.751  1.00  0.00     0.031 A 
ATOM     47  C   UNL A   1      45.632  24.941  26.566  1.00  0.00     0.049 A 
ATOM     48  C   UNL A   1      47.346  30.213  27.371  1.00  0.00     0.074 A 
ATOM     49  C   UNL A   1      46.585  24.034  26.134  1.00  0.00     0.029 A 
ATOM     50  N   UNL A   1      46.277  26.160  26.714  1.00  0.00    -0.354 N 
ATOM     51  N   UNL A   1      47.093  28.947  27.138  1.00  0.00    -0.248 NA
ATOM     52  C   UNL A   1      48.762  30.582  27.225  1.00  0.00     0.031 C 
ATOM     53  C   UNL A   1      47.818  24.693  26.075  1.00  0.00     0.029 A 
ATOM     54  C   UNL A   1      47.621  26.023  26.412  1.00  0.00     0.049 A 
ATOM     55  H   UNL A   1      45.842  26.998  26.994  1.00  0.00     0.167 HD
ATOM     56  C   UNL A   1      48.313  28.374  26.790  1.00  0.00     0.074 A 
ATOM     57  C   UNL A   1      49.300  29.434  26.833  1.00  0.00     0.031 C 
ATOM     58  C   UNL A   1      48.590  27.088  26.461  1.00  0.00     0.031 A 
BRANCH  45  59
ATOM     59  C   UNL A   1      43.700  23.314  26.690  1.00  0.00    -0.014 A 
ATOM     60  C   UNL A   1      43.591  22.698  25.430  1.00  0.00     0.010 A 
ATOM     61  C   UNL A   1      43.332  22.592  27.839  1.00  0.00     0.010 A 
ATOM     62  C   UNL A   1      43.088  21.398  25.320  1.00  0.00     0.020 A 
ATOM     63  C   UNL A   1      42.853  21.284  27.736  1.00  0.00     0.020 A 
ATOM     64  C   UNL A   1      42.719  20.701  26.474  1.00  0.00     0.054 A 
BRANCH  64  65
ATOM     65  S   UNL A   1      42.087  19.009  26.307  1.00  0.00     0.124 S 
ATOM     66  O   UNL A   1      42.182  18.515  27.679  1.00  0.00    -0.237 OA
ATOM     67  O   UNL A   1      40.731  19.221  25.809  1.00  0.00    -0.237 OA
ATOM     68  O   UNL A   1      43.006  18.386  25.358  1.00  0.00    -0.744 OA
ENDBRANCH  64  65
ENDBRANCH  45  59
BRANCH  46  69
ATOM     69  C   UNL A   1      46.879  32.707  27.955  1.00  0.00    -0.014 A 
ATOM     70  C   UNL A   1      46.958  33.605  26.875  1.00  0.00     0.010 A 
ATOM     71  C   UNL A   1      47.270  33.139  29.234  1.00  0.00     0.010 A 
ATOM     72  C   UNL A   1      47.434  34.905  27.071  1.00  0.00     0.020 A 
ATOM     73  C   UNL A   1      47.721  34.447  29.439  1.00  0.00     0.020 A 
ATOM     74  C   UNL A   1      47.810  35.318  28.353  1.00  0.00     0.054 A 
BRANCH  74  75
ATOM     75  S   UNL A   1      48.377  37.025  28.593  1.00  0.00     0.124 S 
ATOM     76  O   UNL A   1      48.935  37.346  27.284  1.00  0.00    -0.237 OA
ATOM     77  O   UNL A   1      47.142  37.721  28.944  1.00  0.00    -0.237 OA
ATOM     78  O   UNL A   1      49.349  36.911  29.678  1.00  0.00    -0.744 OA
ENDBRANCH  74  75
ENDBRANCH  46  69
BRANCH  58  79
ATOM     79  C   UNL A   1      50.011  26.757  26.087  1.00  0.00    -0.014 A 
ATOM     80  C   UNL A   1      50.459  26.861  24.759  1.00  0.00     0.010 A 
ATOM     81  C   UNL A   1      50.925  26.395  27.094  1.00  0.00     0.010 A 
ATOM     82  C   UNL A   1      51.791  26.578  24.439  1.00  0.00     0.020 A 
ATOM     83  C   UNL A   1      52.262  26.138  26.782  1.00  0.00     0.020 A 
ATOM     84  C   UNL A   1      52.683  26.217  25.454  1.00  0.00     0.054 A 
BRANCH  84  85
ATOM     85  S   UNL A   1      54.416  25.899  25.021  1.00  0.00     0.124 S 
ATOM     86  O   UNL A   1      54.496  26.447  23.669  1.00  0.00    -0.237 OA
ATOM     87  O   UNL A   1      55.146  26.642  26.045  1.00  0.00    -0.237 OA
ATOM     88  O   UNL A   1      54.534  24.445  25.111  1.00  0.00    -0.744 OA
ENDBRANCH  84  85
ENDBRANCH  58  79
ENDBRANCH  32  33
ENDBRANCH  25  27
ENDBRANCH  24  25
ENDBRANCH  23  24
ENDBRANCH  22  23
ENDBRANCH   1  22
TORSDOF 20
ENDMDL
MODEL 2
REMARK VINA RESULT:     -10.1      7.163     12.001
REMARK SMILES C[C@@H](C(=O)OCCOCCOC(=O)c1ccc(-c2c3nc(c(-c4ccc(S(=O)(=O)[O-])cc4)c4ccc([nH]4)c(-c4ccc(S(=O)(=O)[O-])cc4)c4nc(c(-c5ccc(S(=O)(=O)[O-])cc5)c5ccc2[nH]5)C=C4)C=C3)cc1)c1ccc(Cc2ccoc2)cc1F
REMARK SMILES IDX 8 1 7 2 6 3 5 4 3 5 4 6 2 7 1 8 74 9 75 10 85 11 76 12 84 13
REMARK SMILES IDX 86 14 77 15 78 16 79 17 80 18 83 19 81 20 82 21 9 22 10 23
REMARK SMILES IDX 11 24 12 25 13 26 14 27 15 28 73 29 16 30 72 31 17 32 18 33
REMARK SMILES IDX 19 34 66 35 20 36 71 37 65 38 67 39 21 40 70 41 64 42 63 43
REMARK SMILES IDX 22 45 52 46 33 47 51 48 34 49 37 50 50 51 68 52 35 53 36 54
REMARK SMILES IDX 49 56 69 57 38 58 23 59 24 60 32 61 25 62 31 63 26 64 27 65
REMARK SMILES IDX 28 66 29 67 30 68 53 69 54 70 62 71 55 72 61 73 56 74 57 75
REMARK SMILES IDX 58 76 59 77 60 78 39 79 40 80 48 81 41 82 47 83 42 84 43 85
REMARK SMILES IDX 44 86 45 87 46 88
REMARK H PARENT 67 44 37 55
REMARK Flexibility Score: inf
ROOT
ATOM      1  O   UNL A   1      38.886  22.152  26.520  1.00  0.00    -0.374 OA
ENDROOT
BRANCH   1   2
ATOM      2  C   UNL A   1      38.064  21.976  25.361  1.00  0.00     0.202 C 
BRANCH   2   3
ATOM      3  C   UNL A   1      36.552  21.991  25.601  1.00  0.00     0.261 C 
BRANCH   3   4
ATOM      4  O   UNL A   1      35.852  21.486  24.445  1.00  0.00    -0.463 OA
BRANCH   4   5
ATOM      5  C   UNL A   1      34.811  22.240  24.004  1.00  0.00     0.313 C 
ATOM      6  O   UNL A   1      34.912  23.124  23.159  1.00  0.00    -0.252 OA
BRANCH   5   7
ATOM      7  C   UNL A   1      33.474  21.844  24.652  1.00  0.00     0.129 C 
ATOM      8  C   UNL A   1      32.787  20.618  24.038  1.00  0.00     0.025 C 
BRANCH   7   9
ATOM      9  C   UNL A   1      32.562  23.066  24.712  1.00  0.00     0.002 A 
ATOM     10  C   UNL A   1      31.593  23.339  23.737  1.00  0.00     0.008 A 
ATOM     11  C   UNL A   1      32.768  24.026  25.709  1.00  0.00     0.127 A 
ATOM     12  C   UNL A   1      30.876  24.540  23.753  1.00  0.00     0.004 A 
ATOM     13  C   UNL A   1      32.060  25.228  25.730  1.00  0.00     0.043 A 
ATOM     14  F   UNL A   1      33.670  23.800  26.675  1.00  0.00    -0.207 F 
ATOM     15  C   UNL A   1      31.107  25.507  24.742  1.00  0.00    -0.041 A 
BRANCH  15  16
ATOM     16  C   UNL A   1      30.323  26.796  24.765  1.00  0.00     0.074 C 
BRANCH  16  17
ATOM     17  C   UNL A   1      31.290  27.931  24.737  1.00  0.00    -0.005 A 
ATOM     18  C   UNL A   1      31.666  28.806  25.802  1.00  0.00     0.046 A 
ATOM     19  C   UNL A   1      32.088  28.308  23.673  1.00  0.00     0.198 A 
ATOM     20  C   UNL A   1      32.645  29.635  25.308  1.00  0.00     0.195 A 
ATOM     21  O   UNL A   1      32.911  29.332  24.014  1.00  0.00    -0.472 OA
ENDBRANCH  16  17
ENDBRANCH  15  16
ENDBRANCH   7   9
ENDBRANCH   5   7
ENDBRANCH   4   5
ENDBRANCH   3   4
ENDBRANCH   2   3
ENDBRANCH   1   2
BRANCH   1  22
ATOM     22  C   UNL A   1      40.289  22.266  26.302  1.00  0.00     0.202 C 
BRANCH  22  23
ATOM     23  C   UNL A   1      40.940  23.598  26.691  1.00  0.00     0.261 C 
BRANCH  23  24
ATOM     24  O   UNL A   1      39.972  24.622  26.964  1.00  0.00    -0.460 OA
BRANCH  24  25
ATOM     25  C   UNL A   1      40.404  25.878  26.699  1.00  0.00     0.338 C 
ATOM     26  O   UNL A   1      40.844  26.296  25.635  1.00  0.00    -0.246 OA
BRANCH  25  27
ATOM     27  C   UNL A   1      40.112  26.769  27.835  1.00  0.00     0.060 A 
ATOM     28  C   UNL A   1      40.739  28.021  27.843  1.00  0.00     0.016 A 
ATOM     29  C   UNL A   1      39.297  26.376  28.900  1.00  0.00     0.016 A 
ATOM     30  C   UNL A   1      40.600  28.865  28.941  1.00  0.00     0.010 A 
ATOM     31  C   UNL A   1      39.166  27.221  30.007  1.00  0.00     0.010 A 
ATOM     32  C   UNL A   1      39.848  28.451  30.048  1.00  0.00    -0.014 A 
BRANCH  32  33
ATOM     33  C   UNL A   1      39.914  29.242  31.300  1.00  0.00     0.031 A 
ATOM     34  C   UNL A   1      41.042  28.985  32.263  1.00  0.00     0.074 A 
ATOM     35  C   UNL A   1      39.014  30.210  31.552  1.00  0.00     0.049 A 
ATOM     36  N   UNL A   1      41.304  29.567  33.405  1.00  0.00    -0.248 NA
ATOM     37  C   UNL A   1      42.005  27.936  31.887  1.00  0.00     0.031 C 
ATOM     38  C   UNL A   1      37.906  30.584  30.674  1.00  0.00     0.029 A 
ATOM     39  N   UNL A   1      38.896  31.059  32.624  1.00  0.00    -0.354 N 
ATOM     40  C   UNL A   1      42.453  28.952  33.887  1.00  0.00     0.074 A 
ATOM     41  C   UNL A   1      42.824  27.934  32.928  1.00  0.00     0.031 C 
ATOM     42  C   UNL A   1      37.219  31.590  31.243  1.00  0.00     0.029 A 
ATOM     43  C   UNL A   1      37.820  31.909  32.537  1.00  0.00     0.049 A 
ATOM     44  H   UNL A   1      39.523  31.058  33.384  1.00  0.00     0.167 HD
ATOM     45  C   UNL A   1      43.142  29.212  35.024  1.00  0.00     0.031 A 
ATOM     46  C   UNL A   1      37.365  32.831  33.409  1.00  0.00     0.031 A 
ATOM     47  C   UNL A   1      42.766  30.218  35.982  1.00  0.00     0.049 A 
ATOM     48  C   UNL A   1      38.107  33.054  34.701  1.00  0.00     0.074 A 
ATOM     49  C   UNL A   1      43.407  30.571  37.155  1.00  0.00     0.029 A 
ATOM     50  N   UNL A   1      41.643  31.026  35.880  1.00  0.00    -0.354 N 
ATOM     51  N   UNL A   1      39.207  32.481  35.129  1.00  0.00    -0.248 NA
ATOM     52  C   UNL A   1      37.548  34.052  35.624  1.00  0.00     0.031 C 
ATOM     53  C   UNL A   1      42.642  31.555  37.792  1.00  0.00     0.029 A 
ATOM     54  C   UNL A   1      41.557  31.856  36.984  1.00  0.00     0.049 A 
ATOM     55  H   UNL A   1      41.002  31.012  35.132  1.00  0.00     0.167 HD
ATOM     56  C   UNL A   1      39.487  33.070  36.358  1.00  0.00     0.074 A 
ATOM     57  C   UNL A   1      38.447  34.050  36.599  1.00  0.00     0.031 C 
ATOM     58  C   UNL A   1      40.515  32.825  37.209  1.00  0.00     0.031 A 
BRANCH  45  59
ATOM     59  C   UNL A   1      44.353  28.368  35.312  1.00  0.00    -0.014 A 
ATOM     60  C   UNL A   1      44.240  27.125  35.962  1.00  0.00     0.010 A 
ATOM     61  C   UNL A   1      45.622  28.808  34.896  1.00  0.00     0.010 A 
ATOM     62  C   UNL A   1      45.379  26.357  36.222  1.00  0.00     0.020 A 
ATOM     63  C   UNL A   1      46.759  28.033  35.131  1.00  0.00     0.020 A 
ATOM     64  C   UNL A   1      46.632  26.818  35.807  1.00  0.00     0.054 A 
BRANCH  64  65
ATOM     65  S   UNL A   1      48.092  25.794  36.140  1.00  0.00     0.124 S 
ATOM     66  O   UNL A   1      48.250  25.076  34.877  1.00  0.00    -0.237 OA
ATOM     67  O   UNL A   1      49.122  26.789  36.429  1.00  0.00    -0.237 OA
ATOM     68  O   UNL A   1      47.689  24.971  37.277  1.00  0.00    -0.744 OA
ENDBRANCH  64  65
ENDBRANCH  45  59
BRANCH  46  69
ATOM     69  C   UNL A   1      36.132  33.604  33.097  1.00  0.00    -0.014 A 
ATOM     70  C   UNL A   1      36.213  34.897  32.551  1.00  0.00     0.010 A 
ATOM     71  C   UNL A   1      34.865  33.047  33.349  1.00  0.00     0.010 A 
ATOM     72  C   UNL A   1      35.050  35.624  32.277  1.00  0.00     0.020 A 
ATOM     73  C   UNL A   1      33.700  33.760  33.052  1.00  0.00     0.020 A 
ATOM     74  C   UNL A   1      33.801  35.049  32.528  1.00  0.00     0.054 A 
BRANCH  74  75
ATOM     75  S   UNL A   1      32.304  35.990  32.118  1.00  0.00     0.124 S 
ATOM     76  O   UNL A   1      32.453  36.184  30.680  1.00  0.00    -0.237 OA
ATOM     77  O   UNL A   1      31.237  35.081  32.529  1.00  0.00    -0.237 OA
ATOM     78  O   UNL A   1      32.429  37.199  32.930  1.00  0.00    -0.744 OA
ENDBRANCH  74  75
ENDBRANCH  46  69
BRANCH  58  79
ATOM     79  C   UNL A   1      40.588  33.651  38.466  1.00  0.00    -0.014 A 
ATOM     80  C   UNL A   1      40.003  33.210  39.665  1.00  0.00     0.010 A 
ATOM     81  C   UNL A   1      41.306  34.862  38.458  1.00  0.00     0.010 A 
ATOM     82  C   UNL A   1      40.109  33.979  40.828  1.00  0.00     0.020 A 
ATOM     83  C   UNL A   1      41.437  35.620  39.624  1.00  0.00     0.020 A 
ATOM     84  C   UNL A   1      40.825  35.180  40.798  1.00  0.00     0.054 A 
BRANCH  84  85
ATOM     85  S   UNL A   1      40.986  36.139  42.331  1.00  0.00     0.124 S 
ATOM     86  O   UNL A   1      39.784  36.969  42.297  1.00  0.00    -0.237 OA
ATOM     87  O   UNL A   1      41.006  35.102  43.359  1.00  0.00    -0.237 OA
ATOM     88  O   UNL A   1      42.245  36.860  42.157  1.00  0.00    -0.744 OA
ENDBRANCH  84  85
ENDBRANCH  58  79
ENDBRANCH  32  33
ENDBRANCH  25  27
ENDBRANCH  24  25
ENDBRANCH  23  24
ENDBRANCH  22  23
ENDBRANCH   1  22
TORSDOF 20
ENDMDL
MODEL 3
REMARK VINA RESULT:      -9.9      3.367      8.810
REMARK SMILES C[C@@H](C(=O)OCCOCCOC(=O)c1ccc(-c2c3nc(c(-c4ccc(S(=O)(=O)[O-])cc4)c4ccc([nH]4)c(-c4ccc(S(=O)(=O)[O-])cc4)c4nc(c(-c5ccc(S(=O)(=O)[O-])cc5)c5ccc2[nH]5)C=C4)C=C3)cc1)c1ccc(Cc2ccoc2)cc1F
REMARK SMILES IDX 8 1 7 2 6 3 5 4 3 5 4 6 2 7 1 8 74 9 75 10 85 11 76 12 84 13
REMARK SMILES IDX 86 14 77 15 78 16 79 17 80 18 83 19 81 20 82 21 9 22 10 23
REMARK SMILES IDX 11 24 12 25 13 26 14 27 15 28 73 29 16 30 72 31 17 32 18 33
REMARK SMILES IDX 19 34 66 35 20 36 71 37 65 38 67 39 21 40 70 41 64 42 63 43
REMARK SMILES IDX 22 45 52 46 33 47 51 48 34 49 37 50 50 51 68 52 35 53 36 54
REMARK SMILES IDX 49 56 69 57 38 58 23 59 24 60 32 61 25 62 31 63 26 64 27 65
REMARK SMILES IDX 28 66 29 67 30 68 53 69 54 70 62 71 55 72 61 73 56 74 57 75
REMARK SMILES IDX 58 76 59 77 60 78 39 79 40 80 48 81 41 82 47 83 42 84 43 85
REMARK SMILES IDX 44 86 45 87 46 88
REMARK H PARENT 67 44 37 55
REMARK Flexibility Score: inf
ROOT
ATOM      1  O   UNL A   1      31.595  28.668  26.269  1.00  0.00    -0.374 OA
ENDROOT
BRANCH   1   2
ATOM      2  C   UNL A   1      31.257  28.057  25.020  1.00  0.00     0.202 C 
BRANCH   2   3
ATOM      3  C   UNL A   1      32.333  28.115  23.931  1.00  0.00     0.261 C 
BRANCH   3   4
ATOM      4  O   UNL A   1      32.154  27.040  22.987  1.00  0.00    -0.463 OA
BRANCH   4   5
ATOM      5  C   UNL A   1      32.514  25.802  23.421  1.00  0.00     0.313 C 
ATOM      6  O   UNL A   1      33.523  25.572  24.079  1.00  0.00    -0.252 OA
BRANCH   5   7
ATOM      7  C   UNL A   1      31.499  24.717  23.029  1.00  0.00     0.129 C 
ATOM      8  C   UNL A   1      30.036  25.038  23.361  1.00  0.00     0.025 C 
BRANCH   7   9
ATOM      9  C   UNL A   1      31.953  23.375  23.593  1.00  0.00     0.002 A 
ATOM     10  C   UNL A   1      31.407  22.816  24.757  1.00  0.00     0.008 A 
ATOM     11  C   UNL A   1      33.041  22.718  23.008  1.00  0.00     0.127 A 
ATOM     12  C   UNL A   1      31.948  21.654  25.319  1.00  0.00     0.004 A 
ATOM     13  C   UNL A   1      33.589  21.562  23.564  1.00  0.00     0.043 A 
ATOM     14  F   UNL A   1      33.584  23.203  21.882  1.00  0.00    -0.207 F 
ATOM     15  C   UNL A   1      33.054  21.017  24.738  1.00  0.00    -0.041 A 
BRANCH  15  16
ATOM     16  C   UNL A   1      33.627  19.757  25.339  1.00  0.00     0.074 C 
BRANCH  16  17
ATOM     17  C   UNL A   1      33.567  18.681  24.308  1.00  0.00    -0.005 A 
ATOM     18  C   UNL A   1      34.449  17.571  24.129  1.00  0.00     0.046 A 
ATOM     19  C   UNL A   1      32.577  18.500  23.360  1.00  0.00     0.198 A 
ATOM     20  C   UNL A   1      33.935  16.816  23.101  1.00  0.00     0.195 A 
ATOM     21  O   UNL A   1      32.791  17.375  22.633  1.00  0.00    -0.472 OA
ENDBRANCH  16  17
ENDBRANCH  15  16
ENDBRANCH   7   9
ENDBRANCH   5   7
ENDBRANCH   4   5
ENDBRANCH   3   4
ENDBRANCH   2   3
ENDBRANCH   1   2
BRANCH   1  22
ATOM     22  C   UNL A   1      31.897  30.061  26.243  1.00  0.00     0.202 C 
BRANCH  22  23
ATOM     23  C   UNL A   1      33.352  30.454  26.524  1.00  0.00     0.261 C 
BRANCH  23  24
ATOM     24  O   UNL A   1      33.783  30.061  27.835  1.00  0.00    -0.460 OA
BRANCH  24  25
ATOM     25  C   UNL A   1      34.707  30.884  28.386  1.00  0.00     0.338 C 
ATOM     26  O   UNL A   1      34.509  31.988  28.878  1.00  0.00    -0.246 OA
BRANCH  25  27
ATOM     27  C   UNL A   1      36.006  30.199  28.488  1.00  0.00     0.060 A 
ATOM     28  C   UNL A   1      36.323  29.608  29.717  1.00  0.00     0.016 A 
ATOM     29  C   UNL A   1      36.925  30.183  27.435  1.00  0.00     0.016 A 
ATOM     30  C   UNL A   1      37.580  29.047  29.920  1.00  0.00     0.010 A 
ATOM     31  C   UNL A   1      38.192  29.627  27.643  1.00  0.00     0.010 A 
ATOM     32  C   UNL A   1      38.537  29.092  28.898  1.00  0.00    -0.014 A 
BRANCH  32  33
ATOM     33  C   UNL A   1      39.939  28.721  29.206  1.00  0.00     0.031 A 
ATOM     34  C   UNL A   1      40.801  29.701  29.956  1.00  0.00     0.074 A 
ATOM     35  C   UNL A   1      40.421  27.511  28.870  1.00  0.00     0.049 A 
ATOM     36  N   UNL A   1      42.044  29.581  30.344  1.00  0.00    -0.248 NA
ATOM     37  C   UNL A   1      40.178  30.985  30.320  1.00  0.00     0.031 C 
ATOM     38  C   UNL A   1      39.669  26.460  28.186  1.00  0.00     0.029 A 
ATOM     39  N   UNL A   1      41.664  26.962  29.066  1.00  0.00    -0.354 N 
ATOM     40  C   UNL A   1      42.355  30.772  30.990  1.00  0.00     0.074 A 
ATOM     41  C   UNL A   1      41.179  31.613  30.918  1.00  0.00     0.031 C 
ATOM     42  C   UNL A   1      40.467  25.391  28.019  1.00  0.00     0.029 A 
ATOM     43  C   UNL A   1      41.792  25.692  28.558  1.00  0.00     0.049 A 
ATOM     44  H   UNL A   1      42.395  27.435  29.528  1.00  0.00     0.167 HD
ATOM     45  C   UNL A   1      43.513  31.134  31.592  1.00  0.00     0.031 A 
ATOM     46  C   UNL A   1      42.861  24.872  28.519  1.00  0.00     0.031 A 
ATOM     47  C   UNL A   1      44.684  30.301  31.653  1.00  0.00     0.049 A 
ATOM     48  C   UNL A   1      44.160  25.325  29.132  1.00  0.00     0.074 A 
ATOM     49  C   UNL A   1      45.900  30.569  32.256  1.00  0.00     0.029 A 
ATOM     50  N   UNL A   1      44.788  29.040  31.085  1.00  0.00    -0.354 N 
ATOM     51  N   UNL A   1      44.429  26.445  29.761  1.00  0.00    -0.248 NA
ATOM     52  C   UNL A   1      45.298  24.400  29.035  1.00  0.00     0.031 C 
ATOM     53  C   UNL A   1      46.759  29.493  32.004  1.00  0.00     0.029 A 
ATOM     54  C   UNL A   1      46.057  28.529  31.296  1.00  0.00     0.049 A 
ATOM     55  H   UNL A   1      44.066  28.576  30.601  1.00  0.00     0.167 HD
ATOM     56  C   UNL A   1      45.759  26.346  30.160  1.00  0.00     0.074 A 
ATOM     57  C   UNL A   1      46.235  25.053  29.710  1.00  0.00     0.031 C 
ATOM     58  C   UNL A   1      46.516  27.242  30.840  1.00  0.00     0.031 A 
BRANCH  45  59
ATOM     59  C   UNL A   1      43.580  32.509  32.200  1.00  0.00    -0.014 A 
ATOM     60  C   UNL A   1      43.942  33.630  31.432  1.00  0.00     0.010 A 
ATOM     61  C   UNL A   1      43.243  32.686  33.554  1.00  0.00     0.010 A 
ATOM     62  C   UNL A   1      44.000  34.899  32.018  1.00  0.00     0.020 A 
ATOM     63  C   UNL A   1      43.276  33.955  34.136  1.00  0.00     0.020 A 
ATOM     64  C   UNL A   1      43.670  35.052  33.368  1.00  0.00     0.054 A 
BRANCH  64  65
ATOM     65  S   UNL A   1      43.736  36.711  34.099  1.00  0.00     0.124 S 
ATOM     66  O   UNL A   1      42.318  37.045  34.214  1.00  0.00    -0.237 OA
ATOM     67  O   UNL A   1      44.429  36.476  35.363  1.00  0.00    -0.237 OA
ATOM     68  O   UNL A   1      44.482  37.494  33.119  1.00  0.00    -0.744 OA
ENDBRANCH  64  65
ENDBRANCH  45  59
BRANCH  46  69
ATOM     69  C   UNL A   1      42.754  23.542  27.859  1.00  0.00    -0.014 A 
ATOM     70  C   UNL A   1      42.208  22.443  28.544  1.00  0.00     0.010 A 
ATOM     71  C   UNL A   1      43.202  23.370  26.537  1.00  0.00     0.010 A 
ATOM     72  C   UNL A   1      42.127  21.192  27.924  1.00  0.00     0.020 A 
ATOM     73  C   UNL A   1      43.099  22.128  25.904  1.00  0.00     0.020 A 
ATOM     74  C   UNL A   1      42.572  21.044  26.607  1.00  0.00     0.054 A 
BRANCH  74  75
ATOM     75  S   UNL A   1      42.411  19.424  25.804  1.00  0.00     0.124 S 
ATOM     76  O   UNL A   1      42.791  18.514  26.879  1.00  0.00    -0.237 OA
ATOM     77  O   UNL A   1      41.002  19.400  25.420  1.00  0.00    -0.237 OA
ATOM     78  O   UNL A   1      43.352  19.503  24.687  1.00  0.00    -0.744 OA
ENDBRANCH  74  75
ENDBRANCH  46  69
BRANCH  58  79
ATOM     79  C   UNL A   1      47.931  26.846  31.172  1.00  0.00    -0.014 A 
ATOM     80  C   UNL A   1      48.224  26.060  32.299  1.00  0.00     0.010 A 
ATOM     81  C   UNL A   1      48.975  27.219  30.305  1.00  0.00     0.010 A 
ATOM     82  C   UNL A   1      49.541  25.679  32.571  1.00  0.00     0.020 A 
ATOM     83  C   UNL A   1      50.289  26.818  30.558  1.00  0.00     0.020 A 
ATOM     84  C   UNL A   1      50.565  26.062  31.699  1.00  0.00     0.054 A 
BRANCH  84  85
ATOM     85  S   UNL A   1      52.260  25.517  32.049  1.00  0.00     0.124 S 
ATOM     86  O   UNL A   1      52.939  25.810  30.788  1.00  0.00    -0.237 OA
ATOM     87  O   UNL A   1      52.642  26.359  33.179  1.00  0.00    -0.237 OA
ATOM     88  O   UNL A   1      52.110  24.098  32.360  1.00  0.00    -0.744 OA
ENDBRANCH  84  85
ENDBRANCH  58  79
ENDBRANCH  32  33
ENDBRANCH  25  27
ENDBRANCH  24  25
ENDBRANCH  23  24
ENDBRANCH  22  23
ENDBRANCH   1  22
TORSDOF 20
ENDMDL
