MODEL 1
REMARK VINA RESULT:     -10.3      0.000      0.000
REMARK SMILES COc1cccc(C(=O)N[C@H]2C=C[C@@H](C(=O)OCCOCCOC(=O)c3ccc(-c4c5nc(c(-c6ccc(S(=O)(=O)[O-])cc6)c6ccc([nH]6)c(-c6ccc(S(=O)(=O)[O-])cc6)c6nc(c(-c7ccc(S(=O)(=O)[O-])cc7)c7ccc4[nH]7)C=C6)C=C5)cc3)C2)c1
REMARK SMILES IDX 20 1 19 2 18 3 17 4 15 5 16 6 14 7 11 8 12 9 86 10 13 11
REMARK SMILES IDX 10 12 8 13 9 14 7 16 3 17 4 18 87 19 5 20 6 21 2 22 1 23
REMARK SMILES IDX 21 24 22 25 23 26 24 27 25 28 26 29 27 30 85 31 28 32 84 33
REMARK SMILES IDX 29 34 30 35 31 36 78 37 32 38 83 39 77 40 79 41 33 42 82 43
REMARK SMILES IDX 76 44 75 45 34 47 64 48 45 49 63 50 46 51 49 52 62 53 80 54
REMARK SMILES IDX 47 55 48 56 61 58 81 59 50 60 35 61 36 62 44 63 37 64 43 65
REMARK SMILES IDX 38 66 39 67 40 68 41 69 42 70 65 71 66 72 74 73 67 74 73 75
REMARK SMILES IDX 68 76 69 77 70 78 71 79 72 80 51 81 52 82 60 83 53 84 59 85
REMARK SMILES IDX 54 86 55 87 56 88 57 89 58 90
REMARK H PARENT 10 15 79 46 49 57
REMARK Flexibility Score: inf
ROOT
ATOM      1  O   UNL A   1      32.308  28.365  26.247  1.00  0.00    -0.374 OA
ENDROOT
BRANCH   1   2
ATOM      2  C   UNL A   1      31.315  27.937  25.315  1.00  0.00     0.202 C 
BRANCH   2   3
ATOM      3  C   UNL A   1      30.863  26.481  25.428  1.00  0.00     0.261 C 
BRANCH   3   4
ATOM      4  O   UNL A   1      31.410  25.882  26.609  1.00  0.00    -0.463 OA
BRANCH   4   5
ATOM      5  C   UNL A   1      31.830  24.601  26.463  1.00  0.00     0.312 C 
ATOM      6  O   UNL A   1      31.132  23.663  26.092  1.00  0.00    -0.252 OA
BRANCH   5   7
ATOM      7  C   UNL A   1      33.318  24.453  26.686  1.00  0.00     0.124 C 
ATOM      8  C   UNL A   1      35.415  23.374  26.477  1.00  0.00     0.106 C 
ATOM      9  C   UNL A   1      35.261  24.402  25.404  1.00  0.00    -0.006 C 
ATOM     10  C   UNL A   1      33.950  23.051  26.782  1.00  0.00     0.048 C 
ATOM     11  C   UNL A   1      34.093  25.039  25.540  1.00  0.00    -0.014 C 
BRANCH   8  12
ATOM     12  N   UNL A   1      36.285  22.312  26.069  1.00  0.00    -0.346 N 
ATOM     13  C   UNL A   1      36.024  21.221  25.262  1.00  0.00     0.251 C 
ATOM     14  O   UNL A   1      36.965  20.476  24.985  1.00  0.00    -0.269 OA
ATOM     15  H   UNL A   1      37.205  22.368  26.416  1.00  0.00     0.164 HD
BRANCH  13  16
ATOM     16  C   UNL A   1      34.650  20.854  24.768  1.00  0.00     0.043 A 
ATOM     17  C   UNL A   1      32.685  19.407  24.613  1.00  0.00     0.119 A 
ATOM     18  C   UNL A   1      32.156  20.228  23.620  1.00  0.00     0.046 A 
ATOM     19  C   UNL A   1      33.898  19.759  25.212  1.00  0.00     0.060 A 
ATOM     20  C   UNL A   1      32.837  21.378  23.226  1.00  0.00     0.005 A 
ATOM     21  C   UNL A   1      34.081  21.681  23.788  1.00  0.00     0.014 A 
BRANCH  17  22
ATOM     22  O   UNL A   1      31.940  18.299  24.920  1.00  0.00    -0.497 OA
ATOM     23  C   UNL A   1      32.626  17.205  25.521  1.00  0.00     0.278 C 
ENDBRANCH  17  22
ENDBRANCH  13  16
ENDBRANCH   8  12
ENDBRANCH   5   7
ENDBRANCH   4   5
ENDBRANCH   3   4
ENDBRANCH   2   3
ENDBRANCH   1   2
BRANCH   1  24
ATOM     24  C   UNL A   1      31.952  29.363  27.204  1.00  0.00     0.202 C 
BRANCH  24  25
ATOM     25  C   UNL A   1      32.611  30.741  27.065  1.00  0.00     0.261 C 
BRANCH  25  26
ATOM     26  O   UNL A   1      34.043  30.656  26.949  1.00  0.00    -0.460 OA
BRANCH  26  27
ATOM     27  C   UNL A   1      34.727  31.111  28.028  1.00  0.00     0.338 C 
ATOM     28  O   UNL A   1      34.345  31.937  28.846  1.00  0.00    -0.246 OA
BRANCH  27  29
ATOM     29  C   UNL A   1      35.957  30.326  28.220  1.00  0.00     0.060 A 
ATOM     30  C   UNL A   1      36.140  29.695  29.459  1.00  0.00     0.016 A 
ATOM     31  C   UNL A   1      36.959  30.291  27.249  1.00  0.00     0.016 A 
ATOM     32  C   UNL A   1      37.348  29.067  29.751  1.00  0.00     0.010 A 
ATOM     33  C   UNL A   1      38.175  29.671  27.550  1.00  0.00     0.010 A 
ATOM     34  C   UNL A   1      38.388  29.091  28.814  1.00  0.00    -0.014 A 
BRANCH  34  35
ATOM     35  C   UNL A   1      39.748  28.659  29.216  1.00  0.00     0.031 A 
ATOM     36  C   UNL A   1      40.619  29.622  29.975  1.00  0.00     0.074 A 
ATOM     37  C   UNL A   1      40.197  27.426  28.921  1.00  0.00     0.049 A 
ATOM     38  N   UNL A   1      41.856  29.483  30.372  1.00  0.00    -0.248 NA
ATOM     39  C   UNL A   1      40.012  30.916  30.332  1.00  0.00     0.031 C 
ATOM     40  C   UNL A   1      39.429  26.388  28.236  1.00  0.00     0.029 A 
ATOM     41  N   UNL A   1      41.418  26.847  29.155  1.00  0.00    -0.354 N 
ATOM     42  C   UNL A   1      42.184  30.675  31.008  1.00  0.00     0.074 A 
ATOM     43  C   UNL A   1      41.022  31.533  30.926  1.00  0.00     0.031 C 
ATOM     44  C   UNL A   1      40.205  25.301  28.090  1.00  0.00     0.029 A 
ATOM     45  C   UNL A   1      41.532  25.580  28.637  1.00  0.00     0.049 A 
ATOM     46  H   UNL A   1      42.143  27.296  29.646  1.00  0.00     0.167 HD
ATOM     47  C   UNL A   1      43.349  31.025  31.604  1.00  0.00     0.031 A 
ATOM     48  C   UNL A   1      42.593  24.750  28.583  1.00  0.00     0.031 A 
ATOM     49  C   UNL A   1      44.507  30.174  31.670  1.00  0.00     0.049 A 
ATOM     50  C   UNL A   1      43.900  25.183  29.193  1.00  0.00     0.074 A 
ATOM     51  C   UNL A   1      45.729  30.429  32.265  1.00  0.00     0.029 A 
ATOM     52  N   UNL A   1      44.589  28.907  31.110  1.00  0.00    -0.354 N 
ATOM     53  N   UNL A   1      44.191  26.305  29.807  1.00  0.00    -0.248 NA
ATOM     54  C   UNL A   1      45.021  24.236  29.106  1.00  0.00     0.031 C 
ATOM     55  C   UNL A   1      46.569  29.338  32.019  1.00  0.00     0.029 A 
ATOM     56  C   UNL A   1      45.851  28.378  31.323  1.00  0.00     0.049 A 
ATOM     57  H   UNL A   1      43.858  28.451  30.633  1.00  0.00     0.167 HD
ATOM     58  C   UNL A   1      45.518  26.188  30.207  1.00  0.00     0.074 A 
ATOM     59  C   UNL A   1      45.973  24.883  29.767  1.00  0.00     0.031 C 
ATOM     60  C   UNL A   1      46.288  27.077  30.882  1.00  0.00     0.031 A 
BRANCH  47  61
ATOM     61  C   UNL A   1      43.437  32.411  32.187  1.00  0.00    -0.014 A 
ATOM     62  C   UNL A   1      43.070  32.670  33.520  1.00  0.00     0.010 A 
ATOM     63  C   UNL A   1      43.904  33.469  31.387  1.00  0.00     0.010 A 
ATOM     64  C   UNL A   1      43.118  33.973  34.025  1.00  0.00     0.020 A 
ATOM     65  C   UNL A   1      43.980  34.768  31.897  1.00  0.00     0.020 A 
ATOM     66  C   UNL A   1      43.565  35.015  33.207  1.00  0.00     0.054 A 
BRANCH  66  67
ATOM     67  S   UNL A   1      43.610  36.698  33.883  1.00  0.00     0.124 S 
ATOM     68  O   UNL A   1      42.496  36.670  34.829  1.00  0.00    -0.237 OA
ATOM     69  O   UNL A   1      44.940  36.768  34.483  1.00  0.00    -0.237 OA
ATOM     70  O   UNL A   1      43.411  37.548  32.712  1.00  0.00    -0.744 OA
ENDBRANCH  66  67
ENDBRANCH  47  61
BRANCH  48  71
ATOM     71  C   UNL A   1      42.458  23.431  27.909  1.00  0.00    -0.014 A 
ATOM     72  C   UNL A   1      42.845  23.267  26.568  1.00  0.00     0.010 A 
ATOM     73  C   UNL A   1      41.975  22.319  28.624  1.00  0.00     0.010 A 
ATOM     74  C   UNL A   1      42.754  22.014  25.954  1.00  0.00     0.020 A 
ATOM     75  C   UNL A   1      41.907  21.059  28.021  1.00  0.00     0.020 A 
ATOM     76  C   UNL A   1      42.293  20.917  26.687  1.00  0.00     0.054 A 
BRANCH  76  77
ATOM     77  S   UNL A   1      42.264  19.284  25.895  1.00  0.00     0.124 S 
ATOM     78  O   UNL A   1      42.785  18.424  26.954  1.00  0.00    -0.237 OA
ATOM     79  O   UNL A   1      40.848  19.113  25.581  1.00  0.00    -0.237 OA
ATOM     80  O   UNL A   1      43.136  19.451  24.736  1.00  0.00    -0.744 OA
ENDBRANCH  76  77
ENDBRANCH  48  71
BRANCH  60  81
ATOM     81  C   UNL A   1      47.693  26.664  31.232  1.00  0.00    -0.014 A 
ATOM     82  C   UNL A   1      47.998  26.087  32.477  1.00  0.00     0.010 A 
ATOM     83  C   UNL A   1      48.707  26.780  30.263  1.00  0.00     0.010 A 
ATOM     84  C   UNL A   1      49.297  25.647  32.751  1.00  0.00     0.020 A 
ATOM     85  C   UNL A   1      50.000  26.319  30.523  1.00  0.00     0.020 A 
ATOM     86  C   UNL A   1      50.289  25.763  31.771  1.00  0.00     0.054 A 
BRANCH  86  87
ATOM     87  S   UNL A   1      51.949  25.123  32.126  1.00  0.00     0.124 S 
ATOM     88  O   UNL A   1      52.170  25.591  33.491  1.00  0.00    -0.237 OA
ATOM     89  O   UNL A   1      51.777  23.680  31.975  1.00  0.00    -0.237 OA
ATOM     90  O   UNL A   1      52.788  25.753  31.109  1.00  0.00    -0.744 OA
ENDBRANCH  86  87
ENDBRANCH  60  81
ENDBRANCH  34  35
ENDBRANCH  27  29
ENDBRANCH  26  27
ENDBRANCH  25  26
ENDBRANCH  24  25
ENDBRANCH   1  24
TORSDOF 20
ENDMDL
MODEL 2
REMARK VINA RESULT:      -9.9      3.938     10.315
REMARK SMILES COc1cccc(C(=O)N[C@H]2C=C[C@@H](C(=O)OCCOCCOC(=O)c3ccc(-c4c5nc(c(-c6ccc(S(=O)(=O)[O-])cc6)c6ccc([nH]6)c(-c6ccc(S(=O)(=O)[O-])cc6)c6nc(c(-c7ccc(S(=O)(=O)[O-])cc7)c7ccc4[nH]7)C=C6)C=C5)cc3)C2)c1
REMARK SMILES IDX 20 1 19 2 18 3 17 4 15 5 16 6 14 7 11 8 12 9 86 10 13 11
REMARK SMILES IDX 10 12 8 13 9 14 7 16 3 17 4 18 87 19 5 20 6 21 2 22 1 23
REMARK SMILES IDX 21 24 22 25 23 26 24 27 25 28 26 29 27 30 85 31 28 32 84 33
REMARK SMILES IDX 29 34 30 35 31 36 78 37 32 38 83 39 77 40 79 41 33 42 82 43
REMARK SMILES IDX 76 44 75 45 34 47 64 48 45 49 63 50 46 51 49 52 62 53 80 54
REMARK SMILES IDX 47 55 48 56 61 58 81 59 50 60 35 61 36 62 44 63 37 64 43 65
REMARK SMILES IDX 38 66 39 67 40 68 41 69 42 70 65 71 66 72 74 73 67 74 73 75
REMARK SMILES IDX 68 76 69 77 70 78 71 79 72 80 51 81 52 82 60 83 53 84 59 85
REMARK SMILES IDX 54 86 55 87 56 88 57 89 58 90
REMARK H PARENT 10 15 79 46 49 57
REMARK Flexibility Score: inf
ROOT
ATOM      1  O   UNL A   1      40.958  22.013  26.492  1.00  0.00    -0.374 OA
ENDROOT
BRANCH   1   2
ATOM      2  C   UNL A   1      39.836  21.209  26.127  1.00  0.00     0.202 C 
BRANCH   2   3
ATOM      3  C   UNL A   1      38.538  21.957  25.820  1.00  0.00     0.261 C 
BRANCH   3   4
ATOM      4  O   UNL A   1      37.767  21.234  24.851  1.00  0.00    -0.463 OA
BRANCH   4   5
ATOM      5  C   UNL A   1      36.535  21.741  24.603  1.00  0.00     0.312 C 
ATOM      6  O   UNL A   1      36.223  22.402  23.618  1.00  0.00    -0.252 OA
BRANCH   5   7
ATOM      7  C   UNL A   1      35.512  21.296  25.624  1.00  0.00     0.124 C 
ATOM      8  C   UNL A   1      33.521  21.502  26.888  1.00  0.00     0.106 C 
ATOM      9  C   UNL A   1      33.267  20.679  25.668  1.00  0.00    -0.006 C 
ATOM     10  C   UNL A   1      34.717  22.341  26.429  1.00  0.00     0.048 C 
ATOM     11  C   UNL A   1      34.398  20.529  24.970  1.00  0.00    -0.014 C 
BRANCH   8  12
ATOM     12  N   UNL A   1      32.335  22.174  27.326  1.00  0.00    -0.346 N 
ATOM     13  C   UNL A   1      31.640  23.211  26.733  1.00  0.00     0.251 C 
ATOM     14  O   UNL A   1      30.590  23.574  27.264  1.00  0.00    -0.269 OA
ATOM     15  H   UNL A   1      31.959  21.849  28.177  1.00  0.00     0.164 HD
BRANCH  13  16
ATOM     16  C   UNL A   1      32.130  23.965  25.526  1.00  0.00     0.043 A 
ATOM     17  C   UNL A   1      33.218  25.844  24.401  1.00  0.00     0.119 A 
ATOM     18  C   UNL A   1      32.829  25.334  23.165  1.00  0.00     0.046 A 
ATOM     19  C   UNL A   1      32.912  25.127  25.561  1.00  0.00     0.060 A 
ATOM     20  C   UNL A   1      32.132  24.128  23.094  1.00  0.00     0.005 A 
ATOM     21  C   UNL A   1      31.775  23.456  24.267  1.00  0.00     0.014 A 
BRANCH  17  22
ATOM     22  O   UNL A   1      33.890  27.037  24.359  1.00  0.00    -0.497 OA
ATOM     23  C   UNL A   1      33.460  28.053  25.262  1.00  0.00     0.278 C 
ENDBRANCH  17  22
ENDBRANCH  13  16
ENDBRANCH   8  12
ENDBRANCH   5   7
ENDBRANCH   4   5
ENDBRANCH   3   4
ENDBRANCH   2   3
ENDBRANCH   1   2
BRANCH   1  24
ATOM     24  C   UNL A   1      42.264  21.544  26.156  1.00  0.00     0.202 C 
BRANCH  24  25
ATOM     25  C   UNL A   1      43.404  22.571  26.155  1.00  0.00     0.261 C 
BRANCH  25  26
ATOM     26  O   UNL A   1      43.108  23.722  26.966  1.00  0.00    -0.460 OA
BRANCH  26  27
ATOM     27  C   UNL A   1      42.749  24.828  26.269  1.00  0.00     0.338 C 
ATOM     28  O   UNL A   1      42.726  24.956  25.051  1.00  0.00    -0.246 OA
BRANCH  27  29
ATOM     29  C   UNL A   1      42.186  25.842  27.175  1.00  0.00     0.060 A 
ATOM     30  C   UNL A   1      42.776  27.114  27.177  1.00  0.00     0.016 A 
ATOM     31  C   UNL A   1      41.169  25.528  28.079  1.00  0.00     0.016 A 
ATOM     32  C   UNL A   1      42.385  28.063  28.118  1.00  0.00     0.010 A 
ATOM     33  C   UNL A   1      40.788  26.479  29.029  1.00  0.00     0.010 A 
ATOM     34  C   UNL A   1      41.420  27.735  29.078  1.00  0.00    -0.014 A 
BRANCH  34  35
ATOM     35  C   UNL A   1      41.193  28.639  30.230  1.00  0.00     0.031 A 
ATOM     36  C   UNL A   1      42.056  28.486  31.453  1.00  0.00     0.074 A 
ATOM     37  C   UNL A   1      40.243  29.590  30.186  1.00  0.00     0.049 A 
ATOM     38  N   UNL A   1      41.996  29.120  32.593  1.00  0.00    -0.248 NA
ATOM     39  C   UNL A   1      43.128  27.479  31.377  1.00  0.00     0.031 C 
ATOM     40  C   UNL A   1      39.380  29.869  29.040  1.00  0.00     0.029 A 
ATOM     41  N   UNL A   1      39.842  30.489  31.141  1.00  0.00    -0.354 N 
ATOM     42  C   UNL A   1      43.007  28.579  33.379  1.00  0.00     0.074 A 
ATOM     43  C   UNL A   1      43.652  27.551  32.592  1.00  0.00     0.031 C 
ATOM     44  C   UNL A   1      38.537  30.864  29.365  1.00  0.00     0.029 A 
ATOM     45  C   UNL A   1      38.777  31.263  30.751  1.00  0.00     0.049 A 
ATOM     46  H   UNL A   1      40.275  30.570  32.021  1.00  0.00     0.167 HD
ATOM     47  C   UNL A   1      43.365  28.907  34.644  1.00  0.00     0.031 A 
ATOM     48  C   UNL A   1      38.058  32.171  31.442  1.00  0.00     0.031 A 
ATOM     49  C   UNL A   1      42.710  29.919  35.428  1.00  0.00     0.049 A 
ATOM     50  C   UNL A   1      38.428  32.475  32.869  1.00  0.00     0.074 A 
ATOM     51  C   UNL A   1      43.007  30.339  36.713  1.00  0.00     0.029 A 
ATOM     52  N   UNL A   1      41.619  30.664  35.006  1.00  0.00    -0.354 N 
ATOM     53  N   UNL A   1      39.398  31.969  33.594  1.00  0.00    -0.248 NA
ATOM     54  C   UNL A   1      37.610  33.474  33.571  1.00  0.00     0.031 C 
ATOM     55  C   UNL A   1      42.061  31.298  37.087  1.00  0.00     0.029 A 
ATOM     56  C   UNL A   1      41.213  31.522  36.014  1.00  0.00     0.049 A 
ATOM     57  H   UNL A   1      41.196  30.594  34.119  1.00  0.00     0.167 HD
ATOM     58  C   UNL A   1      39.327  32.611  34.826  1.00  0.00     0.074 A 
ATOM     59  C   UNL A   1      38.220  33.543  34.748  1.00  0.00     0.031 C 
ATOM     60  C   UNL A   1      40.111  32.447  35.921  1.00  0.00     0.031 A 
BRANCH  47  61
ATOM     61  C   UNL A   1      44.487  28.122  35.269  1.00  0.00    -0.014 A 
ATOM     62  C   UNL A   1      45.825  28.542  35.163  1.00  0.00     0.010 A 
ATOM     63  C   UNL A   1      44.194  26.945  35.983  1.00  0.00     0.010 A 
ATOM     64  C   UNL A   1      46.854  27.773  35.715  1.00  0.00     0.020 A 
ATOM     65  C   UNL A   1      45.217  26.187  36.559  1.00  0.00     0.020 A 
ATOM     66  C   UNL A   1      46.543  26.595  36.402  1.00  0.00     0.054 A 
BRANCH  66  67
ATOM     67  S   UNL A   1      47.896  25.610  37.101  1.00  0.00     0.124 S 
ATOM     68  O   UNL A   1      47.433  24.246  36.852  1.00  0.00    -0.237 OA
ATOM     69  O   UNL A   1      49.047  26.035  36.308  1.00  0.00    -0.237 OA
ATOM     70  O   UNL A   1      47.927  26.010  38.505  1.00  0.00    -0.744 OA
ENDBRANCH  66  67
ENDBRANCH  47  61
BRANCH  48  71
ATOM     71  C   UNL A   1      36.903  32.842  30.787  1.00  0.00    -0.014 A 
ATOM     72  C   UNL A   1      35.585  32.477  31.107  1.00  0.00     0.010 A 
ATOM     73  C   UNL A   1      37.121  33.883  29.865  1.00  0.00     0.010 A 
ATOM     74  C   UNL A   1      34.504  33.141  30.518  1.00  0.00     0.020 A 
ATOM     75  C   UNL A   1      36.043  34.566  29.293  1.00  0.00     0.020 A 
ATOM     76  C   UNL A   1      34.741  34.187  29.621  1.00  0.00     0.054 A 
BRANCH  76  77
ATOM     77  S   UNL A   1      33.324  35.091  28.936  1.00  0.00     0.124 S 
ATOM     78  O   UNL A   1      32.567  35.425  30.138  1.00  0.00    -0.237 OA
ATOM     79  O   UNL A   1      33.967  36.215  28.259  1.00  0.00    -0.237 OA
ATOM     80  O   UNL A   1      32.695  34.117  28.048  1.00  0.00    -0.744 OA
ENDBRANCH  76  77
ENDBRANCH  48  71
BRANCH  60  81
ATOM     81  C   UNL A   1      39.837  33.319  37.117  1.00  0.00    -0.014 A 
ATOM     82  C   UNL A   1      38.926  32.929  38.114  1.00  0.00     0.010 A 
ATOM     83  C   UNL A   1      40.571  34.509  37.285  1.00  0.00     0.010 A 
ATOM     84  C   UNL A   1      38.742  33.723  39.250  1.00  0.00     0.020 A 
ATOM     85  C   UNL A   1      40.408  35.291  38.431  1.00  0.00     0.020 A 
ATOM     86  C   UNL A   1      39.487  34.897  39.404  1.00  0.00     0.054 A 
BRANCH  86  87
ATOM     87  S   UNL A   1      39.280  35.874  40.918  1.00  0.00     0.124 S 
ATOM     88  O   UNL A   1      40.663  36.176  41.277  1.00  0.00    -0.237 OA
ATOM     89  O   UNL A   1      38.486  37.012  40.460  1.00  0.00    -0.237 OA
ATOM     90  O   UNL A   1      38.586  34.963  41.825  1.00  0.00    -0.744 OA
ENDBRANCH  86  87
ENDBRANCH  60  81
ENDBRANCH  34  35
ENDBRANCH  27  29
ENDBRANCH  26  27
ENDBRANCH  25  26
ENDBRANCH  24  25
ENDBRANCH   1  24
TORSDOF 20
ENDMDL
MODEL 3
REMARK VINA RESULT:      -9.9      4.115      9.309
REMARK SMILES COc1cccc(C(=O)N[C@H]2C=C[C@@H](C(=O)OCCOCCOC(=O)c3ccc(-c4c5nc(c(-c6ccc(S(=O)(=O)[O-])cc6)c6ccc([nH]6)c(-c6ccc(S(=O)(=O)[O-])cc6)c6nc(c(-c7ccc(S(=O)(=O)[O-])cc7)c7ccc4[nH]7)C=C6)C=C5)cc3)C2)c1
REMARK SMILES IDX 20 1 19 2 18 3 17 4 15 5 16 6 14 7 11 8 12 9 86 10 13 11
REMARK SMILES IDX 10 12 8 13 9 14 7 16 3 17 4 18 87 19 5 20 6 21 2 22 1 23
REMARK SMILES IDX 21 24 22 25 23 26 24 27 25 28 26 29 27 30 85 31 28 32 84 33
REMARK SMILES IDX 29 34 30 35 31 36 78 37 32 38 83 39 77 40 79 41 33 42 82 43
REMARK SMILES IDX 76 44 75 45 34 47 64 48 45 49 63 50 46 51 49 52 62 53 80 54
REMARK SMILES IDX 47 55 48 56 61 58 81 59 50 60 35 61 36 62 44 63 37 64 43 65
REMARK SMILES IDX 38 66 39 67 40 68 41 69 42 70 65 71 66 72 74 73 67 74 73 75
REMARK SMILES IDX 68 76 69 77 70 78 71 79 72 80 51 81 52 82 60 83 53 84 59 85
REMARK SMILES IDX 54 86 55 87 56 88 57 89 58 90
REMARK H PARENT 10 15 79 46 49 57
REMARK Flexibility Score: inf
ROOT
ATOM      1  O   UNL A   1      41.638  19.636  27.505  1.00  0.00    -0.374 OA
ENDROOT
BRANCH   1   2
ATOM      2  C   UNL A   1      41.244  20.582  26.511  1.00  0.00     0.202 C 
BRANCH   2   3
ATOM      3  C   UNL A   1      39.760  20.950  26.476  1.00  0.00     0.261 C 
BRANCH   3   4
ATOM      4  O   UNL A   1      39.554  22.106  25.653  1.00  0.00    -0.463 OA
BRANCH   4   5
ATOM      5  C   UNL A   1      38.383  22.757  25.858  1.00  0.00     0.312 C 
ATOM      6  O   UNL A   1      38.256  23.820  26.457  1.00  0.00    -0.252 OA
BRANCH   5   7
ATOM      7  C   UNL A   1      37.224  22.093  25.150  1.00  0.00     0.124 C 
ATOM      8  C   UNL A   1      34.933  21.648  24.751  1.00  0.00     0.106 C 
ATOM      9  C   UNL A   1      35.409  22.728  23.836  1.00  0.00    -0.006 C 
ATOM     10  C   UNL A   1      35.919  21.795  25.913  1.00  0.00     0.048 C 
ATOM     11  C   UNL A   1      36.712  22.958  24.033  1.00  0.00    -0.014 C 
BRANCH   8  12
ATOM     12  N   UNL A   1      33.531  21.762  25.018  1.00  0.00    -0.346 N 
ATOM     13  C   UNL A   1      32.552  20.787  25.019  1.00  0.00     0.251 C 
ATOM     14  O   UNL A   1      31.416  21.116  25.362  1.00  0.00    -0.269 OA
ATOM     15  H   UNL A   1      33.218  22.672  25.232  1.00  0.00     0.164 HD
BRANCH  13  16
ATOM     16  C   UNL A   1      32.779  19.372  24.558  1.00  0.00     0.043 A 
ATOM     17  C   UNL A   1      33.557  17.070  24.831  1.00  0.00     0.119 A 
ATOM     18  C   UNL A   1      33.291  16.818  23.488  1.00  0.00     0.046 A 
ATOM     19  C   UNL A   1      33.248  18.325  25.362  1.00  0.00     0.060 A 
ATOM     20  C   UNL A   1      32.734  17.813  22.686  1.00  0.00     0.005 A 
ATOM     21  C   UNL A   1      32.492  19.084  23.215  1.00  0.00     0.014 A 
BRANCH  17  22
ATOM     22  O   UNL A   1      34.111  16.028  25.527  1.00  0.00    -0.497 OA
ATOM     23  C   UNL A   1      35.512  15.820  25.374  1.00  0.00     0.278 C 
ENDBRANCH  17  22
ENDBRANCH  13  16
ENDBRANCH   8  12
ENDBRANCH   5   7
ENDBRANCH   4   5
ENDBRANCH   3   4
ENDBRANCH   2   3
ENDBRANCH   1   2
BRANCH   1  24
ATOM     24  C   UNL A   1      42.639  18.676  27.165  1.00  0.00     0.202 C 
BRANCH  24  25
ATOM     25  C   UNL A   1      43.084  18.609  25.699  1.00  0.00     0.261 C 
BRANCH  25  26
ATOM     26  O   UNL A   1      44.423  19.100  25.507  1.00  0.00    -0.460 OA
BRANCH  26  27
ATOM     27  C   UNL A   1      44.555  20.013  24.514  1.00  0.00     0.338 C 
ATOM     28  O   UNL A   1      44.519  19.800  23.309  1.00  0.00    -0.246 OA
BRANCH  27  29
ATOM     29  C   UNL A   1      44.558  21.376  25.072  1.00  0.00     0.060 A 
ATOM     30  C   UNL A   1      44.393  22.444  24.179  1.00  0.00     0.016 A 
ATOM     31  C   UNL A   1      44.818  21.611  26.423  1.00  0.00     0.016 A 
ATOM     32  C   UNL A   1      44.537  23.755  24.625  1.00  0.00     0.010 A 
ATOM     33  C   UNL A   1      44.975  22.927  26.865  1.00  0.00     0.010 A 
ATOM     34  C   UNL A   1      44.874  24.002  25.962  1.00  0.00    -0.014 A 
BRANCH  34  35
ATOM     35  C   UNL A   1      45.283  25.365  26.377  1.00  0.00     0.031 A 
ATOM     36  C   UNL A   1      44.241  26.296  26.934  1.00  0.00     0.074 A 
ATOM     37  C   UNL A   1      46.562  25.764  26.273  1.00  0.00     0.049 A 
ATOM     38  N   UNL A   1      44.358  27.545  27.300  1.00  0.00    -0.248 NA
ATOM     39  C   UNL A   1      42.885  25.743  27.095  1.00  0.00     0.031 C 
ATOM     40  C   UNL A   1      47.670  24.936  25.798  1.00  0.00     0.029 A 
ATOM     41  N   UNL A   1      47.140  26.976  26.552  1.00  0.00    -0.354 N 
ATOM     42  C   UNL A   1      43.091  27.935  27.719  1.00  0.00     0.074 A 
ATOM     43  C   UNL A   1      42.217  26.796  27.540  1.00  0.00     0.031 C 
ATOM     44  C   UNL A   1      48.794  25.672  25.803  1.00  0.00     0.029 A 
ATOM     45  C   UNL A   1      48.478  27.029  26.245  1.00  0.00     0.049 A 
ATOM     46  H   UNL A   1      46.643  27.735  26.934  1.00  0.00     0.167 HD
ATOM     47  C   UNL A   1      42.691  29.135  28.204  1.00  0.00     0.031 A 
ATOM     48  C   UNL A   1      49.343  28.063  26.289  1.00  0.00     0.031 A 
ATOM     49  C   UNL A   1      43.561  30.268  28.364  1.00  0.00     0.049 A 
ATOM     50  C   UNL A   1      48.864  29.407  26.768  1.00  0.00     0.074 A 
ATOM     51  C   UNL A   1      43.257  31.523  28.862  1.00  0.00     0.029 A 
ATOM     52  N   UNL A   1      44.904  30.289  28.018  1.00  0.00    -0.354 N 
ATOM     53  N   UNL A   1      47.668  29.758  27.177  1.00  0.00    -0.248 NA
ATOM     54  C   UNL A   1      49.853  30.495  26.795  1.00  0.00     0.031 C 
ATOM     55  C   UNL A   1      44.403  32.319  28.767  1.00  0.00     0.029 A 
ATOM     56  C   UNL A   1      45.436  31.542  28.267  1.00  0.00     0.049 A 
ATOM     57  H   UNL A   1      45.405  29.525  27.651  1.00  0.00     0.167 HD
ATOM     58  C   UNL A   1      47.767  31.097  27.540  1.00  0.00     0.074 A 
ATOM     59  C   UNL A   1      49.141  31.493  27.304  1.00  0.00     0.031 C 
ATOM     60  C   UNL A   1      46.808  31.922  28.030  1.00  0.00     0.031 A 
BRANCH  47  61
ATOM     61  C   UNL A   1      41.233  29.288  28.547  1.00  0.00    -0.014 A 
ATOM     62  C   UNL A   1      40.245  29.342  27.547  1.00  0.00     0.010 A 
ATOM     63  C   UNL A   1      40.845  29.370  29.897  1.00  0.00     0.010 A 
ATOM     64  C   UNL A   1      38.902  29.530  27.889  1.00  0.00     0.020 A 
ATOM     65  C   UNL A   1      39.500  29.530  30.244  1.00  0.00     0.020 A 
ATOM     66  C   UNL A   1      38.541  29.631  29.236  1.00  0.00     0.054 A 
BRANCH  66  67
ATOM     67  S   UNL A   1      36.793  29.882  29.652  1.00  0.00     0.124 S 
ATOM     68  O   UNL A   1      36.613  28.951  30.764  1.00  0.00    -0.237 OA
ATOM     69  O   UNL A   1      36.746  31.298  30.007  1.00  0.00    -0.237 OA
ATOM     70  O   UNL A   1      36.089  29.526  28.423  1.00  0.00    -0.744 OA
ENDBRANCH  66  67
ENDBRANCH  47  61
BRANCH  48  71
ATOM     71  C   UNL A   1      50.749  27.859  25.846  1.00  0.00    -0.014 A 
ATOM     72  C   UNL A   1      51.099  27.977  24.491  1.00  0.00     0.010 A 
ATOM     73  C   UNL A   1      51.754  27.585  26.792  1.00  0.00     0.010 A 
ATOM     74  C   UNL A   1      52.429  27.825  24.089  1.00  0.00     0.020 A 
ATOM     75  C   UNL A   1      53.089  27.458  26.397  1.00  0.00     0.020 A 
ATOM     76  C   UNL A   1      53.417  27.575  25.046  1.00  0.00     0.054 A 
BRANCH  76  77
ATOM     77  S   UNL A   1      55.148  27.468  24.511  1.00  0.00     0.124 S 
ATOM     78  O   UNL A   1      55.537  28.874  24.455  1.00  0.00    -0.237 OA
ATOM     79  O   UNL A   1      55.759  26.684  25.583  1.00  0.00    -0.237 OA
ATOM     80  O   UNL A   1      55.066  26.787  23.222  1.00  0.00    -0.744 OA
ENDBRANCH  76  77
ENDBRANCH  48  71
BRANCH  60  81
ATOM     81  C   UNL A   1      47.208  33.328  28.389  1.00  0.00    -0.014 A 
ATOM     82  C   UNL A   1      47.068  34.385  27.473  1.00  0.00     0.010 A 
ATOM     83  C   UNL A   1      47.651  33.606  29.696  1.00  0.00     0.010 A 
ATOM     84  C   UNL A   1      47.380  35.694  27.853  1.00  0.00     0.020 A 
ATOM     85  C   UNL A   1      47.938  34.916  30.087  1.00  0.00     0.020 A 
ATOM     86  C   UNL A   1      47.810  35.952  29.160  1.00  0.00     0.054 A 
BRANCH  86  87
ATOM     87  S   UNL A   1      48.143  37.666  29.649  1.00  0.00     0.124 S 
ATOM     88  O   UNL A   1      49.067  38.106  28.607  1.00  0.00    -0.237 OA
ATOM     89  O   UNL A   1      46.816  38.275  29.611  1.00  0.00    -0.237 OA
ATOM     90  O   UNL A   1      48.725  37.539  30.983  1.00  0.00    -0.744 OA
ENDBRANCH  86  87
ENDBRANCH  60  81
ENDBRANCH  34  35
ENDBRANCH  27  29
ENDBRANCH  26  27
ENDBRANCH  25  26
ENDBRANCH  24  25
ENDBRANCH   1  24
TORSDOF 20
ENDMDL
