MODEL 1
REMARK VINA RESULT:      -9.5      0.000      0.000
REMARK SMILES CCN1CCN([C@H](C)c2ccc(C(=O)OCCOCCOC(=O)c3ccc(-c4c5nc(c(-c6ccc(S(=O)(=O)[O-])cc6)c6ccc([nH]6)c(-c6ccc(S(=O)(=O)[O-])cc6)c6nc(c(-c7ccc(S(=O)(=O)[O-])cc7)c7ccc4[nH]7)C=C6)C=C5)cc3)o2)C(=O)C1=O
REMARK SMILES IDX 18 1 17 2 16 3 15 4 13 5 14 6 12 7 9 8 10 9 84 10 11 11 7 12
REMARK SMILES IDX 8 13 6 14 3 15 4 16 87 17 5 18 85 19 88 20 86 21 2 22 1 23
REMARK SMILES IDX 19 24 20 25 21 26 22 27 23 28 24 29 25 30 83 31 26 32 82 33
REMARK SMILES IDX 27 34 28 35 29 36 76 37 30 38 81 39 75 40 77 41 31 42 80 43
REMARK SMILES IDX 74 44 73 45 32 47 62 48 43 49 61 50 44 51 47 52 60 53 78 54
REMARK SMILES IDX 45 55 46 56 59 58 79 59 48 60 33 61 34 62 42 63 35 64 41 65
REMARK SMILES IDX 36 66 37 67 38 68 39 69 40 70 63 71 64 72 72 73 65 74 71 75
REMARK SMILES IDX 66 76 67 77 68 78 69 79 70 80 49 81 50 82 58 83 51 84 57 85
REMARK SMILES IDX 52 86 53 87 54 88 55 89 56 90
REMARK H PARENT 77 46 47 57
REMARK Flexibility Score: inf
ROOT
ATOM      1  O   UNL A   1      35.240  21.864  25.350  1.00  0.00    -0.374 OA
ENDROOT
BRANCH   1   2
ATOM      2  C   UNL A   1      34.492  21.060  24.434  1.00  0.00     0.202 C 
BRANCH   2   3
ATOM      3  C   UNL A   1      33.066  20.739  24.892  1.00  0.00     0.261 C 
BRANCH   3   4
ATOM      4  O   UNL A   1      32.155  21.739  24.406  1.00  0.00    -0.457 OA
BRANCH   4   5
ATOM      5  C   UNL A   1      32.149  21.933  23.055  1.00  0.00     0.374 C 
ATOM      6  O   UNL A   1      31.951  21.056  22.223  1.00  0.00    -0.242 OA
BRANCH   5   7
ATOM      7  C   UNL A   1      32.272  23.346  22.776  1.00  0.00     0.211 A 
ATOM      8  C   UNL A   1      31.710  25.465  23.037  1.00  0.00     0.127 A 
ATOM      9  C   UNL A   1      32.863  25.458  22.277  1.00  0.00     0.049 A 
ATOM     10  O   UNL A   1      31.343  24.186  23.326  1.00  0.00    -0.452 OA
ATOM     11  C   UNL A   1      33.222  24.098  22.107  1.00  0.00     0.058 A 
BRANCH   8  12
ATOM     12  C   UNL A   1      30.851  26.573  23.574  1.00  0.00     0.149 C 
ATOM     13  C   UNL A   1      29.497  26.023  24.021  1.00  0.00     0.040 C 
BRANCH  12  14
ATOM     14  N   UNL A   1      31.596  27.390  24.549  1.00  0.00    -0.323 N 
ATOM     15  N   UNL A   1      33.197  28.833  26.468  1.00  0.00    -0.333 N 
ATOM     16  C   UNL A   1      33.587  27.522  25.974  1.00  0.00     0.141 C 
ATOM     17  C   UNL A   1      32.047  29.444  25.949  1.00  0.00     0.312 C 
ATOM     18  C   UNL A   1      32.368  26.697  25.572  1.00  0.00     0.142 C 
ATOM     19  C   UNL A   1      31.382  28.766  24.708  1.00  0.00     0.312 C 
ATOM     20  O   UNL A   1      31.559  30.473  26.399  1.00  0.00    -0.263 OA
ATOM     21  O   UNL A   1      30.759  29.472  23.925  1.00  0.00    -0.263 OA
BRANCH  15  22
ATOM     22  C   UNL A   1      33.921  29.386  27.609  1.00  0.00     0.116 C 
ATOM     23  C   UNL A   1      34.750  30.633  27.335  1.00  0.00     0.027 C 
ENDBRANCH  15  22
ENDBRANCH  12  14
ENDBRANCH   8  12
ENDBRANCH   5   7
ENDBRANCH   4   5
ENDBRANCH   3   4
ENDBRANCH   2   3
ENDBRANCH   1   2
BRANCH   1  24
ATOM     24  C   UNL A   1      35.062  23.277  25.245  1.00  0.00     0.202 C 
BRANCH  24  25
ATOM     25  C   UNL A   1      36.232  24.121  25.762  1.00  0.00     0.261 C 
BRANCH  25  26
ATOM     26  O   UNL A   1      37.470  23.724  25.145  1.00  0.00    -0.460 OA
BRANCH  26  27
ATOM     27  C   UNL A   1      38.393  23.212  25.995  1.00  0.00     0.338 C 
ATOM     28  O   UNL A   1      38.734  22.045  26.092  1.00  0.00    -0.246 OA
BRANCH  27  29
ATOM     29  C   UNL A   1      39.085  24.310  26.699  1.00  0.00     0.060 A 
ATOM     30  C   UNL A   1      38.814  24.473  28.063  1.00  0.00     0.016 A 
ATOM     31  C   UNL A   1      39.947  25.190  26.038  1.00  0.00     0.016 A 
ATOM     32  C   UNL A   1      39.366  25.544  28.763  1.00  0.00     0.010 A 
ATOM     33  C   UNL A   1      40.496  26.268  26.741  1.00  0.00     0.010 A 
ATOM     34  C   UNL A   1      40.183  26.469  28.097  1.00  0.00    -0.014 A 
BRANCH  34  35
ATOM     35  C   UNL A   1      40.597  27.714  28.787  1.00  0.00     0.031 A 
ATOM     36  C   UNL A   1      41.996  27.819  29.329  1.00  0.00     0.074 A 
ATOM     37  C   UNL A   1      39.750  28.752  28.902  1.00  0.00     0.049 A 
ATOM     38  N   UNL A   1      42.566  28.810  29.965  1.00  0.00    -0.248 NA
ATOM     39  C   UNL A   1      42.868  26.651  29.124  1.00  0.00     0.031 C 
ATOM     40  C   UNL A   1      38.388  28.794  28.372  1.00  0.00     0.029 A 
ATOM     41  N   UNL A   1      39.919  29.974  29.502  1.00  0.00    -0.354 N 
ATOM     42  C   UNL A   1      43.862  28.387  30.238  1.00  0.00     0.074 A 
ATOM     43  C   UNL A   1      43.981  27.037  29.729  1.00  0.00     0.031 C 
ATOM     44  C   UNL A   1      37.847  29.990  28.663  1.00  0.00     0.029 A 
ATOM     45  C   UNL A   1      38.810  30.780  29.428  1.00  0.00     0.049 A 
ATOM     46  H   UNL A   1      40.756  30.247  29.943  1.00  0.00     0.167 HD
ATOM     47  C   UNL A   1      44.866  29.062  30.849  1.00  0.00     0.031 A 
ATOM     48  C   UNL A   1      38.592  32.013  29.930  1.00  0.00     0.031 A 
ATOM     49  C   UNL A   1      44.738  30.392  31.381  1.00  0.00     0.049 A 
ATOM     50  C   UNL A   1      39.686  32.705  30.696  1.00  0.00     0.074 A 
ATOM     51  C   UNL A   1      45.696  31.163  32.018  1.00  0.00     0.029 A 
ATOM     52  N   UNL A   1      43.575  31.148  31.350  1.00  0.00    -0.354 N 
ATOM     53  N   UNL A   1      40.910  32.297  30.936  1.00  0.00    -0.248 NA
ATOM     54  C   UNL A   1      39.369  34.025  31.258  1.00  0.00     0.031 C 
ATOM     55  C   UNL A   1      45.096  32.361  32.420  1.00  0.00     0.029 A 
ATOM     56  C   UNL A   1      43.781  32.362  31.983  1.00  0.00     0.049 A 
ATOM     57  H   UNL A   1      42.728  30.862  30.939  1.00  0.00     0.167 HD
ATOM     58  C   UNL A   1      41.517  33.322  31.654  1.00  0.00     0.074 A 
ATOM     59  C   UNL A   1      40.527  34.371  31.805  1.00  0.00     0.031 C 
ATOM     60  C   UNL A   1      42.783  33.392  32.136  1.00  0.00     0.031 A 
BRANCH  47  61
ATOM     61  C   UNL A   1      46.175  28.336  31.009  1.00  0.00    -0.014 A 
ATOM     62  C   UNL A   1      47.153  28.366  29.998  1.00  0.00     0.010 A 
ATOM     63  C   UNL A   1      46.421  27.595  32.179  1.00  0.00     0.010 A 
ATOM     64  C   UNL A   1      48.324  27.615  30.125  1.00  0.00     0.020 A 
ATOM     65  C   UNL A   1      47.605  26.864  32.322  1.00  0.00     0.020 A 
ATOM     66  C   UNL A   1      48.535  26.857  31.281  1.00  0.00     0.054 A 
BRANCH  66  67
ATOM     67  S   UNL A   1      50.046  25.860  31.409  1.00  0.00     0.124 S 
ATOM     68  O   UNL A   1      50.308  25.535  30.009  1.00  0.00    -0.237 OA
ATOM     69  O   UNL A   1      50.992  26.784  32.026  1.00  0.00    -0.237 OA
ATOM     70  O   UNL A   1      49.645  24.731  32.245  1.00  0.00    -0.744 OA
ENDBRANCH  66  67
ENDBRANCH  47  61
BRANCH  48  71
ATOM     71  C   UNL A   1      37.277  32.673  29.712  1.00  0.00    -0.014 A 
ATOM     72  C   UNL A   1      36.273  32.596  30.692  1.00  0.00     0.010 A 
ATOM     73  C   UNL A   1      37.034  33.408  28.536  1.00  0.00     0.010 A 
ATOM     74  C   UNL A   1      35.049  33.245  30.502  1.00  0.00     0.020 A 
ATOM     75  C   UNL A   1      35.821  34.077  28.354  1.00  0.00     0.020 A 
ATOM     76  C   UNL A   1      34.835  33.987  29.338  1.00  0.00     0.054 A 
BRANCH  76  77
ATOM     77  S   UNL A   1      33.270  34.889  29.153  1.00  0.00     0.124 S 
ATOM     78  O   UNL A   1      32.562  34.071  28.175  1.00  0.00    -0.237 OA
ATOM     79  O   UNL A   1      32.731  34.865  30.511  1.00  0.00    -0.237 OA
ATOM     80  O   UNL A   1      33.690  36.206  28.682  1.00  0.00    -0.744 OA
ENDBRANCH  76  77
ENDBRANCH  48  71
BRANCH  60  81
ATOM     81  C   UNL A   1      43.183  34.654  32.853  1.00  0.00    -0.014 A 
ATOM     82  C   UNL A   1      43.039  34.781  34.245  1.00  0.00     0.010 A 
ATOM     83  C   UNL A   1      43.767  35.709  32.126  1.00  0.00     0.010 A 
ATOM     84  C   UNL A   1      43.446  35.949  34.895  1.00  0.00     0.020 A 
ATOM     85  C   UNL A   1      44.198  36.869  32.775  1.00  0.00     0.020 A 
ATOM     86  C   UNL A   1      44.023  36.987  34.156  1.00  0.00     0.054 A 
BRANCH  86  87
ATOM     87  S   UNL A   1      44.589  38.475  35.028  1.00  0.00     0.124 S 
ATOM     88  O   UNL A   1      43.764  39.515  34.421  1.00  0.00    -0.237 OA
ATOM     89  O   UNL A   1      44.284  38.165  36.423  1.00  0.00    -0.237 OA
ATOM     90  O   UNL A   1      46.013  38.542  34.708  1.00  0.00    -0.744 OA
ENDBRANCH  86  87
ENDBRANCH  60  81
ENDBRANCH  34  35
ENDBRANCH  27  29
ENDBRANCH  26  27
ENDBRANCH  25  26
ENDBRANCH  24  25
ENDBRANCH   1  24
TORSDOF 20
ENDMDL
MODEL 2
REMARK VINA RESULT:      -9.3      4.221     10.091
REMARK SMILES CCN1CCN([C@H](C)c2ccc(C(=O)OCCOCCOC(=O)c3ccc(-c4c5nc(c(-c6ccc(S(=O)(=O)[O-])cc6)c6ccc([nH]6)c(-c6ccc(S(=O)(=O)[O-])cc6)c6nc(c(-c7ccc(S(=O)(=O)[O-])cc7)c7ccc4[nH]7)C=C6)C=C5)cc3)o2)C(=O)C1=O
REMARK SMILES IDX 18 1 17 2 16 3 15 4 13 5 14 6 12 7 9 8 10 9 84 10 11 11 7 12
REMARK SMILES IDX 8 13 6 14 3 15 4 16 87 17 5 18 85 19 88 20 86 21 2 22 1 23
REMARK SMILES IDX 19 24 20 25 21 26 22 27 23 28 24 29 25 30 83 31 26 32 82 33
REMARK SMILES IDX 27 34 28 35 29 36 76 37 30 38 81 39 75 40 77 41 31 42 80 43
REMARK SMILES IDX 74 44 73 45 32 47 62 48 43 49 61 50 44 51 47 52 60 53 78 54
REMARK SMILES IDX 45 55 46 56 59 58 79 59 48 60 33 61 34 62 42 63 35 64 41 65
REMARK SMILES IDX 36 66 37 67 38 68 39 69 40 70 63 71 64 72 72 73 65 74 71 75
REMARK SMILES IDX 66 76 67 77 68 78 69 79 70 80 49 81 50 82 58 83 51 84 57 85
REMARK SMILES IDX 52 86 53 87 54 88 55 89 56 90
REMARK H PARENT 77 46 47 57
REMARK Flexibility Score: inf
ROOT
ATOM      1  O   UNL A   1      35.013  33.267  28.882  1.00  0.00    -0.374 OA
ENDROOT
BRANCH   1   2
ATOM      2  C   UNL A   1      34.149  32.131  28.805  1.00  0.00     0.202 C 
BRANCH   2   3
ATOM      3  C   UNL A   1      33.953  31.577  27.391  1.00  0.00     0.261 C 
BRANCH   3   4
ATOM      4  O   UNL A   1      33.055  30.456  27.421  1.00  0.00    -0.457 OA
BRANCH   4   5
ATOM      5  C   UNL A   1      33.602  29.246  27.104  1.00  0.00     0.374 C 
ATOM      6  O   UNL A   1      34.771  28.934  27.298  1.00  0.00    -0.242 OA
BRANCH   5   7
ATOM      7  C   UNL A   1      32.560  28.359  26.641  1.00  0.00     0.211 A 
ATOM      8  C   UNL A   1      31.422  27.300  25.072  1.00  0.00     0.127 A 
ATOM      9  C   UNL A   1      30.996  26.782  26.279  1.00  0.00     0.049 A 
ATOM     10  O   UNL A   1      32.357  28.266  25.291  1.00  0.00    -0.452 OA
ATOM     11  C   UNL A   1      31.724  27.463  27.286  1.00  0.00     0.058 A 
BRANCH   8  12
ATOM     12  C   UNL A   1      31.059  26.994  23.648  1.00  0.00     0.149 C 
ATOM     13  C   UNL A   1      30.604  25.540  23.519  1.00  0.00     0.040 C 
BRANCH  12  14
ATOM     14  N   UNL A   1      30.160  28.027  23.100  1.00  0.00    -0.323 N 
ATOM     15  N   UNL A   1      28.560  30.106  21.901  1.00  0.00    -0.333 N 
ATOM     16  C   UNL A   1      29.933  29.860  21.489  1.00  0.00     0.141 C 
ATOM     17  C   UNL A   1      27.973  29.268  22.860  1.00  0.00     0.312 C 
ATOM     18  C   UNL A   1      30.755  29.270  22.630  1.00  0.00     0.142 C 
ATOM     19  C   UNL A   1      28.768  27.984  23.259  1.00  0.00     0.312 C 
ATOM     20  O   UNL A   1      26.882  29.479  23.374  1.00  0.00    -0.263 OA
ATOM     21  O   UNL A   1      28.138  27.006  23.640  1.00  0.00    -0.263 OA
BRANCH  15  22
ATOM     22  C   UNL A   1      27.903  31.322  21.428  1.00  0.00     0.116 C 
ATOM     23  C   UNL A   1      28.375  32.625  22.058  1.00  0.00     0.027 C 
ENDBRANCH  15  22
ENDBRANCH  12  14
ENDBRANCH   8  12
ENDBRANCH   5   7
ENDBRANCH   4   5
ENDBRANCH   3   4
ENDBRANCH   2   3
ENDBRANCH   1   2
BRANCH   1  24
ATOM     24  C   UNL A   1      35.646  33.498  30.142  1.00  0.00     0.202 C 
BRANCH  24  25
ATOM     25  C   UNL A   1      35.353  32.448  31.220  1.00  0.00     0.261 C 
BRANCH  25  26
ATOM     26  O   UNL A   1      36.566  31.822  31.677  1.00  0.00    -0.460 OA
BRANCH  26  27
ATOM     27  C   UNL A   1      36.761  30.559  31.225  1.00  0.00     0.338 C 
ATOM     28  O   UNL A   1      35.915  29.696  31.072  1.00  0.00    -0.246 OA
BRANCH  27  29
ATOM     29  C   UNL A   1      38.155  30.407  30.761  1.00  0.00     0.060 A 
ATOM     30  C   UNL A   1      38.385  30.469  29.382  1.00  0.00     0.016 A 
ATOM     31  C   UNL A   1      39.211  30.167  31.645  1.00  0.00     0.016 A 
ATOM     32  C   UNL A   1      39.663  30.245  28.875  1.00  0.00     0.010 A 
ATOM     33  C   UNL A   1      40.493  29.936  31.134  1.00  0.00     0.010 A 
ATOM     34  C   UNL A   1      40.719  29.942  29.746  1.00  0.00    -0.014 A 
BRANCH  34  35
ATOM     35  C   UNL A   1      42.023  29.501  29.196  1.00  0.00     0.031 A 
ATOM     36  C   UNL A   1      43.163  30.481  29.143  1.00  0.00     0.074 A 
ATOM     37  C   UNL A   1      42.201  28.236  28.777  1.00  0.00     0.049 A 
ATOM     38  N   UNL A   1      44.383  30.309  28.703  1.00  0.00    -0.248 NA
ATOM     39  C   UNL A   1      42.891  31.832  29.658  1.00  0.00     0.031 C 
ATOM     40  C   UNL A   1      41.192  27.179  28.826  1.00  0.00     0.029 A 
ATOM     41  N   UNL A   1      43.303  27.627  28.231  1.00  0.00    -0.354 N 
ATOM     42  C   UNL A   1      45.025  31.528  28.886  1.00  0.00     0.074 A 
ATOM     43  C   UNL A   1      44.048  32.440  29.444  1.00  0.00     0.031 C 
ATOM     44  C   UNL A   1      41.727  26.047  28.338  1.00  0.00     0.029 A 
ATOM     45  C   UNL A   1      43.100  26.308  27.911  1.00  0.00     0.049 A 
ATOM     46  H   UNL A   1      44.158  28.093  28.084  1.00  0.00     0.167 HD
ATOM     47  C   UNL A   1      46.312  31.861  28.621  1.00  0.00     0.031 A 
ATOM     48  C   UNL A   1      43.926  25.414  27.330  1.00  0.00     0.031 A 
ATOM     49  C   UNL A   1      47.274  30.964  28.039  1.00  0.00     0.049 A 
ATOM     50  C   UNL A   1      45.320  25.832  26.948  1.00  0.00     0.074 A 
ATOM     51  C   UNL A   1      48.602  31.204  27.731  1.00  0.00     0.029 A 
ATOM     52  N   UNL A   1      47.008  29.656  27.662  1.00  0.00    -0.354 N 
ATOM     53  N   UNL A   1      45.916  26.986  27.138  1.00  0.00    -0.248 NA
ATOM     54  C   UNL A   1      46.153  24.825  26.275  1.00  0.00     0.031 C 
ATOM     55  C   UNL A   1      49.123  30.059  27.119  1.00  0.00     0.029 A 
ATOM     56  C   UNL A   1      48.136  29.086  27.097  1.00  0.00     0.049 A 
ATOM     57  H   UNL A   1      46.143  29.200  27.778  1.00  0.00     0.167 HD
ATOM     58  C   UNL A   1      47.203  26.835  26.631  1.00  0.00     0.074 A 
ATOM     59  C   UNL A   1      47.299  25.477  26.132  1.00  0.00     0.031 C 
ATOM     60  C   UNL A   1      48.215  27.737  26.593  1.00  0.00     0.031 A 
BRANCH  47  61
ATOM     61  C   UNL A   1      46.725  33.276  28.923  1.00  0.00    -0.014 A 
ATOM     62  C   UNL A   1      46.591  34.296  27.963  1.00  0.00     0.010 A 
ATOM     63  C   UNL A   1      47.277  33.586  30.179  1.00  0.00     0.010 A 
ATOM     64  C   UNL A   1      47.062  35.584  28.230  1.00  0.00     0.020 A 
ATOM     65  C   UNL A   1      47.724  34.881  30.460  1.00  0.00     0.020 A 
ATOM     66  C   UNL A   1      47.639  35.864  29.472  1.00  0.00     0.054 A 
BRANCH  66  67
ATOM     67  S   UNL A   1      48.277  37.534  29.783  1.00  0.00     0.124 S 
ATOM     68  O   UNL A   1      47.048  38.275  30.061  1.00  0.00    -0.237 OA
ATOM     69  O   UNL A   1      49.161  37.335  30.927  1.00  0.00    -0.237 OA
ATOM     70  O   UNL A   1      48.947  37.886  28.534  1.00  0.00    -0.744 OA
ENDBRANCH  66  67
ENDBRANCH  47  61
BRANCH  48  71
ATOM     71  C   UNL A   1      43.450  24.027  27.083  1.00  0.00    -0.014 A 
ATOM     72  C   UNL A   1      43.320  23.120  28.148  1.00  0.00     0.010 A 
ATOM     73  C   UNL A   1      43.094  23.616  25.784  1.00  0.00     0.010 A 
ATOM     74  C   UNL A   1      42.841  21.826  27.921  1.00  0.00     0.020 A 
ATOM     75  C   UNL A   1      42.593  22.332  25.557  1.00  0.00     0.020 A 
ATOM     76  C   UNL A   1      42.473  21.444  26.628  1.00  0.00     0.054 A 
BRANCH  76  77
ATOM     77  S   UNL A   1      41.774  19.788  26.373  1.00  0.00     0.124 S 
ATOM     78  O   UNL A   1      42.468  19.349  25.167  1.00  0.00    -0.237 OA
ATOM     79  O   UNL A   1      42.144  19.097  27.606  1.00  0.00    -0.237 OA
ATOM     80  O   UNL A   1      40.344  20.043  26.216  1.00  0.00    -0.744 OA
ENDBRANCH  76  77
ENDBRANCH  48  71
BRANCH  60  81
ATOM     81  C   UNL A   1      49.528  27.281  26.012  1.00  0.00    -0.014 A 
ATOM     82  C   UNL A   1      50.496  26.643  26.807  1.00  0.00     0.010 A 
ATOM     83  C   UNL A   1      49.771  27.444  24.635  1.00  0.00     0.010 A 
ATOM     84  C   UNL A   1      51.694  26.199  26.241  1.00  0.00     0.020 A 
ATOM     85  C   UNL A   1      50.957  26.980  24.061  1.00  0.00     0.020 A 
ATOM     86  C   UNL A   1      51.919  26.371  24.871  1.00  0.00     0.054 A 
BRANCH  86  87
ATOM     87  S   UNL A   1      53.461  25.743  24.150  1.00  0.00     0.124 S 
ATOM     88  O   UNL A   1      53.502  24.377  24.664  1.00  0.00    -0.237 OA
ATOM     89  O   UNL A   1      53.219  25.868  22.715  1.00  0.00    -0.237 OA
ATOM     90  O   UNL A   1      54.482  26.642  24.683  1.00  0.00    -0.744 OA
ENDBRANCH  86  87
ENDBRANCH  60  81
ENDBRANCH  34  35
ENDBRANCH  27  29
ENDBRANCH  26  27
ENDBRANCH  25  26
ENDBRANCH  24  25
ENDBRANCH   1  24
TORSDOF 20
ENDMDL
MODEL 3
REMARK VINA RESULT:      -9.2      3.981      9.433
REMARK SMILES CCN1CCN([C@H](C)c2ccc(C(=O)OCCOCCOC(=O)c3ccc(-c4c5nc(c(-c6ccc(S(=O)(=O)[O-])cc6)c6ccc([nH]6)c(-c6ccc(S(=O)(=O)[O-])cc6)c6nc(c(-c7ccc(S(=O)(=O)[O-])cc7)c7ccc4[nH]7)C=C6)C=C5)cc3)o2)C(=O)C1=O
REMARK SMILES IDX 18 1 17 2 16 3 15 4 13 5 14 6 12 7 9 8 10 9 84 10 11 11 7 12
REMARK SMILES IDX 8 13 6 14 3 15 4 16 87 17 5 18 85 19 88 20 86 21 2 22 1 23
REMARK SMILES IDX 19 24 20 25 21 26 22 27 23 28 24 29 25 30 83 31 26 32 82 33
REMARK SMILES IDX 27 34 28 35 29 36 76 37 30 38 81 39 75 40 77 41 31 42 80 43
REMARK SMILES IDX 74 44 73 45 32 47 62 48 43 49 61 50 44 51 47 52 60 53 78 54
REMARK SMILES IDX 45 55 46 56 59 58 79 59 48 60 33 61 34 62 42 63 35 64 41 65
REMARK SMILES IDX 36 66 37 67 38 68 39 69 40 70 63 71 64 72 72 73 65 74 71 75
REMARK SMILES IDX 66 76 67 77 68 78 69 79 70 80 49 81 50 82 58 83 51 84 57 85
REMARK SMILES IDX 52 86 53 87 54 88 55 89 56 90
REMARK H PARENT 77 46 47 57
REMARK Flexibility Score: inf
ROOT
ATOM      1  O   UNL A   1      37.494  21.049  25.238  1.00  0.00    -0.374 OA
ENDROOT
BRANCH   1   2
ATOM      2  C   UNL A   1      36.168  21.564  25.094  1.00  0.00     0.202 C 
BRANCH   2   3
ATOM      3  C   UNL A   1      35.077  20.493  25.012  1.00  0.00     0.261 C 
BRANCH   3   4
ATOM      4  O   UNL A   1      34.011  20.805  25.924  1.00  0.00    -0.457 OA
BRANCH   4   5
ATOM      5  C   UNL A   1      32.761  20.874  25.378  1.00  0.00     0.374 C 
ATOM      6  O   UNL A   1      32.189  19.946  24.819  1.00  0.00    -0.242 OA
BRANCH   5   7
ATOM      7  C   UNL A   1      32.177  22.159  25.688  1.00  0.00     0.211 A 
ATOM      8  C   UNL A   1      32.237  24.357  25.891  1.00  0.00     0.127 A 
ATOM      9  C   UNL A   1      30.915  23.988  26.040  1.00  0.00     0.049 A 
ATOM     10  O   UNL A   1      33.004  23.249  25.693  1.00  0.00    -0.452 OA
ATOM     11  C   UNL A   1      30.877  22.577  25.914  1.00  0.00     0.058 A 
BRANCH   8  12
ATOM     12  C   UNL A   1      32.929  25.689  25.899  1.00  0.00     0.149 C 
ATOM     13  C   UNL A   1      34.426  25.508  25.647  1.00  0.00     0.040 C 
BRANCH  12  14
ATOM     14  N   UNL A   1      32.219  26.656  25.041  1.00  0.00    -0.323 N 
ATOM     15  N   UNL A   1      30.842  28.686  23.522  1.00  0.00    -0.333 N 
ATOM     16  C   UNL A   1      31.304  28.925  24.881  1.00  0.00     0.141 C 
ATOM     17  C   UNL A   1      31.132  27.460  22.907  1.00  0.00     0.312 C 
ATOM     18  C   UNL A   1      31.348  27.629  25.685  1.00  0.00     0.142 C 
ATOM     19  C   UNL A   1      32.128  26.513  23.650  1.00  0.00     0.312 C 
ATOM     20  O   UNL A   1      30.666  27.111  21.830  1.00  0.00    -0.263 OA
ATOM     21  O   UNL A   1      32.802  25.740  22.980  1.00  0.00    -0.263 OA
BRANCH  15  22
ATOM     22  C   UNL A   1      29.945  29.666  22.915  1.00  0.00     0.116 C 
ATOM     23  C   UNL A   1      28.478  29.269  22.834  1.00  0.00     0.027 C 
ENDBRANCH  15  22
ENDBRANCH  12  14
ENDBRANCH   8  12
ENDBRANCH   5   7
ENDBRANCH   4   5
ENDBRANCH   3   4
ENDBRANCH   2   3
ENDBRANCH   1   2
BRANCH   1  24
ATOM     24  C   UNL A   1      38.483  21.967  25.706  1.00  0.00     0.202 C 
BRANCH  24  25
ATOM     25  C   UNL A   1      39.635  21.337  26.497  1.00  0.00     0.261 C 
BRANCH  25  26
ATOM     26  O   UNL A   1      40.197  20.216  25.791  1.00  0.00    -0.460 OA
BRANCH  26  27
ATOM     27  C   UNL A   1      41.451  19.872  26.173  1.00  0.00     0.338 C 
ATOM     28  O   UNL A   1      41.911  18.746  26.253  1.00  0.00    -0.246 OA
BRANCH  27  29
ATOM     29  C   UNL A   1      42.277  21.088  26.319  1.00  0.00     0.060 A 
ATOM     30  C   UNL A   1      42.606  21.491  27.619  1.00  0.00     0.016 A 
ATOM     31  C   UNL A   1      42.687  21.845  25.218  1.00  0.00     0.016 A 
ATOM     32  C   UNL A   1      43.306  22.677  27.827  1.00  0.00     0.010 A 
ATOM     33  C   UNL A   1      43.386  23.039  25.429  1.00  0.00     0.010 A 
ATOM     34  C   UNL A   1      43.671  23.476  26.735  1.00  0.00    -0.014 A 
BRANCH  34  35
ATOM     35  C   UNL A   1      44.228  24.831  26.968  1.00  0.00     0.031 A 
ATOM     36  C   UNL A   1      43.308  25.931  27.420  1.00  0.00     0.074 A 
ATOM     37  C   UNL A   1      45.542  25.071  26.811  1.00  0.00     0.049 A 
ATOM     38  N   UNL A   1      43.581  27.184  27.681  1.00  0.00    -0.248 NA
ATOM     39  C   UNL A   1      41.893  25.570  27.605  1.00  0.00     0.031 C 
ATOM     40  C   UNL A   1      46.543  24.077  26.430  1.00  0.00     0.029 A 
ATOM     41  N   UNL A   1      46.256  26.233  26.959  1.00  0.00    -0.354 N 
ATOM     42  C   UNL A   1      42.375  27.762  28.059  1.00  0.00     0.074 A 
ATOM     43  C   UNL A   1      41.364  26.731  27.959  1.00  0.00     0.031 C 
ATOM     44  C   UNL A   1      47.748  24.672  26.383  1.00  0.00     0.029 A 
ATOM     45  C   UNL A   1      47.596  26.092  26.696  1.00  0.00     0.049 A 
ATOM     46  H   UNL A   1      45.846  27.087  27.229  1.00  0.00     0.167 HD
ATOM     47  C   UNL A   1      42.129  29.033  28.460  1.00  0.00     0.031 A 
ATOM     48  C   UNL A   1      48.587  27.006  26.698  1.00  0.00     0.031 A 
ATOM     49  C   UNL A   1      43.128  30.065  28.531  1.00  0.00     0.049 A 
ATOM     50  C   UNL A   1      48.275  28.436  27.046  1.00  0.00     0.074 A 
ATOM     51  C   UNL A   1      42.980  31.384  28.924  1.00  0.00     0.029 A 
ATOM     52  N   UNL A   1      44.461  29.899  28.186  1.00  0.00    -0.354 N 
ATOM     53  N   UNL A   1      47.131  28.965  27.412  1.00  0.00    -0.248 NA
ATOM     54  C   UNL A   1      49.389  29.393  26.982  1.00  0.00     0.031 C 
ATOM     55  C   UNL A   1      44.213  32.028  28.766  1.00  0.00     0.029 A 
ATOM     56  C   UNL A   1      45.141  31.097  28.328  1.00  0.00     0.049 A 
ATOM     57  H   UNL A   1      44.865  29.054  27.884  1.00  0.00     0.167 HD
ATOM     58  C   UNL A   1      47.394  30.311  27.648  1.00  0.00     0.074 A 
ATOM     59  C   UNL A   1      48.806  30.513  27.388  1.00  0.00     0.031 C 
ATOM     60  C   UNL A   1      46.544  31.287  28.054  1.00  0.00     0.031 A 
BRANCH  47  61
ATOM     61  C   UNL A   1      40.705  29.374  28.807  1.00  0.00    -0.014 A 
ATOM     62  C   UNL A   1      40.304  29.557  30.144  1.00  0.00     0.010 A 
ATOM     63  C   UNL A   1      39.747  29.490  27.783  1.00  0.00     0.010 A 
ATOM     64  C   UNL A   1      38.961  29.785  30.454  1.00  0.00     0.020 A 
ATOM     65  C   UNL A   1      38.407  29.745  28.088  1.00  0.00     0.020 A 
ATOM     66  C   UNL A   1      38.018  29.863  29.424  1.00  0.00     0.054 A 
BRANCH  66  67
ATOM     67  S   UNL A   1      36.274  30.122  29.852  1.00  0.00     0.124 S 
ATOM     68  O   UNL A   1      36.148  29.335  31.076  1.00  0.00    -0.237 OA
ATOM     69  O   UNL A   1      36.196  31.570  30.027  1.00  0.00    -0.237 OA
ATOM     70  O   UNL A   1      35.553  29.597  28.696  1.00  0.00    -0.744 OA
ENDBRANCH  66  67
ENDBRANCH  47  61
BRANCH  48  71
ATOM     71  C   UNL A   1      49.974  26.587  26.364  1.00  0.00    -0.014 A 
ATOM     72  C   UNL A   1      50.806  26.034  27.352  1.00  0.00     0.010 A 
ATOM     73  C   UNL A   1      50.459  26.710  25.048  1.00  0.00     0.010 A 
ATOM     74  C   UNL A   1      52.099  25.609  27.030  1.00  0.00     0.020 A 
ATOM     75  C   UNL A   1      51.741  26.265  24.718  1.00  0.00     0.020 A 
ATOM     76  C   UNL A   1      52.554  25.720  25.714  1.00  0.00     0.054 A 
BRANCH  76  77
ATOM     77  S   UNL A   1      54.205  25.083  25.304  1.00  0.00     0.124 S 
ATOM     78  O   UNL A   1      54.585  25.929  24.178  1.00  0.00    -0.237 OA
ATOM     79  O   UNL A   1      54.944  25.307  26.544  1.00  0.00    -0.237 OA
ATOM     80  O   UNL A   1      53.957  23.681  24.980  1.00  0.00    -0.744 OA
ENDBRANCH  76  77
ENDBRANCH  48  71
BRANCH  60  81
ATOM     81  C   UNL A   1      47.120  32.662  28.266  1.00  0.00    -0.014 A 
ATOM     82  C   UNL A   1      47.684  33.036  29.498  1.00  0.00     0.010 A 
ATOM     83  C   UNL A   1      47.148  33.576  27.196  1.00  0.00     0.010 A 
ATOM     84  C   UNL A   1      48.241  34.307  29.665  1.00  0.00     0.020 A 
ATOM     85  C   UNL A   1      47.726  34.838  27.350  1.00  0.00     0.020 A 
ATOM     86  C   UNL A   1      48.258  35.201  28.590  1.00  0.00     0.054 A 
BRANCH  86  87
ATOM     87  S   UNL A   1      49.031  36.827  28.815  1.00  0.00     0.124 S 
ATOM     88  O   UNL A   1      50.451  36.508  28.696  1.00  0.00    -0.237 OA
ATOM     89  O   UNL A   1      48.469  37.606  27.714  1.00  0.00    -0.237 OA
ATOM     90  O   UNL A   1      48.593  37.237  30.147  1.00  0.00    -0.744 OA
ENDBRANCH  86  87
ENDBRANCH  60  81
ENDBRANCH  34  35
ENDBRANCH  27  29
ENDBRANCH  26  27
ENDBRANCH  25  26
ENDBRANCH  24  25
ENDBRANCH   1  24
TORSDOF 20
ENDMDL
