MODEL 1
REMARK VINA RESULT:     -10.9      0.000      0.000
REMARK SMILES O=C(OCCOCCOC(=O)[C@@H]1Nc2c(cccc2C(F)(F)F)[C@@H]2C=CC[C@@H]12)c1ccc(-c2c3nc(c(-c4ccc(S(=O)(=O)[O-])cc4)c4ccc([nH]4)c(-c4ccc(S(=O)(=O)[O-])cc4)c4nc(c(-c5ccc(S(=O)(=O)[O-])cc5)c5ccc2[nH]5)C=C4)C=C3)cc1
REMARK SMILES IDX 5 1 4 2 3 3 2 4 1 5 29 6 30 7 88 8 31 9 87 10 32 11 33 12
REMARK SMILES IDX 34 13 81 14 35 15 86 16 80 17 82 18 36 19 85 20 79 21 78 22
REMARK SMILES IDX 37 24 67 25 48 26 66 27 49 28 52 29 65 30 83 31 50 32 51 33
REMARK SMILES IDX 64 35 84 36 53 37 38 38 39 39 47 40 40 41 46 42 41 43 42 44
REMARK SMILES IDX 43 45 44 46 45 47 68 48 69 49 77 50 70 51 76 52 71 53 72 54
REMARK SMILES IDX 73 55 74 56 75 57 54 58 55 59 63 60 56 61 62 62 57 63 58 64
REMARK SMILES IDX 59 65 60 66 61 67 6 68 7 69 8 70 9 71 10 72 11 73 12 74
REMARK SMILES IDX 13 75 28 76 14 77 24 79 27 80 15 81 19 82 25 83 26 84 16 85
REMARK SMILES IDX 18 86 17 87 20 88 21 89 22 90 23 91
REMARK H PARENT 82 23 52 34 13 78
REMARK Flexibility Score: inf
ROOT
ATOM      1  C   UNL A   1      33.533  28.230  24.806  1.00  0.00     0.202 C 
ENDROOT
BRANCH   1   2
ATOM      2  C   UNL A   1      33.164  29.548  25.485  1.00  0.00     0.261 C 
BRANCH   2   3
ATOM      3  O   UNL A   1      33.453  29.495  26.886  1.00  0.00    -0.460 OA
BRANCH   3   4
ATOM      4  C   UNL A   1      34.282  30.284  27.603  1.00  0.00     0.338 C 
ATOM      5  O   UNL A   1      33.846  31.376  27.970  1.00  0.00    -0.246 OA
BRANCH   4   6
ATOM      6  C   UNL A   1      35.692  29.935  27.986  1.00  0.00     0.060 A 
ATOM      7  C   UNL A   1      35.887  29.578  29.333  1.00  0.00     0.016 A 
ATOM      8  C   UNL A   1      36.827  30.014  27.172  1.00  0.00     0.016 A 
ATOM      9  C   UNL A   1      37.167  29.360  29.845  1.00  0.00     0.010 A 
ATOM     10  C   UNL A   1      38.106  29.832  27.675  1.00  0.00     0.010 A 
ATOM     11  C   UNL A   1      38.279  29.503  29.012  1.00  0.00    -0.014 A 
BRANCH  11  12
ATOM     12  C   UNL A   1      39.625  29.105  29.438  1.00  0.00     0.031 A 
ATOM     13  C   UNL A   1      40.502  30.037  30.202  1.00  0.00     0.074 A 
ATOM     14  C   UNL A   1      40.058  27.921  28.971  1.00  0.00     0.049 A 
ATOM     15  N   UNL A   1      41.679  29.803  30.713  1.00  0.00    -0.248 NA
ATOM     16  C   UNL A   1      40.017  31.413  30.402  1.00  0.00     0.031 C 
ATOM     17  C   UNL A   1      39.275  27.038  28.099  1.00  0.00     0.029 A 
ATOM     18  N   UNL A   1      41.240  27.262  29.143  1.00  0.00    -0.354 N 
ATOM     19  C   UNL A   1      42.066  30.989  31.324  1.00  0.00     0.074 A 
ATOM     20  C   UNL A   1      41.030  31.962  31.061  1.00  0.00     0.031 C 
ATOM     21  C   UNL A   1      39.984  25.932  27.847  1.00  0.00     0.029 A 
ATOM     22  C   UNL A   1      41.268  26.034  28.529  1.00  0.00     0.049 A 
ATOM     23  H   UNL A   1      41.995  27.630  29.656  1.00  0.00     0.167 HD
ATOM     24  C   UNL A   1      43.182  31.207  32.058  1.00  0.00     0.031 A 
ATOM     25  C   UNL A   1      42.213  25.079  28.550  1.00  0.00     0.031 A 
ATOM     26  C   UNL A   1      44.194  30.197  32.248  1.00  0.00     0.049 A 
ATOM     27  C   UNL A   1      43.417  25.323  29.407  1.00  0.00     0.074 A 
ATOM     28  C   UNL A   1      45.335  30.254  33.026  1.00  0.00     0.029 A 
ATOM     29  N   UNL A   1      44.188  28.946  31.637  1.00  0.00    -0.354 N 
ATOM     30  N   UNL A   1      43.711  26.391  30.115  1.00  0.00    -0.248 NA
ATOM     31  C   UNL A   1      44.397  24.239  29.504  1.00  0.00     0.031 C 
ATOM     32  C   UNL A   1      46.055  29.074  32.824  1.00  0.00     0.029 A 
ATOM     33  C   UNL A   1      45.325  28.238  31.990  1.00  0.00     0.049 A 
ATOM     34  H   UNL A   1      43.480  28.612  31.041  1.00  0.00     0.167 HD
ATOM     35  C   UNL A   1      44.912  26.109  30.746  1.00  0.00     0.074 A 
ATOM     36  C   UNL A   1      45.269  24.754  30.363  1.00  0.00     0.031 C 
ATOM     37  C   UNL A   1      45.658  26.898  31.559  1.00  0.00     0.031 A 
BRANCH  24  38
ATOM     38  C   UNL A   1      43.357  32.545  32.739  1.00  0.00    -0.014 A 
ATOM     39  C   UNL A   1      42.814  32.772  34.018  1.00  0.00     0.010 A 
ATOM     40  C   UNL A   1      43.945  33.627  32.056  1.00  0.00     0.010 A 
ATOM     41  C   UNL A   1      42.815  34.054  34.580  1.00  0.00     0.020 A 
ATOM     42  C   UNL A   1      43.979  34.904  32.627  1.00  0.00     0.020 A 
ATOM     43  C   UNL A   1      43.388  35.115  33.874  1.00  0.00     0.054 A 
BRANCH  43  44
ATOM     44  S   UNL A   1      43.331  36.781  34.593  1.00  0.00     0.124 S 
ATOM     45  O   UNL A   1      43.334  37.631  33.406  1.00  0.00    -0.237 OA
ATOM     46  O   UNL A   1      42.082  36.758  35.351  1.00  0.00    -0.237 OA
ATOM     47  O   UNL A   1      44.543  36.845  35.408  1.00  0.00    -0.744 OA
ENDBRANCH  43  44
ENDBRANCH  24  38
BRANCH  25  48
ATOM     48  C   UNL A   1      41.939  23.800  27.842  1.00  0.00    -0.014 A 
ATOM     49  C   UNL A   1      41.334  22.725  28.521  1.00  0.00     0.010 A 
ATOM     50  C   UNL A   1      42.468  23.584  26.558  1.00  0.00     0.010 A 
ATOM     51  C   UNL A   1      41.337  21.442  27.966  1.00  0.00     0.020 A 
ATOM     52  C   UNL A   1      42.444  22.309  25.985  1.00  0.00     0.020 A 
ATOM     53  C   UNL A   1      41.913  21.239  26.710  1.00  0.00     0.054 A 
BRANCH  53  54
ATOM     54  S   UNL A   1      42.012  19.547  26.063  1.00  0.00     0.124 S 
ATOM     55  O   UNL A   1      40.620  19.277  25.714  1.00  0.00    -0.237 OA
ATOM     56  O   UNL A   1      42.926  19.694  24.933  1.00  0.00    -0.237 OA
ATOM     57  O   UNL A   1      42.535  18.779  27.189  1.00  0.00    -0.744 OA
ENDBRANCH  53  54
ENDBRANCH  25  48
BRANCH  37  58
ATOM     58  C   UNL A   1      46.966  26.337  32.047  1.00  0.00    -0.014 A 
ATOM     59  C   UNL A   1      48.112  26.412  31.235  1.00  0.00     0.010 A 
ATOM     60  C   UNL A   1      47.023  25.623  33.258  1.00  0.00     0.010 A 
ATOM     61  C   UNL A   1      49.283  25.747  31.606  1.00  0.00     0.020 A 
ATOM     62  C   UNL A   1      48.204  24.991  33.651  1.00  0.00     0.020 A 
ATOM     63  C   UNL A   1      49.317  25.033  32.807  1.00  0.00     0.054 A 
BRANCH  63  64
ATOM     64  S   UNL A   1      50.832  24.145  33.250  1.00  0.00     0.124 S 
ATOM     65  O   UNL A   1      51.738  25.237  33.593  1.00  0.00    -0.237 OA
ATOM     66  O   UNL A   1      50.399  23.310  34.368  1.00  0.00    -0.237 OA
ATOM     67  O   UNL A   1      51.171  23.413  32.031  1.00  0.00    -0.744 OA
ENDBRANCH  63  64
ENDBRANCH  37  58
ENDBRANCH  11  12
ENDBRANCH   4   6
ENDBRANCH   3   4
ENDBRANCH   2   3
ENDBRANCH   1   2
BRANCH   1  68
ATOM     68  O   UNL A   1      32.703  27.892  23.700  1.00  0.00    -0.374 OA
BRANCH  68  69
ATOM     69  C   UNL A   1      33.330  27.220  22.607  1.00  0.00     0.202 C 
BRANCH  69  70
ATOM     70  C   UNL A   1      33.161  25.712  22.789  1.00  0.00     0.261 C 
BRANCH  70  71
ATOM     71  O   UNL A   1      34.361  25.178  23.364  1.00  0.00    -0.462 OA
BRANCH  71  72
ATOM     72  C   UNL A   1      34.257  24.432  24.511  1.00  0.00     0.328 C 
ATOM     73  O   UNL A   1      33.552  24.688  25.478  1.00  0.00    -0.250 OA
BRANCH  72  74
ATOM     74  C   UNL A   1      35.175  23.211  24.369  1.00  0.00     0.194 C 
ATOM     75  N   UNL A   1      34.346  21.985  24.467  1.00  0.00    -0.371 N 
ATOM     76  C   UNL A   1      36.260  23.024  25.420  1.00  0.00     0.038 C 
ATOM     77  C   UNL A   1      34.881  20.731  24.693  1.00  0.00     0.051 A 
ATOM     78  H   UNL A   1      33.370  22.069  24.367  1.00  0.00     0.161 HD
ATOM     79  C   UNL A   1      37.124  21.850  24.916  1.00  0.00     0.050 C 
ATOM     80  C   UNL A   1      37.265  24.103  25.795  1.00  0.00     0.034 C 
ATOM     81  C   UNL A   1      36.285  20.593  24.852  1.00  0.00    -0.017 A 
ATOM     82  C   UNL A   1      34.061  19.590  24.681  1.00  0.00     0.079 A 
ATOM     83  C   UNL A   1      38.278  21.968  25.865  1.00  0.00    -0.023 C 
ATOM     84  C   UNL A   1      38.382  23.232  26.314  1.00  0.00    -0.030 C 
ATOM     85  C   UNL A   1      36.860  19.320  24.821  1.00  0.00     0.006 A 
ATOM     86  C   UNL A   1      34.665  18.323  24.659  1.00  0.00     0.015 A 
ATOM     87  C   UNL A   1      36.052  18.191  24.699  1.00  0.00     0.001 A 
BRANCH  82  88
ATOM     88  C   UNL A   1      32.554  19.673  24.671  1.00  0.00     0.418 C 
ATOM     89  F   UNL A   1      31.962  18.528  25.115  1.00  0.00    -0.166 F 
ATOM     90  F   UNL A   1      32.080  20.665  25.480  1.00  0.00    -0.166 F 
ATOM     91  F   UNL A   1      32.004  19.918  23.444  1.00  0.00    -0.166 F 
ENDBRANCH  82  88
ENDBRANCH  72  74
ENDBRANCH  71  72
ENDBRANCH  70  71
ENDBRANCH  69  70
ENDBRANCH  68  69
ENDBRANCH   1  68
TORSDOF 18
ENDMDL
MODEL 2
REMARK VINA RESULT:     -10.4      2.995      9.559
REMARK SMILES O=C(OCCOCCOC(=O)[C@@H]1Nc2c(cccc2C(F)(F)F)[C@@H]2C=CC[C@@H]12)c1ccc(-c2c3nc(c(-c4ccc(S(=O)(=O)[O-])cc4)c4ccc([nH]4)c(-c4ccc(S(=O)(=O)[O-])cc4)c4nc(c(-c5ccc(S(=O)(=O)[O-])cc5)c5ccc2[nH]5)C=C4)C=C3)cc1
REMARK SMILES IDX 5 1 4 2 3 3 2 4 1 5 29 6 30 7 88 8 31 9 87 10 32 11 33 12
REMARK SMILES IDX 34 13 81 14 35 15 86 16 80 17 82 18 36 19 85 20 79 21 78 22
REMARK SMILES IDX 37 24 67 25 48 26 66 27 49 28 52 29 65 30 83 31 50 32 51 33
REMARK SMILES IDX 64 35 84 36 53 37 38 38 39 39 47 40 40 41 46 42 41 43 42 44
REMARK SMILES IDX 43 45 44 46 45 47 68 48 69 49 77 50 70 51 76 52 71 53 72 54
REMARK SMILES IDX 73 55 74 56 75 57 54 58 55 59 63 60 56 61 62 62 57 63 58 64
REMARK SMILES IDX 59 65 60 66 61 67 6 68 7 69 8 70 9 71 10 72 11 73 12 74
REMARK SMILES IDX 13 75 28 76 14 77 24 79 27 80 15 81 19 82 25 83 26 84 16 85
REMARK SMILES IDX 18 86 17 87 20 88 21 89 22 90 23 91
REMARK H PARENT 82 23 52 34 13 78
REMARK Flexibility Score: inf
ROOT
ATOM      1  C   UNL A   1      35.229  22.831  25.683  1.00  0.00     0.202 C 
ENDROOT
BRANCH   1   2
ATOM      2  C   UNL A   1      36.538  23.604  25.830  1.00  0.00     0.261 C 
BRANCH   2   3
ATOM      3  O   UNL A   1      37.658  22.713  25.819  1.00  0.00    -0.460 OA
BRANCH   3   4
ATOM      4  C   UNL A   1      38.883  22.897  26.359  1.00  0.00     0.338 C 
ATOM      5  O   UNL A   1      39.621  21.914  26.433  1.00  0.00    -0.246 OA
BRANCH   4   6
ATOM      6  C   UNL A   1      39.414  24.205  26.874  1.00  0.00     0.060 A 
ATOM      7  C   UNL A   1      39.088  24.511  28.208  1.00  0.00     0.016 A 
ATOM      8  C   UNL A   1      40.113  25.171  26.145  1.00  0.00     0.016 A 
ATOM      9  C   UNL A   1      39.409  25.751  28.763  1.00  0.00     0.010 A 
ATOM     10  C   UNL A   1      40.409  26.419  26.673  1.00  0.00     0.010 A 
ATOM     11  C   UNL A   1      40.059  26.711  27.984  1.00  0.00    -0.014 A 
BRANCH  11  12
ATOM     12  C   UNL A   1      40.589  27.951  28.560  1.00  0.00     0.031 A 
ATOM     13  C   UNL A   1      42.014  28.060  28.985  1.00  0.00     0.074 A 
ATOM     14  C   UNL A   1      39.683  28.911  28.811  1.00  0.00     0.049 A 
ATOM     15  N   UNL A   1      42.645  29.107  29.436  1.00  0.00    -0.248 NA
ATOM     16  C   UNL A   1      42.834  26.838  28.923  1.00  0.00     0.031 C 
ATOM     17  C   UNL A   1      38.247  28.787  28.536  1.00  0.00     0.029 A 
ATOM     18  N   UNL A   1      39.815  30.157  29.352  1.00  0.00    -0.354 N 
ATOM     19  C   UNL A   1      43.946  28.688  29.682  1.00  0.00     0.074 A 
ATOM     20  C   UNL A   1      43.996  27.271  29.397  1.00  0.00     0.031 C 
ATOM     21  C   UNL A   1      37.637  29.929  28.872  1.00  0.00     0.029 A 
ATOM     22  C   UNL A   1      38.634  30.856  29.392  1.00  0.00     0.049 A 
ATOM     23  H   UNL A   1      40.671  30.516  29.680  1.00  0.00     0.167 HD
ATOM     24  C   UNL A   1      44.992  29.447  30.084  1.00  0.00     0.031 A 
ATOM     25  C   UNL A   1      38.393  32.122  29.771  1.00  0.00     0.031 A 
ATOM     26  C   UNL A   1      44.857  30.851  30.387  1.00  0.00     0.049 A 
ATOM     27  C   UNL A   1      39.572  32.958  30.165  1.00  0.00     0.074 A 
ATOM     28  C   UNL A   1      45.843  31.757  30.731  1.00  0.00     0.029 A 
ATOM     29  N   UNL A   1      43.652  31.548  30.394  1.00  0.00    -0.354 N 
ATOM     30  N   UNL A   1      40.834  32.599  30.248  1.00  0.00    -0.248 NA
ATOM     31  C   UNL A   1      39.316  34.365  30.482  1.00  0.00     0.031 C 
ATOM     32  C   UNL A   1      45.226  32.976  31.021  1.00  0.00     0.029 A 
ATOM     33  C   UNL A   1      43.865  32.862  30.775  1.00  0.00     0.049 A 
ATOM     34  H   UNL A   1      42.777  31.163  30.163  1.00  0.00     0.167 HD
ATOM     35  C   UNL A   1      41.528  33.738  30.627  1.00  0.00     0.074 A 
ATOM     36  C   UNL A   1      40.546  34.805  30.719  1.00  0.00     0.031 C 
ATOM     37  C   UNL A   1      42.851  33.888  30.885  1.00  0.00     0.031 A 
BRANCH  24  38
ATOM     38  C   UNL A   1      46.360  28.812  30.180  1.00  0.00    -0.014 A 
ATOM     39  C   UNL A   1      47.157  28.657  29.030  1.00  0.00     0.010 A 
ATOM     40  C   UNL A   1      46.805  28.243  31.389  1.00  0.00     0.010 A 
ATOM     41  C   UNL A   1      48.343  27.915  29.075  1.00  0.00     0.020 A 
ATOM     42  C   UNL A   1      48.006  27.528  31.447  1.00  0.00     0.020 A 
ATOM     43  C   UNL A   1      48.753  27.344  30.283  1.00  0.00     0.054 A 
BRANCH  43  44
ATOM     44  S   UNL A   1      50.264  26.337  30.311  1.00  0.00     0.124 S 
ATOM     45  O   UNL A   1      50.668  26.346  28.908  1.00  0.00    -0.237 OA
ATOM     46  O   UNL A   1      51.127  27.084  31.223  1.00  0.00    -0.237 OA
ATOM     47  O   UNL A   1      49.805  25.045  30.819  1.00  0.00    -0.744 OA
ENDBRANCH  43  44
ENDBRANCH  24  38
BRANCH  25  48
ATOM     48  C   UNL A   1      37.007  32.646  29.639  1.00  0.00    -0.014 A 
ATOM     49  C   UNL A   1      36.514  33.047  28.382  1.00  0.00     0.010 A 
ATOM     50  C   UNL A   1      36.257  32.939  30.790  1.00  0.00     0.010 A 
ATOM     51  C   UNL A   1      35.341  33.802  28.287  1.00  0.00     0.020 A 
ATOM     52  C   UNL A   1      35.067  33.666  30.697  1.00  0.00     0.020 A 
ATOM     53  C   UNL A   1      34.637  34.126  29.449  1.00  0.00     0.054 A 
BRANCH  53  54
ATOM     54  S   UNL A   1      33.185  35.205  29.314  1.00  0.00     0.124 S 
ATOM     55  O   UNL A   1      33.789  36.469  28.901  1.00  0.00    -0.237 OA
ATOM     56  O   UNL A   1      32.382  34.530  28.299  1.00  0.00    -0.237 OA
ATOM     57  O   UNL A   1      32.622  35.192  30.662  1.00  0.00    -0.744 OA
ENDBRANCH  53  54
ENDBRANCH  25  48
BRANCH  37  58
ATOM     58  C   UNL A   1      43.309  35.245  31.345  1.00  0.00    -0.014 A 
ATOM     59  C   UNL A   1      43.217  35.596  32.704  1.00  0.00     0.010 A 
ATOM     60  C   UNL A   1      43.713  36.213  30.408  1.00  0.00     0.010 A 
ATOM     61  C   UNL A   1      43.480  36.905  33.113  1.00  0.00     0.020 A 
ATOM     62  C   UNL A   1      44.016  37.512  30.819  1.00  0.00     0.020 A 
ATOM     63  C   UNL A   1      43.868  37.856  32.165  1.00  0.00     0.054 A 
BRANCH  63  64
ATOM     64  S   UNL A   1      44.166  39.558  32.710  1.00  0.00     0.124 S 
ATOM     65  O   UNL A   1      42.883  39.919  33.303  1.00  0.00    -0.237 OA
ATOM     66  O   UNL A   1      45.275  39.403  33.649  1.00  0.00    -0.237 OA
ATOM     67  O   UNL A   1      44.503  40.261  31.473  1.00  0.00    -0.744 OA
ENDBRANCH  63  64
ENDBRANCH  37  58
ENDBRANCH  11  12
ENDBRANCH   4   6
ENDBRANCH   3   4
ENDBRANCH   2   3
ENDBRANCH   1   2
BRANCH   1  68
ATOM     68  O   UNL A   1      34.120  23.429  26.345  1.00  0.00    -0.374 OA
BRANCH  68  69
ATOM     69  C   UNL A   1      33.253  22.555  27.066  1.00  0.00     0.202 C 
BRANCH  69  70
ATOM     70  C   UNL A   1      31.805  22.977  26.821  1.00  0.00     0.261 C 
BRANCH  70  71
ATOM     71  O   UNL A   1      31.693  24.391  27.034  1.00  0.00    -0.462 OA
BRANCH  71  72
ATOM     72  C   UNL A   1      30.552  25.025  26.614  1.00  0.00     0.328 C 
ATOM     73  O   UNL A   1      29.404  24.712  26.902  1.00  0.00    -0.250 OA
BRANCH  72  74
ATOM     74  C   UNL A   1      30.962  26.205  25.723  1.00  0.00     0.194 C 
ATOM     75  N   UNL A   1      31.732  25.678  24.569  1.00  0.00    -0.371 N 
ATOM     76  C   UNL A   1      31.867  27.264  26.335  1.00  0.00     0.038 C 
ATOM     77  C   UNL A   1      32.508  26.479  23.754  1.00  0.00     0.051 A 
ATOM     78  H   UNL A   1      31.688  24.714  24.377  1.00  0.00     0.161 HD
ATOM     79  C   UNL A   1      31.947  28.394  25.288  1.00  0.00     0.050 C 
ATOM     80  C   UNL A   1      31.564  27.978  27.644  1.00  0.00     0.034 C 
ATOM     81  C   UNL A   1      32.594  27.870  24.025  1.00  0.00    -0.017 A 
ATOM     82  C   UNL A   1      33.140  25.946  22.618  1.00  0.00     0.079 A 
ATOM     83  C   UNL A   1      32.606  29.453  26.119  1.00  0.00    -0.023 C 
ATOM     84  C   UNL A   1      32.351  29.246  27.423  1.00  0.00    -0.030 C 
ATOM     85  C   UNL A   1      33.154  28.724  23.072  1.00  0.00     0.006 A 
ATOM     86  C   UNL A   1      33.703  26.827  21.681  1.00  0.00     0.015 A 
ATOM     87  C   UNL A   1      33.684  28.204  21.892  1.00  0.00     0.001 A 
BRANCH  82  88
ATOM     88  C   UNL A   1      33.219  24.462  22.354  1.00  0.00     0.418 C 
ATOM     89  F   UNL A   1      33.138  24.160  21.027  1.00  0.00    -0.166 F 
ATOM     90  F   UNL A   1      34.397  23.918  22.779  1.00  0.00    -0.166 F 
ATOM     91  F   UNL A   1      32.244  23.721  22.961  1.00  0.00    -0.166 F 
ENDBRANCH  82  88
ENDBRANCH  72  74
ENDBRANCH  71  72
ENDBRANCH  70  71
ENDBRANCH  69  70
ENDBRANCH  68  69
ENDBRANCH   1  68
TORSDOF 18
ENDMDL
MODEL 3
REMARK VINA RESULT:     -10.4      1.559      2.369
REMARK SMILES O=C(OCCOCCOC(=O)[C@@H]1Nc2c(cccc2C(F)(F)F)[C@@H]2C=CC[C@@H]12)c1ccc(-c2c3nc(c(-c4ccc(S(=O)(=O)[O-])cc4)c4ccc([nH]4)c(-c4ccc(S(=O)(=O)[O-])cc4)c4nc(c(-c5ccc(S(=O)(=O)[O-])cc5)c5ccc2[nH]5)C=C4)C=C3)cc1
REMARK SMILES IDX 5 1 4 2 3 3 2 4 1 5 29 6 30 7 88 8 31 9 87 10 32 11 33 12
REMARK SMILES IDX 34 13 81 14 35 15 86 16 80 17 82 18 36 19 85 20 79 21 78 22
REMARK SMILES IDX 37 24 67 25 48 26 66 27 49 28 52 29 65 30 83 31 50 32 51 33
REMARK SMILES IDX 64 35 84 36 53 37 38 38 39 39 47 40 40 41 46 42 41 43 42 44
REMARK SMILES IDX 43 45 44 46 45 47 68 48 69 49 77 50 70 51 76 52 71 53 72 54
REMARK SMILES IDX 73 55 74 56 75 57 54 58 55 59 63 60 56 61 62 62 57 63 58 64
REMARK SMILES IDX 59 65 60 66 61 67 6 68 7 69 8 70 9 71 10 72 11 73 12 74
REMARK SMILES IDX 13 75 28 76 14 77 24 79 27 80 15 81 19 82 25 83 26 84 16 85
REMARK SMILES IDX 18 86 17 87 20 88 21 89 22 90 23 91
REMARK H PARENT 82 23 52 34 13 78
REMARK Flexibility Score: inf
ROOT
ATOM      1  C   UNL A   1      33.479  27.686  25.348  1.00  0.00     0.202 C 
ENDROOT
BRANCH   1   2
ATOM      2  C   UNL A   1      33.402  29.150  25.776  1.00  0.00     0.261 C 
BRANCH   2   3
ATOM      3  O   UNL A   1      33.720  29.289  27.165  1.00  0.00    -0.460 OA
BRANCH   3   4
ATOM      4  C   UNL A   1      34.605  30.130  27.744  1.00  0.00     0.338 C 
ATOM      5  O   UNL A   1      34.218  31.271  27.999  1.00  0.00    -0.246 OA
BRANCH   4   6
ATOM      6  C   UNL A   1      36.022  29.782  28.101  1.00  0.00     0.060 A 
ATOM      7  C   UNL A   1      36.237  29.397  29.437  1.00  0.00     0.016 A 
ATOM      8  C   UNL A   1      37.145  29.885  27.273  1.00  0.00     0.016 A 
ATOM      9  C   UNL A   1      37.526  29.176  29.927  1.00  0.00     0.010 A 
ATOM     10  C   UNL A   1      38.433  29.701  27.754  1.00  0.00     0.010 A 
ATOM     11  C   UNL A   1      38.625  29.344  29.082  1.00  0.00    -0.014 A 
BRANCH  11  12
ATOM     12  C   UNL A   1      39.979  28.945  29.480  1.00  0.00     0.031 A 
ATOM     13  C   UNL A   1      40.864  29.869  30.247  1.00  0.00     0.074 A 
ATOM     14  C   UNL A   1      40.411  27.772  28.988  1.00  0.00     0.049 A 
ATOM     15  N   UNL A   1      42.049  29.633  30.736  1.00  0.00    -0.248 NA
ATOM     16  C   UNL A   1      40.375  31.239  30.477  1.00  0.00     0.031 C 
ATOM     17  C   UNL A   1      39.619  26.900  28.113  1.00  0.00     0.029 A 
ATOM     18  N   UNL A   1      41.599  27.116  29.131  1.00  0.00    -0.354 N 
ATOM     19  C   UNL A   1      42.440  30.810  31.361  1.00  0.00     0.074 A 
ATOM     20  C   UNL A   1      41.396  31.782  31.130  1.00  0.00     0.031 C 
ATOM     21  C   UNL A   1      40.330  25.801  27.832  1.00  0.00     0.029 A 
ATOM     22  C   UNL A   1      41.623  25.898  28.496  1.00  0.00     0.049 A 
ATOM     23  H   UNL A   1      42.360  27.479  29.639  1.00  0.00     0.167 HD
ATOM     24  C   UNL A   1      43.566  31.022  32.082  1.00  0.00     0.031 A 
ATOM     25  C   UNL A   1      42.573  24.948  28.487  1.00  0.00     0.031 A 
ATOM     26  C   UNL A   1      44.585  30.013  32.239  1.00  0.00     0.049 A 
ATOM     27  C   UNL A   1      43.788  25.184  29.330  1.00  0.00     0.074 A 
ATOM     28  C   UNL A   1      45.738  30.063  33.001  1.00  0.00     0.029 A 
ATOM     29  N   UNL A   1      44.576  28.772  31.608  1.00  0.00    -0.354 N 
ATOM     30  N   UNL A   1      44.088  26.241  30.051  1.00  0.00    -0.248 NA
ATOM     31  C   UNL A   1      44.775  24.103  29.394  1.00  0.00     0.031 C 
ATOM     32  C   UNL A   1      46.460  28.890  32.769  1.00  0.00     0.029 A 
ATOM     33  C   UNL A   1      45.722  28.065  31.932  1.00  0.00     0.049 A 
ATOM     34  H   UNL A   1      43.860  28.445  31.017  1.00  0.00     0.167 HD
ATOM     35  C   UNL A   1      45.300  25.955  30.659  1.00  0.00     0.074 A 
ATOM     36  C   UNL A   1      45.657  24.608  30.248  1.00  0.00     0.031 C 
ATOM     37  C   UNL A   1      46.055  26.734  31.473  1.00  0.00     0.031 A 
BRANCH  24  38
ATOM     38  C   UNL A   1      43.745  32.349  32.783  1.00  0.00    -0.014 A 
ATOM     39  C   UNL A   1      43.142  32.584  34.033  1.00  0.00     0.010 A 
ATOM     40  C   UNL A   1      44.401  33.418  32.140  1.00  0.00     0.010 A 
ATOM     41  C   UNL A   1      43.152  33.861  34.605  1.00  0.00     0.020 A 
ATOM     42  C   UNL A   1      44.443  34.689  32.723  1.00  0.00     0.020 A 
ATOM     43  C   UNL A   1      43.794  34.909  33.939  1.00  0.00     0.054 A 
BRANCH  43  44
ATOM     44  S   UNL A   1      43.748  36.571  34.668  1.00  0.00     0.124 S 
ATOM     45  O   UNL A   1      42.760  37.249  33.833  1.00  0.00    -0.237 OA
ATOM     46  O   UNL A   1      43.337  36.304  36.044  1.00  0.00    -0.237 OA
ATOM     47  O   UNL A   1      45.122  37.048  34.519  1.00  0.00    -0.744 OA
ENDBRANCH  43  44
ENDBRANCH  24  38
BRANCH  25  48
ATOM     48  C   UNL A   1      42.294  23.680  27.761  1.00  0.00    -0.014 A 
ATOM     49  C   UNL A   1      41.767  22.568  28.447  1.00  0.00     0.010 A 
ATOM     50  C   UNL A   1      42.747  23.515  26.442  1.00  0.00     0.010 A 
ATOM     51  C   UNL A   1      41.774  21.301  27.857  1.00  0.00     0.020 A 
ATOM     52  C   UNL A   1      42.727  22.255  25.836  1.00  0.00     0.020 A 
ATOM     53  C   UNL A   1      42.276  21.149  26.563  1.00  0.00     0.054 A 
BRANCH  53  54
ATOM     54  S   UNL A   1      42.386  19.479  25.863  1.00  0.00     0.124 S 
ATOM     55  O   UNL A   1      41.033  19.279  25.350  1.00  0.00    -0.237 OA
ATOM     56  O   UNL A   1      43.427  19.629  24.850  1.00  0.00    -0.237 OA
ATOM     57  O   UNL A   1      42.749  18.650  27.009  1.00  0.00    -0.744 OA
ENDBRANCH  53  54
ENDBRANCH  25  48
BRANCH  37  58
ATOM     58  C   UNL A   1      47.372  26.171  31.932  1.00  0.00    -0.014 A 
ATOM     59  C   UNL A   1      48.508  26.274  31.109  1.00  0.00     0.010 A 
ATOM     60  C   UNL A   1      47.449  25.430  33.125  1.00  0.00     0.010 A 
ATOM     61  C   UNL A   1      49.687  25.609  31.450  1.00  0.00     0.020 A 
ATOM     62  C   UNL A   1      48.639  24.797  33.489  1.00  0.00     0.020 A 
ATOM     63  C   UNL A   1      49.741  24.867  32.633  1.00  0.00     0.054 A 
BRANCH  63  64
ATOM     64  S   UNL A   1      51.268  23.981  33.037  1.00  0.00     0.124 S 
ATOM     65  O   UNL A   1      51.429  24.278  34.457  1.00  0.00    -0.237 OA
ATOM     66  O   UNL A   1      50.929  22.597  32.717  1.00  0.00    -0.237 OA
ATOM     67  O   UNL A   1      52.263  24.590  32.155  1.00  0.00    -0.744 OA
ENDBRANCH  63  64
ENDBRANCH  37  58
ENDBRANCH  11  12
ENDBRANCH   4   6
ENDBRANCH   3   4
ENDBRANCH   2   3
ENDBRANCH   1   2
BRANCH   1  68
ATOM     68  O   UNL A   1      32.284  27.188  24.755  1.00  0.00    -0.374 OA
BRANCH  68  69
ATOM     69  C   UNL A   1      32.387  25.963  24.031  1.00  0.00     0.202 C 
BRANCH  69  70
ATOM     70  C   UNL A   1      31.880  24.822  24.913  1.00  0.00     0.261 C 
BRANCH  70  71
ATOM     71  O   UNL A   1      32.993  24.249  25.612  1.00  0.00    -0.462 OA
BRANCH  71  72
ATOM     72  C   UNL A   1      32.739  23.336  26.604  1.00  0.00     0.328 C 
ATOM     73  O   UNL A   1      31.983  23.492  27.554  1.00  0.00    -0.250 OA
BRANCH  72  74
ATOM     74  C   UNL A   1      33.562  22.073  26.312  1.00  0.00     0.194 C 
ATOM     75  N   UNL A   1      34.986  22.462  26.171  1.00  0.00    -0.371 N 
ATOM     76  C   UNL A   1      33.245  21.310  25.035  1.00  0.00     0.038 C 
ATOM     77  C   UNL A   1      35.939  21.637  25.605  1.00  0.00     0.051 A 
ATOM     78  H   UNL A   1      35.265  23.350  26.494  1.00  0.00     0.161 HD
ATOM     79  C   UNL A   1      34.079  20.015  25.111  1.00  0.00     0.050 C 
ATOM     80  C   UNL A   1      31.847  20.841  24.657  1.00  0.00     0.034 C 
ATOM     81  C   UNL A   1      35.552  20.360  25.121  1.00  0.00    -0.017 A 
ATOM     82  C   UNL A   1      37.292  22.015  25.582  1.00  0.00     0.079 A 
ATOM     83  C   UNL A   1      33.464  19.258  23.972  1.00  0.00    -0.023 C 
ATOM     84  C   UNL A   1      32.208  19.687  23.755  1.00  0.00    -0.030 C 
ATOM     85  C   UNL A   1      36.533  19.423  24.789  1.00  0.00     0.006 A 
ATOM     86  C   UNL A   1      38.257  21.056  25.236  1.00  0.00     0.015 A 
ATOM     87  C   UNL A   1      37.883  19.764  24.872  1.00  0.00     0.001 A 
BRANCH  82  88
ATOM     88  C   UNL A   1      37.752  23.409  25.935  1.00  0.00     0.418 C 
ATOM     89  F   UNL A   1      39.075  23.459  26.256  1.00  0.00    -0.166 F 
ATOM     90  F   UNL A   1      37.593  24.288  24.903  1.00  0.00    -0.166 F 
ATOM     91  F   UNL A   1      37.095  23.976  26.992  1.00  0.00    -0.166 F 
ENDBRANCH  82  88
ENDBRANCH  72  74
ENDBRANCH  71  72
ENDBRANCH  70  71
ENDBRANCH  69  70
ENDBRANCH  68  69
ENDBRANCH   1  68
TORSDOF 18
ENDMDL
