MODEL 1
REMARK VINA RESULT:     -10.1      0.000      0.000
REMARK SMILES CC(C)(C)OC(=O)N1CCC[C@H](C(=O)N[C@H](C(=O)OCCOCCOC(=O)c2ccc(-c3c4nc(c(-c5ccc(S(=O)(=O)[O-])cc5)c5ccc([nH]5)c(-c5ccc(S(=O)(=O)[O-])cc5)c5nc(c(-c6ccc(S(=O)(=O)[O-])cc6)c6ccc3[nH]6)C=C5)C=C4)cc2)c2ccccc2)C1
REMARK SMILES IDX 21 1 20 2 19 3 17 4 18 5 16 6 15 7 13 8 14 9 12 11 8 12 9 13
REMARK SMILES IDX 94 14 10 15 11 16 6 17 7 18 5 19 2 20 1 21 3 22 4 23 88 24
REMARK SMILES IDX 89 25 93 26 90 27 92 28 91 29 22 30 23 31 24 32 25 33 26 34
REMARK SMILES IDX 27 35 28 36 29 37 87 38 30 39 86 40 31 41 32 42 33 43 80 44
REMARK SMILES IDX 34 45 85 46 79 47 81 48 35 49 84 50 78 51 77 52 36 54 66 55
REMARK SMILES IDX 47 56 65 57 48 58 51 59 64 60 82 61 49 62 50 63 63 65 83 66
REMARK SMILES IDX 52 67 37 68 38 69 46 70 39 71 45 72 40 73 41 74 42 75 43 76
REMARK SMILES IDX 44 77 67 78 68 79 76 80 69 81 75 82 70 83 71 84 72 85 73 86
REMARK SMILES IDX 74 87 53 88 54 89 62 90 55 91 61 92 56 93 57 94 58 95 59 96
REMARK SMILES IDX 60 97
REMARK H PARENT 15 10 81 53 51 64
REMARK Flexibility Score: inf
ROOT
ATOM      1  C   UNL A   1      37.605  23.477  25.279  1.00  0.00     0.202 C 
ENDROOT
BRANCH   1   2
ATOM      2  C   UNL A   1      36.441  22.759  24.567  1.00  0.00     0.261 C 
BRANCH   2   3
ATOM      3  O   UNL A   1      36.146  21.412  24.891  1.00  0.00    -0.461 OA
BRANCH   3   4
ATOM      4  C   UNL A   1      35.054  21.245  25.684  1.00  0.00     0.333 C 
ATOM      5  O   UNL A   1      35.021  21.499  26.883  1.00  0.00    -0.249 OA
BRANCH   4   6
ATOM      6  C   UNL A   1      33.855  20.831  24.830  1.00  0.00     0.223 C 
BRANCH   6   7
ATOM      7  N   UNL A   1      33.228  21.826  23.897  1.00  0.00    -0.339 N 
ATOM      8  C   UNL A   1      32.114  22.566  23.664  1.00  0.00     0.225 C 
ATOM      9  O   UNL A   1      32.020  22.870  22.457  1.00  0.00    -0.275 OA
ATOM     10  H   UNL A   1      33.873  22.014  23.177  1.00  0.00     0.164 HD
BRANCH   8  11
ATOM     11  C   UNL A   1      31.000  23.158  24.571  1.00  0.00     0.098 C 
ATOM     12  N   UNL A   1      32.388  24.951  25.290  1.00  0.00    -0.307 N 
ATOM     13  C   UNL A   1      32.437  24.498  26.700  1.00  0.00     0.123 C 
ATOM     14  C   UNL A   1      31.097  24.665  24.715  1.00  0.00     0.136 C 
ATOM     15  C   UNL A   1      31.766  23.110  26.959  1.00  0.00     0.023 C 
ATOM     16  C   UNL A   1      30.729  22.619  25.958  1.00  0.00     0.017 C 
BRANCH  12  17
ATOM     17  C   UNL A   1      33.261  25.540  24.353  1.00  0.00     0.410 C 
ATOM     18  O   UNL A   1      34.448  25.224  24.376  1.00  0.00    -0.224 OA
BRANCH  17  19
ATOM     19  O   UNL A   1      32.816  26.472  23.456  1.00  0.00    -0.444 OA
BRANCH  19  20
ATOM     20  C   UNL A   1      33.017  27.914  23.791  1.00  0.00     0.106 C 
ATOM     21  C   UNL A   1      33.900  28.520  22.698  1.00  0.00     0.056 C 
ATOM     22  C   UNL A   1      33.593  28.246  25.191  1.00  0.00     0.056 C 
ATOM     23  C   UNL A   1      31.672  28.659  23.759  1.00  0.00     0.056 C 
ENDBRANCH  19  20
ENDBRANCH  17  19
ENDBRANCH  12  17
ENDBRANCH   8  11
ENDBRANCH   6   7
BRANCH   6  24
ATOM     24  C   UNL A   1      33.711  19.289  24.732  1.00  0.00    -0.014 A 
ATOM     25  C   UNL A   1      32.567  18.634  25.236  1.00  0.00     0.006 A 
ATOM     26  C   UNL A   1      34.790  18.450  24.439  1.00  0.00     0.006 A 
ATOM     27  C   UNL A   1      32.536  17.238  25.436  1.00  0.00     0.000 A 
ATOM     28  C   UNL A   1      34.771  17.060  24.617  1.00  0.00     0.000 A 
ATOM     29  C   UNL A   1      33.642  16.450  25.129  1.00  0.00     0.000 A 
ENDBRANCH   6  24
ENDBRANCH   4   6
ENDBRANCH   3   4
ENDBRANCH   2   3
ENDBRANCH   1   2
BRANCH   1  30
ATOM     30  O   UNL A   1      38.204  23.076  26.498  1.00  0.00    -0.374 OA
BRANCH  30  31
ATOM     31  C   UNL A   1      39.521  22.576  26.614  1.00  0.00     0.202 C 
BRANCH  31  32
ATOM     32  C   UNL A   1      39.903  21.208  26.054  1.00  0.00     0.261 C 
BRANCH  32  33
ATOM     33  O   UNL A   1      40.850  20.500  26.848  1.00  0.00    -0.460 OA
BRANCH  33  34
ATOM     34  C   UNL A   1      42.000  20.232  26.178  1.00  0.00     0.338 C 
ATOM     35  O   UNL A   1      42.220  19.309  25.427  1.00  0.00    -0.246 OA
BRANCH  34  36
ATOM     36  C   UNL A   1      42.948  21.336  26.390  1.00  0.00     0.060 A 
ATOM     37  C   UNL A   1      43.182  21.740  27.709  1.00  0.00     0.016 A 
ATOM     38  C   UNL A   1      43.501  22.023  25.308  1.00  0.00     0.016 A 
ATOM     39  C   UNL A   1      43.931  22.881  27.953  1.00  0.00     0.010 A 
ATOM     40  C   UNL A   1      44.233  23.181  25.553  1.00  0.00     0.010 A 
ATOM     41  C   UNL A   1      44.403  23.634  26.873  1.00  0.00    -0.014 A 
BRANCH  41  42
ATOM     42  C   UNL A   1      44.860  25.015  27.118  1.00  0.00     0.031 A 
ATOM     43  C   UNL A   1      43.828  26.039  27.498  1.00  0.00     0.074 A 
ATOM     44  C   UNL A   1      46.164  25.327  27.038  1.00  0.00     0.049 A 
ATOM     45  N   UNL A   1      43.971  27.321  27.696  1.00  0.00    -0.248 NA
ATOM     46  C   UNL A   1      42.450  25.549  27.681  1.00  0.00     0.031 C 
ATOM     47  C   UNL A   1      47.244  24.384  26.752  1.00  0.00     0.029 A 
ATOM     48  N   UNL A   1      46.794  26.533  27.191  1.00  0.00    -0.354 N 
ATOM     49  C   UNL A   1      42.703  27.793  28.019  1.00  0.00     0.074 A 
ATOM     50  C   UNL A   1      41.799  26.667  27.964  1.00  0.00     0.031 C 
ATOM     51  C   UNL A   1      48.410  25.054  26.734  1.00  0.00     0.029 A 
ATOM     52  C   UNL A   1      48.147  26.473  26.963  1.00  0.00     0.049 A 
ATOM     53  H   UNL A   1      46.325  27.361  27.438  1.00  0.00     0.167 HD
ATOM     54  C   UNL A   1      42.331  29.054  28.335  1.00  0.00     0.031 A 
ATOM     55  C   UNL A   1      49.059  27.464  26.915  1.00  0.00     0.031 A 
ATOM     56  C   UNL A   1      43.243  30.165  28.358  1.00  0.00     0.049 A 
ATOM     57  C   UNL A   1      48.601  28.878  27.164  1.00  0.00     0.074 A 
ATOM     58  C   UNL A   1      42.978  31.491  28.645  1.00  0.00     0.029 A 
ATOM     59  N   UNL A   1      44.599  30.075  28.077  1.00  0.00    -0.354 N 
ATOM     60  N   UNL A   1      47.399  29.316  27.465  1.00  0.00    -0.248 NA
ATOM     61  C   UNL A   1      49.620  29.931  27.072  1.00  0.00     0.031 C 
ATOM     62  C   UNL A   1      44.165  32.213  28.483  1.00  0.00     0.029 A 
ATOM     63  C   UNL A   1      45.182  31.325  28.162  1.00  0.00     0.049 A 
ATOM     64  H   UNL A   1      45.075  29.244  27.851  1.00  0.00     0.167 HD
ATOM     65  C   UNL A   1      47.527  30.690  27.630  1.00  0.00     0.074 A 
ATOM     66  C   UNL A   1      48.923  31.008  27.407  1.00  0.00     0.031 C 
ATOM     67  C   UNL A   1      46.579  31.608  27.944  1.00  0.00     0.031 A 
BRANCH  54  68
ATOM     68  C   UNL A   1      40.877  29.298  28.635  1.00  0.00    -0.014 A 
ATOM     69  C   UNL A   1      39.913  29.318  27.610  1.00  0.00     0.010 A 
ATOM     70  C   UNL A   1      40.462  29.488  29.966  1.00  0.00     0.010 A 
ATOM     71  C   UNL A   1      38.568  29.557  27.908  1.00  0.00     0.020 A 
ATOM     72  C   UNL A   1      39.115  29.700  30.271  1.00  0.00     0.020 A 
ATOM     73  C   UNL A   1      38.179  29.748  29.236  1.00  0.00     0.054 A 
BRANCH  73  74
ATOM     74  S   UNL A   1      36.422  30.031  29.596  1.00  0.00     0.124 S 
ATOM     75  O   UNL A   1      36.359  31.489  29.660  1.00  0.00    -0.237 OA
ATOM     76  O   UNL A   1      35.759  29.425  28.444  1.00  0.00    -0.237 OA
ATOM     77  O   UNL A   1      36.212  29.342  30.867  1.00  0.00    -0.744 OA
ENDBRANCH  73  74
ENDBRANCH  54  68
BRANCH  55  78
ATOM     78  C   UNL A   1      50.477  27.159  26.587  1.00  0.00    -0.014 A 
ATOM     79  C   UNL A   1      51.408  26.883  27.604  1.00  0.00     0.010 A 
ATOM     80  C   UNL A   1      50.908  27.146  25.246  1.00  0.00     0.010 A 
ATOM     81  C   UNL A   1      52.745  26.625  27.290  1.00  0.00     0.020 A 
ATOM     82  C   UNL A   1      52.238  26.858  24.926  1.00  0.00     0.020 A 
ATOM     83  C   UNL A   1      53.151  26.614  25.952  1.00  0.00     0.054 A 
BRANCH  83  84
ATOM     84  S   UNL A   1      54.885  26.243  25.568  1.00  0.00     0.124 S 
ATOM     85  O   UNL A   1      54.755  25.232  24.523  1.00  0.00    -0.237 OA
ATOM     86  O   UNL A   1      55.396  27.542  25.134  1.00  0.00    -0.237 OA
ATOM     87  O   UNL A   1      55.423  25.765  26.840  1.00  0.00    -0.744 OA
ENDBRANCH  83  84
ENDBRANCH  55  78
BRANCH  67  88
ATOM     88  C   UNL A   1      47.024  33.035  28.115  1.00  0.00    -0.014 A 
ATOM     89  C   UNL A   1      47.496  33.512  29.350  1.00  0.00     0.010 A 
ATOM     90  C   UNL A   1      47.043  33.888  26.995  1.00  0.00     0.010 A 
ATOM     91  C   UNL A   1      47.961  34.824  29.466  1.00  0.00     0.020 A 
ATOM     92  C   UNL A   1      47.535  35.190  27.101  1.00  0.00     0.020 A 
ATOM     93  C   UNL A   1      47.982  35.653  28.340  1.00  0.00     0.054 A 
BRANCH  93  94
ATOM     94  S   UNL A   1      48.651  37.330  28.504  1.00  0.00     0.124 S 
ATOM     95  O   UNL A   1      49.074  37.624  27.138  1.00  0.00    -0.237 OA
ATOM     96  O   UNL A   1      47.497  38.089  28.982  1.00  0.00    -0.237 OA
ATOM     97  O   UNL A   1      49.734  37.179  29.473  1.00  0.00    -0.744 OA
ENDBRANCH  93  94
ENDBRANCH  67  88
ENDBRANCH  41  42
ENDBRANCH  34  36
ENDBRANCH  33  34
ENDBRANCH  32  33
ENDBRANCH  31  32
ENDBRANCH  30  31
ENDBRANCH   1  30
TORSDOF 23
ENDMDL
MODEL 2
REMARK VINA RESULT:      -9.5      6.045      8.454
REMARK SMILES CC(C)(C)OC(=O)N1CCC[C@H](C(=O)N[C@H](C(=O)OCCOCCOC(=O)c2ccc(-c3c4nc(c(-c5ccc(S(=O)(=O)[O-])cc5)c5ccc([nH]5)c(-c5ccc(S(=O)(=O)[O-])cc5)c5nc(c(-c6ccc(S(=O)(=O)[O-])cc6)c6ccc3[nH]6)C=C5)C=C4)cc2)c2ccccc2)C1
REMARK SMILES IDX 21 1 20 2 19 3 17 4 18 5 16 6 15 7 13 8 14 9 12 11 8 12 9 13
REMARK SMILES IDX 94 14 10 15 11 16 6 17 7 18 5 19 2 20 1 21 3 22 4 23 88 24
REMARK SMILES IDX 89 25 93 26 90 27 92 28 91 29 22 30 23 31 24 32 25 33 26 34
REMARK SMILES IDX 27 35 28 36 29 37 87 38 30 39 86 40 31 41 32 42 33 43 80 44
REMARK SMILES IDX 34 45 85 46 79 47 81 48 35 49 84 50 78 51 77 52 36 54 66 55
REMARK SMILES IDX 47 56 65 57 48 58 51 59 64 60 82 61 49 62 50 63 63 65 83 66
REMARK SMILES IDX 52 67 37 68 38 69 46 70 39 71 45 72 40 73 41 74 42 75 43 76
REMARK SMILES IDX 44 77 67 78 68 79 76 80 69 81 75 82 70 83 71 84 72 85 73 86
REMARK SMILES IDX 74 87 53 88 54 89 62 90 55 91 61 92 56 93 57 94 58 95 59 96
REMARK SMILES IDX 60 97
REMARK H PARENT 15 10 81 53 51 64
REMARK Flexibility Score: inf
ROOT
ATOM      1  C   UNL A   1      38.856  21.802  25.786  1.00  0.00     0.202 C 
ENDROOT
BRANCH   1   2
ATOM      2  C   UNL A   1      37.466  22.470  25.799  1.00  0.00     0.261 C 
BRANCH   2   3
ATOM      3  O   UNL A   1      37.225  23.604  24.985  1.00  0.00    -0.461 OA
BRANCH   3   4
ATOM      4  C   UNL A   1      36.365  23.389  23.954  1.00  0.00     0.333 C 
ATOM      5  O   UNL A   1      36.707  23.145  22.803  1.00  0.00    -0.249 OA
BRANCH   4   6
ATOM      6  C   UNL A   1      34.929  23.363  24.480  1.00  0.00     0.223 C 
BRANCH   6   7
ATOM      7  N   UNL A   1      34.406  24.525  25.273  1.00  0.00    -0.339 N 
ATOM      8  C   UNL A   1      34.060  25.836  25.210  1.00  0.00     0.225 C 
ATOM      9  O   UNL A   1      34.118  26.372  26.335  1.00  0.00    -0.275 OA
ATOM     10  H   UNL A   1      34.256  24.217  26.197  1.00  0.00     0.164 HD
BRANCH   8  11
ATOM     11  C   UNL A   1      33.553  26.766  24.072  1.00  0.00     0.098 C 
ATOM     12  N   UNL A   1      31.274  26.259  24.527  1.00  0.00    -0.307 N 
ATOM     13  C   UNL A   1      31.049  25.579  23.230  1.00  0.00     0.123 C 
ATOM     14  C   UNL A   1      32.190  27.362  24.364  1.00  0.00     0.136 C 
ATOM     15  C   UNL A   1      32.336  25.393  22.363  1.00  0.00     0.023 C 
ATOM     16  C   UNL A   1      33.517  26.316  22.629  1.00  0.00     0.017 C 
BRANCH  12  17
ATOM     17  C   UNL A   1      30.878  26.102  25.871  1.00  0.00     0.410 C 
ATOM     18  O   UNL A   1      31.387  26.827  26.722  1.00  0.00    -0.224 OA
BRANCH  17  19
ATOM     19  O   UNL A   1      29.974  25.142  26.237  1.00  0.00    -0.444 OA
BRANCH  19  20
ATOM     20  C   UNL A   1      30.480  23.753  26.448  1.00  0.00     0.106 C 
ATOM     21  C   UNL A   1      30.652  23.113  25.068  1.00  0.00     0.056 C 
ATOM     22  C   UNL A   1      29.649  22.824  27.370  1.00  0.00     0.056 C 
ATOM     23  C   UNL A   1      31.867  23.788  27.113  1.00  0.00     0.056 C 
ENDBRANCH  19  20
ENDBRANCH  17  19
ENDBRANCH  12  17
ENDBRANCH   8  11
ENDBRANCH   6   7
BRANCH   6  24
ATOM     24  C   UNL A   1      34.058  22.305  23.752  1.00  0.00    -0.014 A 
ATOM     25  C   UNL A   1      33.392  22.616  22.548  1.00  0.00     0.006 A 
ATOM     26  C   UNL A   1      33.637  21.124  24.371  1.00  0.00     0.006 A 
ATOM     27  C   UNL A   1      32.370  21.794  22.029  1.00  0.00     0.000 A 
ATOM     28  C   UNL A   1      32.634  20.288  23.862  1.00  0.00     0.000 A 
ATOM     29  C   UNL A   1      31.988  20.630  22.689  1.00  0.00     0.000 A 
ENDBRANCH   6  24
ENDBRANCH   4   6
ENDBRANCH   3   4
ENDBRANCH   2   3
ENDBRANCH   1   2
BRANCH   1  30
ATOM     30  O   UNL A   1      39.986  22.226  26.528  1.00  0.00    -0.374 OA
BRANCH  30  31
ATOM     31  C   UNL A   1      41.323  21.916  26.191  1.00  0.00     0.202 C 
BRANCH  31  32
ATOM     32  C   UNL A   1      42.417  22.980  26.225  1.00  0.00     0.261 C 
BRANCH  32  33
ATOM     33  O   UNL A   1      41.934  24.314  26.095  1.00  0.00    -0.460 OA
BRANCH  33  34
ATOM     34  C   UNL A   1      42.866  25.244  26.428  1.00  0.00     0.338 C 
ATOM     35  O   UNL A   1      43.986  25.360  25.986  1.00  0.00    -0.246 OA
BRANCH  34  36
ATOM     36  C   UNL A   1      42.261  26.222  27.345  1.00  0.00     0.060 A 
ATOM     37  C   UNL A   1      42.957  27.417  27.563  1.00  0.00     0.016 A 
ATOM     38  C   UNL A   1      41.097  25.918  28.052  1.00  0.00     0.016 A 
ATOM     39  C   UNL A   1      42.520  28.296  28.542  1.00  0.00     0.010 A 
ATOM     40  C   UNL A   1      40.672  26.789  29.051  1.00  0.00     0.010 A 
ATOM     41  C   UNL A   1      41.414  27.952  29.326  1.00  0.00    -0.014 A 
BRANCH  41  42
ATOM     42  C   UNL A   1      41.183  28.683  30.586  1.00  0.00     0.031 A 
ATOM     43  C   UNL A   1      40.062  29.685  30.620  1.00  0.00     0.074 A 
ATOM     44  C   UNL A   1      41.930  28.427  31.671  1.00  0.00     0.049 A 
ATOM     45  N   UNL A   1      39.707  30.493  31.581  1.00  0.00    -0.248 NA
ATOM     46  C   UNL A   1      39.229  29.784  29.408  1.00  0.00     0.031 C 
ATOM     47  C   UNL A   1      42.987  27.420  31.753  1.00  0.00     0.029 A 
ATOM     48  N   UNL A   1      41.910  29.003  32.914  1.00  0.00    -0.354 N 
ATOM     49  C   UNL A   1      38.617  31.202  31.089  1.00  0.00     0.074 A 
ATOM     50  C   UNL A   1      38.385  30.749  29.736  1.00  0.00     0.031 C 
ATOM     51  C   UNL A   1      43.528  27.459  32.983  1.00  0.00     0.029 A 
ATOM     52  C   UNL A   1      42.884  28.521  33.753  1.00  0.00     0.049 A 
ATOM     53  H   UNL A   1      41.262  29.694  33.178  1.00  0.00     0.167 HD
ATOM     54  C   UNL A   1      37.877  32.146  31.713  1.00  0.00     0.031 A 
ATOM     55  C   UNL A   1      43.231  28.923  34.992  1.00  0.00     0.031 A 
ATOM     56  C   UNL A   1      38.142  32.601  33.051  1.00  0.00     0.049 A 
ATOM     57  C   UNL A   1      42.460  30.050  35.627  1.00  0.00     0.074 A 
ATOM     58  C   UNL A   1      37.472  33.565  33.782  1.00  0.00     0.029 A 
ATOM     59  N   UNL A   1      39.166  32.123  33.856  1.00  0.00    -0.354 N 
ATOM     60  N   UNL A   1      41.433  30.718  35.153  1.00  0.00    -0.248 NA
ATOM     61  C   UNL A   1      42.890  30.476  36.965  1.00  0.00     0.031 C 
ATOM     62  C   UNL A   1      38.126  33.708  35.009  1.00  0.00     0.029 A 
ATOM     63  C   UNL A   1      39.161  32.786  35.069  1.00  0.00     0.049 A 
ATOM     64  H   UNL A   1      39.801  31.415  33.601  1.00  0.00     0.167 HD
ATOM     65  C   UNL A   1      41.074  31.620  36.148  1.00  0.00     0.074 A 
ATOM     66  C   UNL A   1      41.987  31.404  37.253  1.00  0.00     0.031 C 
ATOM     67  C   UNL A   1      40.078  32.540  36.154  1.00  0.00     0.031 A 
BRANCH  54  68
ATOM     68  C   UNL A   1      36.747  32.771  30.941  1.00  0.00    -0.014 A 
ATOM     69  C   UNL A   1      36.990  33.708  29.919  1.00  0.00     0.010 A 
ATOM     70  C   UNL A   1      35.419  32.400  31.225  1.00  0.00     0.010 A 
ATOM     71  C   UNL A   1      35.926  34.285  29.221  1.00  0.00     0.020 A 
ATOM     72  C   UNL A   1      34.354  32.954  30.510  1.00  0.00     0.020 A 
ATOM     73  C   UNL A   1      34.615  33.905  29.522  1.00  0.00     0.054 A 
BRANCH  73  74
ATOM     74  S   UNL A   1      33.255  34.653  28.581  1.00  0.00     0.124 S 
ATOM     75  O   UNL A   1      32.372  35.118  29.646  1.00  0.00    -0.237 OA
ATOM     76  O   UNL A   1      33.930  35.703  27.823  1.00  0.00    -0.237 OA
ATOM     77  O   UNL A   1      32.736  33.546  27.781  1.00  0.00    -0.744 OA
ENDBRANCH  73  74
ENDBRANCH  54  68
BRANCH  55  78
ATOM     78  C   UNL A   1      44.376  28.280  35.691  1.00  0.00    -0.014 A 
ATOM     79  C   UNL A   1      44.162  27.263  36.638  1.00  0.00     0.010 A 
ATOM     80  C   UNL A   1      45.695  28.688  35.415  1.00  0.00     0.010 A 
ATOM     81  C   UNL A   1      45.241  26.684  37.311  1.00  0.00     0.020 A 
ATOM     82  C   UNL A   1      46.779  28.090  36.064  1.00  0.00     0.020 A 
ATOM     83  C   UNL A   1      46.543  27.102  37.020  1.00  0.00     0.054 A 
BRANCH  83  84
ATOM     84  S   UNL A   1      47.929  26.311  37.884  1.00  0.00     0.124 S 
ATOM     85  O   UNL A   1      48.650  27.462  38.417  1.00  0.00    -0.237 OA
ATOM     86  O   UNL A   1      47.249  25.476  38.871  1.00  0.00    -0.237 OA
ATOM     87  O   UNL A   1      48.617  25.575  36.825  1.00  0.00    -0.744 OA
ENDBRANCH  83  84
ENDBRANCH  55  78
BRANCH  67  88
ATOM     88  C   UNL A   1      39.888  33.350  37.408  1.00  0.00    -0.014 A 
ATOM     89  C   UNL A   1      40.519  34.594  37.579  1.00  0.00     0.010 A 
ATOM     90  C   UNL A   1      38.996  32.889  38.395  1.00  0.00     0.010 A 
ATOM     91  C   UNL A   1      40.277  35.354  38.726  1.00  0.00     0.020 A 
ATOM     92  C   UNL A   1      38.729  33.660  39.528  1.00  0.00     0.020 A 
ATOM     93  C   UNL A   1      39.379  34.884  39.691  1.00  0.00     0.054 A 
BRANCH  93  94
ATOM     94  S   UNL A   1      39.034  35.920  41.138  1.00  0.00     0.124 S 
ATOM     95  O   UNL A   1      37.767  35.369  41.610  1.00  0.00    -0.237 OA
ATOM     96  O   UNL A   1      40.189  35.666  41.996  1.00  0.00    -0.237 OA
ATOM     97  O   UNL A   1      38.960  37.272  40.588  1.00  0.00    -0.744 OA
ENDBRANCH  93  94
ENDBRANCH  67  88
ENDBRANCH  41  42
ENDBRANCH  34  36
ENDBRANCH  33  34
ENDBRANCH  32  33
ENDBRANCH  31  32
ENDBRANCH  30  31
ENDBRANCH   1  30
TORSDOF 23
ENDMDL
MODEL 3
REMARK VINA RESULT:      -9.5      1.238      2.299
REMARK SMILES CC(C)(C)OC(=O)N1CCC[C@H](C(=O)N[C@H](C(=O)OCCOCCOC(=O)c2ccc(-c3c4nc(c(-c5ccc(S(=O)(=O)[O-])cc5)c5ccc([nH]5)c(-c5ccc(S(=O)(=O)[O-])cc5)c5nc(c(-c6ccc(S(=O)(=O)[O-])cc6)c6ccc3[nH]6)C=C5)C=C4)cc2)c2ccccc2)C1
REMARK SMILES IDX 21 1 20 2 19 3 17 4 18 5 16 6 15 7 13 8 14 9 12 11 8 12 9 13
REMARK SMILES IDX 94 14 10 15 11 16 6 17 7 18 5 19 2 20 1 21 3 22 4 23 88 24
REMARK SMILES IDX 89 25 93 26 90 27 92 28 91 29 22 30 23 31 24 32 25 33 26 34
REMARK SMILES IDX 27 35 28 36 29 37 87 38 30 39 86 40 31 41 32 42 33 43 80 44
REMARK SMILES IDX 34 45 85 46 79 47 81 48 35 49 84 50 78 51 77 52 36 54 66 55
REMARK SMILES IDX 47 56 65 57 48 58 51 59 64 60 82 61 49 62 50 63 63 65 83 66
REMARK SMILES IDX 52 67 37 68 38 69 46 70 39 71 45 72 40 73 41 74 42 75 43 76
REMARK SMILES IDX 44 77 67 78 68 79 76 80 69 81 75 82 70 83 71 84 72 85 73 86
REMARK SMILES IDX 74 87 53 88 54 89 62 90 55 91 61 92 56 93 57 94 58 95 59 96
REMARK SMILES IDX 60 97
REMARK H PARENT 15 10 81 53 51 64
REMARK Flexibility Score: inf
ROOT
ATOM      1  C   UNL A   1      37.446  23.806  24.959  1.00  0.00     0.202 C 
ENDROOT
BRANCH   1   2
ATOM      2  C   UNL A   1      36.096  23.162  24.583  1.00  0.00     0.261 C 
BRANCH   2   3
ATOM      3  O   UNL A   1      35.407  22.373  25.537  1.00  0.00    -0.461 OA
BRANCH   3   4
ATOM      4  C   UNL A   1      34.226  22.898  25.960  1.00  0.00     0.333 C 
ATOM      5  O   UNL A   1      33.979  23.207  27.120  1.00  0.00    -0.249 OA
BRANCH   4   6
ATOM      6  C   UNL A   1      33.322  23.168  24.756  1.00  0.00     0.223 C 
BRANCH   6   7
ATOM      7  N   UNL A   1      33.427  24.474  24.026  1.00  0.00    -0.339 N 
ATOM      8  C   UNL A   1      33.503  25.821  24.182  1.00  0.00     0.225 C 
ATOM      9  O   UNL A   1      33.113  26.416  23.157  1.00  0.00    -0.275 OA
ATOM     10  H   UNL A   1      33.448  24.281  23.060  1.00  0.00     0.164 HD
BRANCH   8  11
ATOM     11  C   UNL A   1      34.027  26.749  25.313  1.00  0.00     0.098 C 
ATOM     12  N   UNL A   1      31.830  27.204  26.105  1.00  0.00    -0.307 N 
ATOM     13  C   UNL A   1      31.878  28.642  25.750  1.00  0.00     0.123 C 
ATOM     14  C   UNL A   1      33.130  26.750  26.536  1.00  0.00     0.136 C 
ATOM     15  C   UNL A   1      33.151  29.071  24.951  1.00  0.00     0.023 C 
ATOM     16  C   UNL A   1      34.391  28.194  25.057  1.00  0.00     0.017 C 
BRANCH  12  17
ATOM     17  C   UNL A   1      30.885  26.159  26.097  1.00  0.00     0.410 C 
ATOM     18  O   UNL A   1      31.239  25.045  26.478  1.00  0.00    -0.224 OA
BRANCH  17  19
ATOM     19  O   UNL A   1      29.609  26.357  25.645  1.00  0.00    -0.444 OA
BRANCH  19  20
ATOM     20  C   UNL A   1      29.363  26.233  24.177  1.00  0.00     0.106 C 
ATOM     21  C   UNL A   1      27.853  26.331  23.954  1.00  0.00     0.056 C 
ATOM     22  C   UNL A   1      29.931  24.980  23.463  1.00  0.00     0.056 C 
ATOM     23  C   UNL A   1      30.014  27.410  23.429  1.00  0.00     0.056 C 
ENDBRANCH  19  20
ENDBRANCH  17  19
ENDBRANCH  12  17
ENDBRANCH   8  11
ENDBRANCH   6   7
BRANCH   6  24
ATOM     24  C   UNL A   1      32.701  21.865  24.187  1.00  0.00    -0.014 A 
ATOM     25  C   UNL A   1      32.751  20.657  24.916  1.00  0.00     0.006 A 
ATOM     26  C   UNL A   1      32.344  21.727  22.842  1.00  0.00     0.006 A 
ATOM     27  C   UNL A   1      32.473  19.413  24.314  1.00  0.00     0.000 A 
ATOM     28  C   UNL A   1      32.050  20.500  22.232  1.00  0.00     0.000 A 
ATOM     29  C   UNL A   1      32.126  19.333  22.969  1.00  0.00     0.000 A 
ENDBRANCH   6  24
ENDBRANCH   4   6
ENDBRANCH   3   4
ENDBRANCH   2   3
ENDBRANCH   1   2
BRANCH   1  30
ATOM     30  O   UNL A   1      38.048  23.779  26.241  1.00  0.00    -0.374 OA
BRANCH  30  31
ATOM     31  C   UNL A   1      39.140  22.953  26.592  1.00  0.00     0.202 C 
BRANCH  31  32
ATOM     32  C   UNL A   1      39.268  21.533  26.048  1.00  0.00     0.261 C 
BRANCH  32  33
ATOM     33  O   UNL A   1      40.002  20.651  26.893  1.00  0.00    -0.460 OA
BRANCH  33  34
ATOM     34  C   UNL A   1      41.166  20.234  26.331  1.00  0.00     0.338 C 
ATOM     35  O   UNL A   1      41.356  19.230  25.683  1.00  0.00    -0.246 OA
BRANCH  34  36
ATOM     36  C   UNL A   1      42.186  21.278  26.509  1.00  0.00     0.060 A 
ATOM     37  C   UNL A   1      42.507  21.649  27.819  1.00  0.00     0.016 A 
ATOM     38  C   UNL A   1      42.725  21.948  25.409  1.00  0.00     0.016 A 
ATOM     39  C   UNL A   1      43.334  22.740  28.039  1.00  0.00     0.010 A 
ATOM     40  C   UNL A   1      43.535  23.057  25.631  1.00  0.00     0.010 A 
ATOM     41  C   UNL A   1      43.796  23.480  26.947  1.00  0.00    -0.014 A 
BRANCH  41  42
ATOM     42  C   UNL A   1      44.345  24.828  27.184  1.00  0.00     0.031 A 
ATOM     43  C   UNL A   1      43.390  25.911  27.601  1.00  0.00     0.074 A 
ATOM     44  C   UNL A   1      45.662  25.060  27.066  1.00  0.00     0.049 A 
ATOM     45  N   UNL A   1      43.618  27.181  27.802  1.00  0.00    -0.248 NA
ATOM     46  C   UNL A   1      41.990  25.506  27.824  1.00  0.00     0.031 C 
ATOM     47  C   UNL A   1      46.673  24.054  26.742  1.00  0.00     0.029 A 
ATOM     48  N   UNL A   1      46.370  26.223  27.206  1.00  0.00    -0.354 N 
ATOM     49  C   UNL A   1      42.392  27.727  28.166  1.00  0.00     0.074 A 
ATOM     50  C   UNL A   1      41.419  26.659  28.133  1.00  0.00     0.031 C 
ATOM     51  C   UNL A   1      47.877  24.651  26.692  1.00  0.00     0.029 A 
ATOM     52  C   UNL A   1      47.709  26.082  26.937  1.00  0.00     0.049 A 
ATOM     53  H   UNL A   1      45.960  27.077  27.472  1.00  0.00     0.167 HD
ATOM     54  C   UNL A   1      42.108  29.006  28.500  1.00  0.00     0.031 A 
ATOM     55  C   UNL A   1      48.679  27.015  26.865  1.00  0.00     0.031 A 
ATOM     56  C   UNL A   1      43.088  30.059  28.501  1.00  0.00     0.049 A 
ATOM     57  C   UNL A   1      48.317  28.452  27.136  1.00  0.00     0.074 A 
ATOM     58  C   UNL A   1      42.914  31.397  28.803  1.00  0.00     0.029 A 
ATOM     59  N   UNL A   1      44.426  29.888  28.178  1.00  0.00    -0.354 N 
ATOM     60  N   UNL A   1      47.154  28.961  27.476  1.00  0.00    -0.248 NA
ATOM     61  C   UNL A   1      49.396  29.441  27.019  1.00  0.00     0.031 C 
ATOM     62  C   UNL A   1      44.138  32.045  28.609  1.00  0.00     0.029 A 
ATOM     63  C   UNL A   1      45.088  31.099  28.252  1.00  0.00     0.049 A 
ATOM     64  H   UNL A   1      44.843  29.030  27.934  1.00  0.00     0.167 HD
ATOM     65  C   UNL A   1      47.372  30.324  27.645  1.00  0.00     0.074 A 
ATOM     66  C   UNL A   1      48.777  30.557  27.381  1.00  0.00     0.031 C 
ATOM     67  C   UNL A   1      46.492  31.297  27.993  1.00  0.00     0.031 A 
BRANCH  54  68
ATOM     68  C   UNL A   1      40.682  29.338  28.846  1.00  0.00    -0.014 A 
ATOM     69  C   UNL A   1      39.679  29.369  27.859  1.00  0.00     0.010 A 
ATOM     70  C   UNL A   1      40.332  29.600  30.183  1.00  0.00     0.010 A 
ATOM     71  C   UNL A   1      38.362  29.690  28.199  1.00  0.00     0.020 A 
ATOM     72  C   UNL A   1      39.011  29.894  30.531  1.00  0.00     0.020 A 
ATOM     73  C   UNL A   1      38.037  29.951  29.533  1.00  0.00     0.054 A 
BRANCH  73  74
ATOM     74  S   UNL A   1      36.313  30.339  29.948  1.00  0.00     0.124 S 
ATOM     75  O   UNL A   1      35.585  29.646  28.889  1.00  0.00    -0.237 OA
ATOM     76  O   UNL A   1      36.170  29.769  31.285  1.00  0.00    -0.237 OA
ATOM     77  O   UNL A   1      36.261  31.798  29.887  1.00  0.00    -0.744 OA
ENDBRANCH  73  74
ENDBRANCH  54  68
BRANCH  55  78
ATOM     78  C   UNL A   1      50.065  26.625  26.492  1.00  0.00    -0.014 A 
ATOM     79  C   UNL A   1      50.969  26.163  27.465  1.00  0.00     0.010 A 
ATOM     80  C   UNL A   1      50.492  26.718  25.154  1.00  0.00     0.010 A 
ATOM     81  C   UNL A   1      52.278  25.825  27.111  1.00  0.00     0.020 A 
ATOM     82  C   UNL A   1      51.791  26.353  24.791  1.00  0.00     0.020 A 
ATOM     83  C   UNL A   1      52.681  25.922  25.776  1.00  0.00     0.054 A 
BRANCH  83  84
ATOM     84  S   UNL A   1      54.376  25.446  25.337  1.00  0.00     0.124 S 
ATOM     85  O   UNL A   1      54.378  24.019  25.640  1.00  0.00    -0.237 OA
ATOM     86  O   UNL A   1      54.442  25.793  23.919  1.00  0.00    -0.237 OA
ATOM     87  O   UNL A   1      55.201  26.275  26.213  1.00  0.00    -0.744 OA
ENDBRANCH  83  84
ENDBRANCH  55  78
BRANCH  67  88
ATOM     88  C   UNL A   1      47.030  32.692  28.157  1.00  0.00    -0.014 A 
ATOM     89  C   UNL A   1      47.037  33.605  27.088  1.00  0.00     0.010 A 
ATOM     90  C   UNL A   1      47.459  33.118  29.428  1.00  0.00     0.010 A 
ATOM     91  C   UNL A   1      47.484  34.914  27.283  1.00  0.00     0.020 A 
ATOM     92  C   UNL A   1      47.878  34.434  29.633  1.00  0.00     0.020 A 
ATOM     93  C   UNL A   1      47.897  35.321  28.556  1.00  0.00     0.054 A 
BRANCH  93  94
ATOM     94  S   UNL A   1      48.411  37.043  28.796  1.00  0.00     0.124 S 
ATOM     95  O   UNL A   1      47.506  37.486  29.852  1.00  0.00    -0.237 OA
ATOM     96  O   UNL A   1      49.813  36.907  29.184  1.00  0.00    -0.237 OA
ATOM     97  O   UNL A   1      48.191  37.657  27.488  1.00  0.00    -0.744 OA
ENDBRANCH  93  94
ENDBRANCH  67  88
ENDBRANCH  41  42
ENDBRANCH  34  36
ENDBRANCH  33  34
ENDBRANCH  32  33
ENDBRANCH  31  32
ENDBRANCH  30  31
ENDBRANCH   1  30
TORSDOF 23
ENDMDL
