MODEL 1
REMARK VINA RESULT:      -9.1      0.000      0.000
REMARK SMILES CC(C)NC(=O)C[N@@H+]1CCC[C@H]1C(=O)OCCOCCOC(=O)c1ccc(-c2c3nc(c(-c4ccc(S(=O)(=O)[O-])cc4)c4ccc([nH]4)c(-c4ccc(S(=O)(=O)[O-])cc4)c4nc(c(-c5ccc(S(=O)(=O)[O-])cc5)c5ccc2[nH]5)C=C4)C=C3)cc1
REMARK SMILES IDX 18 1 17 2 16 3 15 4 13 5 14 6 12 7 8 8 9 9 10 11 11 12 7 13
REMARK SMILES IDX 5 14 4 15 6 17 2 18 1 19 3 20 19 21 20 22 21 23 22 24 23 25
REMARK SMILES IDX 24 26 25 27 83 28 26 29 82 30 27 31 28 32 29 33 76 34 30 35
REMARK SMILES IDX 81 36 75 37 77 38 31 39 80 40 74 41 73 42 32 44 62 45 43 46
REMARK SMILES IDX 61 47 44 48 47 49 60 50 78 51 45 52 46 53 59 55 79 56 48 57
REMARK SMILES IDX 33 58 34 59 42 60 35 61 41 62 36 63 37 64 38 65 39 66 40 67
REMARK SMILES IDX 63 68 64 69 72 70 65 71 71 72 66 73 67 74 68 75 69 76 70 77
REMARK SMILES IDX 49 78 50 79 58 80 51 81 57 82 52 83 53 84 54 85 55 86 56 87
REMARK H PARENT 8 10 4 16 77 43 47 54
REMARK Flexibility Score: inf
ROOT
ATOM      1  O   UNL A   1      32.721  29.243  24.248  1.00  0.00    -0.374 OA
ENDROOT
BRANCH   1   2
ATOM      2  C   UNL A   1      31.808  28.779  23.261  1.00  0.00     0.202 C 
BRANCH   2   3
ATOM      3  C   UNL A   1      31.672  27.266  23.049  1.00  0.00     0.261 C 
BRANCH   3   4
ATOM      4  O   UNL A   1      32.842  26.516  23.410  1.00  0.00    -0.459 OA
BRANCH   4   5
ATOM      5  C   UNL A   1      33.215  25.586  22.492  1.00  0.00     0.365 C 
ATOM      6  O   UNL A   1      33.498  25.833  21.320  1.00  0.00    -0.245 OA
BRANCH   5   7
ATOM      7  C   UNL A   1      33.217  24.148  22.998  1.00  0.00     0.295 C 
ATOM      8  N   UNL A   1      34.026  23.869  24.219  1.00  0.00    -0.315 N 
ATOM      9  C   UNL A   1      33.014  23.689  25.283  1.00  0.00     0.263 C 
ATOM     10  H   UNL A   1      34.694  24.622  24.385  1.00  0.00     0.349 HD
ATOM     11  C   UNL A   1      31.855  22.982  24.602  1.00  0.00     0.068 C 
ATOM     12  C   UNL A   1      31.799  23.645  23.241  1.00  0.00     0.083 C 
BRANCH   8  13
ATOM     13  C   UNL A   1      34.832  22.617  24.113  1.00  0.00     0.364 C 
BRANCH  13  14
ATOM     14  C   UNL A   1      36.212  22.788  23.460  1.00  0.00     0.275 C 
ATOM     15  N   UNL A   1      37.351  22.597  24.205  1.00  0.00    -0.349 N 
ATOM     16  H   UNL A   1      38.163  23.027  23.854  1.00  0.00     0.163 HD
ATOM     17  O   UNL A   1      36.336  23.165  22.292  1.00  0.00    -0.268 OA
BRANCH  15  18
ATOM     18  C   UNL A   1      37.525  21.843  25.446  1.00  0.00     0.076 C 
ATOM     19  C   UNL A   1      37.481  20.345  25.130  1.00  0.00     0.030 C 
ATOM     20  C   UNL A   1      38.814  22.204  26.167  1.00  0.00     0.030 C 
ENDBRANCH  15  18
ENDBRANCH  13  14
ENDBRANCH   8  13
ENDBRANCH   5   7
ENDBRANCH   4   5
ENDBRANCH   3   4
ENDBRANCH   2   3
ENDBRANCH   1   2
BRANCH   1  21
ATOM     21  C   UNL A   1      32.247  29.392  25.589  1.00  0.00     0.202 C 
BRANCH  21  22
ATOM     22  C   UNL A   1      32.976  30.378  26.515  1.00  0.00     0.261 C 
BRANCH  22  23
ATOM     23  O   UNL A   1      33.880  29.731  27.436  1.00  0.00    -0.460 OA
BRANCH  23  24
ATOM     24  C   UNL A   1      34.688  30.565  28.129  1.00  0.00     0.338 C 
ATOM     25  O   UNL A   1      34.372  31.608  28.694  1.00  0.00    -0.246 OA
BRANCH  24  26
ATOM     26  C   UNL A   1      36.020  29.963  28.297  1.00  0.00     0.060 A 
ATOM     27  C   UNL A   1      36.367  29.476  29.564  1.00  0.00     0.016 A 
ATOM     28  C   UNL A   1      36.960  29.988  27.265  1.00  0.00     0.016 A 
ATOM     29  C   UNL A   1      37.668  29.047  29.816  1.00  0.00     0.010 A 
ATOM     30  C   UNL A   1      38.270  29.568  27.523  1.00  0.00     0.010 A 
ATOM     31  C   UNL A   1      38.637  29.129  28.808  1.00  0.00    -0.014 A 
BRANCH  31  32
ATOM     32  C   UNL A   1      40.059  28.886  29.154  1.00  0.00     0.031 A 
ATOM     33  C   UNL A   1      40.692  27.571  28.790  1.00  0.00     0.074 A 
ATOM     34  C   UNL A   1      40.792  29.845  29.749  1.00  0.00     0.049 A 
ATOM     35  N   UNL A   1      41.926  27.170  28.962  1.00  0.00    -0.248 NA
ATOM     36  C   UNL A   1      39.818  26.576  28.148  1.00  0.00     0.031 C 
ATOM     37  C   UNL A   1      40.301  31.168  30.130  1.00  0.00     0.029 A 
ATOM     38  N   UNL A   1      42.109  29.848  30.135  1.00  0.00    -0.354 N 
ATOM     39  C   UNL A   1      41.976  25.875  28.458  1.00  0.00     0.074 A 
ATOM     40  C   UNL A   1      40.643  25.549  28.000  1.00  0.00     0.031 C 
ATOM     41  C   UNL A   1      41.303  31.855  30.705  1.00  0.00     0.029 A 
ATOM     42  C   UNL A   1      42.498  31.013  30.749  1.00  0.00     0.049 A 
ATOM     43  H   UNL A   1      42.717  29.088  29.987  1.00  0.00     0.167 HD
ATOM     44  C   UNL A   1      43.036  25.034  28.380  1.00  0.00     0.031 A 
ATOM     45  C   UNL A   1      43.679  31.359  31.298  1.00  0.00     0.031 A 
ATOM     46  C   UNL A   1      44.357  25.353  28.852  1.00  0.00     0.049 A 
ATOM     47  C   UNL A   1      44.834  30.397  31.235  1.00  0.00     0.074 A 
ATOM     48  C   UNL A   1      45.505  24.581  28.787  1.00  0.00     0.029 A 
ATOM     49  N   UNL A   1      44.706  26.533  29.491  1.00  0.00    -0.354 N 
ATOM     50  N   UNL A   1      44.878  29.195  30.712  1.00  0.00    -0.248 NA
ATOM     51  C   UNL A   1      46.103  30.845  31.825  1.00  0.00     0.031 C 
ATOM     52  C   UNL A   1      46.534  25.271  29.441  1.00  0.00     0.029 A 
ATOM     53  C   UNL A   1      46.042  26.499  29.858  1.00  0.00     0.049 A 
ATOM     54  H   UNL A   1      44.094  27.286  29.660  1.00  0.00     0.167 HD
ATOM     55  C   UNL A   1      46.182  28.748  30.893  1.00  0.00     0.074 A 
ATOM     56  C   UNL A   1      46.900  29.819  31.557  1.00  0.00     0.031 C 
ATOM     57  C   UNL A   1      46.737  27.561  30.541  1.00  0.00     0.031 A 
BRANCH  44  58
ATOM     58  C   UNL A   1      42.786  23.664  27.803  1.00  0.00    -0.014 A 
ATOM     59  C   UNL A   1      42.380  22.588  28.614  1.00  0.00     0.010 A 
ATOM     60  C   UNL A   1      42.959  23.453  26.423  1.00  0.00     0.010 A 
ATOM     61  C   UNL A   1      42.204  21.315  28.063  1.00  0.00     0.020 A 
ATOM     62  C   UNL A   1      42.758  22.188  25.864  1.00  0.00     0.020 A 
ATOM     63  C   UNL A   1      42.404  21.122  26.693  1.00  0.00     0.054 A 
BRANCH  63  64
ATOM     64  S   UNL A   1      42.178  19.459  26.004  1.00  0.00     0.124 S 
ATOM     65  O   UNL A   1      40.743  19.439  25.730  1.00  0.00    -0.237 OA
ATOM     66  O   UNL A   1      43.042  19.478  24.826  1.00  0.00    -0.237 OA
ATOM     67  O   UNL A   1      42.618  18.574  27.081  1.00  0.00    -0.744 OA
ENDBRANCH  63  64
ENDBRANCH  44  58
BRANCH  45  68
ATOM     68  C   UNL A   1      43.815  32.682  31.964  1.00  0.00    -0.014 A 
ATOM     69  C   UNL A   1      43.891  32.783  33.363  1.00  0.00     0.010 A 
ATOM     70  C   UNL A   1      43.908  33.852  31.187  1.00  0.00     0.010 A 
ATOM     71  C   UNL A   1      44.062  34.029  33.974  1.00  0.00     0.020 A 
ATOM     72  C   UNL A   1      44.103  35.096  31.792  1.00  0.00     0.020 A 
ATOM     73  C   UNL A   1      44.176  35.177  33.184  1.00  0.00     0.054 A 
BRANCH  73  74
ATOM     74  S   UNL A   1      44.489  36.772  33.990  1.00  0.00     0.124 S 
ATOM     75  O   UNL A   1      44.337  36.434  35.402  1.00  0.00    -0.237 OA
ATOM     76  O   UNL A   1      45.849  37.083  33.556  1.00  0.00    -0.237 OA
ATOM     77  O   UNL A   1      43.453  37.643  33.438  1.00  0.00    -0.744 OA
ENDBRANCH  73  74
ENDBRANCH  45  68
BRANCH  57  78
ATOM     78  C   UNL A   1      48.198  27.363  30.859  1.00  0.00    -0.014 A 
ATOM     79  C   UNL A   1      49.201  27.775  29.963  1.00  0.00     0.010 A 
ATOM     80  C   UNL A   1      48.572  26.778  32.082  1.00  0.00     0.010 A 
ATOM     81  C   UNL A   1      50.549  27.562  30.264  1.00  0.00     0.020 A 
ATOM     82  C   UNL A   1      49.919  26.589  32.399  1.00  0.00     0.020 A 
ATOM     83  C   UNL A   1      50.899  26.963  31.477  1.00  0.00     0.054 A 
BRANCH  83  84
ATOM     84  S   UNL A   1      52.656  26.706  31.852  1.00  0.00     0.124 S 
ATOM     85  O   UNL A   1      53.182  28.067  31.782  1.00  0.00    -0.237 OA
ATOM     86  O   UNL A   1      52.618  26.116  33.188  1.00  0.00    -0.237 OA
ATOM     87  O   UNL A   1      53.108  25.806  30.794  1.00  0.00    -0.744 OA
ENDBRANCH  83  84
ENDBRANCH  57  78
ENDBRANCH  31  32
ENDBRANCH  24  26
ENDBRANCH  23  24
ENDBRANCH  22  23
ENDBRANCH  21  22
ENDBRANCH   1  21
TORSDOF 20
ENDMDL
MODEL 2
REMARK VINA RESULT:      -9.0      3.259      9.097
REMARK SMILES CC(C)NC(=O)C[N@@H+]1CCC[C@H]1C(=O)OCCOCCOC(=O)c1ccc(-c2c3nc(c(-c4ccc(S(=O)(=O)[O-])cc4)c4ccc([nH]4)c(-c4ccc(S(=O)(=O)[O-])cc4)c4nc(c(-c5ccc(S(=O)(=O)[O-])cc5)c5ccc2[nH]5)C=C4)C=C3)cc1
REMARK SMILES IDX 18 1 17 2 16 3 15 4 13 5 14 6 12 7 8 8 9 9 10 11 11 12 7 13
REMARK SMILES IDX 5 14 4 15 6 17 2 18 1 19 3 20 19 21 20 22 21 23 22 24 23 25
REMARK SMILES IDX 24 26 25 27 83 28 26 29 82 30 27 31 28 32 29 33 76 34 30 35
REMARK SMILES IDX 81 36 75 37 77 38 31 39 80 40 74 41 73 42 32 44 62 45 43 46
REMARK SMILES IDX 61 47 44 48 47 49 60 50 78 51 45 52 46 53 59 55 79 56 48 57
REMARK SMILES IDX 33 58 34 59 42 60 35 61 41 62 36 63 37 64 38 65 39 66 40 67
REMARK SMILES IDX 63 68 64 69 72 70 65 71 71 72 66 73 67 74 68 75 69 76 70 77
REMARK SMILES IDX 49 78 50 79 58 80 51 81 57 82 52 83 53 84 54 85 55 86 56 87
REMARK H PARENT 8 10 4 16 77 43 47 54
REMARK Flexibility Score: inf
ROOT
ATOM      1  O   UNL A   1      34.996  30.904  27.646  1.00  0.00    -0.374 OA
ENDROOT
BRANCH   1   2
ATOM      2  C   UNL A   1      34.111  29.944  27.084  1.00  0.00     0.202 C 
BRANCH   2   3
ATOM      3  C   UNL A   1      32.634  30.325  26.916  1.00  0.00     0.261 C 
BRANCH   3   4
ATOM      4  O   UNL A   1      31.759  29.204  26.723  1.00  0.00    -0.459 OA
BRANCH   4   5
ATOM      5  C   UNL A   1      31.384  29.004  25.432  1.00  0.00     0.365 C 
ATOM      6  O   UNL A   1      30.878  29.861  24.709  1.00  0.00    -0.245 OA
BRANCH   5   7
ATOM      7  C   UNL A   1      31.586  27.583  24.916  1.00  0.00     0.295 C 
ATOM      8  N   UNL A   1      31.339  26.478  25.886  1.00  0.00    -0.315 N 
ATOM      9  C   UNL A   1      30.052  25.897  25.441  1.00  0.00     0.263 C 
ATOM     10  H   UNL A   1      31.340  26.834  26.841  1.00  0.00     0.349 HD
ATOM     11  C   UNL A   1      30.092  25.981  23.924  1.00  0.00     0.068 C 
ATOM     12  C   UNL A   1      30.748  27.323  23.671  1.00  0.00     0.083 C 
BRANCH   8  13
ATOM     13  C   UNL A   1      32.383  25.413  25.837  1.00  0.00     0.364 C 
BRANCH  13  14
ATOM     14  C   UNL A   1      31.911  24.022  26.288  1.00  0.00     0.275 C 
ATOM     15  N   UNL A   1      31.958  22.965  25.411  1.00  0.00    -0.349 N 
ATOM     16  H   UNL A   1      31.360  22.213  25.623  1.00  0.00     0.163 HD
ATOM     17  O   UNL A   1      31.419  23.833  27.403  1.00  0.00    -0.268 OA
BRANCH  15  18
ATOM     18  C   UNL A   1      32.772  22.802  24.207  1.00  0.00     0.076 C 
ATOM     19  C   UNL A   1      34.008  21.964  24.551  1.00  0.00     0.030 C 
ATOM     20  C   UNL A   1      31.995  22.169  23.063  1.00  0.00     0.030 C 
ENDBRANCH  15  18
ENDBRANCH  13  14
ENDBRANCH   8  13
ENDBRANCH   5   7
ENDBRANCH   4   5
ENDBRANCH   3   4
ENDBRANCH   2   3
ENDBRANCH   1   2
BRANCH   1  21
ATOM     21  C   UNL A   1      34.429  32.022  28.336  1.00  0.00     0.202 C 
BRANCH  21  22
ATOM     22  C   UNL A   1      34.951  32.353  29.742  1.00  0.00     0.261 C 
BRANCH  22  23
ATOM     23  O   UNL A   1      35.818  31.333  30.283  1.00  0.00    -0.460 OA
BRANCH  23  24
ATOM     24  C   UNL A   1      36.978  31.784  30.810  1.00  0.00     0.338 C 
ATOM     25  O   UNL A   1      37.116  32.627  31.693  1.00  0.00    -0.246 OA
BRANCH  24  26
ATOM     26  C   UNL A   1      38.110  30.985  30.316  1.00  0.00     0.060 A 
ATOM     27  C   UNL A   1      39.128  30.657  31.221  1.00  0.00     0.016 A 
ATOM     28  C   UNL A   1      38.234  30.668  28.963  1.00  0.00     0.016 A 
ATOM     29  C   UNL A   1      40.294  30.045  30.768  1.00  0.00     0.010 A 
ATOM     30  C   UNL A   1      39.412  30.063  28.508  1.00  0.00     0.010 A 
ATOM     31  C   UNL A   1      40.459  29.781  29.402  1.00  0.00    -0.014 A 
BRANCH  31  32
ATOM     32  C   UNL A   1      41.788  29.342  28.908  1.00  0.00     0.031 A 
ATOM     33  C   UNL A   1      42.909  30.342  28.824  1.00  0.00     0.074 A 
ATOM     34  C   UNL A   1      42.005  28.056  28.579  1.00  0.00     0.049 A 
ATOM     35  N   UNL A   1      44.154  30.161  28.462  1.00  0.00    -0.248 NA
ATOM     36  C   UNL A   1      42.584  31.727  29.197  1.00  0.00     0.031 C 
ATOM     37  C   UNL A   1      41.008  26.989  28.640  1.00  0.00     0.029 A 
ATOM     38  N   UNL A   1      43.141  27.433  28.128  1.00  0.00    -0.354 N 
ATOM     39  C   UNL A   1      44.758  31.410  28.554  1.00  0.00     0.074 A 
ATOM     40  C   UNL A   1      43.738  32.343  28.980  1.00  0.00     0.031 C 
ATOM     41  C   UNL A   1      41.574  25.841  28.232  1.00  0.00     0.029 A 
ATOM     42  C   UNL A   1      42.966  26.097  27.863  1.00  0.00     0.049 A 
ATOM     43  H   UNL A   1      44.000  27.898  28.004  1.00  0.00     0.167 HD
ATOM     44  C   UNL A   1      46.048  31.749  28.310  1.00  0.00     0.031 A 
ATOM     45  C   UNL A   1      43.824  25.184  27.367  1.00  0.00     0.031 A 
ATOM     46  C   UNL A   1      47.058  30.824  27.870  1.00  0.00     0.049 A 
ATOM     47  C   UNL A   1      45.242  25.589  27.066  1.00  0.00     0.074 A 
ATOM     48  C   UNL A   1      48.400  31.064  27.629  1.00  0.00     0.029 A 
ATOM     49  N   UNL A   1      46.836  29.484  27.589  1.00  0.00    -0.354 N 
ATOM     50  N   UNL A   1      45.811  26.763  27.206  1.00  0.00    -0.248 NA
ATOM     51  C   UNL A   1      46.136  24.541  26.557  1.00  0.00     0.031 C 
ATOM     52  C   UNL A   1      48.976  29.882  27.145  1.00  0.00     0.029 A 
ATOM     53  C   UNL A   1      48.007  28.891  27.144  1.00  0.00     0.049 A 
ATOM     54  H   UNL A   1      45.973  29.021  27.692  1.00  0.00     0.167 HD
ATOM     55  C   UNL A   1      47.135  26.592  26.816  1.00  0.00     0.074 A 
ATOM     56  C   UNL A   1      47.286  25.196  26.455  1.00  0.00     0.031 C 
ATOM     57  C   UNL A   1      48.136  27.506  26.763  1.00  0.00     0.031 A 
BRANCH  44  58
ATOM     58  C   UNL A   1      46.419  33.201  28.469  1.00  0.00    -0.014 A 
ATOM     59  C   UNL A   1      46.309  34.109  27.400  1.00  0.00     0.010 A 
ATOM     60  C   UNL A   1      46.883  33.664  29.714  1.00  0.00     0.010 A 
ATOM     61  C   UNL A   1      46.707  35.440  27.559  1.00  0.00     0.020 A 
ATOM     62  C   UNL A   1      47.258  35.000  29.884  1.00  0.00     0.020 A 
ATOM     63  C   UNL A   1      47.188  35.874  28.798  1.00  0.00     0.054 A 
BRANCH  63  64
ATOM     64  S   UNL A   1      47.708  37.603  28.976  1.00  0.00     0.124 S 
ATOM     65  O   UNL A   1      48.478  37.813  27.752  1.00  0.00    -0.237 OA
ATOM     66  O   UNL A   1      46.436  38.317  29.047  1.00  0.00    -0.237 OA
ATOM     67  O   UNL A   1      48.489  37.604  30.211  1.00  0.00    -0.744 OA
ENDBRANCH  63  64
ENDBRANCH  44  58
BRANCH  45  68
ATOM     68  C   UNL A   1      43.350  23.797  27.116  1.00  0.00    -0.014 A 
ATOM     69  C   UNL A   1      43.160  22.895  28.176  1.00  0.00     0.010 A 
ATOM     70  C   UNL A   1      43.049  23.385  25.804  1.00  0.00     0.010 A 
ATOM     71  C   UNL A   1      42.673  21.607  27.930  1.00  0.00     0.020 A 
ATOM     72  C   UNL A   1      42.540  22.108  25.557  1.00  0.00     0.020 A 
ATOM     73  C   UNL A   1      42.358  21.225  26.622  1.00  0.00     0.054 A 
BRANCH  73  74
ATOM     74  S   UNL A   1      41.641  19.583  26.335  1.00  0.00     0.124 S 
ATOM     75  O   UNL A   1      42.348  19.148  25.134  1.00  0.00    -0.237 OA
ATOM     76  O   UNL A   1      41.981  18.871  27.564  1.00  0.00    -0.237 OA
ATOM     77  O   UNL A   1      40.217  19.859  26.158  1.00  0.00    -0.744 OA
ENDBRANCH  73  74
ENDBRANCH  45  68
BRANCH  57  78
ATOM     78  C   UNL A   1      49.489  27.020  26.308  1.00  0.00    -0.014 A 
ATOM     79  C   UNL A   1      49.860  27.064  24.952  1.00  0.00     0.010 A 
ATOM     80  C   UNL A   1      50.410  26.535  27.254  1.00  0.00     0.010 A 
ATOM     81  C   UNL A   1      51.110  26.587  24.545  1.00  0.00     0.020 A 
ATOM     82  C   UNL A   1      51.671  26.085  26.855  1.00  0.00     0.020 A 
ATOM     83  C   UNL A   1      52.004  26.094  25.499  1.00  0.00     0.054 A 
BRANCH  83  84
ATOM     84  S   UNL A   1      53.625  25.490  24.951  1.00  0.00     0.124 S 
ATOM     85  O   UNL A   1      53.642  25.901  23.548  1.00  0.00    -0.237 OA
ATOM     86  O   UNL A   1      54.550  26.207  25.825  1.00  0.00    -0.237 OA
ATOM     87  O   UNL A   1      53.553  24.049  25.177  1.00  0.00    -0.744 OA
ENDBRANCH  83  84
ENDBRANCH  57  78
ENDBRANCH  31  32
ENDBRANCH  24  26
ENDBRANCH  23  24
ENDBRANCH  22  23
ENDBRANCH  21  22
ENDBRANCH   1  21
TORSDOF 20
ENDMDL
MODEL 3
REMARK VINA RESULT:      -9.0      4.500     10.218
REMARK SMILES CC(C)NC(=O)C[N@@H+]1CCC[C@H]1C(=O)OCCOCCOC(=O)c1ccc(-c2c3nc(c(-c4ccc(S(=O)(=O)[O-])cc4)c4ccc([nH]4)c(-c4ccc(S(=O)(=O)[O-])cc4)c4nc(c(-c5ccc(S(=O)(=O)[O-])cc5)c5ccc2[nH]5)C=C4)C=C3)cc1
REMARK SMILES IDX 18 1 17 2 16 3 15 4 13 5 14 6 12 7 8 8 9 9 10 11 11 12 7 13
REMARK SMILES IDX 5 14 4 15 6 17 2 18 1 19 3 20 19 21 20 22 21 23 22 24 23 25
REMARK SMILES IDX 24 26 25 27 83 28 26 29 82 30 27 31 28 32 29 33 76 34 30 35
REMARK SMILES IDX 81 36 75 37 77 38 31 39 80 40 74 41 73 42 32 44 62 45 43 46
REMARK SMILES IDX 61 47 44 48 47 49 60 50 78 51 45 52 46 53 59 55 79 56 48 57
REMARK SMILES IDX 33 58 34 59 42 60 35 61 41 62 36 63 37 64 38 65 39 66 40 67
REMARK SMILES IDX 63 68 64 69 72 70 65 71 71 72 66 73 67 74 68 75 69 76 70 77
REMARK SMILES IDX 49 78 50 79 58 80 51 81 57 82 52 83 53 84 54 85 55 86 56 87
REMARK H PARENT 8 10 4 16 77 43 47 54
REMARK Flexibility Score: inf
ROOT
ATOM      1  O   UNL A   1      34.401  31.299  27.252  1.00  0.00    -0.374 OA
ENDROOT
BRANCH   1   2
ATOM      2  C   UNL A   1      34.846  29.985  27.565  1.00  0.00     0.202 C 
BRANCH   2   3
ATOM      3  C   UNL A   1      33.942  28.802  27.192  1.00  0.00     0.261 C 
BRANCH   3   4
ATOM      4  O   UNL A   1      33.925  28.497  25.790  1.00  0.00    -0.459 OA
BRANCH   4   5
ATOM      5  C   UNL A   1      33.331  27.314  25.483  1.00  0.00     0.365 C 
ATOM      6  O   UNL A   1      33.911  26.230  25.434  1.00  0.00    -0.245 OA
BRANCH   5   7
ATOM      7  C   UNL A   1      31.849  27.410  25.136  1.00  0.00     0.295 C 
ATOM      8  N   UNL A   1      31.436  26.869  23.810  1.00  0.00    -0.315 N 
ATOM      9  C   UNL A   1      30.739  25.607  24.142  1.00  0.00     0.263 C 
ATOM     10  H   UNL A   1      32.245  26.764  23.199  1.00  0.00     0.349 HD
ATOM     11  C   UNL A   1      30.002  25.899  25.439  1.00  0.00     0.068 C 
ATOM     12  C   UNL A   1      30.987  26.756  26.208  1.00  0.00     0.083 C 
BRANCH   8  13
ATOM     13  C   UNL A   1      30.482  27.761  23.086  1.00  0.00     0.364 C 
BRANCH  13  14
ATOM     14  C   UNL A   1      31.102  29.048  22.520  1.00  0.00     0.275 C 
ATOM     15  N   UNL A   1      30.289  30.045  22.037  1.00  0.00    -0.349 N 
ATOM     16  H   UNL A   1      30.715  30.669  21.406  1.00  0.00     0.163 HD
ATOM     17  O   UNL A   1      32.323  29.191  22.418  1.00  0.00    -0.268 OA
BRANCH  15  18
ATOM     18  C   UNL A   1      28.881  30.308  22.328  1.00  0.00     0.076 C 
ATOM     19  C   UNL A   1      28.787  31.212  23.562  1.00  0.00     0.030 C 
ATOM     20  C   UNL A   1      28.151  30.931  21.148  1.00  0.00     0.030 C 
ENDBRANCH  15  18
ENDBRANCH  13  14
ENDBRANCH   8  13
ENDBRANCH   5   7
ENDBRANCH   4   5
ENDBRANCH   3   4
ENDBRANCH   2   3
ENDBRANCH   1   2
BRANCH   1  21
ATOM     21  C   UNL A   1      33.022  31.613  27.465  1.00  0.00     0.202 C 
BRANCH  21  22
ATOM     22  C   UNL A   1      32.585  33.083  27.364  1.00  0.00     0.261 C 
BRANCH  22  23
ATOM     23  O   UNL A   1      32.541  33.754  28.641  1.00  0.00    -0.460 OA
BRANCH  23  24
ATOM     24  C   UNL A   1      33.393  34.795  28.773  1.00  0.00     0.338 C 
ATOM     25  O   UNL A   1      33.234  35.943  28.369  1.00  0.00    -0.246 OA
BRANCH  24  26
ATOM     26  C   UNL A   1      34.511  34.432  29.658  1.00  0.00     0.060 A 
ATOM     27  C   UNL A   1      35.814  34.569  29.162  1.00  0.00     0.016 A 
ATOM     28  C   UNL A   1      34.284  33.849  30.906  1.00  0.00     0.016 A 
ATOM     29  C   UNL A   1      36.895  34.088  29.897  1.00  0.00     0.010 A 
ATOM     30  C   UNL A   1      35.371  33.356  31.638  1.00  0.00     0.010 A 
ATOM     31  C   UNL A   1      36.676  33.442  31.121  1.00  0.00    -0.014 A 
BRANCH  31  32
ATOM     32  C   UNL A   1      37.805  32.738  31.777  1.00  0.00     0.031 A 
ATOM     33  C   UNL A   1      38.290  33.214  33.119  1.00  0.00     0.074 A 
ATOM     34  C   UNL A   1      38.364  31.658  31.202  1.00  0.00     0.049 A 
ATOM     35  N   UNL A   1      39.230  32.719  33.882  1.00  0.00    -0.248 NA
ATOM     36  C   UNL A   1      37.627  34.405  33.673  1.00  0.00     0.031 C 
ATOM     37  C   UNL A   1      37.968  31.086  29.917  1.00  0.00     0.029 A 
ATOM     38  N   UNL A   1      39.388  30.851  31.631  1.00  0.00    -0.354 N 
ATOM     39  C   UNL A   1      39.280  33.542  35.002  1.00  0.00     0.074 A 
ATOM     40  C   UNL A   1      38.293  34.582  34.805  1.00  0.00     0.031 C 
ATOM     41  C   UNL A   1      38.748  30.022  29.656  1.00  0.00     0.029 A 
ATOM     42  C   UNL A   1      39.708  29.852  30.745  1.00  0.00     0.049 A 
ATOM     43  H   UNL A   1      39.850  30.977  32.491  1.00  0.00     0.167 HD
ATOM     44  C   UNL A   1      40.071  33.440  36.098  1.00  0.00     0.031 A 
ATOM     45  C   UNL A   1      40.673  28.914  30.798  1.00  0.00     0.031 A 
ATOM     46  C   UNL A   1      41.064  32.415  36.285  1.00  0.00     0.049 A 
ATOM     47  C   UNL A   1      41.568  28.839  32.006  1.00  0.00     0.074 A 
ATOM     48  C   UNL A   1      41.892  32.206  37.374  1.00  0.00     0.029 A 
ATOM     49  N   UNL A   1      41.375  31.435  35.354  1.00  0.00    -0.354 N 
ATOM     50  N   UNL A   1      41.569  29.595  33.078  1.00  0.00    -0.248 NA
ATOM     51  C   UNL A   1      42.581  27.775  32.016  1.00  0.00     0.031 C 
ATOM     52  C   UNL A   1      42.745  31.136  37.077  1.00  0.00     0.029 A 
ATOM     53  C   UNL A   1      42.407  30.640  35.828  1.00  0.00     0.049 A 
ATOM     54  H   UNL A   1      40.929  31.321  34.483  1.00  0.00     0.167 HD
ATOM     55  C   UNL A   1      42.571  29.088  33.899  1.00  0.00     0.074 A 
ATOM     56  C   UNL A   1      43.139  27.949  33.206  1.00  0.00     0.031 C 
ATOM     57  C   UNL A   1      42.981  29.524  35.117  1.00  0.00     0.031 A 
BRANCH  44  58
ATOM     58  C   UNL A   1      39.922  34.502  37.156  1.00  0.00    -0.014 A 
ATOM     59  C   UNL A   1      38.969  34.386  38.185  1.00  0.00     0.010 A 
ATOM     60  C   UNL A   1      40.753  35.636  37.119  1.00  0.00     0.010 A 
ATOM     61  C   UNL A   1      38.816  35.409  39.125  1.00  0.00     0.020 A 
ATOM     62  C   UNL A   1      40.620  36.650  38.072  1.00  0.00     0.020 A 
ATOM     63  C   UNL A   1      39.636  36.539  39.056  1.00  0.00     0.054 A 
BRANCH  63  64
ATOM     64  S   UNL A   1      39.411  37.858  40.282  1.00  0.00     0.124 S 
ATOM     65  O   UNL A   1      40.554  38.724  40.005  1.00  0.00    -0.237 OA
ATOM     66  O   UNL A   1      38.105  38.408  39.927  1.00  0.00    -0.237 OA
ATOM     67  O   UNL A   1      39.460  37.154  41.562  1.00  0.00    -0.744 OA
ENDBRANCH  63  64
ENDBRANCH  44  58
BRANCH  45  68
ATOM     68  C   UNL A   1      40.843  27.976  29.656  1.00  0.00    -0.014 A 
ATOM     69  C   UNL A   1      41.926  28.104  28.769  1.00  0.00     0.010 A 
ATOM     70  C   UNL A   1      39.932  26.918  29.476  1.00  0.00     0.010 A 
ATOM     71  C   UNL A   1      42.097  27.189  27.726  1.00  0.00     0.020 A 
ATOM     72  C   UNL A   1      40.114  25.989  28.449  1.00  0.00     0.020 A 
ATOM     73  C   UNL A   1      41.194  26.132  27.577  1.00  0.00     0.054 A 
BRANCH  73  74
ATOM     74  S   UNL A   1      41.485  24.904  26.274  1.00  0.00     0.124 S 
ATOM     75  O   UNL A   1      41.287  25.693  25.062  1.00  0.00    -0.237 OA
ATOM     76  O   UNL A   1      42.860  24.483  26.538  1.00  0.00    -0.237 OA
ATOM     77  O   UNL A   1      40.470  23.885  26.532  1.00  0.00    -0.744 OA
ENDBRANCH  73  74
ENDBRANCH  45  68
BRANCH  57  78
ATOM     78  C   UNL A   1      44.095  28.757  35.783  1.00  0.00    -0.014 A 
ATOM     79  C   UNL A   1      43.825  27.660  36.620  1.00  0.00     0.010 A 
ATOM     80  C   UNL A   1      45.432  29.126  35.548  1.00  0.00     0.010 A 
ATOM     81  C   UNL A   1      44.870  26.976  37.248  1.00  0.00     0.020 A 
ATOM     82  C   UNL A   1      46.481  28.426  36.151  1.00  0.00     0.020 A 
ATOM     83  C   UNL A   1      46.191  27.368  37.015  1.00  0.00     0.054 A 
BRANCH  83  84
ATOM     84  S   UNL A   1      47.532  26.459  37.831  1.00  0.00     0.124 S 
ATOM     85  O   UNL A   1      47.927  27.387  38.888  1.00  0.00    -0.237 OA
ATOM     86  O   UNL A   1      46.868  25.239  38.283  1.00  0.00    -0.237 OA
ATOM     87  O   UNL A   1      48.517  26.267  36.770  1.00  0.00    -0.744 OA
ENDBRANCH  83  84
ENDBRANCH  57  78
ENDBRANCH  31  32
ENDBRANCH  24  26
ENDBRANCH  23  24
ENDBRANCH  22  23
ENDBRANCH  21  22
ENDBRANCH   1  21
TORSDOF 20
ENDMDL
