MODEL 1
REMARK VINA RESULT:      -9.9      0.000      0.000
REMARK SMILES CCCC[C@@H](C(=O)OCCOCCOC(=O)c1ccc(-c2c3nc(c(-c4ccc(S(=O)(=O)[O-])cc4)c4ccc([nH]4)c(-c4ccc(S(=O)(=O)[O-])cc4)c4nc(c(-c5ccc(S(=O)(=O)[O-])cc5)c5ccc2[nH]5)C=C4)C=C3)cc1)[C@@H](O)c1cccc(C(F)(F)F)c1
REMARK SMILES IDX 11 1 10 2 9 3 8 4 6 5 7 6 5 7 4 8 3 9 2 10 1 11 77 12 78 13
REMARK SMILES IDX 79 15 80 16 88 17 81 18 83 19 82 20 84 21 85 22 86 23 87 24
REMARK SMILES IDX 12 25 13 26 14 27 15 28 16 29 17 30 18 31 76 32 19 33 75 34
REMARK SMILES IDX 20 35 21 36 22 37 69 38 23 39 74 40 68 41 70 42 24 43 73 44
REMARK SMILES IDX 67 45 66 46 25 48 55 49 36 50 54 51 37 52 40 53 53 54 71 55
REMARK SMILES IDX 38 56 39 57 52 59 72 60 41 61 26 62 27 63 35 64 28 65 34 66
REMARK SMILES IDX 29 67 30 68 31 69 32 70 33 71 56 72 57 73 65 74 58 75 64 76
REMARK SMILES IDX 59 77 60 78 61 79 62 80 63 81 42 82 43 83 51 84 44 85 50 86
REMARK SMILES IDX 45 87 46 88 47 89 48 90 49 91
REMARK H PARENT 78 14 70 47 40 58
REMARK Flexibility Score: inf
ROOT
ATOM      1  O   UNL A   1      41.623  21.786  26.185  1.00  0.00    -0.374 OA
ENDROOT
BRANCH   1   2
ATOM      2  C   UNL A   1      40.358  22.183  26.718  1.00  0.00     0.202 C 
BRANCH   2   3
ATOM      3  C   UNL A   1      39.131  21.443  26.185  1.00  0.00     0.261 C 
BRANCH   3   4
ATOM      4  O   UNL A   1      38.421  22.264  25.246  1.00  0.00    -0.463 OA
BRANCH   4   5
ATOM      5  C   UNL A   1      37.617  23.211  25.786  1.00  0.00     0.312 C 
ATOM      6  O   UNL A   1      38.041  24.148  26.453  1.00  0.00    -0.252 OA
BRANCH   5   7
ATOM      7  C   UNL A   1      36.131  22.999  25.473  1.00  0.00     0.132 C 
BRANCH   7   8
ATOM      8  C   UNL A   1      35.194  24.190  25.806  1.00  0.00     0.018 C 
BRANCH   8   9
ATOM      9  C   UNL A   1      34.389  24.805  24.655  1.00  0.00     0.001 C 
BRANCH   9  10
ATOM     10  C   UNL A   1      34.514  24.095  23.309  1.00  0.00    -0.003 C 
ATOM     11  C   UNL A   1      33.253  24.190  22.467  1.00  0.00     0.004 C 
ENDBRANCH   9  10
ENDBRANCH   8   9
ENDBRANCH   7   8
BRANCH   7  12
ATOM     12  C   UNL A   1      35.574  21.711  26.154  1.00  0.00     0.158 C 
BRANCH  12  13
ATOM     13  O   UNL A   1      34.895  22.058  27.368  1.00  0.00    -0.388 OA
ATOM     14  H   UNL A   1      34.845  23.023  27.446  1.00  0.00     0.211 HD
ENDBRANCH  12  13
BRANCH  12  15
ATOM     15  C   UNL A   1      34.585  20.905  25.342  1.00  0.00    -0.018 A 
ATOM     16  C   UNL A   1      33.271  21.362  25.165  1.00  0.00     0.006 A 
ATOM     17  C   UNL A   1      34.929  19.633  24.857  1.00  0.00     0.019 A 
ATOM     18  C   UNL A   1      32.302  20.528  24.607  1.00  0.00     0.001 A 
ATOM     19  C   UNL A   1      33.946  18.758  24.377  1.00  0.00     0.056 A 
ATOM     20  C   UNL A   1      32.629  19.222  24.244  1.00  0.00     0.013 A 
BRANCH  19  21
ATOM     21  C   UNL A   1      34.276  17.311  24.113  1.00  0.00     0.416 C 
ATOM     22  F   UNL A   1      34.381  17.034  22.782  1.00  0.00    -0.166 F 
ATOM     23  F   UNL A   1      35.468  16.941  24.661  1.00  0.00    -0.166 F 
ATOM     24  F   UNL A   1      33.356  16.434  24.605  1.00  0.00    -0.166 F 
ENDBRANCH  19  21
ENDBRANCH  12  15
ENDBRANCH   7  12
ENDBRANCH   5   7
ENDBRANCH   4   5
ENDBRANCH   3   4
ENDBRANCH   2   3
ENDBRANCH   1   2
BRANCH   1  25
ATOM     25  C   UNL A   1      42.401  22.768  25.502  1.00  0.00     0.202 C 
BRANCH  25  26
ATOM     26  C   UNL A   1      43.185  23.780  26.350  1.00  0.00     0.261 C 
BRANCH  26  27
ATOM     27  O   UNL A   1      43.246  25.092  25.764  1.00  0.00    -0.460 OA
BRANCH  27  28
ATOM     28  C   UNL A   1      42.131  25.838  25.957  1.00  0.00     0.338 C 
ATOM     29  O   UNL A   1      41.159  25.909  25.211  1.00  0.00    -0.246 OA
BRANCH  28  30
ATOM     30  C   UNL A   1      42.117  26.436  27.303  1.00  0.00     0.060 A 
ATOM     31  C   UNL A   1      41.063  26.065  28.148  1.00  0.00     0.016 A 
ATOM     32  C   UNL A   1      43.034  27.412  27.700  1.00  0.00     0.016 A 
ATOM     33  C   UNL A   1      40.881  26.716  29.363  1.00  0.00     0.010 A 
ATOM     34  C   UNL A   1      42.844  28.072  28.923  1.00  0.00     0.010 A 
ATOM     35  C   UNL A   1      41.739  27.759  29.736  1.00  0.00    -0.014 A 
BRANCH  35  36
ATOM     36  C   UNL A   1      41.352  28.605  30.893  1.00  0.00     0.031 A 
ATOM     37  C   UNL A   1      42.184  28.557  32.148  1.00  0.00     0.074 A 
ATOM     38  C   UNL A   1      40.342  29.487  30.789  1.00  0.00     0.049 A 
ATOM     39  N   UNL A   1      42.109  29.302  33.221  1.00  0.00    -0.248 NA
ATOM     40  C   UNL A   1      43.248  27.540  32.196  1.00  0.00     0.031 C 
ATOM     41  C   UNL A   1      39.485  29.656  29.616  1.00  0.00     0.029 A 
ATOM     42  N   UNL A   1      39.883  30.426  31.680  1.00  0.00    -0.354 N 
ATOM     43  C   UNL A   1      43.115  28.850  34.068  1.00  0.00     0.074 A 
ATOM     44  C   UNL A   1      43.763  27.741  33.401  1.00  0.00     0.031 C 
ATOM     45  C   UNL A   1      38.613  30.652  29.853  1.00  0.00     0.029 A 
ATOM     46  C   UNL A   1      38.839  31.179  31.198  1.00  0.00     0.049 A 
ATOM     47  H   UNL A   1      40.266  30.549  32.578  1.00  0.00     0.167 HD
ATOM     48  C   UNL A   1      43.478  29.321  35.285  1.00  0.00     0.031 A 
ATOM     49  C   UNL A   1      38.146  32.181  31.773  1.00  0.00     0.031 A 
ATOM     50  C   UNL A   1      42.825  30.414  35.957  1.00  0.00     0.049 A 
ATOM     51  C   UNL A   1      38.538  32.656  33.147  1.00  0.00     0.074 A 
ATOM     52  C   UNL A   1      43.126  30.970  37.189  1.00  0.00     0.029 A 
ATOM     53  N   UNL A   1      41.739  31.115  35.458  1.00  0.00    -0.354 N 
ATOM     54  N   UNL A   1      39.511  32.237  33.920  1.00  0.00    -0.248 NA
ATOM     55  C   UNL A   1      37.746  33.756  33.716  1.00  0.00     0.031 C 
ATOM     56  C   UNL A   1      42.188  31.974  37.457  1.00  0.00     0.029 A 
ATOM     57  C   UNL A   1      41.340  32.082  36.365  1.00  0.00     0.049 A 
ATOM     58  H   UNL A   1      41.313  30.949  34.585  1.00  0.00     0.167 HD
ATOM     59  C   UNL A   1      39.464  33.038  35.057  1.00  0.00     0.074 A 
ATOM     60  C   UNL A   1      38.379  33.978  34.861  1.00  0.00     0.031 C 
ATOM     61  C   UNL A   1      40.250  33.001  36.162  1.00  0.00     0.031 A 
BRANCH  48  62
ATOM     62  C   UNL A   1      44.619  28.630  35.983  1.00  0.00    -0.014 A 
ATOM     63  C   UNL A   1      44.397  27.533  36.835  1.00  0.00     0.010 A 
ATOM     64  C   UNL A   1      45.938  29.067  35.762  1.00  0.00     0.010 A 
ATOM     65  C   UNL A   1      45.468  26.910  37.482  1.00  0.00     0.020 A 
ATOM     66  C   UNL A   1      47.015  28.431  36.387  1.00  0.00     0.020 A 
ATOM     67  C   UNL A   1      46.770  27.366  37.257  1.00  0.00     0.054 A 
BRANCH  67  68
ATOM     68  S   UNL A   1      48.144  26.532  38.097  1.00  0.00     0.124 S 
ATOM     69  O   UNL A   1      49.021  26.194  36.978  1.00  0.00    -0.237 OA
ATOM     70  O   UNL A   1      48.647  27.567  38.997  1.00  0.00    -0.237 OA
ATOM     71  O   UNL A   1      47.510  25.394  38.755  1.00  0.00    -0.744 OA
ENDBRANCH  67  68
ENDBRANCH  48  62
BRANCH  49  72
ATOM     72  C   UNL A   1      37.010  32.809  31.045  1.00  0.00    -0.014 A 
ATOM     73  C   UNL A   1      35.680  32.489  31.368  1.00  0.00     0.010 A 
ATOM     74  C   UNL A   1      37.259  33.739  30.019  1.00  0.00     0.010 A 
ATOM     75  C   UNL A   1      34.620  33.075  30.668  1.00  0.00     0.020 A 
ATOM     76  C   UNL A   1      36.204  34.347  29.335  1.00  0.00     0.020 A 
ATOM     77  C   UNL A   1      34.890  34.002  29.656  1.00  0.00     0.054 A 
BRANCH  77  78
ATOM     78  S   UNL A   1      33.502  34.792  28.795  1.00  0.00     0.124 S 
ATOM     79  O   UNL A   1      32.546  34.991  29.880  1.00  0.00    -0.237 OA
ATOM     80  O   UNL A   1      34.113  36.005  28.258  1.00  0.00    -0.237 OA
ATOM     81  O   UNL A   1      33.117  33.802  27.792  1.00  0.00    -0.744 OA
ENDBRANCH  77  78
ENDBRANCH  49  72
BRANCH  61  82
ATOM     82  C   UNL A   1      39.979  34.027  37.232  1.00  0.00    -0.014 A 
ATOM     83  C   UNL A   1      40.684  35.243  37.275  1.00  0.00     0.010 A 
ATOM     84  C   UNL A   1      38.989  33.776  38.201  1.00  0.00     0.010 A 
ATOM     85  C   UNL A   1      40.443  36.165  38.299  1.00  0.00     0.020 A 
ATOM     86  C   UNL A   1      38.726  34.706  39.209  1.00  0.00     0.020 A 
ATOM     87  C   UNL A   1      39.472  35.885  39.264  1.00  0.00     0.054 A 
BRANCH  87  88
ATOM     88  S   UNL A   1      39.174  37.095  40.584  1.00  0.00     0.124 S 
ATOM     89  O   UNL A   1      38.635  36.254  41.649  1.00  0.00    -0.237 OA
ATOM     90  O   UNL A   1      40.508  37.640  40.828  1.00  0.00    -0.237 OA
ATOM     91  O   UNL A   1      38.225  38.031  39.986  1.00  0.00    -0.744 OA
ENDBRANCH  87  88
ENDBRANCH  61  82
ENDBRANCH  35  36
ENDBRANCH  28  30
ENDBRANCH  27  28
ENDBRANCH  26  27
ENDBRANCH  25  26
ENDBRANCH   1  25
TORSDOF 24
ENDMDL
MODEL 2
REMARK VINA RESULT:      -9.9      4.783      9.951
REMARK SMILES CCCC[C@@H](C(=O)OCCOCCOC(=O)c1ccc(-c2c3nc(c(-c4ccc(S(=O)(=O)[O-])cc4)c4ccc([nH]4)c(-c4ccc(S(=O)(=O)[O-])cc4)c4nc(c(-c5ccc(S(=O)(=O)[O-])cc5)c5ccc2[nH]5)C=C4)C=C3)cc1)[C@@H](O)c1cccc(C(F)(F)F)c1
REMARK SMILES IDX 11 1 10 2 9 3 8 4 6 5 7 6 5 7 4 8 3 9 2 10 1 11 77 12 78 13
REMARK SMILES IDX 79 15 80 16 88 17 81 18 83 19 82 20 84 21 85 22 86 23 87 24
REMARK SMILES IDX 12 25 13 26 14 27 15 28 16 29 17 30 18 31 76 32 19 33 75 34
REMARK SMILES IDX 20 35 21 36 22 37 69 38 23 39 74 40 68 41 70 42 24 43 73 44
REMARK SMILES IDX 67 45 66 46 25 48 55 49 36 50 54 51 37 52 40 53 53 54 71 55
REMARK SMILES IDX 38 56 39 57 52 59 72 60 41 61 26 62 27 63 35 64 28 65 34 66
REMARK SMILES IDX 29 67 30 68 31 69 32 70 33 71 56 72 57 73 65 74 58 75 64 76
REMARK SMILES IDX 59 77 60 78 61 79 62 80 63 81 42 82 43 83 51 84 44 85 50 86
REMARK SMILES IDX 45 87 46 88 47 89 48 90 49 91
REMARK H PARENT 78 14 70 47 40 58
REMARK Flexibility Score: inf
ROOT
ATOM      1  O   UNL A   1      32.919  29.093  24.944  1.00  0.00    -0.374 OA
ENDROOT
BRANCH   1   2
ATOM      2  C   UNL A   1      32.336  28.396  23.841  1.00  0.00     0.202 C 
BRANCH   2   3
ATOM      3  C   UNL A   1      33.253  28.112  22.651  1.00  0.00     0.261 C 
BRANCH   3   4
ATOM      4  O   UNL A   1      33.449  26.698  22.497  1.00  0.00    -0.463 OA
BRANCH   4   5
ATOM      5  C   UNL A   1      32.324  25.970  22.298  1.00  0.00     0.312 C 
ATOM      6  O   UNL A   1      31.477  26.262  21.462  1.00  0.00    -0.252 OA
BRANCH   5   7
ATOM      7  C   UNL A   1      32.223  24.743  23.212  1.00  0.00     0.132 C 
BRANCH   7   8
ATOM      8  C   UNL A   1      33.045  24.810  24.526  1.00  0.00     0.018 C 
BRANCH   8   9
ATOM      9  C   UNL A   1      32.275  25.002  25.838  1.00  0.00     0.001 C 
BRANCH   9  10
ATOM     10  C   UNL A   1      31.985  23.727  26.626  1.00  0.00    -0.003 C 
ATOM     11  C   UNL A   1      33.232  23.108  27.235  1.00  0.00     0.004 C 
ENDBRANCH   9  10
ENDBRANCH   8   9
ENDBRANCH   7   8
BRANCH   7  12
ATOM     12  C   UNL A   1      32.582  23.427  22.455  1.00  0.00     0.158 C 
BRANCH  12  13
ATOM     13  O   UNL A   1      33.289  23.739  21.248  1.00  0.00    -0.388 OA
ATOM     14  H   UNL A   1      32.656  23.860  20.524  1.00  0.00     0.211 HD
ENDBRANCH  12  13
BRANCH  12  15
ATOM     15  C   UNL A   1      33.456  22.447  23.205  1.00  0.00    -0.018 A 
ATOM     16  C   UNL A   1      32.901  21.295  23.781  1.00  0.00     0.006 A 
ATOM     17  C   UNL A   1      34.810  22.734  23.440  1.00  0.00     0.019 A 
ATOM     18  C   UNL A   1      33.654  20.506  24.651  1.00  0.00     0.001 A 
ATOM     19  C   UNL A   1      35.546  22.000  24.379  1.00  0.00     0.056 A 
ATOM     20  C   UNL A   1      34.960  20.874  24.973  1.00  0.00     0.013 A 
BRANCH  19  21
ATOM     21  C   UNL A   1      36.906  22.476  24.822  1.00  0.00     0.416 C 
ATOM     22  F   UNL A   1      37.827  21.471  24.858  1.00  0.00    -0.166 F 
ATOM     23  F   UNL A   1      37.424  23.421  23.987  1.00  0.00    -0.166 F 
ATOM     24  F   UNL A   1      36.918  23.038  26.065  1.00  0.00    -0.166 F 
ENDBRANCH  19  21
ENDBRANCH  12  15
ENDBRANCH   7  12
ENDBRANCH   5   7
ENDBRANCH   4   5
ENDBRANCH   3   4
ENDBRANCH   2   3
ENDBRANCH   1   2
BRANCH   1  25
ATOM     25  C   UNL A   1      32.043  29.713  25.883  1.00  0.00     0.202 C 
BRANCH  25  26
ATOM     26  C   UNL A   1      32.672  30.490  27.048  1.00  0.00     0.261 C 
BRANCH  26  27
ATOM     27  O   UNL A   1      33.789  29.813  27.650  1.00  0.00    -0.460 OA
BRANCH  27  28
ATOM     28  C   UNL A   1      34.688  30.641  28.237  1.00  0.00     0.338 C 
ATOM     29  O   UNL A   1      34.450  31.719  28.772  1.00  0.00    -0.246 OA
BRANCH  28  30
ATOM     30  C   UNL A   1      36.011  30.001  28.344  1.00  0.00     0.060 A 
ATOM     31  C   UNL A   1      36.356  29.466  29.591  1.00  0.00     0.016 A 
ATOM     32  C   UNL A   1      36.936  30.014  27.297  1.00  0.00     0.016 A 
ATOM     33  C   UNL A   1      37.648  29.006  29.820  1.00  0.00     0.010 A 
ATOM     34  C   UNL A   1      38.241  29.556  27.533  1.00  0.00     0.010 A 
ATOM     35  C   UNL A   1      38.614  29.094  28.809  1.00  0.00    -0.014 A 
BRANCH  35  36
ATOM     36  C   UNL A   1      40.033  28.855  29.173  1.00  0.00     0.031 A 
ATOM     37  C   UNL A   1      40.671  27.539  28.814  1.00  0.00     0.074 A 
ATOM     38  C   UNL A   1      40.777  29.838  29.713  1.00  0.00     0.049 A 
ATOM     39  N   UNL A   1      41.922  27.169  28.916  1.00  0.00    -0.248 NA
ATOM     40  C   UNL A   1      39.782  26.504  28.260  1.00  0.00     0.031 C 
ATOM     41  C   UNL A   1      40.287  31.169  30.073  1.00  0.00     0.029 A 
ATOM     42  N   UNL A   1      42.112  29.874  30.030  1.00  0.00    -0.354 N 
ATOM     43  C   UNL A   1      41.972  25.865  28.435  1.00  0.00     0.074 A 
ATOM     44  C   UNL A   1      40.621  25.494  28.077  1.00  0.00     0.031 C 
ATOM     45  C   UNL A   1      41.312  31.897  30.547  1.00  0.00     0.029 A 
ATOM     46  C   UNL A   1      42.525  31.082  30.540  1.00  0.00     0.049 A 
ATOM     47  H   UNL A   1      42.716  29.107  29.904  1.00  0.00     0.167 HD
ATOM     48  C   UNL A   1      43.047  25.053  28.289  1.00  0.00     0.031 A 
ATOM     49  C   UNL A   1      43.744  31.486  30.949  1.00  0.00     0.031 A 
ATOM     50  C   UNL A   1      44.390  25.415  28.658  1.00  0.00     0.049 A 
ATOM     51  C   UNL A   1      44.915  30.548  30.823  1.00  0.00     0.074 A 
ATOM     52  C   UNL A   1      45.547  24.663  28.542  1.00  0.00     0.029 A 
ATOM     53  N   UNL A   1      44.758  26.628  29.219  1.00  0.00    -0.354 N 
ATOM     54  N   UNL A   1      44.949  29.330  30.338  1.00  0.00    -0.248 NA
ATOM     55  C   UNL A   1      46.217  31.051  31.284  1.00  0.00     0.031 C 
ATOM     56  C   UNL A   1      46.606  25.403  29.081  1.00  0.00     0.029 A 
ATOM     57  C   UNL A   1      46.117  26.639  29.478  1.00  0.00     0.049 A 
ATOM     58  H   UNL A   1      44.141  27.372  29.407  1.00  0.00     0.167 HD
ATOM     59  C   UNL A   1      46.279  28.929  30.412  1.00  0.00     0.074 A 
ATOM     60  C   UNL A   1      47.020  30.042  30.971  1.00  0.00     0.031 C 
ATOM     61  C   UNL A   1      46.839  27.749  30.047  1.00  0.00     0.031 A 
BRANCH  48  62
ATOM     62  C   UNL A   1      42.803  23.675  27.733  1.00  0.00    -0.014 A 
ATOM     63  C   UNL A   1      42.974  23.399  26.364  1.00  0.00     0.010 A 
ATOM     64  C   UNL A   1      42.425  22.632  28.598  1.00  0.00     0.010 A 
ATOM     65  C   UNL A   1      42.735  22.116  25.865  1.00  0.00     0.020 A 
ATOM     66  C   UNL A   1      42.209  21.341  28.107  1.00  0.00     0.020 A 
ATOM     67  C   UNL A   1      42.349  21.096  26.739  1.00  0.00     0.054 A 
BRANCH  67  68
ATOM     68  S   UNL A   1      42.058  19.436  26.069  1.00  0.00     0.124 S 
ATOM     69  O   UNL A   1      42.483  18.585  27.176  1.00  0.00    -0.237 OA
ATOM     70  O   UNL A   1      40.623  19.445  25.799  1.00  0.00    -0.237 OA
ATOM     71  O   UNL A   1      42.910  19.386  24.884  1.00  0.00    -0.744 OA
ENDBRANCH  67  68
ENDBRANCH  48  62
BRANCH  49  72
ATOM     72  C   UNL A   1      43.919  32.851  31.516  1.00  0.00    -0.014 A 
ATOM     73  C   UNL A   1      43.780  33.085  32.895  1.00  0.00     0.010 A 
ATOM     74  C   UNL A   1      44.231  33.930  30.668  1.00  0.00     0.010 A 
ATOM     75  C   UNL A   1      43.934  34.374  33.414  1.00  0.00     0.020 A 
ATOM     76  C   UNL A   1      44.411  35.214  31.185  1.00  0.00     0.020 A 
ATOM     77  C   UNL A   1      44.250  35.431  32.555  1.00  0.00     0.054 A 
BRANCH  77  78
ATOM     78  S   UNL A   1      44.499  37.087  33.253  1.00  0.00     0.124 S 
ATOM     79  O   UNL A   1      43.743  37.008  34.499  1.00  0.00    -0.237 OA
ATOM     80  O   UNL A   1      45.951  37.154  33.396  1.00  0.00    -0.237 OA
ATOM     81  O   UNL A   1      43.940  37.973  32.235  1.00  0.00    -0.744 OA
ENDBRANCH  77  78
ENDBRANCH  49  72
BRANCH  61  82
ATOM     82  C   UNL A   1      48.330  27.613  30.217  1.00  0.00    -0.014 A 
ATOM     83  C   UNL A   1      49.225  28.098  29.246  1.00  0.00     0.010 A 
ATOM     84  C   UNL A   1      48.844  27.004  31.377  1.00  0.00     0.010 A 
ATOM     85  C   UNL A   1      50.603  27.928  29.406  1.00  0.00     0.020 A 
ATOM     86  C   UNL A   1      50.222  26.857  31.554  1.00  0.00     0.020 A 
ATOM     87  C   UNL A   1      51.091  27.300  30.556  1.00  0.00     0.054 A 
BRANCH  87  88
ATOM     88  S   UNL A   1      52.884  27.090  30.744  1.00  0.00     0.124 S 
ATOM     89  O   UNL A   1      53.228  26.333  29.545  1.00  0.00    -0.237 OA
ATOM     90  O   UNL A   1      53.368  28.468  30.778  1.00  0.00    -0.237 OA
ATOM     91  O   UNL A   1      53.015  26.359  32.003  1.00  0.00    -0.744 OA
ENDBRANCH  87  88
ENDBRANCH  61  82
ENDBRANCH  35  36
ENDBRANCH  28  30
ENDBRANCH  27  28
ENDBRANCH  26  27
ENDBRANCH  25  26
ENDBRANCH   1  25
TORSDOF 24
ENDMDL
MODEL 3
REMARK VINA RESULT:      -9.7      2.375      2.970
REMARK SMILES CCCC[C@@H](C(=O)OCCOCCOC(=O)c1ccc(-c2c3nc(c(-c4ccc(S(=O)(=O)[O-])cc4)c4ccc([nH]4)c(-c4ccc(S(=O)(=O)[O-])cc4)c4nc(c(-c5ccc(S(=O)(=O)[O-])cc5)c5ccc2[nH]5)C=C4)C=C3)cc1)[C@@H](O)c1cccc(C(F)(F)F)c1
REMARK SMILES IDX 11 1 10 2 9 3 8 4 6 5 7 6 5 7 4 8 3 9 2 10 1 11 77 12 78 13
REMARK SMILES IDX 79 15 80 16 88 17 81 18 83 19 82 20 84 21 85 22 86 23 87 24
REMARK SMILES IDX 12 25 13 26 14 27 15 28 16 29 17 30 18 31 76 32 19 33 75 34
REMARK SMILES IDX 20 35 21 36 22 37 69 38 23 39 74 40 68 41 70 42 24 43 73 44
REMARK SMILES IDX 67 45 66 46 25 48 55 49 36 50 54 51 37 52 40 53 53 54 71 55
REMARK SMILES IDX 38 56 39 57 52 59 72 60 41 61 26 62 27 63 35 64 28 65 34 66
REMARK SMILES IDX 29 67 30 68 31 69 32 70 33 71 56 72 57 73 65 74 58 75 64 76
REMARK SMILES IDX 59 77 60 78 61 79 62 80 63 81 42 82 43 83 51 84 44 85 50 86
REMARK SMILES IDX 45 87 46 88 47 89 48 90 49 91
REMARK H PARENT 78 14 70 47 40 58
REMARK Flexibility Score: inf
ROOT
ATOM      1  O   UNL A   1      40.103  21.866  26.845  1.00  0.00    -0.374 OA
ENDROOT
BRANCH   1   2
ATOM      2  C   UNL A   1      39.115  21.342  25.956  1.00  0.00     0.202 C 
BRANCH   2   3
ATOM      3  C   UNL A   1      37.882  22.214  25.716  1.00  0.00     0.261 C 
BRANCH   3   4
ATOM      4  O   UNL A   1      37.194  21.791  24.529  1.00  0.00    -0.463 OA
BRANCH   4   5
ATOM      5  C   UNL A   1      35.961  21.264  24.722  1.00  0.00     0.312 C 
ATOM      6  O   UNL A   1      35.773  20.088  25.010  1.00  0.00    -0.252 OA
BRANCH   5   7
ATOM      7  C   UNL A   1      34.830  22.286  24.557  1.00  0.00     0.132 C 
BRANCH   7   8
ATOM      8  C   UNL A   1      34.839  23.096  23.233  1.00  0.00     0.018 C 
BRANCH   8   9
ATOM      9  C   UNL A   1      33.530  23.177  22.440  1.00  0.00     0.001 C 
BRANCH   9  10
ATOM     10  C   UNL A   1      32.736  24.469  22.607  1.00  0.00    -0.003 C 
ATOM     11  C   UNL A   1      31.269  24.230  22.925  1.00  0.00     0.004 C 
ENDBRANCH   9  10
ENDBRANCH   8   9
ENDBRANCH   7   8
BRANCH   7  12
ATOM     12  C   UNL A   1      34.767  23.279  25.758  1.00  0.00     0.158 C 
BRANCH  12  13
ATOM     13  O   UNL A   1      35.500  24.470  25.443  1.00  0.00    -0.388 OA
ATOM     14  H   UNL A   1      35.166  25.206  25.978  1.00  0.00     0.211 HD
ENDBRANCH  12  13
BRANCH  12  15
ATOM     15  C   UNL A   1      33.385  23.740  26.167  1.00  0.00    -0.018 A 
ATOM     16  C   UNL A   1      32.374  22.806  26.430  1.00  0.00     0.006 A 
ATOM     17  C   UNL A   1      33.063  25.106  26.172  1.00  0.00     0.019 A 
ATOM     18  C   UNL A   1      31.052  23.223  26.595  1.00  0.00     0.001 A 
ATOM     19  C   UNL A   1      31.728  25.527  26.248  1.00  0.00     0.056 A 
ATOM     20  C   UNL A   1      30.726  24.573  26.473  1.00  0.00     0.013 A 
BRANCH  19  21
ATOM     21  C   UNL A   1      31.367  26.967  25.983  1.00  0.00     0.416 C 
ATOM     22  F   UNL A   1      30.971  27.622  27.111  1.00  0.00    -0.166 F 
ATOM     23  F   UNL A   1      32.416  27.684  25.490  1.00  0.00    -0.166 F 
ATOM     24  F   UNL A   1      30.355  27.128  25.084  1.00  0.00    -0.166 F 
ENDBRANCH  19  21
ENDBRANCH  12  15
ENDBRANCH   7  12
ENDBRANCH   5   7
ENDBRANCH   4   5
ENDBRANCH   3   4
ENDBRANCH   2   3
ENDBRANCH   1   2
BRANCH   1  25
ATOM     25  C   UNL A   1      41.385  22.187  26.306  1.00  0.00     0.202 C 
BRANCH  25  26
ATOM     26  C   UNL A   1      42.207  23.277  27.009  1.00  0.00     0.261 C 
BRANCH  26  27
ATOM     27  O   UNL A   1      42.661  24.313  26.120  1.00  0.00    -0.460 OA
BRANCH  27  28
ATOM     28  C   UNL A   1      41.887  25.426  26.125  1.00  0.00     0.338 C 
ATOM     29  O   UNL A   1      41.153  25.811  25.220  1.00  0.00    -0.246 OA
BRANCH  28  30
ATOM     30  C   UNL A   1      41.866  26.054  27.457  1.00  0.00     0.060 A 
ATOM     31  C   UNL A   1      40.733  25.823  28.248  1.00  0.00     0.016 A 
ATOM     32  C   UNL A   1      42.865  26.931  27.888  1.00  0.00     0.016 A 
ATOM     33  C   UNL A   1      40.560  26.520  29.439  1.00  0.00     0.010 A 
ATOM     34  C   UNL A   1      42.683  27.638  29.086  1.00  0.00     0.010 A 
ATOM     35  C   UNL A   1      41.508  27.469  29.841  1.00  0.00    -0.014 A 
BRANCH  35  36
ATOM     36  C   UNL A   1      41.156  28.381  30.959  1.00  0.00     0.031 A 
ATOM     37  C   UNL A   1      41.998  28.371  32.207  1.00  0.00     0.074 A 
ATOM     38  C   UNL A   1      40.169  29.286  30.820  1.00  0.00     0.049 A 
ATOM     39  N   UNL A   1      41.954  29.169  33.243  1.00  0.00    -0.248 NA
ATOM     40  C   UNL A   1      43.034  27.328  32.296  1.00  0.00     0.031 C 
ATOM     41  C   UNL A   1      39.306  29.422  29.647  1.00  0.00     0.029 A 
ATOM     42  N   UNL A   1      39.745  30.279  31.667  1.00  0.00    -0.354 N 
ATOM     43  C   UNL A   1      42.955  28.730  34.103  1.00  0.00     0.074 A 
ATOM     44  C   UNL A   1      43.565  27.573  33.485  1.00  0.00     0.031 C 
ATOM     45  C   UNL A   1      38.464  30.452  29.843  1.00  0.00     0.029 A 
ATOM     46  C   UNL A   1      38.717  31.037  31.158  1.00  0.00     0.049 A 
ATOM     47  H   UNL A   1      40.140  30.434  32.555  1.00  0.00     0.167 HD
ATOM     48  C   UNL A   1      43.343  29.249  35.292  1.00  0.00     0.031 A 
ATOM     49  C   UNL A   1      38.059  32.085  31.689  1.00  0.00     0.031 A 
ATOM     50  C   UNL A   1      42.728  30.392  35.916  1.00  0.00     0.049 A 
ATOM     51  C   UNL A   1      38.477  32.615  33.036  1.00  0.00     0.074 A 
ATOM     52  C   UNL A   1      43.055  30.998  37.117  1.00  0.00     0.029 A 
ATOM     53  N   UNL A   1      41.656  31.098  35.392  1.00  0.00    -0.354 N 
ATOM     54  N   UNL A   1      39.445  32.206  33.820  1.00  0.00    -0.248 NA
ATOM     55  C   UNL A   1      37.721  33.763  33.557  1.00  0.00     0.031 C 
ATOM     56  C   UNL A   1      42.148  32.040  37.343  1.00  0.00     0.029 A 
ATOM     57  C   UNL A   1      41.293  32.118  36.254  1.00  0.00     0.049 A 
ATOM     58  H   UNL A   1      41.217  30.902  34.532  1.00  0.00     0.167 HD
ATOM     59  C   UNL A   1      39.432  33.063  34.917  1.00  0.00     0.074 A 
ATOM     60  C   UNL A   1      38.371  34.022  34.684  1.00  0.00     0.031 C 
ATOM     61  C   UNL A   1      40.227  33.057  36.016  1.00  0.00     0.031 A 
BRANCH  48  62
ATOM     62  C   UNL A   1      44.472  28.561  36.014  1.00  0.00    -0.014 A 
ATOM     63  C   UNL A   1      44.227  27.516  36.923  1.00  0.00     0.010 A 
ATOM     64  C   UNL A   1      45.800  28.947  35.757  1.00  0.00     0.010 A 
ATOM     65  C   UNL A   1      45.287  26.895  37.590  1.00  0.00     0.020 A 
ATOM     66  C   UNL A   1      46.865  28.312  36.403  1.00  0.00     0.020 A 
ATOM     67  C   UNL A   1      46.599  27.300  37.330  1.00  0.00     0.054 A 
BRANCH  67  68
ATOM     68  S   UNL A   1      47.958  26.469  38.197  1.00  0.00     0.124 S 
ATOM     69  O   UNL A   1      48.574  27.576  38.923  1.00  0.00    -0.237 OA
ATOM     70  O   UNL A   1      47.259  25.489  39.024  1.00  0.00    -0.237 OA
ATOM     71  O   UNL A   1      48.765  25.906  37.119  1.00  0.00    -0.744 OA
ENDBRANCH  67  68
ENDBRANCH  48  62
BRANCH  49  72
ATOM     72  C   UNL A   1      36.933  32.709  30.942  1.00  0.00    -0.014 A 
ATOM     73  C   UNL A   1      35.602  32.337  31.197  1.00  0.00     0.010 A 
ATOM     74  C   UNL A   1      37.194  33.687  29.965  1.00  0.00     0.010 A 
ATOM     75  C   UNL A   1      34.554  32.920  30.478  1.00  0.00     0.020 A 
ATOM     76  C   UNL A   1      36.149  34.291  29.263  1.00  0.00     0.020 A 
ATOM     77  C   UNL A   1      34.834  33.895  29.516  1.00  0.00     0.054 A 
BRANCH  77  78
ATOM     78  S   UNL A   1      33.457  34.678  28.631  1.00  0.00     0.124 S 
ATOM     79  O   UNL A   1      33.032  33.615  27.727  1.00  0.00    -0.237 OA
ATOM     80  O   UNL A   1      32.530  34.999  29.713  1.00  0.00    -0.237 OA
ATOM     81  O   UNL A   1      34.079  35.835  27.992  1.00  0.00    -0.744 OA
ENDBRANCH  77  78
ENDBRANCH  49  72
BRANCH  61  82
ATOM     82  C   UNL A   1      39.995  34.141  37.037  1.00  0.00    -0.014 A 
ATOM     83  C   UNL A   1      40.554  35.423  36.884  1.00  0.00     0.010 A 
ATOM     84  C   UNL A   1      39.190  33.876  38.161  1.00  0.00     0.010 A 
ATOM     85  C   UNL A   1      40.357  36.402  37.862  1.00  0.00     0.020 A 
ATOM     86  C   UNL A   1      38.968  34.861  39.126  1.00  0.00     0.020 A 
ATOM     87  C   UNL A   1      39.572  36.110  38.981  1.00  0.00     0.054 A 
BRANCH  87  88
ATOM     88  S   UNL A   1      39.329  37.396  40.239  1.00  0.00     0.124 S 
ATOM     89  O   UNL A   1      38.731  36.638  41.334  1.00  0.00    -0.237 OA
ATOM     90  O   UNL A   1      40.688  37.877  40.476  1.00  0.00    -0.237 OA
ATOM     91  O   UNL A   1      38.441  38.355  39.585  1.00  0.00    -0.744 OA
ENDBRANCH  87  88
ENDBRANCH  61  82
ENDBRANCH  35  36
ENDBRANCH  28  30
ENDBRANCH  27  28
ENDBRANCH  26  27
ENDBRANCH  25  26
ENDBRANCH   1  25
TORSDOF 24
ENDMDL
