MODEL 1
REMARK VINA RESULT:     -10.2      0.000      0.000
REMARK SMILES COc1ccc2c(c1)C=C(C(=O)OCCOCCOC(=O)c1ccc(-c3c4nc(c(-c5ccc(S(=O)(=O)[O-])cc5)c5ccc([nH]5)c(-c5ccc(S(=O)(=O)[O-])cc5)c5nc(c(-c6ccc(S(=O)(=O)[O-])cc6)c6ccc3[nH]6)C=C5)C=C4)cc1)[C@H](C(F)(F)F)O2
REMARK SMILES IDX 17 1 16 2 15 3 14 4 13 5 11 6 12 7 10 8 3 9 4 10 8 11 5 12
REMARK SMILES IDX 7 13 6 14 9 15 87 16 82 17 2 18 1 19 83 20 84 21 85 22 86 23
REMARK SMILES IDX 18 24 19 25 20 26 21 27 22 28 23 29 81 30 24 31 80 32 25 33
REMARK SMILES IDX 26 34 27 35 74 36 28 37 79 38 73 39 75 40 29 41 78 42 72 43
REMARK SMILES IDX 71 44 30 46 60 47 41 48 59 49 42 50 45 51 58 52 76 53 43 54
REMARK SMILES IDX 44 55 57 57 77 58 46 59 31 60 32 61 40 62 33 63 39 64 34 65
REMARK SMILES IDX 35 66 36 67 37 68 38 69 61 70 62 71 70 72 63 73 69 74 64 75
REMARK SMILES IDX 65 76 66 77 67 78 68 79 47 80 48 81 56 82 49 83 55 84 50 85
REMARK SMILES IDX 51 86 52 87 53 88 54 89
REMARK H PARENT 75 45 45 56
REMARK Flexibility Score: inf
ROOT
ATOM      1  C   UNL A   1      31.734  29.173  25.737  1.00  0.00     0.202 C 
ENDROOT
BRANCH   1   2
ATOM      2  O   UNL A   1      31.020  29.383  24.521  1.00  0.00    -0.374 OA
BRANCH   2   3
ATOM      3  C   UNL A   1      30.893  28.294  23.610  1.00  0.00     0.202 C 
BRANCH   3   4
ATOM      4  C   UNL A   1      29.976  27.131  24.004  1.00  0.00     0.261 C 
BRANCH   4   5
ATOM      5  O   UNL A   1      30.692  25.892  24.122  1.00  0.00    -0.460 OA
BRANCH   5   6
ATOM      6  C   UNL A   1      30.847  25.447  25.391  1.00  0.00     0.338 C 
ATOM      7  O   UNL A   1      30.230  25.824  26.374  1.00  0.00    -0.246 OA
BRANCH   6   8
ATOM      8  C   UNL A   1      31.795  24.320  25.438  1.00  0.00     0.087 C 
ATOM      9  C   UNL A   1      33.081  19.732  24.740  1.00  0.00     0.119 A 
ATOM     10  C   UNL A   1      34.403  20.142  24.551  1.00  0.00     0.050 A 
ATOM     11  C   UNL A   1      32.081  20.680  24.984  1.00  0.00     0.058 A 
ATOM     12  C   UNL A   1      34.734  21.494  24.654  1.00  0.00     0.051 A 
ATOM     13  C   UNL A   1      32.405  22.035  25.079  1.00  0.00     0.021 A 
ATOM     14  C   UNL A   1      33.743  22.427  24.937  1.00  0.00     0.128 A 
ATOM     15  C   UNL A   1      31.375  23.068  25.188  1.00  0.00     0.027 C 
ATOM     16  O   UNL A   1      34.135  23.740  24.989  1.00  0.00    -0.475 OA
ATOM     17  C   UNL A   1      33.248  24.588  25.765  1.00  0.00     0.316 C 
BRANCH   9  18
ATOM     18  O   UNL A   1      32.653  18.436  24.625  1.00  0.00    -0.497 OA
ATOM     19  C   UNL A   1      32.566  17.720  25.852  1.00  0.00     0.278 C 
ENDBRANCH   9  18
BRANCH  17  20
ATOM     20  C   UNL A   1      33.775  26.032  25.700  1.00  0.00     0.430 C 
ATOM     21  F   UNL A   1      33.259  26.792  26.695  1.00  0.00    -0.167 F 
ATOM     22  F   UNL A   1      35.123  26.039  25.896  1.00  0.00    -0.167 F 
ATOM     23  F   UNL A   1      33.552  26.636  24.518  1.00  0.00    -0.167 F 
ENDBRANCH  17  20
ENDBRANCH   6   8
ENDBRANCH   5   6
ENDBRANCH   4   5
ENDBRANCH   3   4
ENDBRANCH   2   3
ENDBRANCH   1   2
BRANCH   1  24
ATOM     24  C   UNL A   1      32.451  30.362  26.388  1.00  0.00     0.261 C 
BRANCH  24  25
ATOM     25  O   UNL A   1      33.260  29.995  27.517  1.00  0.00    -0.460 OA
BRANCH  25  26
ATOM     26  C   UNL A   1      34.221  30.900  27.834  1.00  0.00     0.338 C 
ATOM     27  O   UNL A   1      34.066  32.091  28.058  1.00  0.00    -0.246 OA
BRANCH  26  28
ATOM     28  C   UNL A   1      35.503  30.212  28.066  1.00  0.00     0.060 A 
ATOM     29  C   UNL A   1      35.781  29.773  29.366  1.00  0.00     0.016 A 
ATOM     30  C   UNL A   1      36.449  30.077  27.049  1.00  0.00     0.016 A 
ATOM     31  C   UNL A   1      37.028  29.229  29.666  1.00  0.00     0.010 A 
ATOM     32  C   UNL A   1      37.704  29.541  27.355  1.00  0.00     0.010 A 
ATOM     33  C   UNL A   1      38.010  29.145  28.670  1.00  0.00    -0.014 A 
BRANCH  33  34
ATOM     34  C   UNL A   1      39.399  28.776  29.037  1.00  0.00     0.031 A 
ATOM     35  C   UNL A   1      40.246  29.774  29.781  1.00  0.00     0.074 A 
ATOM     36  C   UNL A   1      39.886  27.556  28.744  1.00  0.00     0.049 A 
ATOM     37  N   UNL A   1      41.496  29.682  30.156  1.00  0.00    -0.248 NA
ATOM     38  C   UNL A   1      39.598  31.043  30.153  1.00  0.00     0.031 C 
ATOM     39  C   UNL A   1      39.143  26.484  28.080  1.00  0.00     0.029 A 
ATOM     40  N   UNL A   1      41.127  27.015  28.968  1.00  0.00    -0.354 N 
ATOM     41  C   UNL A   1      41.783  30.876  30.808  1.00  0.00     0.074 A 
ATOM     42  C   UNL A   1      40.591  31.693  30.743  1.00  0.00     0.031 C 
ATOM     43  C   UNL A   1      39.946  25.414  27.950  1.00  0.00     0.029 A 
ATOM     44  C   UNL A   1      41.268  25.736  28.482  1.00  0.00     0.049 A 
ATOM     45  H   UNL A   1      41.849  27.496  29.434  1.00  0.00     0.167 HD
ATOM     46  C   UNL A   1      42.932  31.253  31.418  1.00  0.00     0.031 A 
ATOM     47  C   UNL A   1      42.347  24.930  28.451  1.00  0.00     0.031 A 
ATOM     48  C   UNL A   1      44.121  30.444  31.468  1.00  0.00     0.049 A 
ATOM     49  C   UNL A   1      43.646  25.419  29.042  1.00  0.00     0.074 A 
ATOM     50  C   UNL A   1      45.342  30.742  32.048  1.00  0.00     0.029 A 
ATOM     51  N   UNL A   1      44.238  29.176  30.920  1.00  0.00    -0.354 N 
ATOM     52  N   UNL A   1      43.902  26.551  29.655  1.00  0.00    -0.248 NA
ATOM     53  C   UNL A   1      44.801  24.515  28.942  1.00  0.00     0.031 C 
ATOM     54  C   UNL A   1      46.214  29.677  31.804  1.00  0.00     0.029 A 
ATOM     55  C   UNL A   1      45.516  28.687  31.132  1.00  0.00     0.049 A 
ATOM     56  H   UNL A   1      43.520  28.694  30.449  1.00  0.00     0.167 HD
ATOM     57  C   UNL A   1      45.235  26.475  30.048  1.00  0.00     0.074 A 
ATOM     58  C   UNL A   1      45.727  25.183  29.617  1.00  0.00     0.031 C 
ATOM     59  C   UNL A   1      45.985  27.391  30.709  1.00  0.00     0.031 A 
BRANCH  46  60
ATOM     60  C   UNL A   1      42.964  32.608  32.075  1.00  0.00    -0.014 A 
ATOM     61  C   UNL A   1      42.687  32.754  33.447  1.00  0.00     0.010 A 
ATOM     62  C   UNL A   1      43.333  33.742  31.328  1.00  0.00     0.010 A 
ATOM     63  C   UNL A   1      42.756  34.010  34.054  1.00  0.00     0.020 A 
ATOM     64  C   UNL A   1      43.431  34.996  31.937  1.00  0.00     0.020 A 
ATOM     65  C   UNL A   1      43.130  35.124  33.295  1.00  0.00     0.054 A 
BRANCH  65  66
ATOM     66  S   UNL A   1      43.254  36.733  34.120  1.00  0.00     0.124 S 
ATOM     67  O   UNL A   1      41.954  36.835  34.779  1.00  0.00    -0.237 OA
ATOM     68  O   UNL A   1      44.397  36.548  35.011  1.00  0.00    -0.237 OA
ATOM     69  O   UNL A   1      43.470  37.672  33.022  1.00  0.00    -0.744 OA
ENDBRANCH  65  66
ENDBRANCH  46  60
BRANCH  47  70
ATOM     70  C   UNL A   1      42.268  23.584  27.818  1.00  0.00    -0.014 A 
ATOM     71  C   UNL A   1      41.893  22.457  28.569  1.00  0.00     0.010 A 
ATOM     72  C   UNL A   1      42.621  23.414  26.465  1.00  0.00     0.010 A 
ATOM     73  C   UNL A   1      41.913  21.182  27.995  1.00  0.00     0.020 A 
ATOM     74  C   UNL A   1      42.609  22.146  25.879  1.00  0.00     0.020 A 
ATOM     75  C   UNL A   1      42.276  21.035  26.654  1.00  0.00     0.054 A 
BRANCH  75  76
ATOM     76  S   UNL A   1      42.294  19.372  25.929  1.00  0.00     0.124 S 
ATOM     77  O   UNL A   1      42.805  18.566  27.033  1.00  0.00    -0.237 OA
ATOM     78  O   UNL A   1      40.889  19.162  25.587  1.00  0.00    -0.237 OA
ATOM     79  O   UNL A   1      43.192  19.509  24.784  1.00  0.00    -0.744 OA
ENDBRANCH  75  76
ENDBRANCH  47  70
BRANCH  59  80
ATOM     80  C   UNL A   1      47.401  27.010  31.060  1.00  0.00    -0.014 A 
ATOM     81  C   UNL A   1      48.476  27.310  30.203  1.00  0.00     0.010 A 
ATOM     82  C   UNL A   1      47.663  26.387  32.294  1.00  0.00     0.010 A 
ATOM     83  C   UNL A   1      49.781  26.960  30.560  1.00  0.00     0.020 A 
ATOM     84  C   UNL A   1      48.969  26.065  32.668  1.00  0.00     0.020 A 
ATOM     85  C   UNL A   1      50.020  26.341  31.792  1.00  0.00     0.054 A 
BRANCH  85  86
ATOM     86  S   UNL A   1      51.728  25.938  32.249  1.00  0.00     0.124 S 
ATOM     87  O   UNL A   1      52.136  27.131  32.986  1.00  0.00    -0.237 OA
ATOM     88  O   UNL A   1      51.567  24.729  33.052  1.00  0.00    -0.237 OA
ATOM     89  O   UNL A   1      52.395  25.741  30.963  1.00  0.00    -0.744 OA
ENDBRANCH  85  86
ENDBRANCH  59  80
ENDBRANCH  33  34
ENDBRANCH  26  28
ENDBRANCH  25  26
ENDBRANCH  24  25
ENDBRANCH   1  24
TORSDOF 19
ENDMDL
MODEL 2
REMARK VINA RESULT:     -10.0      3.484      4.361
REMARK SMILES COc1ccc2c(c1)C=C(C(=O)OCCOCCOC(=O)c1ccc(-c3c4nc(c(-c5ccc(S(=O)(=O)[O-])cc5)c5ccc([nH]5)c(-c5ccc(S(=O)(=O)[O-])cc5)c5nc(c(-c6ccc(S(=O)(=O)[O-])cc6)c6ccc3[nH]6)C=C5)C=C4)cc1)[C@H](C(F)(F)F)O2
REMARK SMILES IDX 17 1 16 2 15 3 14 4 13 5 11 6 12 7 10 8 3 9 4 10 8 11 5 12
REMARK SMILES IDX 7 13 6 14 9 15 87 16 82 17 2 18 1 19 83 20 84 21 85 22 86 23
REMARK SMILES IDX 18 24 19 25 20 26 21 27 22 28 23 29 81 30 24 31 80 32 25 33
REMARK SMILES IDX 26 34 27 35 74 36 28 37 79 38 73 39 75 40 29 41 78 42 72 43
REMARK SMILES IDX 71 44 30 46 60 47 41 48 59 49 42 50 45 51 58 52 76 53 43 54
REMARK SMILES IDX 44 55 57 57 77 58 46 59 31 60 32 61 40 62 33 63 39 64 34 65
REMARK SMILES IDX 35 66 36 67 37 68 38 69 61 70 62 71 70 72 63 73 69 74 64 75
REMARK SMILES IDX 65 76 66 77 67 78 68 79 47 80 48 81 56 82 49 83 55 84 50 85
REMARK SMILES IDX 51 86 52 87 53 88 54 89
REMARK H PARENT 75 45 45 56
REMARK Flexibility Score: inf
ROOT
ATOM      1  C   UNL A   1      34.390  29.175  27.270  1.00  0.00     0.202 C 
ENDROOT
BRANCH   1   2
ATOM      2  O   UNL A   1      33.951  29.178  25.914  1.00  0.00    -0.374 OA
BRANCH   2   3
ATOM      3  C   UNL A   1      32.636  29.646  25.627  1.00  0.00     0.202 C 
BRANCH   3   4
ATOM      4  C   UNL A   1      31.651  28.668  24.978  1.00  0.00     0.261 C 
BRANCH   4   5
ATOM      5  O   UNL A   1      32.314  27.698  24.153  1.00  0.00    -0.460 OA
BRANCH   5   6
ATOM      6  C   UNL A   1      32.174  26.415  24.565  1.00  0.00     0.338 C 
ATOM      7  O   UNL A   1      31.166  25.907  25.028  1.00  0.00    -0.246 OA
BRANCH   6   8
ATOM      8  C   UNL A   1      33.385  25.634  24.263  1.00  0.00     0.087 C 
ATOM      9  C   UNL A   1      37.214  22.971  25.468  1.00  0.00     0.119 A 
ATOM     10  C   UNL A   1      37.126  22.309  24.242  1.00  0.00     0.050 A 
ATOM     11  C   UNL A   1      36.278  23.958  25.801  1.00  0.00     0.058 A 
ATOM     12  C   UNL A   1      36.134  22.665  23.327  1.00  0.00     0.051 A 
ATOM     13  C   UNL A   1      35.278  24.313  24.892  1.00  0.00     0.021 A 
ATOM     14  C   UNL A   1      35.232  23.675  23.645  1.00  0.00     0.128 A 
ATOM     15  C   UNL A   1      34.199  25.232  25.255  1.00  0.00     0.027 C 
ATOM     16  O   UNL A   1      34.265  23.948  22.714  1.00  0.00    -0.475 OA
ATOM     17  C   UNL A   1      33.700  25.282  22.826  1.00  0.00     0.316 C 
BRANCH   9  18
ATOM     18  O   UNL A   1      38.127  22.669  26.443  1.00  0.00    -0.497 OA
ATOM     19  C   UNL A   1      39.292  21.991  25.987  1.00  0.00     0.278 C 
ENDBRANCH   9  18
BRANCH  17  20
ATOM     20  C   UNL A   1      32.602  25.436  21.760  1.00  0.00     0.430 C 
ATOM     21  F   UNL A   1      32.458  26.729  21.382  1.00  0.00    -0.167 F 
ATOM     22  F   UNL A   1      32.958  24.763  20.630  1.00  0.00    -0.167 F 
ATOM     23  F   UNL A   1      31.406  24.948  22.140  1.00  0.00    -0.167 F 
ENDBRANCH  17  20
ENDBRANCH   6   8
ENDBRANCH   5   6
ENDBRANCH   4   5
ENDBRANCH   3   4
ENDBRANCH   2   3
ENDBRANCH   1   2
BRANCH   1  24
ATOM     24  C   UNL A   1      34.912  30.482  27.881  1.00  0.00     0.261 C 
BRANCH  24  25
ATOM     25  O   UNL A   1      35.636  30.292  29.107  1.00  0.00    -0.460 OA
BRANCH  25  26
ATOM     26  C   UNL A   1      36.716  31.102  29.250  1.00  0.00     0.338 C 
ATOM     27  O   UNL A   1      36.726  32.250  29.669  1.00  0.00    -0.246 OA
BRANCH  26  28
ATOM     28  C   UNL A   1      37.951  30.340  29.000  1.00  0.00     0.060 A 
ATOM     29  C   UNL A   1      38.861  30.207  30.057  1.00  0.00     0.016 A 
ATOM     30  C   UNL A   1      38.254  29.841  27.732  1.00  0.00     0.016 A 
ATOM     31  C   UNL A   1      40.098  29.606  29.840  1.00  0.00     0.010 A 
ATOM     32  C   UNL A   1      39.501  29.247  27.515  1.00  0.00     0.010 A 
ATOM     33  C   UNL A   1      40.440  29.155  28.558  1.00  0.00    -0.014 A 
BRANCH  33  34
ATOM     34  C   UNL A   1      41.831  28.721  28.279  1.00  0.00     0.031 A 
ATOM     35  C   UNL A   1      42.933  29.746  28.297  1.00  0.00     0.074 A 
ATOM     36  C   UNL A   1      42.112  27.425  28.048  1.00  0.00     0.049 A 
ATOM     37  N   UNL A   1      44.206  29.598  28.034  1.00  0.00    -0.248 NA
ATOM     38  C   UNL A   1      42.550  31.121  28.663  1.00  0.00     0.031 C 
ATOM     39  C   UNL A   1      41.140  26.331  28.062  1.00  0.00     0.029 A 
ATOM     40  N   UNL A   1      43.303  26.811  27.754  1.00  0.00    -0.354 N 
ATOM     41  C   UNL A   1      44.775  30.856  28.203  1.00  0.00     0.074 A 
ATOM     42  C   UNL A   1      43.704  31.763  28.552  1.00  0.00     0.031 C 
ATOM     43  C   UNL A   1      41.776  25.180  27.787  1.00  0.00     0.029 A 
ATOM     44  C   UNL A   1      43.188  25.458  27.537  1.00  0.00     0.049 A 
ATOM     45  H   UNL A   1      44.160  27.294  27.703  1.00  0.00     0.167 HD
ATOM     46  C   UNL A   1      46.075  31.219  28.092  1.00  0.00     0.031 A 
ATOM     47  C   UNL A   1      44.113  24.554  27.158  1.00  0.00     0.031 A 
ATOM     48  C   UNL A   1      47.136  30.316  27.730  1.00  0.00     0.049 A 
ATOM     49  C   UNL A   1      45.535  25.009  26.935  1.00  0.00     0.074 A 
ATOM     50  C   UNL A   1      48.483  30.590  27.574  1.00  0.00     0.029 A 
ATOM     51  N   UNL A   1      46.970  28.965  27.470  1.00  0.00    -0.354 N 
ATOM     52  N   UNL A   1      46.058  26.201  27.099  1.00  0.00    -0.248 NA
ATOM     53  C   UNL A   1      46.492  23.990  26.481  1.00  0.00     0.031 C 
ATOM     54  C   UNL A   1      49.124  29.415  27.168  1.00  0.00     0.029 A 
ATOM     55  C   UNL A   1      48.187  28.395  27.136  1.00  0.00     0.049 A 
ATOM     56  H   UNL A   1      46.114  28.481  27.514  1.00  0.00     0.167 HD
ATOM     57  C   UNL A   1      47.411  26.064  26.808  1.00  0.00     0.074 A 
ATOM     58  C   UNL A   1      47.629  24.672  26.472  1.00  0.00     0.031 C 
ATOM     59  C   UNL A   1      48.389  27.004  26.820  1.00  0.00     0.031 A 
BRANCH  46  60
ATOM     60  C   UNL A   1      46.424  32.660  28.354  1.00  0.00    -0.014 A 
ATOM     61  C   UNL A   1      46.891  33.073  29.616  1.00  0.00     0.010 A 
ATOM     62  C   UNL A   1      46.342  33.603  27.314  1.00  0.00     0.010 A 
ATOM     63  C   UNL A   1      47.247  34.405  29.838  1.00  0.00     0.020 A 
ATOM     64  C   UNL A   1      46.725  34.931  27.523  1.00  0.00     0.020 A 
ATOM     65  C   UNL A   1      47.164  35.326  28.788  1.00  0.00     0.054 A 
BRANCH  65  66
ATOM     66  S   UNL A   1      47.676  37.039  29.095  1.00  0.00     0.124 S 
ATOM     67  O   UNL A   1      46.427  37.768  28.891  1.00  0.00    -0.237 OA
ATOM     68  O   UNL A   1      48.154  36.986  30.474  1.00  0.00    -0.237 OA
ATOM     69  O   UNL A   1      48.708  37.279  28.090  1.00  0.00    -0.744 OA
ENDBRANCH  65  66
ENDBRANCH  46  60
BRANCH  47  70
ATOM     70  C   UNL A   1      43.735  23.131  26.936  1.00  0.00    -0.014 A 
ATOM     71  C   UNL A   1      43.964  22.512  25.695  1.00  0.00     0.010 A 
ATOM     72  C   UNL A   1      43.094  22.400  27.954  1.00  0.00     0.010 A 
ATOM     73  C   UNL A   1      43.522  21.207  25.460  1.00  0.00     0.020 A 
ATOM     74  C   UNL A   1      42.681  21.084  27.734  1.00  0.00     0.020 A 
ATOM     75  C   UNL A   1      42.878  20.503  26.481  1.00  0.00     0.054 A 
BRANCH  75  76
ATOM     76  S   UNL A   1      42.312  18.809  26.156  1.00  0.00     0.124 S 
ATOM     77  O   UNL A   1      43.238  18.376  25.115  1.00  0.00    -0.237 OA
ATOM     78  O   UNL A   1      42.476  18.167  27.459  1.00  0.00    -0.237 OA
ATOM     79  O   UNL A   1      40.926  18.989  25.729  1.00  0.00    -0.744 OA
ENDBRANCH  75  76
ENDBRANCH  47  70
BRANCH  59  80
ATOM     80  C   UNL A   1      49.795  26.552  26.515  1.00  0.00    -0.014 A 
ATOM     81  C   UNL A   1      50.634  26.037  27.519  1.00  0.00     0.010 A 
ATOM     82  C   UNL A   1      50.262  26.597  25.188  1.00  0.00     0.010 A 
ATOM     83  C   UNL A   1      51.928  25.608  27.206  1.00  0.00     0.020 A 
ATOM     84  C   UNL A   1      51.542  26.140  24.867  1.00  0.00     0.020 A 
ATOM     85  C   UNL A   1      52.373  25.662  25.881  1.00  0.00     0.054 A 
BRANCH  85  86
ATOM     86  S   UNL A   1      54.040  25.060  25.496  1.00  0.00     0.124 S 
ATOM     87  O   UNL A   1      54.294  25.679  24.197  1.00  0.00    -0.237 OA
ATOM     88  O   UNL A   1      54.833  25.582  26.606  1.00  0.00    -0.237 OA
ATOM     89  O   UNL A   1      53.888  23.607  25.475  1.00  0.00    -0.744 OA
ENDBRANCH  85  86
ENDBRANCH  59  80
ENDBRANCH  33  34
ENDBRANCH  26  28
ENDBRANCH  25  26
ENDBRANCH  24  25
ENDBRANCH   1  24
TORSDOF 19
ENDMDL
MODEL 3
REMARK VINA RESULT:      -9.9      3.229      9.518
REMARK SMILES COc1ccc2c(c1)C=C(C(=O)OCCOCCOC(=O)c1ccc(-c3c4nc(c(-c5ccc(S(=O)(=O)[O-])cc5)c5ccc([nH]5)c(-c5ccc(S(=O)(=O)[O-])cc5)c5nc(c(-c6ccc(S(=O)(=O)[O-])cc6)c6ccc3[nH]6)C=C5)C=C4)cc1)[C@H](C(F)(F)F)O2
REMARK SMILES IDX 17 1 16 2 15 3 14 4 13 5 11 6 12 7 10 8 3 9 4 10 8 11 5 12
REMARK SMILES IDX 7 13 6 14 9 15 87 16 82 17 2 18 1 19 83 20 84 21 85 22 86 23
REMARK SMILES IDX 18 24 19 25 20 26 21 27 22 28 23 29 81 30 24 31 80 32 25 33
REMARK SMILES IDX 26 34 27 35 74 36 28 37 79 38 73 39 75 40 29 41 78 42 72 43
REMARK SMILES IDX 71 44 30 46 60 47 41 48 59 49 42 50 45 51 58 52 76 53 43 54
REMARK SMILES IDX 44 55 57 57 77 58 46 59 31 60 32 61 40 62 33 63 39 64 34 65
REMARK SMILES IDX 35 66 36 67 37 68 38 69 61 70 62 71 70 72 63 73 69 74 64 75
REMARK SMILES IDX 65 76 66 77 67 78 68 79 47 80 48 81 56 82 49 83 55 84 50 85
REMARK SMILES IDX 51 86 52 87 53 88 54 89
REMARK H PARENT 75 45 45 56
REMARK Flexibility Score: inf
ROOT
ATOM      1  C   UNL A   1      36.123  21.509  25.279  1.00  0.00     0.202 C 
ENDROOT
BRANCH   1   2
ATOM      2  O   UNL A   1      35.682  22.574  26.116  1.00  0.00    -0.374 OA
BRANCH   2   3
ATOM      3  C   UNL A   1      35.305  23.806  25.507  1.00  0.00     0.202 C 
BRANCH   3   4
ATOM      4  C   UNL A   1      34.925  23.787  24.023  1.00  0.00     0.261 C 
BRANCH   4   5
ATOM      5  O   UNL A   1      33.631  24.361  23.786  1.00  0.00    -0.460 OA
BRANCH   5   6
ATOM      6  C   UNL A   1      33.649  25.567  23.172  1.00  0.00     0.338 C 
ATOM      7  O   UNL A   1      33.979  25.790  22.018  1.00  0.00    -0.246 OA
BRANCH   6   8
ATOM      8  C   UNL A   1      33.085  26.609  24.047  1.00  0.00     0.087 C 
ATOM      9  C   UNL A   1      33.405  30.367  27.042  1.00  0.00     0.119 A 
ATOM     10  C   UNL A   1      32.158  30.812  26.600  1.00  0.00     0.050 A 
ATOM     11  C   UNL A   1      33.972  29.210  26.493  1.00  0.00     0.058 A 
ATOM     12  C   UNL A   1      31.453  30.077  25.646  1.00  0.00     0.051 A 
ATOM     13  C   UNL A   1      33.275  28.476  25.531  1.00  0.00     0.021 A 
ATOM     14  C   UNL A   1      32.003  28.906  25.133  1.00  0.00     0.128 A 
ATOM     15  C   UNL A   1      33.890  27.348  24.830  1.00  0.00     0.027 C 
ATOM     16  O   UNL A   1      31.271  28.255  24.175  1.00  0.00    -0.475 OA
ATOM     17  C   UNL A   1      31.590  26.843  24.050  1.00  0.00     0.316 C 
BRANCH   9  18
ATOM     18  O   UNL A   1      34.185  31.036  27.947  1.00  0.00    -0.497 OA
ATOM     19  C   UNL A   1      35.543  30.613  28.000  1.00  0.00     0.278 C 
ENDBRANCH   9  18
BRANCH  17  20
ATOM     20  C   UNL A   1      30.738  26.251  22.914  1.00  0.00     0.430 C 
ATOM     21  F   UNL A   1      30.779  24.897  22.920  1.00  0.00    -0.167 F 
ATOM     22  F   UNL A   1      29.429  26.577  23.102  1.00  0.00    -0.167 F 
ATOM     23  F   UNL A   1      31.078  26.701  21.692  1.00  0.00    -0.167 F 
ENDBRANCH  17  20
ENDBRANCH   6   8
ENDBRANCH   5   6
ENDBRANCH   4   5
ENDBRANCH   3   4
ENDBRANCH   2   3
ENDBRANCH   1   2
BRANCH   1  24
ATOM     24  C   UNL A   1      37.603  21.107  25.313  1.00  0.00     0.261 C 
BRANCH  24  25
ATOM     25  O   UNL A   1      38.495  22.221  25.480  1.00  0.00    -0.460 OA
BRANCH  25  26
ATOM     26  C   UNL A   1      39.486  22.013  26.385  1.00  0.00     0.338 C 
ATOM     27  O   UNL A   1      40.091  20.971  26.588  1.00  0.00    -0.246 OA
BRANCH  26  28
ATOM     28  C   UNL A   1      39.887  23.293  26.994  1.00  0.00     0.060 A 
ATOM     29  C   UNL A   1      39.327  24.466  26.473  1.00  0.00     0.016 A 
ATOM     30  C   UNL A   1      40.857  23.349  27.995  1.00  0.00     0.016 A 
ATOM     31  C   UNL A   1      39.764  25.708  26.927  1.00  0.00     0.010 A 
ATOM     32  C   UNL A   1      41.302  24.598  28.442  1.00  0.00     0.010 A 
ATOM     33  C   UNL A   1      40.781  25.781  27.888  1.00  0.00    -0.014 A 
BRANCH  33  34
ATOM     34  C   UNL A   1      41.399  27.092  28.207  1.00  0.00     0.031 A 
ATOM     35  C   UNL A   1      42.883  27.263  28.022  1.00  0.00     0.074 A 
ATOM     36  C   UNL A   1      40.642  28.125  28.620  1.00  0.00     0.049 A 
ATOM     37  N   UNL A   1      43.636  28.300  28.285  1.00  0.00    -0.248 NA
ATOM     38  C   UNL A   1      43.616  26.113  27.466  1.00  0.00     0.031 C 
ATOM     39  C   UNL A   1      39.188  28.100  28.780  1.00  0.00     0.029 A 
ATOM     40  N   UNL A   1      40.997  29.400  28.982  1.00  0.00    -0.354 N 
ATOM     41  C   UNL A   1      44.927  27.930  27.925  1.00  0.00     0.074 A 
ATOM     42  C   UNL A   1      44.864  26.561  27.464  1.00  0.00     0.031 C 
ATOM     43  C   UNL A   1      38.776  29.304  29.211  1.00  0.00     0.029 A 
ATOM     44  C   UNL A   1      39.937  30.172  29.396  1.00  0.00     0.049 A 
ATOM     45  H   UNL A   1      41.923  29.731  28.949  1.00  0.00     0.167 HD
ATOM     46  C   UNL A   1      46.061  28.669  27.962  1.00  0.00     0.031 A 
ATOM     47  C   UNL A   1      39.911  31.426  29.888  1.00  0.00     0.031 A 
ATOM     48  C   UNL A   1      46.123  30.027  28.436  1.00  0.00     0.049 A 
ATOM     49  C   UNL A   1      41.206  32.189  30.021  1.00  0.00     0.074 A 
ATOM     50  C   UNL A   1      47.227  30.856  28.530  1.00  0.00     0.029 A 
ATOM     51  N   UNL A   1      45.036  30.756  28.893  1.00  0.00    -0.354 N 
ATOM     52  N   UNL A   1      42.420  31.825  29.678  1.00  0.00    -0.248 NA
ATOM     53  C   UNL A   1      41.125  33.536  30.605  1.00  0.00     0.031 C 
ATOM     54  C   UNL A   1      46.817  32.068  29.094  1.00  0.00     0.029 A 
ATOM     55  C   UNL A   1      45.446  32.017  29.288  1.00  0.00     0.049 A 
ATOM     56  H   UNL A   1      44.110  30.425  28.933  1.00  0.00     0.167 HD
ATOM     57  C   UNL A   1      43.236  32.914  29.965  1.00  0.00     0.074 A 
ATOM     58  C   UNL A   1      42.379  33.953  30.497  1.00  0.00     0.031 C 
ATOM     59  C   UNL A   1      44.576  33.046  29.801  1.00  0.00     0.031 A 
BRANCH  46  60
ATOM     60  C   UNL A   1      47.335  28.022  27.487  1.00  0.00    -0.014 A 
ATOM     61  C   UNL A   1      47.752  28.142  26.149  1.00  0.00     0.010 A 
ATOM     62  C   UNL A   1      48.157  27.335  28.400  1.00  0.00     0.010 A 
ATOM     63  C   UNL A   1      48.954  27.568  25.727  1.00  0.00     0.020 A 
ATOM     64  C   UNL A   1      49.374  26.784  27.989  1.00  0.00     0.020 A 
ATOM     65  C   UNL A   1      49.759  26.895  26.651  1.00  0.00     0.054 A 
BRANCH  65  66
ATOM     66  S   UNL A   1      51.335  26.199  26.083  1.00  0.00     0.124 S 
ATOM     67  O   UNL A   1      52.304  27.068  26.747  1.00  0.00    -0.237 OA
ATOM     68  O   UNL A   1      51.276  24.828  26.582  1.00  0.00    -0.237 OA
ATOM     69  O   UNL A   1      51.271  26.334  24.630  1.00  0.00    -0.744 OA
ENDBRANCH  65  66
ENDBRANCH  46  60
BRANCH  47  70
ATOM     70  C   UNL A   1      38.627  32.044  30.322  1.00  0.00    -0.014 A 
ATOM     71  C   UNL A   1      38.049  31.707  31.558  1.00  0.00     0.010 A 
ATOM     72  C   UNL A   1      37.947  32.937  29.472  1.00  0.00     0.010 A 
ATOM     73  C   UNL A   1      36.797  32.216  31.919  1.00  0.00     0.020 A 
ATOM     74  C   UNL A   1      36.712  33.474  29.844  1.00  0.00     0.020 A 
ATOM     75  C   UNL A   1      36.135  33.093  31.056  1.00  0.00     0.054 A 
BRANCH  75  76
ATOM     76  S   UNL A   1      34.512  33.742  31.543  1.00  0.00     0.124 S 
ATOM     77  O   UNL A   1      34.029  32.702  32.446  1.00  0.00    -0.237 OA
ATOM     78  O   UNL A   1      34.858  35.016  32.170  1.00  0.00    -0.237 OA
ATOM     79  O   UNL A   1      33.795  33.855  30.275  1.00  0.00    -0.744 OA
ENDBRANCH  75  76
ENDBRANCH  47  70
BRANCH  59  80
ATOM     80  C   UNL A   1      45.194  34.377  30.147  1.00  0.00    -0.014 A 
ATOM     81  C   UNL A   1      45.658  34.657  31.444  1.00  0.00     0.010 A 
ATOM     82  C   UNL A   1      45.357  35.345  29.138  1.00  0.00     0.010 A 
ATOM     83  C   UNL A   1      46.242  35.894  31.734  1.00  0.00     0.020 A 
ATOM     84  C   UNL A   1      45.968  36.569  29.416  1.00  0.00     0.020 A 
ATOM     85  C   UNL A   1      46.394  36.842  30.717  1.00  0.00     0.054 A 
BRANCH  85  86
ATOM     86  S   UNL A   1      47.194  38.421  31.110  1.00  0.00     0.124 S 
ATOM     87  O   UNL A   1      47.746  38.161  32.437  1.00  0.00    -0.237 OA
ATOM     88  O   UNL A   1      48.176  38.558  30.038  1.00  0.00    -0.237 OA
ATOM     89  O   UNL A   1      46.097  39.386  31.070  1.00  0.00    -0.744 OA
ENDBRANCH  85  86
ENDBRANCH  59  80
ENDBRANCH  33  34
ENDBRANCH  26  28
ENDBRANCH  25  26
ENDBRANCH  24  25
ENDBRANCH   1  24
TORSDOF 19
ENDMDL
