MODEL 1
REMARK VINA RESULT:     -11.8      0.000      0.000
REMARK SMILES CCc1nc2sc(C(=O)NCC(=O)OCCOCCOC(=O)c3ccc(-c4c5nc(c(-c6ccc(S(=O)(=O)[O-])cc6)c6ccc([nH]6)c(-c6ccc(S(=O)(=O)[O-])cc6)c6nc(c(-c7ccc(S(=O)(=O)[O-])cc7)c7ccc4[nH]7)C=C6)C=C5)cc3)c(N)c2c(C(F)(F)F)c1C
REMARK SMILES IDX 17 1 16 2 15 3 14 4 12 5 13 6 11 7 10 8 8 9 9 10 7 12 3 13
REMARK SMILES IDX 4 14 91 15 5 16 86 17 92 18 6 19 85 20 83 21 2 22 1 23 87 24
REMARK SMILES IDX 88 25 89 26 90 27 84 28 18 31 19 32 20 33 21 34 22 35 23 36
REMARK SMILES IDX 24 37 82 38 25 39 81 40 26 41 27 42 28 43 75 44 29 45 80 46
REMARK SMILES IDX 74 47 76 48 30 49 79 50 73 51 72 52 31 54 61 55 42 56 60 57
REMARK SMILES IDX 43 58 46 59 59 60 77 61 44 62 45 63 58 65 78 66 47 67 32 68
REMARK SMILES IDX 33 69 41 70 34 71 40 72 35 73 36 74 37 75 38 76 39 77 62 78
REMARK SMILES IDX 63 79 71 80 64 81 70 82 65 83 66 84 67 85 68 86 69 87 48 88
REMARK SMILES IDX 49 89 57 90 50 91 56 92 51 93 52 94 53 95 54 96 55 97
REMARK H PARENT 10 11 84 29 84 30 76 53 46 64
REMARK Flexibility Score: inf
ROOT
ATOM      1  O   UNL A   1      35.273  21.419  25.897  1.00  0.00    -0.374 OA
ENDROOT
BRANCH   1   2
ATOM      2  C   UNL A   1      34.007  20.923  26.324  1.00  0.00     0.202 C 
BRANCH   2   3
ATOM      3  C   UNL A   1      33.319  19.831  25.501  1.00  0.00     0.261 C 
BRANCH   3   4
ATOM      4  O   UNL A   1      32.093  20.284  24.899  1.00  0.00    -0.462 OA
BRANCH   4   5
ATOM      5  C   UNL A   1      32.218  20.809  23.651  1.00  0.00     0.325 C 
ATOM      6  O   UNL A   1      32.185  20.148  22.616  1.00  0.00    -0.250 OA
BRANCH   5   7
ATOM      7  C   UNL A   1      32.203  22.342  23.648  1.00  0.00     0.239 C 
BRANCH   7   8
ATOM      8  N   UNL A   1      32.500  23.024  22.407  1.00  0.00    -0.340 N 
ATOM      9  C   UNL A   1      32.883  24.319  22.148  1.00  0.00     0.264 C 
ATOM     10  O   UNL A   1      33.300  24.477  20.994  1.00  0.00    -0.268 OA
ATOM     11  H   UNL A   1      32.413  22.460  21.605  1.00  0.00     0.164 HD
BRANCH   9  12
ATOM     12  C   UNL A   1      32.783  25.418  23.113  1.00  0.00     0.118 A 
ATOM     13  C   UNL A   1      33.550  28.686  26.473  1.00  0.00     0.045 A 
ATOM     14  N   UNL A   1      34.037  27.491  26.054  1.00  0.00    -0.242 NA
ATOM     15  C   UNL A   1      32.437  29.307  25.874  1.00  0.00    -0.017 A 
ATOM     16  C   UNL A   1      33.430  26.915  25.010  1.00  0.00     0.127 A 
ATOM     17  C   UNL A   1      31.837  28.685  24.736  1.00  0.00     0.073 A 
ATOM     18  C   UNL A   1      31.829  30.607  26.322  1.00  0.00     0.047 C 
ATOM     19  S   UNL A   1      33.968  25.429  24.389  1.00  0.00    -0.108 S 
ATOM     20  C   UNL A   1      32.357  27.426  24.322  1.00  0.00     0.048 A 
ATOM     21  C   UNL A   1      31.969  26.524  23.277  1.00  0.00     0.066 A 
BRANCH  13  22
ATOM     22  C   UNL A   1      34.402  29.186  27.620  1.00  0.00     0.053 C 
ATOM     23  C   UNL A   1      35.458  30.263  27.474  1.00  0.00     0.011 C 
ENDBRANCH  13  22
BRANCH  17  24
ATOM     24  C   UNL A   1      30.696  29.299  23.946  1.00  0.00     0.417 C 
ATOM     25  F   UNL A   1      31.032  29.520  22.637  1.00  0.00    -0.166 F 
ATOM     26  F   UNL A   1      29.594  28.491  23.914  1.00  0.00    -0.166 F 
ATOM     27  F   UNL A   1      30.230  30.504  24.374  1.00  0.00    -0.166 F 
ENDBRANCH  17  24
BRANCH  21  28
ATOM     28  N   UNL A   1      30.890  26.829  22.539  1.00  0.00    -0.397 N 
ATOM     29  H   UNL A   1      31.002  27.191  21.630  1.00  0.00     0.156 HD
ATOM     30  H   UNL A   1      29.987  26.692  22.906  1.00  0.00     0.156 HD
ENDBRANCH  21  28
ENDBRANCH   9  12
ENDBRANCH   7   8
ENDBRANCH   5   7
ENDBRANCH   4   5
ENDBRANCH   3   4
ENDBRANCH   2   3
ENDBRANCH   1   2
BRANCH   1  31
ATOM     31  C   UNL A   1      36.123  20.642  25.071  1.00  0.00     0.202 C 
BRANCH  31  32
ATOM     32  C   UNL A   1      37.636  20.860  25.071  1.00  0.00     0.261 C 
BRANCH  32  33
ATOM     33  O   UNL A   1      38.088  22.135  25.512  1.00  0.00    -0.460 OA
BRANCH  33  34
ATOM     34  C   UNL A   1      39.270  22.047  26.175  1.00  0.00     0.338 C 
ATOM     35  O   UNL A   1      39.994  21.069  26.219  1.00  0.00    -0.246 OA
BRANCH  34  36
ATOM     36  C   UNL A   1      39.485  23.237  27.012  1.00  0.00     0.060 A 
ATOM     37  C   UNL A   1      38.561  24.269  26.850  1.00  0.00     0.016 A 
ATOM     38  C   UNL A   1      40.669  23.428  27.742  1.00  0.00     0.016 A 
ATOM     39  C   UNL A   1      38.898  25.535  27.279  1.00  0.00     0.010 A 
ATOM     40  C   UNL A   1      41.001  24.701  28.180  1.00  0.00     0.010 A 
ATOM     41  C   UNL A   1      40.143  25.757  27.888  1.00  0.00    -0.014 A 
BRANCH  41  42
ATOM     42  C   UNL A   1      40.413  27.106  28.360  1.00  0.00     0.031 A 
ATOM     43  C   UNL A   1      41.679  27.642  27.815  1.00  0.00     0.074 A 
ATOM     44  C   UNL A   1      39.638  27.826  29.194  1.00  0.00     0.049 A 
ATOM     45  N   UNL A   1      42.807  27.707  28.441  1.00  0.00    -0.248 NA
ATOM     46  C   UNL A   1      41.765  27.931  26.378  1.00  0.00     0.031 C 
ATOM     47  C   UNL A   1      38.286  27.540  29.670  1.00  0.00     0.029 A 
ATOM     48  N   UNL A   1      39.903  29.043  29.751  1.00  0.00    -0.354 N 
ATOM     49  C   UNL A   1      43.697  28.279  27.547  1.00  0.00     0.074 A 
ATOM     50  C   UNL A   1      43.063  28.218  26.251  1.00  0.00     0.031 C 
ATOM     51  C   UNL A   1      37.769  28.654  30.247  1.00  0.00     0.029 A 
ATOM     52  C   UNL A   1      38.801  29.677  30.314  1.00  0.00     0.049 A 
ATOM     53  H   UNL A   1      40.804  29.440  29.755  1.00  0.00     0.167 HD
ATOM     54  C   UNL A   1      44.753  29.008  27.994  1.00  0.00     0.031 A 
ATOM     55  C   UNL A   1      38.741  30.956  30.773  1.00  0.00     0.031 A 
ATOM     56  C   UNL A   1      45.021  28.767  29.390  1.00  0.00     0.049 A 
ATOM     57  C   UNL A   1      40.128  31.349  31.126  1.00  0.00     0.074 A 
ATOM     58  C   UNL A   1      45.306  27.646  30.147  1.00  0.00     0.029 A 
ATOM     59  N   UNL A   1      44.609  29.732  30.281  1.00  0.00    -0.354 N 
ATOM     60  N   UNL A   1      40.790  30.811  32.113  1.00  0.00    -0.248 NA
ATOM     61  C   UNL A   1      40.937  31.995  30.105  1.00  0.00     0.031 C 
ATOM     62  C   UNL A   1      44.602  27.841  31.370  1.00  0.00     0.029 A 
ATOM     63  C   UNL A   1      43.992  29.095  31.323  1.00  0.00     0.049 A 
ATOM     64  H   UNL A   1      44.735  30.704  30.185  1.00  0.00     0.167 HD
ATOM     65  C   UNL A   1      42.077  30.651  31.621  1.00  0.00     0.074 A 
ATOM     66  C   UNL A   1      42.128  31.471  30.411  1.00  0.00     0.031 C 
ATOM     67  C   UNL A   1      42.894  29.657  32.080  1.00  0.00     0.031 A 
BRANCH  54  68
ATOM     68  C   UNL A   1      45.214  30.266  27.304  1.00  0.00    -0.014 A 
ATOM     69  C   UNL A   1      46.588  30.417  27.032  1.00  0.00     0.010 A 
ATOM     70  C   UNL A   1      44.405  31.418  27.206  1.00  0.00     0.010 A 
ATOM     71  C   UNL A   1      47.134  31.676  26.760  1.00  0.00     0.020 A 
ATOM     72  C   UNL A   1      44.934  32.668  26.890  1.00  0.00     0.020 A 
ATOM     73  C   UNL A   1      46.303  32.794  26.704  1.00  0.00     0.054 A 
BRANCH  73  74
ATOM     74  S   UNL A   1      47.034  34.426  26.447  1.00  0.00     0.124 S 
ATOM     75  O   UNL A   1      46.978  34.554  24.995  1.00  0.00    -0.237 OA
ATOM     76  O   UNL A   1      46.124  35.288  27.198  1.00  0.00    -0.237 OA
ATOM     77  O   UNL A   1      48.372  34.294  27.016  1.00  0.00    -0.744 OA
ENDBRANCH  73  74
ENDBRANCH  54  68
BRANCH  55  78
ATOM     78  C   UNL A   1      37.645  31.950  30.598  1.00  0.00    -0.014 A 
ATOM     79  C   UNL A   1      37.826  33.107  29.810  1.00  0.00     0.010 A 
ATOM     80  C   UNL A   1      36.324  31.621  30.961  1.00  0.00     0.010 A 
ATOM     81  C   UNL A   1      36.726  33.856  29.345  1.00  0.00     0.020 A 
ATOM     82  C   UNL A   1      35.225  32.366  30.510  1.00  0.00     0.020 A 
ATOM     83  C   UNL A   1      35.429  33.465  29.681  1.00  0.00     0.054 A 
BRANCH  83  84
ATOM     84  S   UNL A   1      34.007  34.326  28.939  1.00  0.00     0.124 S 
ATOM     85  O   UNL A   1      33.273  34.790  30.112  1.00  0.00    -0.237 OA
ATOM     86  O   UNL A   1      34.647  35.370  28.142  1.00  0.00    -0.237 OA
ATOM     87  O   UNL A   1      33.337  33.283  28.163  1.00  0.00    -0.744 OA
ENDBRANCH  83  84
ENDBRANCH  55  78
BRANCH  67  88
ATOM     88  C   UNL A   1      42.528  28.918  33.344  1.00  0.00    -0.014 A 
ATOM     89  C   UNL A   1      41.554  27.902  33.411  1.00  0.00     0.010 A 
ATOM     90  C   UNL A   1      43.368  29.118  34.455  1.00  0.00     0.010 A 
ATOM     91  C   UNL A   1      41.439  27.101  34.560  1.00  0.00     0.020 A 
ATOM     92  C   UNL A   1      43.270  28.314  35.591  1.00  0.00     0.020 A 
ATOM     93  C   UNL A   1      42.309  27.306  35.638  1.00  0.00     0.054 A 
BRANCH  93  94
ATOM     94  S   UNL A   1      42.230  26.202  37.078  1.00  0.00     0.124 S 
ATOM     95  O   UNL A   1      40.832  26.308  37.486  1.00  0.00    -0.237 OA
ATOM     96  O   UNL A   1      42.627  24.912  36.519  1.00  0.00    -0.237 OA
ATOM     97  O   UNL A   1      43.193  26.783  38.015  1.00  0.00    -0.744 OA
ENDBRANCH  93  94
ENDBRANCH  67  88
ENDBRANCH  41  42
ENDBRANCH  34  36
ENDBRANCH  33  34
ENDBRANCH  32  33
ENDBRANCH  31  32
ENDBRANCH   1  31
TORSDOF 22
ENDMDL
MODEL 2
REMARK VINA RESULT:     -11.6      2.229      3.386
REMARK SMILES CCc1nc2sc(C(=O)NCC(=O)OCCOCCOC(=O)c3ccc(-c4c5nc(c(-c6ccc(S(=O)(=O)[O-])cc6)c6ccc([nH]6)c(-c6ccc(S(=O)(=O)[O-])cc6)c6nc(c(-c7ccc(S(=O)(=O)[O-])cc7)c7ccc4[nH]7)C=C6)C=C5)cc3)c(N)c2c(C(F)(F)F)c1C
REMARK SMILES IDX 17 1 16 2 15 3 14 4 12 5 13 6 11 7 10 8 8 9 9 10 7 12 3 13
REMARK SMILES IDX 4 14 91 15 5 16 86 17 92 18 6 19 85 20 83 21 2 22 1 23 87 24
REMARK SMILES IDX 88 25 89 26 90 27 84 28 18 31 19 32 20 33 21 34 22 35 23 36
REMARK SMILES IDX 24 37 82 38 25 39 81 40 26 41 27 42 28 43 75 44 29 45 80 46
REMARK SMILES IDX 74 47 76 48 30 49 79 50 73 51 72 52 31 54 61 55 42 56 60 57
REMARK SMILES IDX 43 58 46 59 59 60 77 61 44 62 45 63 58 65 78 66 47 67 32 68
REMARK SMILES IDX 33 69 41 70 34 71 40 72 35 73 36 74 37 75 38 76 39 77 62 78
REMARK SMILES IDX 63 79 71 80 64 81 70 82 65 83 66 84 67 85 68 86 69 87 48 88
REMARK SMILES IDX 49 89 57 90 50 91 56 92 51 93 52 94 53 95 54 96 55 97
REMARK H PARENT 10 11 84 29 84 30 76 53 46 64
REMARK Flexibility Score: inf
ROOT
ATOM      1  O   UNL A   1      35.233  22.411  24.535  1.00  0.00    -0.374 OA
ENDROOT
BRANCH   1   2
ATOM      2  C   UNL A   1      34.063  22.252  23.740  1.00  0.00     0.202 C 
BRANCH   2   3
ATOM      3  C   UNL A   1      33.448  23.482  23.064  1.00  0.00     0.261 C 
BRANCH   3   4
ATOM      4  O   UNL A   1      33.544  24.664  23.878  1.00  0.00    -0.462 OA
BRANCH   4   5
ATOM      5  C   UNL A   1      33.616  25.836  23.192  1.00  0.00     0.325 C 
ATOM      6  O   UNL A   1      33.837  25.920  21.985  1.00  0.00    -0.250 OA
BRANCH   5   7
ATOM      7  C   UNL A   1      33.191  27.044  24.034  1.00  0.00     0.239 C 
BRANCH   7   8
ATOM      8  N   UNL A   1      32.344  26.811  25.183  1.00  0.00    -0.340 N 
ATOM      9  C   UNL A   1      32.027  27.607  26.258  1.00  0.00     0.264 C 
ATOM     10  O   UNL A   1      31.070  27.175  26.913  1.00  0.00    -0.268 OA
ATOM     11  H   UNL A   1      31.918  25.923  25.198  1.00  0.00     0.164 HD
BRANCH   9  12
ATOM     12  C   UNL A   1      32.755  28.824  26.628  1.00  0.00     0.118 A 
ATOM     13  C   UNL A   1      34.065  33.133  28.137  1.00  0.00     0.045 A 
ATOM     14  N   UNL A   1      32.961  32.474  27.704  1.00  0.00    -0.242 NA
ATOM     15  C   UNL A   1      35.338  32.532  28.193  1.00  0.00    -0.017 A 
ATOM     16  C   UNL A   1      33.113  31.193  27.348  1.00  0.00     0.127 A 
ATOM     17  C   UNL A   1      35.458  31.152  27.843  1.00  0.00     0.073 A 
ATOM     18  C   UNL A   1      36.601  33.225  28.623  1.00  0.00     0.047 C 
ATOM     19  S   UNL A   1      31.796  30.266  26.810  1.00  0.00    -0.108 S 
ATOM     20  C   UNL A   1      34.289  30.484  27.380  1.00  0.00     0.048 A 
ATOM     21  C   UNL A   1      34.070  29.147  26.910  1.00  0.00     0.066 A 
BRANCH  13  22
ATOM     22  C   UNL A   1      33.669  34.537  28.538  1.00  0.00     0.053 C 
ATOM     23  C   UNL A   1      34.446  35.776  28.138  1.00  0.00     0.011 C 
ENDBRANCH  13  22
BRANCH  17  24
ATOM     24  C   UNL A   1      36.753  30.367  27.952  1.00  0.00     0.417 C 
ATOM     25  F   UNL A   1      37.768  31.114  28.485  1.00  0.00    -0.166 F 
ATOM     26  F   UNL A   1      36.629  29.275  28.765  1.00  0.00    -0.166 F 
ATOM     27  F   UNL A   1      37.275  29.878  26.794  1.00  0.00    -0.166 F 
ENDBRANCH  17  24
BRANCH  21  28
ATOM     28  N   UNL A   1      35.126  28.325  26.808  1.00  0.00    -0.397 N 
ATOM     29  H   UNL A   1      35.621  28.264  25.959  1.00  0.00     0.156 HD
ATOM     30  H   UNL A   1      35.405  27.784  27.581  1.00  0.00     0.156 HD
ENDBRANCH  21  28
ENDBRANCH   9  12
ENDBRANCH   7   8
ENDBRANCH   5   7
ENDBRANCH   4   5
ENDBRANCH   3   4
ENDBRANCH   2   3
ENDBRANCH   1   2
BRANCH   1  31
ATOM     31  C   UNL A   1      36.184  21.366  24.657  1.00  0.00     0.202 C 
BRANCH  31  32
ATOM     32  C   UNL A   1      37.673  21.669  24.812  1.00  0.00     0.261 C 
BRANCH  32  33
ATOM     33  O   UNL A   1      38.191  21.618  26.136  1.00  0.00    -0.460 OA
BRANCH  33  34
ATOM     34  C   UNL A   1      39.512  21.933  26.172  1.00  0.00     0.338 C 
ATOM     35  O   UNL A   1      40.416  21.280  25.685  1.00  0.00    -0.246 OA
BRANCH  34  36
ATOM     36  C   UNL A   1      39.746  23.085  27.056  1.00  0.00     0.060 A 
ATOM     37  C   UNL A   1      38.860  24.153  26.910  1.00  0.00     0.016 A 
ATOM     38  C   UNL A   1      40.918  23.210  27.818  1.00  0.00     0.016 A 
ATOM     39  C   UNL A   1      39.229  25.392  27.391  1.00  0.00     0.010 A 
ATOM     40  C   UNL A   1      41.281  24.455  28.310  1.00  0.00     0.010 A 
ATOM     41  C   UNL A   1      40.466  25.550  28.036  1.00  0.00    -0.014 A 
BRANCH  41  42
ATOM     42  C   UNL A   1      40.769  26.871  28.562  1.00  0.00     0.031 A 
ATOM     43  C   UNL A   1      41.917  27.495  27.869  1.00  0.00     0.074 A 
ATOM     44  C   UNL A   1      40.116  27.499  29.560  1.00  0.00     0.049 A 
ATOM     45  N   UNL A   1      43.128  27.560  28.313  1.00  0.00    -0.248 NA
ATOM     46  C   UNL A   1      41.765  27.889  26.462  1.00  0.00     0.031 C 
ATOM     47  C   UNL A   1      38.866  27.125  30.218  1.00  0.00     0.029 A 
ATOM     48  N   UNL A   1      40.433  28.682  30.159  1.00  0.00    -0.354 N 
ATOM     49  C   UNL A   1      43.848  28.230  27.337  1.00  0.00     0.074 A 
ATOM     50  C   UNL A   1      43.018  28.236  26.156  1.00  0.00     0.031 C 
ATOM     51  C   UNL A   1      38.416  28.174  30.952  1.00  0.00     0.029 A 
ATOM     52  C   UNL A   1      39.416  29.230  30.935  1.00  0.00     0.049 A 
ATOM     53  H   UNL A   1      41.311  29.114  30.053  1.00  0.00     0.167 HD
ATOM     54  C   UNL A   1      44.941  28.967  27.669  1.00  0.00     0.031 A 
ATOM     55  C   UNL A   1      39.394  30.470  31.495  1.00  0.00     0.031 A 
ATOM     56  C   UNL A   1      45.433  28.637  28.983  1.00  0.00     0.049 A 
ATOM     57  C   UNL A   1      40.807  30.892  31.655  1.00  0.00     0.074 A 
ATOM     58  C   UNL A   1      45.867  27.479  29.597  1.00  0.00     0.029 A 
ATOM     59  N   UNL A   1      45.141  29.519  29.998  1.00  0.00    -0.354 N 
ATOM     60  N   UNL A   1      41.633  30.312  32.482  1.00  0.00    -0.248 NA
ATOM     61  C   UNL A   1      41.426  31.640  30.572  1.00  0.00     0.031 C 
ATOM     62  C   UNL A   1      45.361  27.557  30.927  1.00  0.00     0.029 A 
ATOM     63  C   UNL A   1      44.716  28.786  31.072  1.00  0.00     0.049 A 
ATOM     64  H   UNL A   1      45.223  30.500  29.959  1.00  0.00     0.167 HD
ATOM     65  C   UNL A   1      42.830  30.239  31.785  1.00  0.00     0.074 A 
ATOM     66  C   UNL A   1      42.664  31.144  30.648  1.00  0.00     0.031 C 
ATOM     67  C   UNL A   1      43.736  29.248  32.032  1.00  0.00     0.031 A 
BRANCH  54  68
ATOM     68  C   UNL A   1      45.250  30.288  27.013  1.00  0.00    -0.014 A 
ATOM     69  C   UNL A   1      46.600  30.631  26.800  1.00  0.00     0.010 A 
ATOM     70  C   UNL A   1      44.295  31.319  26.895  1.00  0.00     0.010 A 
ATOM     71  C   UNL A   1      46.977  31.958  26.566  1.00  0.00     0.020 A 
ATOM     72  C   UNL A   1      44.657  32.635  26.617  1.00  0.00     0.020 A 
ATOM     73  C   UNL A   1      46.002  32.952  26.489  1.00  0.00     0.054 A 
BRANCH  73  74
ATOM     74  S   UNL A   1      46.510  34.673  26.282  1.00  0.00     0.124 S 
ATOM     75  O   UNL A   1      47.379  34.591  25.113  1.00  0.00    -0.237 OA
ATOM     76  O   UNL A   1      45.229  35.346  26.077  1.00  0.00    -0.237 OA
ATOM     77  O   UNL A   1      47.178  34.986  27.543  1.00  0.00    -0.744 OA
ENDBRANCH  73  74
ENDBRANCH  54  68
BRANCH  55  78
ATOM     78  C   UNL A   1      38.256  31.429  31.570  1.00  0.00    -0.014 A 
ATOM     79  C   UNL A   1      36.924  30.975  31.684  1.00  0.00     0.010 A 
ATOM     80  C   UNL A   1      38.494  32.794  31.827  1.00  0.00     0.010 A 
ATOM     81  C   UNL A   1      35.891  31.835  32.109  1.00  0.00     0.020 A 
ATOM     82  C   UNL A   1      37.470  33.658  32.243  1.00  0.00     0.020 A 
ATOM     83  C   UNL A   1      36.178  33.168  32.408  1.00  0.00     0.054 A 
BRANCH  83  84
ATOM     84  S   UNL A   1      34.884  34.230  33.124  1.00  0.00     0.124 S 
ATOM     85  O   UNL A   1      34.593  33.562  34.389  1.00  0.00    -0.237 OA
ATOM     86  O   UNL A   1      35.555  35.522  33.232  1.00  0.00    -0.237 OA
ATOM     87  O   UNL A   1      33.807  34.176  32.136  1.00  0.00    -0.744 OA
ENDBRANCH  83  84
ENDBRANCH  55  78
BRANCH  67  88
ATOM     88  C   UNL A   1      43.597  28.407  33.278  1.00  0.00    -0.014 A 
ATOM     89  C   UNL A   1      44.399  28.558  34.426  1.00  0.00     0.010 A 
ATOM     90  C   UNL A   1      42.460  27.582  33.355  1.00  0.00     0.010 A 
ATOM     91  C   UNL A   1      44.057  27.906  35.624  1.00  0.00     0.020 A 
ATOM     92  C   UNL A   1      42.106  26.947  34.546  1.00  0.00     0.020 A 
ATOM     93  C   UNL A   1      42.904  27.115  35.677  1.00  0.00     0.054 A 
BRANCH  93  94
ATOM     94  S   UNL A   1      42.404  26.360  37.252  1.00  0.00     0.124 S 
ATOM     95  O   UNL A   1      41.036  26.844  37.418  1.00  0.00    -0.237 OA
ATOM     96  O   UNL A   1      42.537  24.930  36.982  1.00  0.00    -0.237 OA
ATOM     97  O   UNL A   1      43.368  26.891  38.215  1.00  0.00    -0.744 OA
ENDBRANCH  93  94
ENDBRANCH  67  88
ENDBRANCH  41  42
ENDBRANCH  34  36
ENDBRANCH  33  34
ENDBRANCH  32  33
ENDBRANCH  31  32
ENDBRANCH   1  31
TORSDOF 22
ENDMDL
MODEL 3
REMARK VINA RESULT:     -11.3      1.438      2.055
REMARK SMILES CCc1nc2sc(C(=O)NCC(=O)OCCOCCOC(=O)c3ccc(-c4c5nc(c(-c6ccc(S(=O)(=O)[O-])cc6)c6ccc([nH]6)c(-c6ccc(S(=O)(=O)[O-])cc6)c6nc(c(-c7ccc(S(=O)(=O)[O-])cc7)c7ccc4[nH]7)C=C6)C=C5)cc3)c(N)c2c(C(F)(F)F)c1C
REMARK SMILES IDX 17 1 16 2 15 3 14 4 12 5 13 6 11 7 10 8 8 9 9 10 7 12 3 13
REMARK SMILES IDX 4 14 91 15 5 16 86 17 92 18 6 19 85 20 83 21 2 22 1 23 87 24
REMARK SMILES IDX 88 25 89 26 90 27 84 28 18 31 19 32 20 33 21 34 22 35 23 36
REMARK SMILES IDX 24 37 82 38 25 39 81 40 26 41 27 42 28 43 75 44 29 45 80 46
REMARK SMILES IDX 74 47 76 48 30 49 79 50 73 51 72 52 31 54 61 55 42 56 60 57
REMARK SMILES IDX 43 58 46 59 59 60 77 61 44 62 45 63 58 65 78 66 47 67 32 68
REMARK SMILES IDX 33 69 41 70 34 71 40 72 35 73 36 74 37 75 38 76 39 77 62 78
REMARK SMILES IDX 63 79 71 80 64 81 70 82 65 83 66 84 67 85 68 86 69 87 48 88
REMARK SMILES IDX 49 89 57 90 50 91 56 92 51 93 52 94 53 95 54 96 55 97
REMARK H PARENT 10 11 84 29 84 30 76 53 46 64
REMARK Flexibility Score: inf
ROOT
ATOM      1  O   UNL A   1      37.363  21.497  24.474  1.00  0.00    -0.374 OA
ENDROOT
BRANCH   1   2
ATOM      2  C   UNL A   1      36.073  21.809  24.990  1.00  0.00     0.202 C 
BRANCH   2   3
ATOM      3  C   UNL A   1      35.062  22.524  24.089  1.00  0.00     0.261 C 
BRANCH   3   4
ATOM      4  O   UNL A   1      33.724  22.479  24.616  1.00  0.00    -0.462 OA
BRANCH   4   5
ATOM      5  C   UNL A   1      32.777  22.021  23.754  1.00  0.00     0.325 C 
ATOM      6  O   UNL A   1      32.549  20.832  23.543  1.00  0.00    -0.250 OA
BRANCH   5   7
ATOM      7  C   UNL A   1      31.875  23.138  23.217  1.00  0.00     0.239 C 
BRANCH   7   8
ATOM      8  N   UNL A   1      32.288  23.830  22.016  1.00  0.00    -0.340 N 
ATOM      9  C   UNL A   1      32.718  25.120  21.810  1.00  0.00     0.264 C 
ATOM     10  O   UNL A   1      33.233  25.285  20.697  1.00  0.00    -0.268 OA
ATOM     11  H   UNL A   1      32.257  23.280  21.201  1.00  0.00     0.164 HD
BRANCH   9  12
ATOM     12  C   UNL A   1      32.561  26.208  22.780  1.00  0.00     0.118 A 
ATOM     13  C   UNL A   1      33.182  29.561  26.085  1.00  0.00     0.045 A 
ATOM     14  N   UNL A   1      33.769  28.424  25.635  1.00  0.00    -0.242 NA
ATOM     15  C   UNL A   1      31.971  30.053  25.561  1.00  0.00    -0.017 A 
ATOM     16  C   UNL A   1      33.162  27.779  24.632  1.00  0.00     0.127 A 
ATOM     17  C   UNL A   1      31.370  29.362  24.464  1.00  0.00     0.073 A 
ATOM     18  C   UNL A   1      31.255  31.281  26.049  1.00  0.00     0.047 C 
ATOM     19  S   UNL A   1      33.818  26.356  23.976  1.00  0.00    -0.108 S 
ATOM     20  C   UNL A   1      31.997  28.165  24.016  1.00  0.00     0.048 A 
ATOM     21  C   UNL A   1      31.643  27.219  22.997  1.00  0.00     0.066 A 
BRANCH  13  22
ATOM     22  C   UNL A   1      34.047  30.159  27.174  1.00  0.00     0.053 C 
ATOM     23  C   UNL A   1      35.170  29.409  27.862  1.00  0.00     0.011 C 
ENDBRANCH  13  22
BRANCH  17  24
ATOM     24  C   UNL A   1      30.120  29.842  23.750  1.00  0.00     0.417 C 
ATOM     25  F   UNL A   1      29.663  31.032  24.251  1.00  0.00    -0.166 F 
ATOM     26  F   UNL A   1      30.334  30.059  22.418  1.00  0.00    -0.166 F 
ATOM     27  F   UNL A   1      29.032  29.025  23.797  1.00  0.00    -0.166 F 
ENDBRANCH  17  24
BRANCH  21  28
ATOM     28  N   UNL A   1      30.492  27.399  22.332  1.00  0.00    -0.397 N 
ATOM     29  H   UNL A   1      29.860  28.097  22.622  1.00  0.00     0.156 HD
ATOM     30  H   UNL A   1      30.278  26.834  21.555  1.00  0.00     0.156 HD
ENDBRANCH  21  28
ENDBRANCH   9  12
ENDBRANCH   7   8
ENDBRANCH   5   7
ENDBRANCH   4   5
ENDBRANCH   3   4
ENDBRANCH   2   3
ENDBRANCH   1   2
BRANCH   1  31
ATOM     31  C   UNL A   1      38.457  21.244  25.340  1.00  0.00     0.202 C 
BRANCH  31  32
ATOM     32  C   UNL A   1      38.888  22.271  26.386  1.00  0.00     0.261 C 
BRANCH  32  33
ATOM     33  O   UNL A   1      40.149  22.047  27.005  1.00  0.00    -0.460 OA
BRANCH  33  34
ATOM     34  C   UNL A   1      41.161  22.624  26.307  1.00  0.00     0.338 C 
ATOM     35  O   UNL A   1      41.941  22.048  25.571  1.00  0.00    -0.246 OA
BRANCH  34  36
ATOM     36  C   UNL A   1      41.328  24.030  26.702  1.00  0.00     0.060 A 
ATOM     37  C   UNL A   1      42.088  24.253  27.851  1.00  0.00     0.016 A 
ATOM     38  C   UNL A   1      40.578  25.061  26.114  1.00  0.00     0.016 A 
ATOM     39  C   UNL A   1      41.967  25.462  28.502  1.00  0.00     0.010 A 
ATOM     40  C   UNL A   1      40.466  26.279  26.767  1.00  0.00     0.010 A 
ATOM     41  C   UNL A   1      41.109  26.449  27.990  1.00  0.00    -0.014 A 
BRANCH  41  42
ATOM     42  C   UNL A   1      41.068  27.716  28.700  1.00  0.00     0.031 A 
ATOM     43  C   UNL A   1      42.118  28.648  28.234  1.00  0.00     0.074 A 
ATOM     44  C   UNL A   1      40.201  28.055  29.674  1.00  0.00     0.049 A 
ATOM     45  N   UNL A   1      43.237  28.891  28.832  1.00  0.00    -0.248 NA
ATOM     46  C   UNL A   1      42.025  29.197  26.875  1.00  0.00     0.031 C 
ATOM     47  C   UNL A   1      39.000  27.351  30.122  1.00  0.00     0.029 A 
ATOM     48  N   UNL A   1      40.195  29.181  30.443  1.00  0.00    -0.354 N 
ATOM     49  C   UNL A   1      43.889  29.821  28.039  1.00  0.00     0.074 A 
ATOM     50  C   UNL A   1      43.198  29.826  26.772  1.00  0.00     0.031 C 
ATOM     51  C   UNL A   1      38.266  28.175  30.910  1.00  0.00     0.029 A 
ATOM     52  C   UNL A   1      39.013  29.401  31.142  1.00  0.00     0.049 A 
ATOM     53  H   UNL A   1      40.966  29.791  30.499  1.00  0.00     0.167 HD
ATOM     54  C   UNL A   1      44.761  30.707  28.589  1.00  0.00     0.031 A 
ATOM     55  C   UNL A   1      38.670  30.521  31.836  1.00  0.00     0.031 A 
ATOM     56  C   UNL A   1      45.180  30.302  29.908  1.00  0.00     0.049 A 
ATOM     57  C   UNL A   1      39.938  31.190  32.221  1.00  0.00     0.074 A 
ATOM     58  C   UNL A   1      45.789  29.178  30.432  1.00  0.00     0.029 A 
ATOM     59  N   UNL A   1      44.607  30.956  30.974  1.00  0.00    -0.354 N 
ATOM     60  N   UNL A   1      40.783  30.676  33.072  1.00  0.00    -0.248 NA
ATOM     61  C   UNL A   1      40.485  32.191  31.319  1.00  0.00     0.031 C 
ATOM     62  C   UNL A   1      45.150  28.967  31.688  1.00  0.00     0.029 A 
ATOM     63  C   UNL A   1      44.245  30.010  31.893  1.00  0.00     0.049 A 
ATOM     64  H   UNL A   1      44.480  31.929  31.059  1.00  0.00     0.167 HD
ATOM     65  C   UNL A   1      42.030  30.942  32.527  1.00  0.00     0.074 A 
ATOM     66  C   UNL A   1      41.788  31.947  31.492  1.00  0.00     0.031 C 
ATOM     67  C   UNL A   1      43.099  30.128  32.769  1.00  0.00     0.031 A 
BRANCH  54  68
ATOM     68  C   UNL A   1      44.843  32.142  28.137  1.00  0.00    -0.014 A 
ATOM     69  C   UNL A   1      46.113  32.691  27.874  1.00  0.00     0.010 A 
ATOM     70  C   UNL A   1      43.765  33.042  28.267  1.00  0.00     0.010 A 
ATOM     71  C   UNL A   1      46.305  34.076  27.831  1.00  0.00     0.020 A 
ATOM     72  C   UNL A   1      43.938  34.422  28.180  1.00  0.00     0.020 A 
ATOM     73  C   UNL A   1      45.216  34.931  27.997  1.00  0.00     0.054 A 
BRANCH  73  74
ATOM     74  S   UNL A   1      45.492  36.716  28.035  1.00  0.00     0.124 S 
ATOM     75  O   UNL A   1      44.202  37.209  28.506  1.00  0.00    -0.237 OA
ATOM     76  O   UNL A   1      46.601  36.832  28.978  1.00  0.00    -0.237 OA
ATOM     77  O   UNL A   1      45.822  37.040  26.649  1.00  0.00    -0.744 OA
ENDBRANCH  73  74
ENDBRANCH  54  68
BRANCH  55  78
ATOM     78  C   UNL A   1      37.351  31.213  31.878  1.00  0.00    -0.014 A 
ATOM     79  C   UNL A   1      36.782  31.625  33.102  1.00  0.00     0.010 A 
ATOM     80  C   UNL A   1      36.786  31.736  30.698  1.00  0.00     0.010 A 
ATOM     81  C   UNL A   1      35.741  32.575  33.143  1.00  0.00     0.020 A 
ATOM     82  C   UNL A   1      35.745  32.675  30.730  1.00  0.00     0.020 A 
ATOM     83  C   UNL A   1      35.245  33.111  31.953  1.00  0.00     0.054 A 
BRANCH  83  84
ATOM     84  S   UNL A   1      34.027  34.463  32.012  1.00  0.00     0.124 S 
ATOM     85  O   UNL A   1      33.041  33.956  32.963  1.00  0.00    -0.237 OA
ATOM     86  O   UNL A   1      34.828  35.593  32.475  1.00  0.00    -0.237 OA
ATOM     87  O   UNL A   1      33.557  34.566  30.632  1.00  0.00    -0.744 OA
ENDBRANCH  83  84
ENDBRANCH  55  78
BRANCH  67  88
ATOM     88  C   UNL A   1      43.021  29.109  33.881  1.00  0.00    -0.014 A 
ATOM     89  C   UNL A   1      43.298  29.394  35.232  1.00  0.00     0.010 A 
ATOM     90  C   UNL A   1      42.431  27.873  33.560  1.00  0.00     0.010 A 
ATOM     91  C   UNL A   1      42.975  28.463  36.236  1.00  0.00     0.020 A 
ATOM     92  C   UNL A   1      42.092  26.954  34.554  1.00  0.00     0.020 A 
ATOM     93  C   UNL A   1      42.361  27.254  35.888  1.00  0.00     0.054 A 
BRANCH  93  94
ATOM     94  S   UNL A   1      41.847  26.099  37.192  1.00  0.00     0.124 S 
ATOM     95  O   UNL A   1      41.816  24.819  36.491  1.00  0.00    -0.237 OA
ATOM     96  O   UNL A   1      42.906  26.245  38.189  1.00  0.00    -0.237 OA
ATOM     97  O   UNL A   1      40.541  26.606  37.612  1.00  0.00    -0.744 OA
ENDBRANCH  93  94
ENDBRANCH  67  88
ENDBRANCH  41  42
ENDBRANCH  34  36
ENDBRANCH  33  34
ENDBRANCH  32  33
ENDBRANCH  31  32
ENDBRANCH   1  31
TORSDOF 22
ENDMDL
