MODEL 1
REMARK VINA RESULT:     -12.8      0.000      0.000
REMARK SMILES COc1ccc(-c2cc(Cl)cc3c2O[C@@H](C(F)(F)F)C(C(=O)OCCOCCOC(=O)c2ccc(-c4c5nc(c(-c6ccc(S(=O)(=O)[O-])cc6)c6ccc([nH]6)c(-c6ccc(S(=O)(=O)[O-])cc6)c6nc(c(-c7ccc(S(=O)(=O)[O-])cc7)c7ccc4[nH]7)C=C6)C=C5)cc2)=C3)cc1C
REMARK SMILES IDX 27 1 26 2 25 3 24 4 23 5 21 6 22 7 20 8 7 9 8 10 13 11 9 12
REMARK SMILES IDX 12 13 14 14 10 15 11 16 92 17 15 18 6 19 3 20 4 21 94 22
REMARK SMILES IDX 5 23 93 24 95 25 2 26 1 27 16 28 17 29 18 30 19 31 28 32
REMARK SMILES IDX 29 33 30 34 31 35 32 36 33 37 91 38 34 39 90 40 35 41 36 42
REMARK SMILES IDX 37 43 84 44 38 45 89 46 83 47 85 48 39 49 88 50 82 51 81 52
REMARK SMILES IDX 40 54 70 55 51 56 69 57 52 58 55 59 68 60 86 61 53 62 54 63
REMARK SMILES IDX 67 65 87 66 56 67 41 68 42 69 50 70 43 71 49 72 44 73 45 74
REMARK SMILES IDX 46 75 47 76 48 77 71 78 72 79 80 80 73 81 79 82 74 83 75 84
REMARK SMILES IDX 76 85 77 86 78 87 57 88 58 89 66 90 59 91 65 92 60 93 61 94
REMARK SMILES IDX 62 95 63 96 64 97
REMARK H PARENT 85 53 55 64
REMARK Flexibility Score: inf
ROOT
ATOM      1  C   UNL A   1      32.577  28.381  26.591  1.00  0.00     0.202 C 
ENDROOT
BRANCH   1   2
ATOM      2  O   UNL A   1      31.539  28.032  25.694  1.00  0.00    -0.374 OA
BRANCH   2   3
ATOM      3  C   UNL A   1      30.874  26.832  26.049  1.00  0.00     0.202 C 
BRANCH   3   4
ATOM      4  C   UNL A   1      31.888  25.850  26.566  1.00  0.00     0.261 C 
BRANCH   4   5
ATOM      5  O   UNL A   1      31.862  24.513  26.002  1.00  0.00    -0.460 OA
BRANCH   5   6
ATOM      6  C   UNL A   1      32.539  24.122  24.884  1.00  0.00     0.338 C 
ATOM      7  O   UNL A   1      32.193  23.356  24.013  1.00  0.00    -0.246 OA
BRANCH   6   8
ATOM      8  C   UNL A   1      33.728  25.075  24.741  1.00  0.00     0.087 C 
ATOM      9  C   UNL A   1      35.494  21.454  24.639  1.00  0.00     0.026 A 
ATOM     10  C   UNL A   1      36.805  21.318  25.155  1.00  0.00     0.033 A 
ATOM     11  C   UNL A   1      35.086  22.798  24.399  1.00  0.00     0.135 A 
ATOM     12  C   UNL A   1      37.546  22.413  25.598  1.00  0.00     0.042 A 
ATOM     13  C   UNL A   1      35.655  23.811  25.213  1.00  0.00     0.019 A 
ATOM     14  O   UNL A   1      34.316  23.281  23.275  1.00  0.00    -0.475 OA
ATOM     15  Cl  UNL A   1      39.154  22.181  26.154  1.00  0.00    -0.084 Cl
ATOM     16  C   UNL A   1      36.941  23.654  25.711  1.00  0.00     0.032 A 
ATOM     17  C   UNL A   1      34.840  25.029  25.504  1.00  0.00     0.027 C 
ATOM     18  C   UNL A   1      34.150  24.792  23.315  1.00  0.00     0.316 C 
BRANCH   9  19
ATOM     19  C   UNL A   1      34.649  20.222  24.952  1.00  0.00    -0.014 A 
ATOM     20  C   UNL A   1      32.940  17.878  25.120  1.00  0.00     0.121 A 
ATOM     21  C   UNL A   1      32.547  19.117  25.621  1.00  0.00     0.047 A 
ATOM     22  C   UNL A   1      34.100  17.830  24.355  1.00  0.00    -0.008 A 
ATOM     23  C   UNL A   1      33.365  20.275  25.493  1.00  0.00     0.013 A 
ATOM     24  C   UNL A   1      34.983  18.954  24.368  1.00  0.00     0.016 A 
ATOM     25  C   UNL A   1      34.304  16.700  23.379  1.00  0.00     0.048 C 
BRANCH  20  26
ATOM     26  O   UNL A   1      32.060  16.832  25.253  1.00  0.00    -0.496 OA
ATOM     27  C   UNL A   1      32.638  15.641  25.804  1.00  0.00     0.278 C 
ENDBRANCH  20  26
ENDBRANCH   9  19
BRANCH  18  28
ATOM     28  C   UNL A   1      33.280  25.720  22.387  1.00  0.00     0.430 C 
ATOM     29  F   UNL A   1      32.297  26.378  23.077  1.00  0.00    -0.167 F 
ATOM     30  F   UNL A   1      34.055  26.732  21.897  1.00  0.00    -0.167 F 
ATOM     31  F   UNL A   1      32.711  25.149  21.322  1.00  0.00    -0.167 F 
ENDBRANCH  18  28
ENDBRANCH   6   8
ENDBRANCH   5   6
ENDBRANCH   4   5
ENDBRANCH   3   4
ENDBRANCH   2   3
ENDBRANCH   1   2
BRANCH   1  32
ATOM     32  C   UNL A   1      33.299  29.687  26.228  1.00  0.00     0.261 C 
BRANCH  32  33
ATOM     33  O   UNL A   1      33.366  30.580  27.366  1.00  0.00    -0.460 OA
BRANCH  33  34
ATOM     34  C   UNL A   1      34.541  31.267  27.553  1.00  0.00     0.338 C 
ATOM     35  O   UNL A   1      34.642  32.468  27.374  1.00  0.00    -0.246 OA
BRANCH  34  36
ATOM     36  C   UNL A   1      35.595  30.393  28.168  1.00  0.00     0.060 A 
ATOM     37  C   UNL A   1      35.536  29.865  29.464  1.00  0.00     0.016 A 
ATOM     38  C   UNL A   1      36.753  30.182  27.449  1.00  0.00     0.016 A 
ATOM     39  C   UNL A   1      36.686  29.281  30.066  1.00  0.00     0.010 A 
ATOM     40  C   UNL A   1      37.878  29.630  28.032  1.00  0.00     0.010 A 
ATOM     41  C   UNL A   1      37.892  29.217  29.368  1.00  0.00    -0.014 A 
BRANCH  41  42
ATOM     42  C   UNL A   1      39.258  28.902  29.859  1.00  0.00     0.031 A 
ATOM     43  C   UNL A   1      39.918  27.672  29.342  1.00  0.00     0.074 A 
ATOM     44  C   UNL A   1      40.066  29.856  30.404  1.00  0.00     0.049 A 
ATOM     45  N   UNL A   1      41.149  27.377  29.555  1.00  0.00    -0.248 NA
ATOM     46  C   UNL A   1      39.250  26.634  28.560  1.00  0.00     0.031 C 
ATOM     47  C   UNL A   1      41.536  29.966  30.340  1.00  0.00     0.029 A 
ATOM     48  N   UNL A   1      39.735  31.012  31.096  1.00  0.00    -0.354 N 
ATOM     49  C   UNL A   1      41.516  26.342  28.739  1.00  0.00     0.074 A 
ATOM     50  C   UNL A   1      40.277  25.841  28.220  1.00  0.00     0.031 C 
ATOM     51  C   UNL A   1      41.974  30.951  31.142  1.00  0.00     0.029 A 
ATOM     52  C   UNL A   1      40.822  31.433  31.871  1.00  0.00     0.049 A 
ATOM     53  H   UNL A   1      38.864  31.470  31.049  1.00  0.00     0.167 HD
ATOM     54  C   UNL A   1      42.847  26.104  28.579  1.00  0.00     0.031 A 
ATOM     55  C   UNL A   1      40.654  31.497  33.216  1.00  0.00     0.031 A 
ATOM     56  C   UNL A   1      43.615  26.867  29.571  1.00  0.00     0.049 A 
ATOM     57  C   UNL A   1      41.451  30.356  33.798  1.00  0.00     0.074 A 
ATOM     58  C   UNL A   1      44.478  27.947  29.539  1.00  0.00     0.029 A 
ATOM     59  N   UNL A   1      43.258  26.693  30.907  1.00  0.00    -0.354 N 
ATOM     60  N   UNL A   1      41.776  29.291  33.107  1.00  0.00    -0.248 NA
ATOM     61  C   UNL A   1      42.127  30.403  35.088  1.00  0.00     0.031 C 
ATOM     62  C   UNL A   1      44.562  28.467  30.874  1.00  0.00     0.029 A 
ATOM     63  C   UNL A   1      43.768  27.689  31.709  1.00  0.00     0.049 A 
ATOM     64  H   UNL A   1      42.705  25.949  31.237  1.00  0.00     0.167 HD
ATOM     65  C   UNL A   1      42.790  28.634  33.731  1.00  0.00     0.074 A 
ATOM     66  C   UNL A   1      42.923  29.319  35.007  1.00  0.00     0.031 C 
ATOM     67  C   UNL A   1      43.528  27.642  33.150  1.00  0.00     0.031 A 
BRANCH  54  68
ATOM     68  C   UNL A   1      43.487  25.247  27.511  1.00  0.00    -0.014 A 
ATOM     69  C   UNL A   1      44.722  24.618  27.783  1.00  0.00     0.010 A 
ATOM     70  C   UNL A   1      42.977  25.061  26.212  1.00  0.00     0.010 A 
ATOM     71  C   UNL A   1      45.400  23.847  26.824  1.00  0.00     0.020 A 
ATOM     72  C   UNL A   1      43.637  24.284  25.243  1.00  0.00     0.020 A 
ATOM     73  C   UNL A   1      44.850  23.680  25.557  1.00  0.00     0.054 A 
BRANCH  73  74
ATOM     74  S   UNL A   1      45.739  22.673  24.338  1.00  0.00     0.124 S 
ATOM     75  O   UNL A   1      46.694  23.626  23.779  1.00  0.00    -0.237 OA
ATOM     76  O   UNL A   1      46.315  21.614  25.162  1.00  0.00    -0.237 OA
ATOM     77  O   UNL A   1      44.691  22.238  23.415  1.00  0.00    -0.744 OA
ENDBRANCH  73  74
ENDBRANCH  54  68
BRANCH  55  78
ATOM     78  C   UNL A   1      39.297  32.087  33.529  1.00  0.00    -0.014 A 
ATOM     79  C   UNL A   1      39.124  33.433  33.103  1.00  0.00     0.010 A 
ATOM     80  C   UNL A   1      38.142  31.275  33.581  1.00  0.00     0.010 A 
ATOM     81  C   UNL A   1      37.907  33.886  32.564  1.00  0.00     0.020 A 
ATOM     82  C   UNL A   1      36.918  31.731  33.036  1.00  0.00     0.020 A 
ATOM     83  C   UNL A   1      36.824  33.013  32.483  1.00  0.00     0.054 A 
BRANCH  83  84
ATOM     84  S   UNL A   1      35.409  33.487  31.426  1.00  0.00     0.124 S 
ATOM     85  O   UNL A   1      34.965  34.735  32.034  1.00  0.00    -0.237 OA
ATOM     86  O   UNL A   1      36.022  33.615  30.102  1.00  0.00    -0.237 OA
ATOM     87  O   UNL A   1      34.492  32.361  31.555  1.00  0.00    -0.744 OA
ENDBRANCH  83  84
ENDBRANCH  55  78
BRANCH  67  88
ATOM     88  C   UNL A   1      44.071  26.477  33.938  1.00  0.00    -0.014 A 
ATOM     89  C   UNL A   1      43.259  25.458  34.453  1.00  0.00     0.010 A 
ATOM     90  C   UNL A   1      45.472  26.279  34.015  1.00  0.00     0.010 A 
ATOM     91  C   UNL A   1      43.807  24.338  35.079  1.00  0.00     0.020 A 
ATOM     92  C   UNL A   1      46.032  25.131  34.573  1.00  0.00     0.020 A 
ATOM     93  C   UNL A   1      45.191  24.184  35.137  1.00  0.00     0.054 A 
BRANCH  93  94
ATOM     94  S   UNL A   1      45.864  22.720  35.943  1.00  0.00     0.124 S 
ATOM     95  O   UNL A   1      47.257  22.760  35.506  1.00  0.00    -0.237 OA
ATOM     96  O   UNL A   1      45.643  23.004  37.359  1.00  0.00    -0.237 OA
ATOM     97  O   UNL A   1      45.066  21.624  35.399  1.00  0.00    -0.744 OA
ENDBRANCH  93  94
ENDBRANCH  67  88
ENDBRANCH  41  42
ENDBRANCH  34  36
ENDBRANCH  33  34
ENDBRANCH  32  33
ENDBRANCH   1  32
TORSDOF 20
ENDMDL
MODEL 2
REMARK VINA RESULT:     -12.7      3.734     10.405
REMARK SMILES COc1ccc(-c2cc(Cl)cc3c2O[C@@H](C(F)(F)F)C(C(=O)OCCOCCOC(=O)c2ccc(-c4c5nc(c(-c6ccc(S(=O)(=O)[O-])cc6)c6ccc([nH]6)c(-c6ccc(S(=O)(=O)[O-])cc6)c6nc(c(-c7ccc(S(=O)(=O)[O-])cc7)c7ccc4[nH]7)C=C6)C=C5)cc2)=C3)cc1C
REMARK SMILES IDX 27 1 26 2 25 3 24 4 23 5 21 6 22 7 20 8 7 9 8 10 13 11 9 12
REMARK SMILES IDX 12 13 14 14 10 15 11 16 92 17 15 18 6 19 3 20 4 21 94 22
REMARK SMILES IDX 5 23 93 24 95 25 2 26 1 27 16 28 17 29 18 30 19 31 28 32
REMARK SMILES IDX 29 33 30 34 31 35 32 36 33 37 91 38 34 39 90 40 35 41 36 42
REMARK SMILES IDX 37 43 84 44 38 45 89 46 83 47 85 48 39 49 88 50 82 51 81 52
REMARK SMILES IDX 40 54 70 55 51 56 69 57 52 58 55 59 68 60 86 61 53 62 54 63
REMARK SMILES IDX 67 65 87 66 56 67 41 68 42 69 50 70 43 71 49 72 44 73 45 74
REMARK SMILES IDX 46 75 47 76 48 77 71 78 72 79 80 80 73 81 79 82 74 83 75 84
REMARK SMILES IDX 76 85 77 86 78 87 57 88 58 89 66 90 59 91 65 92 60 93 61 94
REMARK SMILES IDX 62 95 63 96 64 97
REMARK H PARENT 85 53 55 64
REMARK Flexibility Score: inf
ROOT
ATOM      1  C   UNL A   1      34.751  21.749  25.798  1.00  0.00     0.202 C 
ENDROOT
BRANCH   1   2
ATOM      2  O   UNL A   1      33.723  21.122  26.544  1.00  0.00    -0.374 OA
BRANCH   2   3
ATOM      3  C   UNL A   1      32.612  21.967  26.783  1.00  0.00     0.202 C 
BRANCH   3   4
ATOM      4  C   UNL A   1      33.112  23.348  27.105  1.00  0.00     0.261 C 
BRANCH   4   5
ATOM      5  O   UNL A   1      32.440  24.461  26.463  1.00  0.00    -0.460 OA
BRANCH   5   6
ATOM      6  C   UNL A   1      32.793  25.001  25.261  1.00  0.00     0.338 C 
ATOM      7  O   UNL A   1      33.824  25.554  24.947  1.00  0.00    -0.246 OA
BRANCH   6   8
ATOM      8  C   UNL A   1      31.761  24.510  24.245  1.00  0.00     0.087 C 
ATOM      9  C   UNL A   1      31.407  28.516  23.981  1.00  0.00     0.026 A 
ATOM     10  C   UNL A   1      30.145  29.071  23.662  1.00  0.00     0.033 A 
ATOM     11  C   UNL A   1      31.526  27.121  23.719  1.00  0.00     0.135 A 
ATOM     12  C   UNL A   1      29.047  28.278  23.330  1.00  0.00     0.042 A 
ATOM     13  C   UNL A   1      30.347  26.336  23.795  1.00  0.00     0.019 A 
ATOM     14  O   UNL A   1      32.677  26.438  23.169  1.00  0.00    -0.475 OA
ATOM     15  Cl  UNL A   1      27.563  29.023  22.893  1.00  0.00    -0.084 Cl
ATOM     16  C   UNL A   1      29.119  26.903  23.481  1.00  0.00     0.032 A 
ATOM     17  C   UNL A   1      30.471  24.907  24.213  1.00  0.00     0.027 C 
ATOM     18  C   UNL A   1      32.401  24.960  22.949  1.00  0.00     0.316 C 
BRANCH   9  19
ATOM     19  C   UNL A   1      32.148  29.381  24.998  1.00  0.00    -0.014 A 
ATOM     20  C   UNL A   1      33.519  30.685  27.203  1.00  0.00     0.121 A 
ATOM     21  C   UNL A   1      32.225  31.038  26.824  1.00  0.00     0.047 A 
ATOM     22  C   UNL A   1      34.073  29.549  26.624  1.00  0.00    -0.008 A 
ATOM     23  C   UNL A   1      31.537  30.365  25.775  1.00  0.00     0.013 A 
ATOM     24  C   UNL A   1      33.442  28.982  25.473  1.00  0.00     0.016 A 
ATOM     25  C   UNL A   1      35.192  28.823  27.326  1.00  0.00     0.048 C 
BRANCH  20  26
ATOM     26  O   UNL A   1      34.078  31.365  28.257  1.00  0.00    -0.496 OA
ATOM     27  C   UNL A   1      34.825  32.528  27.877  1.00  0.00     0.278 C 
ENDBRANCH  20  26
ENDBRANCH   9  19
BRANCH  18  28
ATOM     28  C   UNL A   1      33.394  23.820  22.508  1.00  0.00     0.430 C 
ATOM     29  F   UNL A   1      34.696  24.113  22.810  1.00  0.00    -0.167 F 
ATOM     30  F   UNL A   1      33.146  22.690  23.235  1.00  0.00    -0.167 F 
ATOM     31  F   UNL A   1      33.353  23.444  21.227  1.00  0.00    -0.167 F 
ENDBRANCH  18  28
ENDBRANCH   6   8
ENDBRANCH   5   6
ENDBRANCH   4   5
ENDBRANCH   3   4
ENDBRANCH   2   3
ENDBRANCH   1   2
BRANCH   1  32
ATOM     32  C   UNL A   1      35.609  20.773  24.980  1.00  0.00     0.261 C 
BRANCH  32  33
ATOM     33  O   UNL A   1      36.831  21.405  24.528  1.00  0.00    -0.460 OA
BRANCH  33  34
ATOM     34  C   UNL A   1      37.990  21.065  25.183  1.00  0.00     0.338 C 
ATOM     35  O   UNL A   1      38.603  20.037  24.953  1.00  0.00    -0.246 OA
BRANCH  34  36
ATOM     36  C   UNL A   1      38.476  22.185  26.055  1.00  0.00     0.060 A 
ATOM     37  C   UNL A   1      37.905  23.463  26.102  1.00  0.00     0.016 A 
ATOM     38  C   UNL A   1      39.631  21.978  26.780  1.00  0.00     0.016 A 
ATOM     39  C   UNL A   1      38.581  24.540  26.741  1.00  0.00     0.010 A 
ATOM     40  C   UNL A   1      40.301  23.023  27.388  1.00  0.00     0.010 A 
ATOM     41  C   UNL A   1      39.826  24.337  27.337  1.00  0.00    -0.014 A 
BRANCH  41  42
ATOM     42  C   UNL A   1      40.820  25.329  27.823  1.00  0.00     0.031 A 
ATOM     43  C   UNL A   1      40.309  26.588  28.429  1.00  0.00     0.074 A 
ATOM     44  C   UNL A   1      42.105  24.977  28.114  1.00  0.00     0.049 A 
ATOM     45  N   UNL A   1      41.051  27.444  29.032  1.00  0.00    -0.248 NA
ATOM     46  C   UNL A   1      38.916  27.028  28.388  1.00  0.00     0.031 C 
ATOM     47  C   UNL A   1      43.000  25.532  29.148  1.00  0.00     0.029 A 
ATOM     48  N   UNL A   1      42.893  23.965  27.585  1.00  0.00    -0.354 N 
ATOM     49  C   UNL A   1      40.261  28.341  29.699  1.00  0.00     0.074 A 
ATOM     50  C   UNL A   1      38.945  28.109  29.179  1.00  0.00     0.031 C 
ATOM     51  C   UNL A   1      44.243  25.040  29.013  1.00  0.00     0.029 A 
ATOM     52  C   UNL A   1      44.246  24.250  27.802  1.00  0.00     0.049 A 
ATOM     53  H   UNL A   1      42.551  23.166  27.123  1.00  0.00     0.167 HD
ATOM     54  C   UNL A   1      40.849  29.116  30.651  1.00  0.00     0.031 A 
ATOM     55  C   UNL A   1      45.045  24.395  26.714  1.00  0.00     0.031 A 
ATOM     56  C   UNL A   1      42.310  29.004  30.557  1.00  0.00     0.049 A 
ATOM     57  C   UNL A   1      45.370  25.864  26.620  1.00  0.00     0.074 A 
ATOM     58  C   UNL A   1      43.313  28.450  31.330  1.00  0.00     0.029 A 
ATOM     59  N   UNL A   1      42.878  29.268  29.313  1.00  0.00    -0.354 N 
ATOM     60  N   UNL A   1      44.621  26.794  27.161  1.00  0.00    -0.248 NA
ATOM     61  C   UNL A   1      46.634  26.395  26.126  1.00  0.00     0.031 C 
ATOM     62  C   UNL A   1      44.470  28.310  30.494  1.00  0.00     0.029 A 
ATOM     63  C   UNL A   1      44.170  28.798  29.228  1.00  0.00     0.049 A 
ATOM     64  H   UNL A   1      42.412  29.733  28.581  1.00  0.00     0.167 HD
ATOM     65  C   UNL A   1      45.330  27.951  27.260  1.00  0.00     0.074 A 
ATOM     66  C   UNL A   1      46.556  27.679  26.526  1.00  0.00     0.031 C 
ATOM     67  C   UNL A   1      44.936  29.026  28.005  1.00  0.00     0.031 A 
BRANCH  54  68
ATOM     68  C   UNL A   1      40.143  29.930  31.712  1.00  0.00    -0.014 A 
ATOM     69  C   UNL A   1      39.040  29.368  32.389  1.00  0.00     0.010 A 
ATOM     70  C   UNL A   1      40.460  31.259  32.053  1.00  0.00     0.010 A 
ATOM     71  C   UNL A   1      38.305  30.080  33.350  1.00  0.00     0.020 A 
ATOM     72  C   UNL A   1      39.741  31.984  33.020  1.00  0.00     0.020 A 
ATOM     73  C   UNL A   1      38.663  31.388  33.665  1.00  0.00     0.054 A 
BRANCH  73  74
ATOM     74  S   UNL A   1      37.705  32.286  34.916  1.00  0.00     0.124 S 
ATOM     75  O   UNL A   1      37.710  31.356  36.044  1.00  0.00    -0.237 OA
ATOM     76  O   UNL A   1      38.489  33.503  35.101  1.00  0.00    -0.237 OA
ATOM     77  O   UNL A   1      36.400  32.480  34.284  1.00  0.00    -0.744 OA
ENDBRANCH  73  74
ENDBRANCH  54  68
BRANCH  55  78
ATOM     78  C   UNL A   1      44.705  23.334  25.691  1.00  0.00    -0.014 A 
ATOM     79  C   UNL A   1      45.793  22.940  24.864  1.00  0.00     0.010 A 
ATOM     80  C   UNL A   1      43.706  22.368  25.945  1.00  0.00     0.010 A 
ATOM     81  C   UNL A   1      45.980  21.600  24.480  1.00  0.00     0.020 A 
ATOM     82  C   UNL A   1      43.897  21.019  25.560  1.00  0.00     0.020 A 
ATOM     83  C   UNL A   1      45.057  20.636  24.879  1.00  0.00     0.054 A 
BRANCH  83  84
ATOM     84  S   UNL A   1      45.525  18.874  24.722  1.00  0.00     0.124 S 
ATOM     85  O   UNL A   1      46.763  18.808  25.488  1.00  0.00    -0.237 OA
ATOM     86  O   UNL A   1      44.380  18.181  25.316  1.00  0.00    -0.237 OA
ATOM     87  O   UNL A   1      45.660  18.682  23.283  1.00  0.00    -0.744 OA
ENDBRANCH  83  84
ENDBRANCH  55  78
BRANCH  67  88
ATOM     88  C   UNL A   1      45.230  30.445  27.587  1.00  0.00    -0.014 A 
ATOM     89  C   UNL A   1      46.529  30.970  27.523  1.00  0.00     0.010 A 
ATOM     90  C   UNL A   1      44.190  31.244  27.050  1.00  0.00     0.010 A 
ATOM     91  C   UNL A   1      46.771  32.249  27.024  1.00  0.00     0.020 A 
ATOM     92  C   UNL A   1      44.430  32.495  26.483  1.00  0.00     0.020 A 
ATOM     93  C   UNL A   1      45.719  33.004  26.510  1.00  0.00     0.054 A 
BRANCH  93  94
ATOM     94  S   UNL A   1      46.071  34.649  25.863  1.00  0.00     0.124 S 
ATOM     95  O   UNL A   1      47.484  34.801  26.203  1.00  0.00    -0.237 OA
ATOM     96  O   UNL A   1      45.783  34.501  24.438  1.00  0.00    -0.237 OA
ATOM     97  O   UNL A   1      45.152  35.516  26.594  1.00  0.00    -0.744 OA
ENDBRANCH  93  94
ENDBRANCH  67  88
ENDBRANCH  41  42
ENDBRANCH  34  36
ENDBRANCH  33  34
ENDBRANCH  32  33
ENDBRANCH   1  32
TORSDOF 20
ENDMDL
MODEL 3
REMARK VINA RESULT:     -12.6      2.557      4.202
REMARK SMILES COc1ccc(-c2cc(Cl)cc3c2O[C@@H](C(F)(F)F)C(C(=O)OCCOCCOC(=O)c2ccc(-c4c5nc(c(-c6ccc(S(=O)(=O)[O-])cc6)c6ccc([nH]6)c(-c6ccc(S(=O)(=O)[O-])cc6)c6nc(c(-c7ccc(S(=O)(=O)[O-])cc7)c7ccc4[nH]7)C=C6)C=C5)cc2)=C3)cc1C
REMARK SMILES IDX 27 1 26 2 25 3 24 4 23 5 21 6 22 7 20 8 7 9 8 10 13 11 9 12
REMARK SMILES IDX 12 13 14 14 10 15 11 16 92 17 15 18 6 19 3 20 4 21 94 22
REMARK SMILES IDX 5 23 93 24 95 25 2 26 1 27 16 28 17 29 18 30 19 31 28 32
REMARK SMILES IDX 29 33 30 34 31 35 32 36 33 37 91 38 34 39 90 40 35 41 36 42
REMARK SMILES IDX 37 43 84 44 38 45 89 46 83 47 85 48 39 49 88 50 82 51 81 52
REMARK SMILES IDX 40 54 70 55 51 56 69 57 52 58 55 59 68 60 86 61 53 62 54 63
REMARK SMILES IDX 67 65 87 66 56 67 41 68 42 69 50 70 43 71 49 72 44 73 45 74
REMARK SMILES IDX 46 75 47 76 48 77 71 78 72 79 80 80 73 81 79 82 74 83 75 84
REMARK SMILES IDX 76 85 77 86 78 87 57 88 58 89 66 90 59 91 65 92 60 93 61 94
REMARK SMILES IDX 62 95 63 96 64 97
REMARK H PARENT 85 53 55 64
REMARK Flexibility Score: inf
ROOT
ATOM      1  C   UNL A   1      31.858  28.943  23.359  1.00  0.00     0.202 C 
ENDROOT
BRANCH   1   2
ATOM      2  O   UNL A   1      33.264  28.890  23.517  1.00  0.00    -0.374 OA
BRANCH   2   3
ATOM      3  C   UNL A   1      33.926  28.287  22.420  1.00  0.00     0.202 C 
BRANCH   3   4
ATOM      4  C   UNL A   1      33.241  26.989  22.092  1.00  0.00     0.261 C 
BRANCH   4   5
ATOM      5  O   UNL A   1      33.754  25.791  22.729  1.00  0.00    -0.460 OA
BRANCH   5   6
ATOM      6  C   UNL A   1      33.465  25.397  24.004  1.00  0.00     0.338 C 
ATOM      7  O   UNL A   1      33.888  25.834  25.051  1.00  0.00    -0.246 OA
BRANCH   6   8
ATOM      8  C   UNL A   1      32.243  24.482  23.908  1.00  0.00     0.087 C 
ATOM      9  C   UNL A   1      34.999  22.082  25.607  1.00  0.00     0.026 A 
ATOM     10  C   UNL A   1      34.952  20.693  25.343  1.00  0.00     0.033 A 
ATOM     11  C   UNL A   1      33.815  22.794  25.260  1.00  0.00     0.135 A 
ATOM     12  C   UNL A   1      33.922  20.112  24.603  1.00  0.00     0.042 A 
ATOM     13  C   UNL A   1      33.032  22.284  24.192  1.00  0.00     0.019 A 
ATOM     14  O   UNL A   1      33.196  23.864  26.011  1.00  0.00    -0.475 OA
ATOM     15  Cl  UNL A   1      33.895  18.410  24.375  1.00  0.00    -0.084 Cl
ATOM     16  C   UNL A   1      33.004  20.917  23.950  1.00  0.00     0.032 A 
ATOM     17  C   UNL A   1      32.253  23.249  23.360  1.00  0.00     0.027 C 
ATOM     18  C   UNL A   1      31.894  24.319  25.372  1.00  0.00     0.316 C 
BRANCH   9  19
ATOM     19  C   UNL A   1      36.441  22.577  25.695  1.00  0.00    -0.014 A 
ATOM     20  C   UNL A   1      39.212  23.272  26.224  1.00  0.00     0.121 A 
ATOM     21  C   UNL A   1      38.170  24.173  26.436  1.00  0.00     0.047 A 
ATOM     22  C   UNL A   1      38.876  21.953  25.937  1.00  0.00    -0.008 A 
ATOM     23  C   UNL A   1      36.809  23.814  26.223  1.00  0.00     0.013 A 
ATOM     24  C   UNL A   1      37.528  21.647  25.575  1.00  0.00     0.016 A 
ATOM     25  C   UNL A   1      39.871  20.854  26.207  1.00  0.00     0.048 C 
BRANCH  20  26
ATOM     26  O   UNL A   1      40.486  23.701  26.503  1.00  0.00    -0.496 OA
ATOM     27  C   UNL A   1      40.768  23.844  27.901  1.00  0.00     0.278 C 
ENDBRANCH  20  26
ENDBRANCH   9  19
BRANCH  18  28
ATOM     28  C   UNL A   1      30.969  25.533  25.761  1.00  0.00     0.430 C 
ATOM     29  F   UNL A   1      30.463  26.178  24.664  1.00  0.00    -0.167 F 
ATOM     30  F   UNL A   1      29.854  25.072  26.400  1.00  0.00    -0.167 F 
ATOM     31  F   UNL A   1      31.494  26.460  26.567  1.00  0.00    -0.167 F 
ENDBRANCH  18  28
ENDBRANCH   6   8
ENDBRANCH   5   6
ENDBRANCH   4   5
ENDBRANCH   3   4
ENDBRANCH   2   3
ENDBRANCH   1   2
BRANCH   1  32
ATOM     32  C   UNL A   1      31.107  29.397  24.620  1.00  0.00     0.261 C 
BRANCH  32  33
ATOM     33  O   UNL A   1      31.913  30.306  25.408  1.00  0.00    -0.460 OA
BRANCH  33  34
ATOM     34  C   UNL A   1      32.209  29.924  26.694  1.00  0.00     0.338 C 
ATOM     35  O   UNL A   1      31.374  29.477  27.461  1.00  0.00    -0.246 OA
BRANCH  34  36
ATOM     36  C   UNL A   1      33.688  29.957  26.949  1.00  0.00     0.060 A 
ATOM     37  C   UNL A   1      34.573  28.916  26.642  1.00  0.00     0.016 A 
ATOM     38  C   UNL A   1      34.196  31.042  27.633  1.00  0.00     0.016 A 
ATOM     39  C   UNL A   1      35.899  28.911  27.159  1.00  0.00     0.010 A 
ATOM     40  C   UNL A   1      35.477  31.036  28.150  1.00  0.00     0.010 A 
ATOM     41  C   UNL A   1      36.341  29.951  27.977  1.00  0.00    -0.014 A 
BRANCH  41  42
ATOM     42  C   UNL A   1      37.557  30.040  28.826  1.00  0.00     0.031 A 
ATOM     43  C   UNL A   1      38.619  29.016  28.632  1.00  0.00     0.074 A 
ATOM     44  C   UNL A   1      37.921  31.201  29.443  1.00  0.00     0.049 A 
ATOM     45  N   UNL A   1      39.779  29.076  29.178  1.00  0.00    -0.248 NA
ATOM     46  C   UNL A   1      38.470  27.801  27.832  1.00  0.00     0.031 C 
ATOM     47  C   UNL A   1      39.277  31.704  29.735  1.00  0.00     0.029 A 
ATOM     48  N   UNL A   1      37.136  32.252  29.894  1.00  0.00    -0.354 N 
ATOM     49  C   UNL A   1      40.601  28.146  28.602  1.00  0.00     0.074 A 
ATOM     50  C   UNL A   1      39.715  27.305  27.851  1.00  0.00     0.031 C 
ATOM     51  C   UNL A   1      39.220  32.803  30.504  1.00  0.00     0.029 A 
ATOM     52  C   UNL A   1      37.832  32.986  30.863  1.00  0.00     0.049 A 
ATOM     53  H   UNL A   1      36.225  32.453  29.580  1.00  0.00     0.167 HD
ATOM     54  C   UNL A   1      41.941  28.272  28.808  1.00  0.00     0.031 A 
ATOM     55  C   UNL A   1      37.295  33.059  32.108  1.00  0.00     0.031 A 
ATOM     56  C   UNL A   1      42.195  29.257  29.866  1.00  0.00     0.049 A 
ATOM     57  C   UNL A   1      38.164  32.204  32.995  1.00  0.00     0.074 A 
ATOM     58  C   UNL A   1      42.735  30.528  29.928  1.00  0.00     0.029 A 
ATOM     59  N   UNL A   1      41.545  29.050  31.081  1.00  0.00    -0.354 N 
ATOM     60  N   UNL A   1      38.920  31.239  32.533  1.00  0.00    -0.248 NA
ATOM     61  C   UNL A   1      38.432  32.488  34.399  1.00  0.00     0.031 C 
ATOM     62  C   UNL A   1      42.321  31.108  31.173  1.00  0.00     0.029 A 
ATOM     63  C   UNL A   1      41.553  30.180  31.867  1.00  0.00     0.049 A 
ATOM     64  H   UNL A   1      41.129  28.198  31.346  1.00  0.00     0.167 HD
ATOM     65  C   UNL A   1      39.859  30.910  33.460  1.00  0.00     0.074 A 
ATOM     66  C   UNL A   1      39.466  31.659  34.643  1.00  0.00     0.031 C 
ATOM     67  C   UNL A   1      40.952  30.132  33.198  1.00  0.00     0.031 A 
BRANCH  54  68
ATOM     68  C   UNL A   1      43.040  27.576  28.037  1.00  0.00    -0.014 A 
ATOM     69  C   UNL A   1      43.073  27.692  26.631  1.00  0.00     0.010 A 
ATOM     70  C   UNL A   1      44.028  26.751  28.608  1.00  0.00     0.010 A 
ATOM     71  C   UNL A   1      44.033  27.034  25.845  1.00  0.00     0.020 A 
ATOM     72  C   UNL A   1      45.003  26.093  27.837  1.00  0.00     0.020 A 
ATOM     73  C   UNL A   1      45.000  26.239  26.454  1.00  0.00     0.054 A 
BRANCH  73  74
ATOM     74  S   UNL A   1      46.235  25.407  25.419  1.00  0.00     0.124 S 
ATOM     75  O   UNL A   1      45.406  24.617  24.513  1.00  0.00    -0.237 OA
ATOM     76  O   UNL A   1      46.943  26.528  24.809  1.00  0.00    -0.237 OA
ATOM     77  O   UNL A   1      47.020  24.626  26.375  1.00  0.00    -0.744 OA
ENDBRANCH  73  74
ENDBRANCH  54  68
BRANCH  55  78
ATOM     78  C   UNL A   1      35.801  33.270  32.003  1.00  0.00    -0.014 A 
ATOM     79  C   UNL A   1      35.159  33.573  33.235  1.00  0.00     0.010 A 
ATOM     80  C   UNL A   1      35.218  33.793  30.828  1.00  0.00     0.010 A 
ATOM     81  C   UNL A   1      34.115  34.512  33.312  1.00  0.00     0.020 A 
ATOM     82  C   UNL A   1      34.168  34.740  30.906  1.00  0.00     0.020 A 
ATOM     83  C   UNL A   1      33.662  35.132  32.150  1.00  0.00     0.054 A 
BRANCH  83  84
ATOM     84  S   UNL A   1      32.609  36.619  32.317  1.00  0.00     0.124 S 
ATOM     85  O   UNL A   1      33.235  37.324  33.428  1.00  0.00    -0.237 OA
ATOM     86  O   UNL A   1      32.744  37.261  31.008  1.00  0.00    -0.237 OA
ATOM     87  O   UNL A   1      31.284  36.072  32.582  1.00  0.00    -0.744 OA
ENDBRANCH  83  84
ENDBRANCH  55  78
BRANCH  67  88
ATOM     88  C   UNL A   1      41.535  29.194  34.224  1.00  0.00    -0.014 A 
ATOM     89  C   UNL A   1      41.333  27.807  34.194  1.00  0.00     0.010 A 
ATOM     90  C   UNL A   1      42.484  29.681  35.156  1.00  0.00     0.010 A 
ATOM     91  C   UNL A   1      41.981  26.959  35.092  1.00  0.00     0.020 A 
ATOM     92  C   UNL A   1      43.191  28.837  36.010  1.00  0.00     0.020 A 
ATOM     93  C   UNL A   1      42.903  27.481  35.996  1.00  0.00     0.054 A 
BRANCH  93  94
ATOM     94  S   UNL A   1      43.729  26.354  37.134  1.00  0.00     0.124 S 
ATOM     95  O   UNL A   1      43.935  27.213  38.298  1.00  0.00    -0.237 OA
ATOM     96  O   UNL A   1      42.741  25.292  37.307  1.00  0.00    -0.237 OA
ATOM     97  O   UNL A   1      44.941  25.962  36.420  1.00  0.00    -0.744 OA
ENDBRANCH  93  94
ENDBRANCH  67  88
ENDBRANCH  41  42
ENDBRANCH  34  36
ENDBRANCH  33  34
ENDBRANCH  32  33
ENDBRANCH   1  32
TORSDOF 20
ENDMDL
