MODEL 1
REMARK VINA RESULT:      -9.8      0.000      0.000
REMARK SMILES COC(=O)[C@H]1CCN(S(=O)(=O)N2CCC[C@H](C(=O)OCCOCCOC(=O)c3ccc(-c4c5nc(c(-c6ccc(S(=O)(=O)[O-])cc6)c6ccc([nH]6)c(-c6ccc(S(=O)(=O)[O-])cc6)c6nc(c(-c7ccc(S(=O)(=O)[O-])cc7)c7ccc4[nH]7)C=C6)C=C5)cc3)C2)C1
REMARK SMILES IDX 21 1 20 2 19 3 17 4 18 5 16 6 12 7 13 8 88 9 14 10 15 11
REMARK SMILES IDX 9 12 10 13 11 14 8 15 5 16 6 17 89 18 7 19 3 20 4 21 2 22
REMARK SMILES IDX 1 23 22 24 23 25 24 26 25 27 26 28 27 29 28 30 29 31 87 32
REMARK SMILES IDX 30 33 86 34 31 35 32 36 33 37 80 38 34 39 85 40 79 41 81 42
REMARK SMILES IDX 35 43 84 44 78 45 77 46 36 48 66 49 47 50 65 51 48 52 51 53
REMARK SMILES IDX 64 54 82 55 49 56 50 57 63 59 83 60 52 61 37 62 38 63 46 64
REMARK SMILES IDX 39 65 45 66 40 67 41 68 42 69 43 70 44 71 67 72 68 73 76 74
REMARK SMILES IDX 69 75 75 76 70 77 71 78 72 79 73 80 74 81 53 82 54 83 62 84
REMARK SMILES IDX 55 85 61 86 56 87 57 88 58 89 59 90 60 91
REMARK H PARENT 81 47 51 58
REMARK Flexibility Score: inf
ROOT
ATOM      1  C   UNL A   1      39.204  22.249  26.172  1.00  0.00     0.202 C 
ENDROOT
BRANCH   1   2
ATOM      2  C   UNL A   1      38.094  21.494  25.441  1.00  0.00     0.261 C 
BRANCH   2   3
ATOM      3  O   UNL A   1      36.804  22.012  25.786  1.00  0.00    -0.463 OA
BRANCH   3   4
ATOM      4  C   UNL A   1      36.174  22.693  24.801  1.00  0.00     0.310 C 
ATOM      5  O   UNL A   1      36.488  23.807  24.393  1.00  0.00    -0.252 OA
BRANCH   4   6
ATOM      6  C   UNL A   1      35.021  21.926  24.191  1.00  0.00     0.114 C 
ATOM      7  N   UNL A   1      33.432  23.783  24.029  1.00  0.00    -0.188 NA
ATOM      8  C   UNL A   1      32.370  23.092  24.784  1.00  0.00     0.103 C 
ATOM      9  C   UNL A   1      34.315  22.886  23.271  1.00  0.00     0.118 C 
ATOM     10  C   UNL A   1      33.007  22.109  25.766  1.00  0.00     0.018 C 
ATOM     11  C   UNL A   1      34.031  21.194  25.097  1.00  0.00     0.018 C 
BRANCH   7  12
ATOM     12  S   UNL A   1      33.083  25.281  23.354  1.00  0.00     0.282 S 
ATOM     13  O   UNL A   1      31.696  25.581  23.610  1.00  0.00    -0.195 OA
ATOM     14  O   UNL A   1      33.632  25.298  22.018  1.00  0.00    -0.195 OA
BRANCH  12  15
ATOM     15  N   UNL A   1      34.024  26.323  24.327  1.00  0.00    -0.188 NA
ATOM     16  C   UNL A   1      33.142  28.363  25.321  1.00  0.00     0.116 C 
ATOM     17  C   UNL A   1      32.814  27.176  26.198  1.00  0.00     0.033 C 
ATOM     18  C   UNL A   1      33.758  27.777  24.046  1.00  0.00     0.118 C 
ATOM     19  C   UNL A   1      33.888  26.188  25.803  1.00  0.00     0.104 C 
BRANCH  16  20
ATOM     20  C   UNL A   1      31.940  29.224  25.038  1.00  0.00     0.310 C 
ATOM     21  O   UNL A   1      31.637  30.191  25.726  1.00  0.00    -0.252 OA
BRANCH  20  22
ATOM     22  O   UNL A   1      31.267  28.796  23.942  1.00  0.00    -0.469 OA
ATOM     23  C   UNL A   1      30.205  29.651  23.522  1.00  0.00     0.282 C 
ENDBRANCH  20  22
ENDBRANCH  16  20
ENDBRANCH  12  15
ENDBRANCH   7  12
ENDBRANCH   4   6
ENDBRANCH   3   4
ENDBRANCH   2   3
ENDBRANCH   1   2
BRANCH   1  24
ATOM     24  O   UNL A   1      39.958  21.548  27.159  1.00  0.00    -0.374 OA
BRANCH  24  25
ATOM     25  C   UNL A   1      41.320  21.229  26.888  1.00  0.00     0.202 C 
BRANCH  25  26
ATOM     26  C   UNL A   1      42.158  22.202  26.046  1.00  0.00     0.261 C 
BRANCH  26  27
ATOM     27  O   UNL A   1      42.724  23.283  26.806  1.00  0.00    -0.460 OA
BRANCH  27  28
ATOM     28  C   UNL A   1      42.673  24.484  26.176  1.00  0.00     0.338 C 
ATOM     29  O   UNL A   1      42.900  24.702  24.997  1.00  0.00    -0.246 OA
BRANCH  28  30
ATOM     30  C   UNL A   1      42.106  25.515  27.063  1.00  0.00     0.060 A 
ATOM     31  C   UNL A   1      42.779  26.743  27.128  1.00  0.00     0.016 A 
ATOM     32  C   UNL A   1      41.026  25.251  27.905  1.00  0.00     0.016 A 
ATOM     33  C   UNL A   1      42.412  27.691  28.078  1.00  0.00     0.010 A 
ATOM     34  C   UNL A   1      40.664  26.203  28.865  1.00  0.00     0.010 A 
ATOM     35  C   UNL A   1      41.382  27.407  28.984  1.00  0.00    -0.014 A 
BRANCH  35  36
ATOM     36  C   UNL A   1      41.168  28.310  30.141  1.00  0.00     0.031 A 
ATOM     37  C   UNL A   1      42.053  28.175  31.352  1.00  0.00     0.074 A 
ATOM     38  C   UNL A   1      40.228  29.272  30.096  1.00  0.00     0.049 A 
ATOM     39  N   UNL A   1      42.020  28.835  32.480  1.00  0.00    -0.248 NA
ATOM     40  C   UNL A   1      43.115  27.157  31.281  1.00  0.00     0.031 C 
ATOM     41  C   UNL A   1      39.347  29.537  28.959  1.00  0.00     0.029 A 
ATOM     42  N   UNL A   1      39.858  30.202  31.034  1.00  0.00    -0.354 N 
ATOM     43  C   UNL A   1      43.048  28.311  33.256  1.00  0.00     0.074 A 
ATOM     44  C   UNL A   1      43.661  27.253  32.483  1.00  0.00     0.031 C 
ATOM     45  C   UNL A   1      38.530  30.557  29.272  1.00  0.00     0.029 A 
ATOM     46  C   UNL A   1      38.803  30.988  30.642  1.00  0.00     0.049 A 
ATOM     47  H   UNL A   1      40.307  30.296  31.906  1.00  0.00     0.167 HD
ATOM     48  C   UNL A   1      43.449  28.681  34.496  1.00  0.00     0.031 A 
ATOM     49  C   UNL A   1      38.114  31.929  31.318  1.00  0.00     0.031 A 
ATOM     50  C   UNL A   1      42.822  29.724  35.267  1.00  0.00     0.049 A 
ATOM     51  C   UNL A   1      38.521  32.266  32.729  1.00  0.00     0.074 A 
ATOM     52  C   UNL A   1      43.155  30.179  36.532  1.00  0.00     0.029 A 
ATOM     53  N   UNL A   1      41.729  30.470  34.851  1.00  0.00    -0.354 N 
ATOM     54  N   UNL A   1      39.503  31.771  33.446  1.00  0.00    -0.248 NA
ATOM     55  C   UNL A   1      37.732  33.296  33.419  1.00  0.00     0.031 C 
ATOM     56  C   UNL A   1      42.223  31.152  36.905  1.00  0.00     0.029 A 
ATOM     57  C   UNL A   1      41.355  31.360  35.844  1.00  0.00     0.049 A 
ATOM     58  H   UNL A   1      41.285  30.380  33.977  1.00  0.00     0.167 HD
ATOM     59  C   UNL A   1      39.467  32.448  34.661  1.00  0.00     0.074 A 
ATOM     60  C   UNL A   1      38.377  33.400  34.574  1.00  0.00     0.031 C 
ATOM     61  C   UNL A   1      40.264  32.299  35.748  1.00  0.00     0.031 A 
BRANCH  48  62
ATOM     62  C   UNL A   1      44.600  27.924  35.112  1.00  0.00    -0.014 A 
ATOM     63  C   UNL A   1      45.928  28.369  34.974  1.00  0.00     0.010 A 
ATOM     64  C   UNL A   1      44.346  26.763  35.865  1.00  0.00     0.010 A 
ATOM     65  C   UNL A   1      46.981  27.643  35.536  1.00  0.00     0.020 A 
ATOM     66  C   UNL A   1      45.394  26.051  36.456  1.00  0.00     0.020 A 
ATOM     67  C   UNL A   1      46.707  26.486  36.272  1.00  0.00     0.054 A 
BRANCH  67  68
ATOM     68  S   UNL A   1      48.093  25.568  36.997  1.00  0.00     0.124 S 
ATOM     69  O   UNL A   1      49.159  25.816  36.029  1.00  0.00    -0.237 OA
ATOM     70  O   UNL A   1      48.261  26.217  38.295  1.00  0.00    -0.237 OA
ATOM     71  O   UNL A   1      47.610  24.191  37.050  1.00  0.00    -0.744 OA
ENDBRANCH  67  68
ENDBRANCH  48  62
BRANCH  49  72
ATOM     72  C   UNL A   1      36.947  32.594  30.676  1.00  0.00    -0.014 A 
ATOM     73  C   UNL A   1      35.631  32.210  30.990  1.00  0.00     0.010 A 
ATOM     74  C   UNL A   1      37.151  33.633  29.748  1.00  0.00     0.010 A 
ATOM     75  C   UNL A   1      34.544  32.843  30.379  1.00  0.00     0.020 A 
ATOM     76  C   UNL A   1      36.066  34.290  29.160  1.00  0.00     0.020 A 
ATOM     77  C   UNL A   1      34.770  33.883  29.472  1.00  0.00     0.054 A 
BRANCH  77  78
ATOM     78  S   UNL A   1      33.341  34.725  28.735  1.00  0.00     0.124 S 
ATOM     79  O   UNL A   1      32.514  35.003  29.905  1.00  0.00    -0.237 OA
ATOM     80  O   UNL A   1      33.955  35.890  28.103  1.00  0.00    -0.237 OA
ATOM     81  O   UNL A   1      32.799  33.735  27.807  1.00  0.00    -0.744 OA
ENDBRANCH  77  78
ENDBRANCH  49  72
BRANCH  61  82
ATOM     82  C   UNL A   1      40.015  33.207  36.926  1.00  0.00    -0.014 A 
ATOM     83  C   UNL A   1      39.120  32.852  37.951  1.00  0.00     0.010 A 
ATOM     84  C   UNL A   1      40.733  34.414  37.035  1.00  0.00     0.010 A 
ATOM     85  C   UNL A   1      38.921  33.702  39.043  1.00  0.00     0.020 A 
ATOM     86  C   UNL A   1      40.562  35.249  38.142  1.00  0.00     0.020 A 
ATOM     87  C   UNL A   1      39.645  34.895  39.132  1.00  0.00     0.054 A 
BRANCH  87  88
ATOM     88  S   UNL A   1      39.402  35.958  40.582  1.00  0.00     0.124 S 
ATOM     89  O   UNL A   1      38.118  35.486  41.093  1.00  0.00    -0.237 OA
ATOM     90  O   UNL A   1      40.563  35.641  41.409  1.00  0.00    -0.237 OA
ATOM     91  O   UNL A   1      39.391  37.308  40.024  1.00  0.00    -0.744 OA
ENDBRANCH  87  88
ENDBRANCH  61  82
ENDBRANCH  35  36
ENDBRANCH  28  30
ENDBRANCH  27  28
ENDBRANCH  26  27
ENDBRANCH  25  26
ENDBRANCH  24  25
ENDBRANCH   1  24
TORSDOF 21
ENDMDL
MODEL 2
REMARK VINA RESULT:      -9.5      3.964     10.225
REMARK SMILES COC(=O)[C@H]1CCN(S(=O)(=O)N2CCC[C@H](C(=O)OCCOCCOC(=O)c3ccc(-c4c5nc(c(-c6ccc(S(=O)(=O)[O-])cc6)c6ccc([nH]6)c(-c6ccc(S(=O)(=O)[O-])cc6)c6nc(c(-c7ccc(S(=O)(=O)[O-])cc7)c7ccc4[nH]7)C=C6)C=C5)cc3)C2)C1
REMARK SMILES IDX 21 1 20 2 19 3 17 4 18 5 16 6 12 7 13 8 88 9 14 10 15 11
REMARK SMILES IDX 9 12 10 13 11 14 8 15 5 16 6 17 89 18 7 19 3 20 4 21 2 22
REMARK SMILES IDX 1 23 22 24 23 25 24 26 25 27 26 28 27 29 28 30 29 31 87 32
REMARK SMILES IDX 30 33 86 34 31 35 32 36 33 37 80 38 34 39 85 40 79 41 81 42
REMARK SMILES IDX 35 43 84 44 78 45 77 46 36 48 66 49 47 50 65 51 48 52 51 53
REMARK SMILES IDX 64 54 82 55 49 56 50 57 63 59 83 60 52 61 37 62 38 63 46 64
REMARK SMILES IDX 39 65 45 66 40 67 41 68 42 69 43 70 44 71 67 72 68 73 76 74
REMARK SMILES IDX 69 75 75 76 70 77 71 78 72 79 73 80 74 81 53 82 54 83 62 84
REMARK SMILES IDX 55 85 61 86 56 87 57 88 58 89 59 90 60 91
REMARK H PARENT 81 47 51 58
REMARK Flexibility Score: inf
ROOT
ATOM      1  C   UNL A   1      33.370  28.639  25.759  1.00  0.00     0.202 C 
ENDROOT
BRANCH   1   2
ATOM      2  C   UNL A   1      32.600  27.531  26.479  1.00  0.00     0.261 C 
BRANCH   2   3
ATOM      3  O   UNL A   1      32.392  26.405  25.618  1.00  0.00    -0.463 OA
BRANCH   3   4
ATOM      4  C   UNL A   1      31.130  25.916  25.604  1.00  0.00     0.310 C 
ATOM      5  O   UNL A   1      30.511  25.517  26.586  1.00  0.00    -0.252 OA
BRANCH   4   6
ATOM      6  C   UNL A   1      30.503  25.928  24.228  1.00  0.00     0.114 C 
ATOM      7  N   UNL A   1      32.113  24.457  23.113  1.00  0.00    -0.188 NA
ATOM      8  C   UNL A   1      32.424  25.419  22.039  1.00  0.00     0.103 C 
ATOM      9  C   UNL A   1      30.747  24.563  23.640  1.00  0.00     0.118 C 
ATOM     10  C   UNL A   1      32.225  26.842  22.563  1.00  0.00     0.018 C 
ATOM     11  C   UNL A   1      30.867  27.034  23.235  1.00  0.00     0.018 C 
BRANCH   7  12
ATOM     12  S   UNL A   1      32.797  22.925  23.030  1.00  0.00     0.282 S 
ATOM     13  O   UNL A   1      34.007  23.010  22.252  1.00  0.00    -0.195 OA
ATOM     14  O   UNL A   1      31.743  21.992  22.700  1.00  0.00    -0.195 OA
BRANCH  12  15
ATOM     15  N   UNL A   1      33.247  22.662  24.657  1.00  0.00    -0.188 NA
ATOM     16  C   UNL A   1      33.480  20.441  25.625  1.00  0.00     0.116 C 
ATOM     17  C   UNL A   1      34.754  20.830  24.909  1.00  0.00     0.033 C 
ATOM     18  C   UNL A   1      32.470  21.546  25.301  1.00  0.00     0.118 C 
ATOM     19  C   UNL A   1      34.674  22.340  24.927  1.00  0.00     0.104 C 
BRANCH  16  20
ATOM     20  C   UNL A   1      32.987  19.075  25.227  1.00  0.00     0.310 C 
ATOM     21  O   UNL A   1      32.281  18.385  25.952  1.00  0.00    -0.252 OA
BRANCH  20  22
ATOM     22  O   UNL A   1      33.414  18.732  23.987  1.00  0.00    -0.469 OA
ATOM     23  C   UNL A   1      32.372  18.510  23.038  1.00  0.00     0.282 C 
ENDBRANCH  20  22
ENDBRANCH  16  20
ENDBRANCH  12  15
ENDBRANCH   7  12
ENDBRANCH   4   6
ENDBRANCH   3   4
ENDBRANCH   2   3
ENDBRANCH   1   2
BRANCH   1  24
ATOM     24  O   UNL A   1      32.647  29.792  25.334  1.00  0.00    -0.374 OA
BRANCH  24  25
ATOM     25  C   UNL A   1      32.030  30.620  26.315  1.00  0.00     0.202 C 
BRANCH  25  26
ATOM     26  C   UNL A   1      32.915  31.485  27.224  1.00  0.00     0.261 C 
BRANCH  26  27
ATOM     27  O   UNL A   1      34.290  31.062  27.261  1.00  0.00    -0.460 OA
BRANCH  27  28
ATOM     28  C   UNL A   1      34.912  31.319  28.439  1.00  0.00     0.338 C 
ATOM     29  O   UNL A   1      34.473  31.973  29.371  1.00  0.00    -0.246 OA
BRANCH  28  30
ATOM     30  C   UNL A   1      36.153  30.534  28.556  1.00  0.00     0.060 A 
ATOM     31  C   UNL A   1      36.447  29.984  29.811  1.00  0.00     0.016 A 
ATOM     32  C   UNL A   1      37.071  30.445  27.509  1.00  0.00     0.016 A 
ATOM     33  C   UNL A   1      37.685  29.393  30.043  1.00  0.00     0.010 A 
ATOM     34  C   UNL A   1      38.318  29.857  27.747  1.00  0.00     0.010 A 
ATOM     35  C   UNL A   1      38.646  29.369  29.026  1.00  0.00    -0.014 A 
BRANCH  35  36
ATOM     36  C   UNL A   1      40.037  28.968  29.354  1.00  0.00     0.031 A 
ATOM     37  C   UNL A   1      40.936  29.946  30.062  1.00  0.00     0.074 A 
ATOM     38  C   UNL A   1      40.479  27.729  29.069  1.00  0.00     0.049 A 
ATOM     39  N   UNL A   1      42.188  29.815  30.414  1.00  0.00    -0.248 NA
ATOM     40  C   UNL A   1      40.342  31.246  30.418  1.00  0.00     0.031 C 
ATOM     41  C   UNL A   1      39.686  26.676  28.434  1.00  0.00     0.029 A 
ATOM     42  N   UNL A   1      41.706  27.151  29.274  1.00  0.00    -0.354 N 
ATOM     43  C   UNL A   1      42.537  31.015  31.025  1.00  0.00     0.074 A 
ATOM     44  C   UNL A   1      41.374  31.874  30.962  1.00  0.00     0.031 C 
ATOM     45  C   UNL A   1      40.452  25.582  28.293  1.00  0.00     0.029 A 
ATOM     46  C   UNL A   1      41.797  25.870  28.788  1.00  0.00     0.049 A 
ATOM     47  H   UNL A   1      42.450  27.612  29.726  1.00  0.00     0.167 HD
ATOM     48  C   UNL A   1      43.715  31.367  31.593  1.00  0.00     0.031 A 
ATOM     49  C   UNL A   1      42.852  25.033  28.723  1.00  0.00     0.031 A 
ATOM     50  C   UNL A   1      44.875  30.513  31.636  1.00  0.00     0.049 A 
ATOM     51  C   UNL A   1      44.178  25.475  29.283  1.00  0.00     0.074 A 
ATOM     52  C   UNL A   1      46.116  30.773  32.192  1.00  0.00     0.029 A 
ATOM     53  N   UNL A   1      44.940  29.237  31.097  1.00  0.00    -0.354 N 
ATOM     54  N   UNL A   1      44.490  26.608  29.869  1.00  0.00    -0.248 NA
ATOM     55  C   UNL A   1      45.293  24.524  29.180  1.00  0.00     0.031 C 
ATOM     56  C   UNL A   1      46.950  29.682  31.930  1.00  0.00     0.029 A 
ATOM     57  C   UNL A   1      46.208  28.709  31.279  1.00  0.00     0.049 A 
ATOM     58  H   UNL A   1      44.194  28.774  30.651  1.00  0.00     0.167 HD
ATOM     59  C   UNL A   1      45.829  26.494  30.229  1.00  0.00     0.074 A 
ATOM     60  C   UNL A   1      46.262  25.175  29.810  1.00  0.00     0.031 C 
ATOM     61  C   UNL A   1      46.628  27.396  30.853  1.00  0.00     0.031 A 
BRANCH  48  62
ATOM     62  C   UNL A   1      43.820  32.753  32.181  1.00  0.00    -0.014 A 
ATOM     63  C   UNL A   1      43.550  32.995  33.540  1.00  0.00     0.010 A 
ATOM     64  C   UNL A   1      44.223  33.826  31.365  1.00  0.00     0.010 A 
ATOM     65  C   UNL A   1      43.634  34.290  34.060  1.00  0.00     0.020 A 
ATOM     66  C   UNL A   1      44.340  35.117  31.888  1.00  0.00     0.020 A 
ATOM     67  C   UNL A   1      44.026  35.344  33.229  1.00  0.00     0.054 A 
BRANCH  67  68
ATOM     68  S   UNL A   1      44.136  37.012  33.933  1.00  0.00     0.124 S 
ATOM     69  O   UNL A   1      44.983  37.694  32.959  1.00  0.00    -0.237 OA
ATOM     70  O   UNL A   1      42.739  37.440  33.958  1.00  0.00    -0.237 OA
ATOM     71  O   UNL A   1      44.743  36.798  35.244  1.00  0.00    -0.744 OA
ENDBRANCH  67  68
ENDBRANCH  48  62
BRANCH  49  72
ATOM     72  C   UNL A   1      42.699  23.702  28.072  1.00  0.00    -0.014 A 
ATOM     73  C   UNL A   1      42.313  22.573  28.814  1.00  0.00     0.010 A 
ATOM     74  C   UNL A   1      42.930  23.563  26.689  1.00  0.00     0.010 A 
ATOM     75  C   UNL A   1      42.173  21.329  28.190  1.00  0.00     0.020 A 
ATOM     76  C   UNL A   1      42.760  22.329  26.057  1.00  0.00     0.020 A 
ATOM     77  C   UNL A   1      42.393  21.217  26.813  1.00  0.00     0.054 A 
BRANCH  77  78
ATOM     78  S   UNL A   1      42.152  19.604  26.018  1.00  0.00     0.124 S 
ATOM     79  O   UNL A   1      40.714  19.599  25.769  1.00  0.00    -0.237 OA
ATOM     80  O   UNL A   1      42.999  19.709  24.833  1.00  0.00    -0.237 OA
ATOM     81  O   UNL A   1      42.615  18.651  27.025  1.00  0.00    -0.744 OA
ENDBRANCH  77  78
ENDBRANCH  49  72
BRANCH  61  82
ATOM     82  C   UNL A   1      48.047  26.981  31.155  1.00  0.00    -0.014 A 
ATOM     83  C   UNL A   1      48.393  26.388  32.381  1.00  0.00     0.010 A 
ATOM     84  C   UNL A   1      49.039  27.140  30.169  1.00  0.00     0.010 A 
ATOM     85  C   UNL A   1      49.711  25.994  32.630  1.00  0.00     0.020 A 
ATOM     86  C   UNL A   1      50.350  26.716  30.400  1.00  0.00     0.020 A 
ATOM     87  C   UNL A   1      50.681  26.158  31.636  1.00  0.00     0.054 A 
BRANCH  87  88
ATOM     88  S   UNL A   1      52.375  25.598  31.967  1.00  0.00     0.124 S 
ATOM     89  O   UNL A   1      53.061  25.957  30.730  1.00  0.00    -0.237 OA
ATOM     90  O   UNL A   1      52.746  26.382  33.142  1.00  0.00    -0.237 OA
ATOM     91  O   UNL A   1      52.226  24.164  32.203  1.00  0.00    -0.744 OA
ENDBRANCH  87  88
ENDBRANCH  61  82
ENDBRANCH  35  36
ENDBRANCH  28  30
ENDBRANCH  27  28
ENDBRANCH  26  27
ENDBRANCH  25  26
ENDBRANCH  24  25
ENDBRANCH   1  24
TORSDOF 21
ENDMDL
MODEL 3
REMARK VINA RESULT:      -9.5      4.130      6.708
REMARK SMILES COC(=O)[C@H]1CCN(S(=O)(=O)N2CCC[C@H](C(=O)OCCOCCOC(=O)c3ccc(-c4c5nc(c(-c6ccc(S(=O)(=O)[O-])cc6)c6ccc([nH]6)c(-c6ccc(S(=O)(=O)[O-])cc6)c6nc(c(-c7ccc(S(=O)(=O)[O-])cc7)c7ccc4[nH]7)C=C6)C=C5)cc3)C2)C1
REMARK SMILES IDX 21 1 20 2 19 3 17 4 18 5 16 6 12 7 13 8 88 9 14 10 15 11
REMARK SMILES IDX 9 12 10 13 11 14 8 15 5 16 6 17 89 18 7 19 3 20 4 21 2 22
REMARK SMILES IDX 1 23 22 24 23 25 24 26 25 27 26 28 27 29 28 30 29 31 87 32
REMARK SMILES IDX 30 33 86 34 31 35 32 36 33 37 80 38 34 39 85 40 79 41 81 42
REMARK SMILES IDX 35 43 84 44 78 45 77 46 36 48 66 49 47 50 65 51 48 52 51 53
REMARK SMILES IDX 64 54 82 55 49 56 50 57 63 59 83 60 52 61 37 62 38 63 46 64
REMARK SMILES IDX 39 65 45 66 40 67 41 68 42 69 43 70 44 71 67 72 68 73 76 74
REMARK SMILES IDX 69 75 75 76 70 77 71 78 72 79 73 80 74 81 53 82 54 83 62 84
REMARK SMILES IDX 55 85 61 86 56 87 57 88 58 89 59 90 60 91
REMARK H PARENT 81 47 51 58
REMARK Flexibility Score: inf
ROOT
ATOM      1  C   UNL A   1      42.562  22.700  28.344  1.00  0.00     0.202 C 
ENDROOT
BRANCH   1   2
ATOM      2  C   UNL A   1      42.989  24.119  28.720  1.00  0.00     0.261 C 
BRANCH   2   3
ATOM      3  O   UNL A   1      43.395  24.858  27.562  1.00  0.00    -0.463 OA
BRANCH   3   4
ATOM      4  C   UNL A   1      44.698  25.221  27.538  1.00  0.00     0.310 C 
ATOM      5  O   UNL A   1      45.503  25.046  28.449  1.00  0.00    -0.252 OA
BRANCH   4   6
ATOM      6  C   UNL A   1      45.114  25.860  26.231  1.00  0.00     0.114 C 
ATOM      7  N   UNL A   1      45.229  23.818  24.882  1.00  0.00    -0.188 NA
ATOM      8  C   UNL A   1      46.619  24.047  24.445  1.00  0.00     0.103 C 
ATOM      9  C   UNL A   1      44.468  25.048  25.140  1.00  0.00     0.118 C 
ATOM     10  C   UNL A   1      47.359  24.850  25.515  1.00  0.00     0.018 C 
ATOM     11  C   UNL A   1      46.595  26.103  25.940  1.00  0.00     0.018 C 
BRANCH   7  12
ATOM     12  S   UNL A   1      44.397  22.511  24.235  1.00  0.00     0.282 S 
ATOM     13  O   UNL A   1      44.544  22.544  22.802  1.00  0.00    -0.195 OA
ATOM     14  O   UNL A   1      43.097  22.463  24.866  1.00  0.00    -0.195 OA
BRANCH  12  15
ATOM     15  N   UNL A   1      45.317  21.195  24.818  1.00  0.00    -0.188 NA
ATOM     16  C   UNL A   1      44.325  19.071  25.473  1.00  0.00     0.116 C 
ATOM     17  C   UNL A   1      44.555  19.096  23.979  1.00  0.00     0.033 C 
ATOM     18  C   UNL A   1      44.652  20.485  25.965  1.00  0.00     0.118 C 
ATOM     19  C   UNL A   1      45.660  20.119  23.849  1.00  0.00     0.104 C 
BRANCH  16  20
ATOM     20  C   UNL A   1      42.929  18.642  25.837  1.00  0.00     0.310 C 
ATOM     21  O   UNL A   1      42.554  17.478  25.779  1.00  0.00    -0.252 OA
BRANCH  20  22
ATOM     22  O   UNL A   1      42.172  19.693  26.235  1.00  0.00    -0.469 OA
ATOM     23  C   UNL A   1      41.285  19.414  27.318  1.00  0.00     0.282 C 
ENDBRANCH  20  22
ENDBRANCH  16  20
ENDBRANCH  12  15
ENDBRANCH   7  12
ENDBRANCH   4   6
ENDBRANCH   3   4
ENDBRANCH   2   3
ENDBRANCH   1   2
BRANCH   1  24
ATOM     24  O   UNL A   1      41.169  22.436  28.189  1.00  0.00    -0.374 OA
BRANCH  24  25
ATOM     25  C   UNL A   1      40.476  23.017  27.087  1.00  0.00     0.202 C 
BRANCH  25  26
ATOM     26  C   UNL A   1      39.416  24.093  27.360  1.00  0.00     0.261 C 
BRANCH  26  27
ATOM     27  O   UNL A   1      39.359  25.116  26.349  1.00  0.00    -0.460 OA
BRANCH  27  28
ATOM     28  C   UNL A   1      40.293  26.089  26.499  1.00  0.00     0.338 C 
ATOM     29  O   UNL A   1      41.209  26.347  25.735  1.00  0.00    -0.246 OA
BRANCH  28  30
ATOM     30  C   UNL A   1      39.959  26.963  27.637  1.00  0.00     0.060 A 
ATOM     31  C   UNL A   1      40.443  28.278  27.598  1.00  0.00     0.016 A 
ATOM     32  C   UNL A   1      39.304  26.481  28.770  1.00  0.00     0.016 A 
ATOM     33  C   UNL A   1      40.327  29.099  28.715  1.00  0.00     0.010 A 
ATOM     34  C   UNL A   1      39.196  27.305  29.895  1.00  0.00     0.010 A 
ATOM     35  C   UNL A   1      39.744  28.601  29.887  1.00  0.00    -0.014 A 
BRANCH  35  36
ATOM     36  C   UNL A   1      39.851  29.391  31.139  1.00  0.00     0.031 A 
ATOM     37  C   UNL A   1      40.995  29.124  32.081  1.00  0.00     0.074 A 
ATOM     38  C   UNL A   1      38.966  30.368  31.410  1.00  0.00     0.049 A 
ATOM     39  N   UNL A   1      41.260  29.673  33.238  1.00  0.00    -0.248 NA
ATOM     40  C   UNL A   1      41.968  28.101  31.661  1.00  0.00     0.031 C 
ATOM     41  C   UNL A   1      37.848  30.757  30.551  1.00  0.00     0.029 A 
ATOM     42  N   UNL A   1      38.870  31.209  32.490  1.00  0.00    -0.354 N 
ATOM     43  C   UNL A   1      42.423  29.058  33.689  1.00  0.00     0.074 A 
ATOM     44  C   UNL A   1      42.791  28.070  32.699  1.00  0.00     0.031 C 
ATOM     45  C   UNL A   1      37.172  31.755  31.144  1.00  0.00     0.029 A 
ATOM     46  C   UNL A   1      37.783  32.046  32.439  1.00  0.00     0.049 A 
ATOM     47  H   UNL A   1      39.518  31.210  33.232  1.00  0.00     0.167 HD
ATOM     48  C   UNL A   1      43.126  29.300  34.823  1.00  0.00     0.031 A 
ATOM     49  C   UNL A   1      37.315  32.928  33.345  1.00  0.00     0.031 A 
ATOM     50  C   UNL A   1      42.744  30.273  35.814  1.00  0.00     0.049 A 
ATOM     51  C   UNL A   1      38.062  33.120  34.639  1.00  0.00     0.074 A 
ATOM     52  C   UNL A   1      43.389  30.597  36.996  1.00  0.00     0.029 A 
ATOM     53  N   UNL A   1      41.613  31.074  35.745  1.00  0.00    -0.354 N 
ATOM     54  N   UNL A   1      39.168  32.541  35.047  1.00  0.00    -0.248 NA
ATOM     55  C   UNL A   1      37.504  34.090  35.590  1.00  0.00     0.031 C 
ATOM     56  C   UNL A   1      42.613  31.545  37.671  1.00  0.00     0.029 A 
ATOM     57  C   UNL A   1      41.525  31.868  36.876  1.00  0.00     0.049 A 
ATOM     58  H   UNL A   1      40.969  31.076  35.001  1.00  0.00     0.167 HD
ATOM     59  C   UNL A   1      39.452  33.098  36.291  1.00  0.00     0.074 A 
ATOM     60  C   UNL A   1      38.411  34.071  36.558  1.00  0.00     0.031 C 
ATOM     61  C   UNL A   1      40.481  32.830  37.133  1.00  0.00     0.031 A 
BRANCH  48  62
ATOM     62  C   UNL A   1      44.360  28.468  35.069  1.00  0.00    -0.014 A 
ATOM     63  C   UNL A   1      44.294  27.248  35.768  1.00  0.00     0.010 A 
ATOM     64  C   UNL A   1      45.602  28.900  34.569  1.00  0.00     0.010 A 
ATOM     65  C   UNL A   1      45.452  26.502  36.002  1.00  0.00     0.020 A 
ATOM     66  C   UNL A   1      46.758  28.140  34.773  1.00  0.00     0.020 A 
ATOM     67  C   UNL A   1      46.678  26.954  35.505  1.00  0.00     0.054 A 
BRANCH  67  68
ATOM     68  S   UNL A   1      48.164  25.961  35.816  1.00  0.00     0.124 S 
ATOM     69  O   UNL A   1      47.896  25.429  37.150  1.00  0.00    -0.237 OA
ATOM     70  O   UNL A   1      48.126  24.983  34.732  1.00  0.00    -0.237 OA
ATOM     71  O   UNL A   1      49.253  26.930  35.740  1.00  0.00    -0.744 OA
ENDBRANCH  67  68
ENDBRANCH  48  62
BRANCH  49  72
ATOM     72  C   UNL A   1      36.055  33.671  33.069  1.00  0.00    -0.014 A 
ATOM     73  C   UNL A   1      34.801  33.060  33.241  1.00  0.00     0.010 A 
ATOM     74  C   UNL A   1      36.107  35.012  32.640  1.00  0.00     0.010 A 
ATOM     75  C   UNL A   1      33.625  33.770  32.978  1.00  0.00     0.020 A 
ATOM     76  C   UNL A   1      34.934  35.734  32.407  1.00  0.00     0.020 A 
ATOM     77  C   UNL A   1      33.700  35.105  32.568  1.00  0.00     0.054 A 
BRANCH  77  78
ATOM     78  S   UNL A   1      32.158  36.021  32.285  1.00  0.00     0.124 S 
ATOM     79  O   UNL A   1      31.148  35.046  32.685  1.00  0.00    -0.237 OA
ATOM     80  O   UNL A   1      32.312  37.173  33.170  1.00  0.00    -0.237 OA
ATOM     81  O   UNL A   1      32.199  36.330  30.858  1.00  0.00    -0.744 OA
ENDBRANCH  77  78
ENDBRANCH  49  72
BRANCH  61  82
ATOM     82  C   UNL A   1      40.558  33.624  38.414  1.00  0.00    -0.014 A 
ATOM     83  C   UNL A   1      41.300  34.816  38.495  1.00  0.00     0.010 A 
ATOM     84  C   UNL A   1      39.830  33.194  39.539  1.00  0.00     0.010 A 
ATOM     85  C   UNL A   1      41.340  35.544  39.688  1.00  0.00     0.020 A 
ATOM     86  C   UNL A   1      39.839  33.938  40.723  1.00  0.00     0.020 A 
ATOM     87  C   UNL A   1      40.607  35.101  40.794  1.00  0.00     0.054 A 
BRANCH  87  88
ATOM     88  S   UNL A   1      40.640  36.088  42.316  1.00  0.00     0.124 S 
ATOM     89  O   UNL A   1      41.597  35.350  43.136  1.00  0.00    -0.237 OA
ATOM     90  O   UNL A   1      41.096  37.392  41.840  1.00  0.00    -0.237 OA
ATOM     91  O   UNL A   1      39.258  36.050  42.786  1.00  0.00    -0.744 OA
ENDBRANCH  87  88
ENDBRANCH  61  82
ENDBRANCH  35  36
ENDBRANCH  28  30
ENDBRANCH  27  28
ENDBRANCH  26  27
ENDBRANCH  25  26
ENDBRANCH  24  25
ENDBRANCH   1  24
TORSDOF 21
ENDMDL
