MODEL 1
REMARK VINA RESULT:      -8.3      0.000      0.000
REMARK SMILES C[C@@H](C(=O)OCCOCCOC(=O)c1ccc(-c2c3nc(c(-c4ccc(S(=O)(=O)[O-])cc4)c4ccc([nH]4)c(-c4ccc(S(=O)(=O)[O-])cc4)c4nc(c(-c5ccc(S(=O)(=O)[O-])cc5)c5ccc2[nH]5)C=C4)C=C3)cc1)c1ccc(-c2cccc(OC(=O)Nc3ccccc3)c2)c(F)c1
REMARK SMILES IDX 7 1 6 2 5 3 3 4 4 5 2 6 1 7 74 8 75 9 96 10 76 11 94 12
REMARK SMILES IDX 77 13 95 14 78 15 79 16 93 17 80 18 82 19 81 20 83 21 84 22
REMARK SMILES IDX 85 23 86 24 87 26 88 27 92 28 89 29 91 30 90 31 8 32 9 33
REMARK SMILES IDX 10 34 11 35 12 36 13 37 14 38 15 39 73 40 16 41 72 42 17 43
REMARK SMILES IDX 18 44 19 45 66 46 20 47 71 48 65 49 67 50 21 51 70 52 64 53
REMARK SMILES IDX 63 54 22 56 52 57 33 58 51 59 34 60 37 61 50 62 68 63 35 64
REMARK SMILES IDX 36 65 49 67 69 68 38 69 23 70 24 71 32 72 25 73 31 74 26 75
REMARK SMILES IDX 27 76 28 77 29 78 30 79 53 80 54 81 62 82 55 83 61 84 56 85
REMARK SMILES IDX 57 86 58 87 59 88 60 89 39 90 40 91 48 92 41 93 47 94 42 95
REMARK SMILES IDX 43 96 44 97 45 98 46 99
REMARK H PARENT 86 25 67 55 37 66
REMARK Flexibility Score: inf
ROOT
ATOM      1  C   UNL A   1      35.524  33.941  30.123  1.00  0.00     0.202 C 
ENDROOT
BRANCH   1   2
ATOM      2  C   UNL A   1      35.234  32.485  29.751  1.00  0.00     0.261 C 
BRANCH   2   3
ATOM      3  O   UNL A   1      36.462  31.770  29.508  1.00  0.00    -0.463 OA
BRANCH   3   4
ATOM      4  C   UNL A   1      36.357  30.657  28.737  1.00  0.00     0.313 C 
ATOM      5  O   UNL A   1      35.954  30.653  27.578  1.00  0.00    -0.252 OA
BRANCH   4   6
ATOM      6  C   UNL A   1      36.830  29.386  29.458  1.00  0.00     0.126 C 
ATOM      7  C   UNL A   1      36.705  29.413  30.986  1.00  0.00     0.025 C 
BRANCH   6   8
ATOM      8  C   UNL A   1      38.235  29.025  28.985  1.00  0.00    -0.031 A 
ATOM      9  C   UNL A   1      38.597  29.259  27.649  1.00  0.00     0.005 A 
ATOM     10  C   UNL A   1      39.224  28.564  29.861  1.00  0.00     0.044 A 
ATOM     11  C   UNL A   1      39.908  29.036  27.206  1.00  0.00     0.012 A 
ATOM     12  C   UNL A   1      40.531  28.366  29.417  1.00  0.00     0.131 A 
ATOM     13  C   UNL A   1      40.904  28.584  28.084  1.00  0.00     0.018 A 
ATOM     14  F   UNL A   1      41.438  27.961  30.321  1.00  0.00    -0.206 F 
BRANCH  13  15
ATOM     15  C   UNL A   1      42.267  28.289  27.611  1.00  0.00    -0.012 A 
ATOM     16  C   UNL A   1      43.216  29.298  27.384  1.00  0.00     0.009 A 
ATOM     17  C   UNL A   1      42.633  26.961  27.338  1.00  0.00     0.056 A 
ATOM     18  C   UNL A   1      44.490  28.987  26.894  1.00  0.00     0.004 A 
ATOM     19  C   UNL A   1      43.895  26.650  26.842  1.00  0.00     0.133 A 
ATOM     20  C   UNL A   1      44.829  27.662  26.620  1.00  0.00     0.047 A 
BRANCH  19  21
ATOM     21  O   UNL A   1      44.312  25.342  26.492  1.00  0.00    -0.410 OA
BRANCH  21  22
ATOM     22  C   UNL A   1      44.787  24.368  27.371  1.00  0.00     0.417 C 
ATOM     23  O   UNL A   1      44.114  23.728  28.173  1.00  0.00    -0.224 OA
ATOM     24  N   UNL A   1      46.111  24.050  27.216  1.00  0.00    -0.291 N 
ATOM     25  H   UNL A   1      46.405  23.258  27.722  1.00  0.00     0.173 HD
BRANCH  24  26
ATOM     26  C   UNL A   1      47.115  24.663  26.457  1.00  0.00     0.044 A 
ATOM     27  C   UNL A   1      48.242  25.119  27.150  1.00  0.00     0.026 A 
ATOM     28  C   UNL A   1      47.031  24.874  25.080  1.00  0.00     0.026 A 
ATOM     29  C   UNL A   1      49.293  25.735  26.469  1.00  0.00     0.002 A 
ATOM     30  C   UNL A   1      48.074  25.509  24.401  1.00  0.00     0.002 A 
ATOM     31  C   UNL A   1      49.209  25.929  25.093  1.00  0.00     0.000 A 
ENDBRANCH  24  26
ENDBRANCH  21  22
ENDBRANCH  19  21
ENDBRANCH  13  15
ENDBRANCH   6   8
ENDBRANCH   4   6
ENDBRANCH   3   4
ENDBRANCH   2   3
ENDBRANCH   1   2
BRANCH   1  32
ATOM     32  O   UNL A   1      35.750  34.207  31.511  1.00  0.00    -0.374 OA
BRANCH  32  33
ATOM     33  C   UNL A   1      34.648  34.712  32.261  1.00  0.00     0.202 C 
BRANCH  33  34
ATOM     34  C   UNL A   1      34.741  34.613  33.788  1.00  0.00     0.261 C 
BRANCH  34  35
ATOM     35  O   UNL A   1      35.164  33.314  34.229  1.00  0.00    -0.460 OA
BRANCH  35  36
ATOM     36  C   UNL A   1      36.182  33.336  35.127  1.00  0.00     0.338 C 
ATOM     37  O   UNL A   1      36.117  33.642  36.305  1.00  0.00    -0.246 OA
BRANCH  36  38
ATOM     38  C   UNL A   1      37.394  32.744  34.532  1.00  0.00     0.060 A 
ATOM     39  C   UNL A   1      38.626  33.130  35.076  1.00  0.00     0.016 A 
ATOM     40  C   UNL A   1      37.341  31.890  33.427  1.00  0.00     0.016 A 
ATOM     41  C   UNL A   1      39.812  32.708  34.485  1.00  0.00     0.010 A 
ATOM     42  C   UNL A   1      38.537  31.476  32.829  1.00  0.00     0.010 A 
ATOM     43  C   UNL A   1      39.775  31.913  33.332  1.00  0.00    -0.014 A 
BRANCH  43  44
ATOM     44  C   UNL A   1      41.028  31.681  32.575  1.00  0.00     0.031 A 
ATOM     45  C   UNL A   1      41.493  32.730  31.599  1.00  0.00     0.074 A 
ATOM     46  C   UNL A   1      41.769  30.580  32.789  1.00  0.00     0.049 A 
ATOM     47  N   UNL A   1      42.558  32.740  30.841  1.00  0.00    -0.248 NA
ATOM     48  C   UNL A   1      40.645  33.927  31.464  1.00  0.00     0.031 C 
ATOM     49  C   UNL A   1      41.450  29.518  33.745  1.00  0.00     0.029 A 
ATOM     50  N   UNL A   1      42.948  30.173  32.217  1.00  0.00    -0.354 N 
ATOM     51  C   UNL A   1      42.505  33.935  30.132  1.00  0.00     0.074 A 
ATOM     52  C   UNL A   1      41.290  34.611  30.531  1.00  0.00     0.031 C 
ATOM     53  C   UNL A   1      42.413  28.582  33.692  1.00  0.00     0.029 A 
ATOM     54  C   UNL A   1      43.396  28.960  32.680  1.00  0.00     0.049 A 
ATOM     55  H   UNL A   1      43.428  30.703  31.539  1.00  0.00     0.167 HD
ATOM     56  C   UNL A   1      43.391  34.428  29.234  1.00  0.00     0.031 A 
ATOM     57  C   UNL A   1      44.468  28.229  32.315  1.00  0.00     0.031 A 
ATOM     58  C   UNL A   1      44.593  33.748  28.831  1.00  0.00     0.049 A 
ATOM     59  C   UNL A   1      45.400  28.764  31.258  1.00  0.00     0.074 A 
ATOM     60  C   UNL A   1      45.563  34.172  27.940  1.00  0.00     0.029 A 
ATOM     61  N   UNL A   1      44.985  32.499  29.286  1.00  0.00    -0.354 N 
ATOM     62  N   UNL A   1      45.349  29.907  30.616  1.00  0.00    -0.248 NA
ATOM     63  C   UNL A   1      46.539  27.914  30.885  1.00  0.00     0.031 C 
ATOM     64  C   UNL A   1      46.513  33.153  27.814  1.00  0.00     0.029 A 
ATOM     65  C   UNL A   1      46.168  32.122  28.673  1.00  0.00     0.049 A 
ATOM     66  H   UNL A   1      44.496  31.960  29.949  1.00  0.00     0.167 HD
ATOM     67  C   UNL A   1      46.463  29.923  29.782  1.00  0.00     0.074 A 
ATOM     68  C   UNL A   1      47.176  28.683  30.012  1.00  0.00     0.031 C 
ATOM     69  C   UNL A   1      46.863  30.882  28.909  1.00  0.00     0.031 A 
BRANCH  56  70
ATOM     70  C   UNL A   1      43.067  35.751  28.592  1.00  0.00    -0.014 A 
ATOM     71  C   UNL A   1      42.344  35.825  27.389  1.00  0.00     0.010 A 
ATOM     72  C   UNL A   1      43.465  36.944  29.224  1.00  0.00     0.010 A 
ATOM     73  C   UNL A   1      42.058  37.064  26.810  1.00  0.00     0.020 A 
ATOM     74  C   UNL A   1      43.159  38.187  28.662  1.00  0.00     0.020 A 
ATOM     75  C   UNL A   1      42.471  38.237  27.449  1.00  0.00     0.054 A 
BRANCH  75  76
ATOM     76  S   UNL A   1      42.070  39.834  26.686  1.00  0.00     0.124 S 
ATOM     77  O   UNL A   1      41.825  40.674  27.857  1.00  0.00    -0.237 OA
ATOM     78  O   UNL A   1      43.282  40.144  25.933  1.00  0.00    -0.237 OA
ATOM     79  O   UNL A   1      40.891  39.543  25.872  1.00  0.00    -0.744 OA
ENDBRANCH  75  76
ENDBRANCH  56  70
BRANCH  57  80
ATOM     80  C   UNL A   1      44.713  26.903  32.944  1.00  0.00    -0.014 A 
ATOM     81  C   UNL A   1      45.411  26.800  34.159  1.00  0.00     0.010 A 
ATOM     82  C   UNL A   1      44.243  25.729  32.324  1.00  0.00     0.010 A 
ATOM     83  C   UNL A   1      45.647  25.548  34.737  1.00  0.00     0.020 A 
ATOM     84  C   UNL A   1      44.453  24.479  32.912  1.00  0.00     0.020 A 
ATOM     85  C   UNL A   1      45.164  24.395  34.111  1.00  0.00     0.054 A 
BRANCH  85  86
ATOM     86  S   UNL A   1      45.433  22.787  34.905  1.00  0.00     0.124 S 
ATOM     87  O   UNL A   1      45.264  23.114  36.318  1.00  0.00    -0.237 OA
ATOM     88  O   UNL A   1      44.381  21.963  34.316  1.00  0.00    -0.237 OA
ATOM     89  O   UNL A   1      46.793  22.430  34.503  1.00  0.00    -0.744 OA
ENDBRANCH  85  86
ENDBRANCH  57  80
BRANCH  69  90
ATOM     90  C   UNL A   1      48.148  30.646  28.159  1.00  0.00    -0.014 A 
ATOM     91  C   UNL A   1      49.319  31.357  28.473  1.00  0.00     0.010 A 
ATOM     92  C   UNL A   1      48.195  29.655  27.161  1.00  0.00     0.010 A 
ATOM     93  C   UNL A   1      50.507  31.103  27.784  1.00  0.00     0.020 A 
ATOM     94  C   UNL A   1      49.388  29.378  26.488  1.00  0.00     0.020 A 
ATOM     95  C   UNL A   1      50.533  30.115  26.793  1.00  0.00     0.054 A 
BRANCH  95  96
ATOM     96  S   UNL A   1      52.098  29.772  25.942  1.00  0.00     0.124 S 
ATOM     97  O   UNL A   1      51.649  29.511  24.577  1.00  0.00    -0.237 OA
ATOM     98  O   UNL A   1      52.846  31.013  26.132  1.00  0.00    -0.237 OA
ATOM     99  O   UNL A   1      52.635  28.614  26.654  1.00  0.00    -0.744 OA
ENDBRANCH  95  96
ENDBRANCH  69  90
ENDBRANCH  43  44
ENDBRANCH  36  38
ENDBRANCH  35  36
ENDBRANCH  34  35
ENDBRANCH  33  34
ENDBRANCH  32  33
ENDBRANCH   1  32
TORSDOF 22
ENDMDL
MODEL 2
REMARK VINA RESULT:      -8.3      5.028      9.923
REMARK SMILES C[C@@H](C(=O)OCCOCCOC(=O)c1ccc(-c2c3nc(c(-c4ccc(S(=O)(=O)[O-])cc4)c4ccc([nH]4)c(-c4ccc(S(=O)(=O)[O-])cc4)c4nc(c(-c5ccc(S(=O)(=O)[O-])cc5)c5ccc2[nH]5)C=C4)C=C3)cc1)c1ccc(-c2cccc(OC(=O)Nc3ccccc3)c2)c(F)c1
REMARK SMILES IDX 7 1 6 2 5 3 3 4 4 5 2 6 1 7 74 8 75 9 96 10 76 11 94 12
REMARK SMILES IDX 77 13 95 14 78 15 79 16 93 17 80 18 82 19 81 20 83 21 84 22
REMARK SMILES IDX 85 23 86 24 87 26 88 27 92 28 89 29 91 30 90 31 8 32 9 33
REMARK SMILES IDX 10 34 11 35 12 36 13 37 14 38 15 39 73 40 16 41 72 42 17 43
REMARK SMILES IDX 18 44 19 45 66 46 20 47 71 48 65 49 67 50 21 51 70 52 64 53
REMARK SMILES IDX 63 54 22 56 52 57 33 58 51 59 34 60 37 61 50 62 68 63 35 64
REMARK SMILES IDX 36 65 49 67 69 68 38 69 23 70 24 71 32 72 25 73 31 74 26 75
REMARK SMILES IDX 27 76 28 77 29 78 30 79 53 80 54 81 62 82 55 83 61 84 56 85
REMARK SMILES IDX 57 86 58 87 59 88 60 89 39 90 40 91 48 92 41 93 47 94 42 95
REMARK SMILES IDX 43 96 44 97 45 98 46 99
REMARK H PARENT 86 25 67 55 37 66
REMARK Flexibility Score: inf
ROOT
ATOM      1  C   UNL A   1      34.880  34.649  31.250  1.00  0.00     0.202 C 
ENDROOT
BRANCH   1   2
ATOM      2  C   UNL A   1      34.081  33.670  30.385  1.00  0.00     0.261 C 
BRANCH   2   3
ATOM      3  O   UNL A   1      34.338  33.904  28.986  1.00  0.00    -0.463 OA
BRANCH   3   4
ATOM      4  C   UNL A   1      35.157  33.008  28.376  1.00  0.00     0.313 C 
ATOM      5  O   UNL A   1      36.078  33.312  27.625  1.00  0.00    -0.252 OA
BRANCH   4   6
ATOM      6  C   UNL A   1      34.832  31.554  28.749  1.00  0.00     0.126 C 
ATOM      7  C   UNL A   1      36.027  30.711  29.211  1.00  0.00     0.025 C 
BRANCH   6   8
ATOM      8  C   UNL A   1      34.050  30.899  27.613  1.00  0.00    -0.031 A 
ATOM      9  C   UNL A   1      34.478  29.664  27.102  1.00  0.00     0.005 A 
ATOM     10  C   UNL A   1      32.851  31.430  27.127  1.00  0.00     0.044 A 
ATOM     11  C   UNL A   1      33.728  28.985  26.131  1.00  0.00     0.012 A 
ATOM     12  C   UNL A   1      32.100  30.738  26.178  1.00  0.00     0.131 A 
ATOM     13  C   UNL A   1      32.520  29.510  25.650  1.00  0.00     0.018 A 
ATOM     14  F   UNL A   1      30.938  31.287  25.785  1.00  0.00    -0.206 F 
BRANCH  13  15
ATOM     15  C   UNL A   1      31.760  28.832  24.586  1.00  0.00    -0.012 A 
ATOM     16  C   UNL A   1      30.632  29.413  23.984  1.00  0.00     0.009 A 
ATOM     17  C   UNL A   1      32.142  27.545  24.173  1.00  0.00     0.056 A 
ATOM     18  C   UNL A   1      29.907  28.725  23.005  1.00  0.00     0.004 A 
ATOM     19  C   UNL A   1      31.418  26.855  23.208  1.00  0.00     0.133 A 
ATOM     20  C   UNL A   1      30.299  27.443  22.618  1.00  0.00     0.047 A 
BRANCH  19  21
ATOM     21  O   UNL A   1      31.712  25.535  22.786  1.00  0.00    -0.410 OA
BRANCH  21  22
ATOM     22  C   UNL A   1      32.818  25.140  22.033  1.00  0.00     0.417 C 
ATOM     23  O   UNL A   1      33.343  25.781  21.128  1.00  0.00    -0.224 OA
ATOM     24  N   UNL A   1      33.410  23.975  22.447  1.00  0.00    -0.291 N 
ATOM     25  H   UNL A   1      34.276  23.781  22.022  1.00  0.00     0.173 HD
BRANCH  24  26
ATOM     26  C   UNL A   1      32.987  23.015  23.375  1.00  0.00     0.044 A 
ATOM     27  C   UNL A   1      32.776  21.718  22.892  1.00  0.00     0.026 A 
ATOM     28  C   UNL A   1      32.730  23.291  24.719  1.00  0.00     0.026 A 
ATOM     29  C   UNL A   1      32.362  20.700  23.751  1.00  0.00     0.002 A 
ATOM     30  C   UNL A   1      32.295  22.276  25.574  1.00  0.00     0.002 A 
ATOM     31  C   UNL A   1      32.122  20.979  25.094  1.00  0.00     0.000 A 
ENDBRANCH  24  26
ENDBRANCH  21  22
ENDBRANCH  19  21
ENDBRANCH  13  15
ENDBRANCH   6   8
ENDBRANCH   4   6
ENDBRANCH   3   4
ENDBRANCH   2   3
ENDBRANCH   1   2
BRANCH   1  32
ATOM     32  O   UNL A   1      35.313  34.161  32.523  1.00  0.00    -0.374 OA
BRANCH  32  33
ATOM     33  C   UNL A   1      35.260  32.751  32.728  1.00  0.00     0.202 C 
BRANCH  33  34
ATOM     34  C   UNL A   1      36.285  32.149  33.696  1.00  0.00     0.261 C 
BRANCH  34  35
ATOM     35  O   UNL A   1      37.369  31.500  33.013  1.00  0.00    -0.460 OA
BRANCH  35  36
ATOM     36  C   UNL A   1      38.428  32.309  32.758  1.00  0.00     0.338 C 
ATOM     37  O   UNL A   1      38.636  33.418  33.222  1.00  0.00    -0.246 OA
BRANCH  36  38
ATOM     38  C   UNL A   1      39.436  31.587  31.960  1.00  0.00     0.060 A 
ATOM     39  C   UNL A   1      40.405  30.860  32.664  1.00  0.00     0.016 A 
ATOM     40  C   UNL A   1      39.483  31.670  30.566  1.00  0.00     0.016 A 
ATOM     41  C   UNL A   1      41.458  30.258  31.982  1.00  0.00     0.010 A 
ATOM     42  C   UNL A   1      40.548  31.071  29.884  1.00  0.00     0.010 A 
ATOM     43  C   UNL A   1      41.559  30.395  30.592  1.00  0.00    -0.014 A 
BRANCH  43  44
ATOM     44  C   UNL A   1      42.806  29.967  29.913  1.00  0.00     0.031 A 
ATOM     45  C   UNL A   1      42.856  28.603  29.278  1.00  0.00     0.074 A 
ATOM     46  C   UNL A   1      43.858  30.799  29.817  1.00  0.00     0.049 A 
ATOM     47  N   UNL A   1      43.834  28.029  28.627  1.00  0.00    -0.248 NA
ATOM     48  C   UNL A   1      41.641  27.779  29.389  1.00  0.00     0.031 C 
ATOM     49  C   UNL A   1      43.911  32.162  30.346  1.00  0.00     0.029 A 
ATOM     50  N   UNL A   1      45.087  30.617  29.235  1.00  0.00    -0.354 N 
ATOM     51  C   UNL A   1      43.359  26.775  28.260  1.00  0.00     0.074 A 
ATOM     52  C   UNL A   1      42.015  26.661  28.783  1.00  0.00     0.031 C 
ATOM     53  C   UNL A   1      45.113  32.693  30.063  1.00  0.00     0.029 A 
ATOM     54  C   UNL A   1      45.923  31.699  29.362  1.00  0.00     0.049 A 
ATOM     55  H   UNL A   1      45.344  29.788  28.768  1.00  0.00     0.167 HD
ATOM     56  C   UNL A   1      43.983  25.807  27.547  1.00  0.00     0.031 A 
ATOM     57  C   UNL A   1      47.204  31.864  28.973  1.00  0.00     0.031 A 
ATOM     58  C   UNL A   1      45.324  25.920  27.038  1.00  0.00     0.049 A 
ATOM     59  C   UNL A   1      47.903  30.744  28.246  1.00  0.00     0.074 A 
ATOM     60  C   UNL A   1      46.039  25.001  26.289  1.00  0.00     0.029 A 
ATOM     61  N   UNL A   1      46.154  27.013  27.231  1.00  0.00    -0.354 N 
ATOM     62  N   UNL A   1      47.430  29.573  27.886  1.00  0.00    -0.248 NA
ATOM     63  C   UNL A   1      49.304  30.971  27.867  1.00  0.00     0.031 C 
ATOM     64  C   UNL A   1      47.322  25.515  26.079  1.00  0.00     0.029 A 
ATOM     65  C   UNL A   1      47.386  26.780  26.642  1.00  0.00     0.049 A 
ATOM     66  H   UNL A   1      45.905  27.833  27.714  1.00  0.00     0.167 HD
ATOM     67  C   UNL A   1      48.469  28.937  27.214  1.00  0.00     0.074 A 
ATOM     68  C   UNL A   1      49.589  29.856  27.208  1.00  0.00     0.031 C 
ATOM     69  C   UNL A   1      48.492  27.704  26.648  1.00  0.00     0.031 A 
BRANCH  56  70
ATOM     70  C   UNL A   1      43.233  24.523  27.314  1.00  0.00    -0.014 A 
ATOM     71  C   UNL A   1      42.653  24.229  26.066  1.00  0.00     0.010 A 
ATOM     72  C   UNL A   1      43.137  23.577  28.351  1.00  0.00     0.010 A 
ATOM     73  C   UNL A   1      41.958  23.033  25.873  1.00  0.00     0.020 A 
ATOM     74  C   UNL A   1      42.466  22.367  28.155  1.00  0.00     0.020 A 
ATOM     75  C   UNL A   1      41.867  22.110  26.921  1.00  0.00     0.054 A 
BRANCH  75  76
ATOM     76  S   UNL A   1      40.976  20.555  26.637  1.00  0.00     0.124 S 
ATOM     77  O   UNL A   1      39.719  21.028  26.062  1.00  0.00    -0.237 OA
ATOM     78  O   UNL A   1      41.859  19.842  25.717  1.00  0.00    -0.237 OA
ATOM     79  O   UNL A   1      40.868  19.968  27.971  1.00  0.00    -0.744 OA
ENDBRANCH  75  76
ENDBRANCH  56  70
BRANCH  57  80
ATOM     80  C   UNL A   1      47.915  33.136  29.276  1.00  0.00    -0.014 A 
ATOM     81  C   UNL A   1      47.893  34.207  28.367  1.00  0.00     0.010 A 
ATOM     82  C   UNL A   1      48.622  33.279  30.485  1.00  0.00     0.010 A 
ATOM     83  C   UNL A   1      48.575  35.394  28.654  1.00  0.00     0.020 A 
ATOM     84  C   UNL A   1      49.282  34.472  30.787  1.00  0.00     0.020 A 
ATOM     85  C   UNL A   1      49.263  35.520  29.864  1.00  0.00     0.054 A 
BRANCH  85  86
ATOM     86  S   UNL A   1      50.095  37.088  30.240  1.00  0.00     0.124 S 
ATOM     87  O   UNL A   1      51.453  36.647  30.540  1.00  0.00    -0.237 OA
ATOM     88  O   UNL A   1      49.932  37.838  28.998  1.00  0.00    -0.237 OA
ATOM     89  O   UNL A   1      49.340  37.610  31.378  1.00  0.00    -0.744 OA
ENDBRANCH  85  86
ENDBRANCH  57  80
BRANCH  69  90
ATOM     90  C   UNL A   1      49.756  27.285  25.943  1.00  0.00    -0.014 A 
ATOM     91  C   UNL A   1      50.014  27.670  24.616  1.00  0.00     0.010 A 
ATOM     92  C   UNL A   1      50.726  26.544  26.643  1.00  0.00     0.010 A 
ATOM     93  C   UNL A   1      51.206  27.295  23.991  1.00  0.00     0.020 A 
ATOM     94  C   UNL A   1      51.931  26.190  26.031  1.00  0.00     0.020 A 
ATOM     95  C   UNL A   1      52.157  26.555  24.702  1.00  0.00     0.054 A 
BRANCH  95  96
ATOM     96  S   UNL A   1      53.715  26.117  23.884  1.00  0.00     0.124 S 
ATOM     97  O   UNL A   1      54.552  27.276  24.184  1.00  0.00    -0.237 OA
ATOM     98  O   UNL A   1      54.095  24.876  24.555  1.00  0.00    -0.237 OA
ATOM     99  O   UNL A   1      53.339  25.967  22.479  1.00  0.00    -0.744 OA
ENDBRANCH  95  96
ENDBRANCH  69  90
ENDBRANCH  43  44
ENDBRANCH  36  38
ENDBRANCH  35  36
ENDBRANCH  34  35
ENDBRANCH  33  34
ENDBRANCH  32  33
ENDBRANCH   1  32
TORSDOF 22
ENDMDL
MODEL 3
REMARK VINA RESULT:      -7.8      3.868     10.681
REMARK SMILES C[C@@H](C(=O)OCCOCCOC(=O)c1ccc(-c2c3nc(c(-c4ccc(S(=O)(=O)[O-])cc4)c4ccc([nH]4)c(-c4ccc(S(=O)(=O)[O-])cc4)c4nc(c(-c5ccc(S(=O)(=O)[O-])cc5)c5ccc2[nH]5)C=C4)C=C3)cc1)c1ccc(-c2cccc(OC(=O)Nc3ccccc3)c2)c(F)c1
REMARK SMILES IDX 7 1 6 2 5 3 3 4 4 5 2 6 1 7 74 8 75 9 96 10 76 11 94 12
REMARK SMILES IDX 77 13 95 14 78 15 79 16 93 17 80 18 82 19 81 20 83 21 84 22
REMARK SMILES IDX 85 23 86 24 87 26 88 27 92 28 89 29 91 30 90 31 8 32 9 33
REMARK SMILES IDX 10 34 11 35 12 36 13 37 14 38 15 39 73 40 16 41 72 42 17 43
REMARK SMILES IDX 18 44 19 45 66 46 20 47 71 48 65 49 67 50 21 51 70 52 64 53
REMARK SMILES IDX 63 54 22 56 52 57 33 58 51 59 34 60 37 61 50 62 68 63 35 64
REMARK SMILES IDX 36 65 49 67 69 68 38 69 23 70 24 71 32 72 25 73 31 74 26 75
REMARK SMILES IDX 27 76 28 77 29 78 30 79 53 80 54 81 62 82 55 83 61 84 56 85
REMARK SMILES IDX 57 86 58 87 59 88 60 89 39 90 40 91 48 92 41 93 47 94 42 95
REMARK SMILES IDX 43 96 44 97 45 98 46 99
REMARK H PARENT 86 25 67 55 37 66
REMARK Flexibility Score: inf
ROOT
ATOM      1  C   UNL A   1      47.336  22.196  37.555  1.00  0.00     0.202 C 
ENDROOT
BRANCH   1   2
ATOM      2  C   UNL A   1      46.775  21.485  36.319  1.00  0.00     0.261 C 
BRANCH   2   3
ATOM      3  O   UNL A   1      46.747  22.379  35.190  1.00  0.00    -0.463 OA
BRANCH   3   4
ATOM      4  C   UNL A   1      45.523  22.613  34.649  1.00  0.00     0.313 C 
ATOM      5  O   UNL A   1      44.787  21.740  34.200  1.00  0.00    -0.252 OA
BRANCH   4   6
ATOM      6  C   UNL A   1      45.129  24.097  34.685  1.00  0.00     0.126 C 
ATOM      7  C   UNL A   1      43.700  24.386  35.159  1.00  0.00     0.025 C 
BRANCH   6   8
ATOM      8  C   UNL A   1      45.448  24.742  33.339  1.00  0.00    -0.031 A 
ATOM      9  C   UNL A   1      46.623  25.496  33.195  1.00  0.00     0.005 A 
ATOM     10  C   UNL A   1      44.665  24.523  32.201  1.00  0.00     0.044 A 
ATOM     11  C   UNL A   1      46.999  26.016  31.949  1.00  0.00     0.012 A 
ATOM     12  C   UNL A   1      45.058  25.026  30.961  1.00  0.00     0.131 A 
ATOM     13  C   UNL A   1      46.222  25.790  30.804  1.00  0.00     0.018 A 
ATOM     14  F   UNL A   1      44.280  24.744  29.902  1.00  0.00    -0.206 F 
BRANCH  13  15
ATOM     15  C   UNL A   1      46.579  26.386  29.505  1.00  0.00    -0.012 A 
ATOM     16  C   UNL A   1      47.486  25.774  28.624  1.00  0.00     0.009 A 
ATOM     17  C   UNL A   1      46.030  27.624  29.136  1.00  0.00     0.056 A 
ATOM     18  C   UNL A   1      47.836  26.387  27.416  1.00  0.00     0.004 A 
ATOM     19  C   UNL A   1      46.383  28.240  27.940  1.00  0.00     0.133 A 
ATOM     20  C   UNL A   1      47.286  27.623  27.075  1.00  0.00     0.047 A 
BRANCH  19  21
ATOM     21  O   UNL A   1      45.913  29.513  27.532  1.00  0.00    -0.410 OA
BRANCH  21  22
ATOM     22  C   UNL A   1      46.703  30.622  27.227  1.00  0.00     0.417 C 
ATOM     23  O   UNL A   1      47.090  30.948  26.109  1.00  0.00    -0.224 OA
ATOM     24  N   UNL A   1      46.956  31.457  28.283  1.00  0.00    -0.291 N 
ATOM     25  H   UNL A   1      47.374  32.313  28.039  1.00  0.00     0.173 HD
BRANCH  24  26
ATOM     26  C   UNL A   1      46.718  31.294  29.654  1.00  0.00     0.044 A 
ATOM     27  C   UNL A   1      45.523  31.824  30.155  1.00  0.00     0.026 A 
ATOM     28  C   UNL A   1      47.611  30.679  30.532  1.00  0.00     0.026 A 
ATOM     29  C   UNL A   1      45.204  31.698  31.508  1.00  0.00     0.002 A 
ATOM     30  C   UNL A   1      47.301  30.572  31.889  1.00  0.00     0.002 A 
ATOM     31  C   UNL A   1      46.094  31.071  32.375  1.00  0.00     0.000 A 
ENDBRANCH  24  26
ENDBRANCH  21  22
ENDBRANCH  19  21
ENDBRANCH  13  15
ENDBRANCH   6   8
ENDBRANCH   4   6
ENDBRANCH   3   4
ENDBRANCH   2   3
ENDBRANCH   1   2
BRANCH   1  32
ATOM     32  O   UNL A   1      46.731  23.447  37.893  1.00  0.00    -0.374 OA
BRANCH  32  33
ATOM     33  C   UNL A   1      47.608  24.525  38.212  1.00  0.00     0.202 C 
BRANCH  33  34
ATOM     34  C   UNL A   1      48.683  24.878  37.177  1.00  0.00     0.261 C 
BRANCH  34  35
ATOM     35  O   UNL A   1      48.436  26.141  36.539  1.00  0.00    -0.460 OA
BRANCH  35  36
ATOM     36  C   UNL A   1      48.182  27.158  37.401  1.00  0.00     0.338 C 
ATOM     37  O   UNL A   1      48.893  27.543  38.314  1.00  0.00    -0.246 OA
BRANCH  36  38
ATOM     38  C   UNL A   1      46.979  27.896  36.972  1.00  0.00     0.060 A 
ATOM     39  C   UNL A   1      45.783  27.173  36.892  1.00  0.00     0.016 A 
ATOM     40  C   UNL A   1      47.026  29.239  36.590  1.00  0.00     0.016 A 
ATOM     41  C   UNL A   1      44.638  27.773  36.377  1.00  0.00     0.010 A 
ATOM     42  C   UNL A   1      45.875  29.837  36.063  1.00  0.00     0.010 A 
ATOM     43  C   UNL A   1      44.688  29.096  35.920  1.00  0.00    -0.014 A 
BRANCH  43  44
ATOM     44  C   UNL A   1      43.543  29.638  35.150  1.00  0.00     0.031 A 
ATOM     45  C   UNL A   1      42.664  30.680  35.791  1.00  0.00     0.074 A 
ATOM     46  C   UNL A   1      43.318  29.248  33.883  1.00  0.00     0.049 A 
ATOM     47  N   UNL A   1      41.619  31.296  35.301  1.00  0.00    -0.248 NA
ATOM     48  C   UNL A   1      43.014  31.083  37.164  1.00  0.00     0.031 C 
ATOM     49  C   UNL A   1      44.129  28.286  33.137  1.00  0.00     0.029 A 
ATOM     50  N   UNL A   1      42.339  29.621  32.997  1.00  0.00    -0.354 N 
ATOM     51  C   UNL A   1      41.180  32.150  36.307  1.00  0.00     0.074 A 
ATOM     52  C   UNL A   1      42.055  31.955  37.442  1.00  0.00     0.031 C 
ATOM     53  C   UNL A   1      43.612  28.144  31.904  1.00  0.00     0.029 A 
ATOM     54  C   UNL A   1      42.420  28.980  31.784  1.00  0.00     0.049 A 
ATOM     55  H   UNL A   1      41.645  30.287  33.210  1.00  0.00     0.167 HD
ATOM     56  C   UNL A   1      40.144  33.023  36.285  1.00  0.00     0.031 A 
ATOM     57  C   UNL A   1      41.613  29.046  30.707  1.00  0.00     0.031 A 
ATOM     58  C   UNL A   1      39.270  33.207  35.158  1.00  0.00     0.049 A 
ATOM     59  C   UNL A   1      40.422  29.970  30.733  1.00  0.00     0.074 A 
ATOM     60  C   UNL A   1      38.202  34.078  35.031  1.00  0.00     0.029 A 
ATOM     61  N   UNL A   1      39.355  32.502  33.966  1.00  0.00    -0.354 N 
ATOM     62  N   UNL A   1      40.035  30.789  31.683  1.00  0.00    -0.248 NA
ATOM     63  C   UNL A   1      39.566  29.983  29.539  1.00  0.00     0.031 C 
ATOM     64  C   UNL A   1      37.607  33.860  33.784  1.00  0.00     0.029 A 
ATOM     65  C   UNL A   1      38.341  32.898  33.110  1.00  0.00     0.049 A 
ATOM     66  H   UNL A   1      40.036  31.822  33.760  1.00  0.00     0.167 HD
ATOM     67  C   UNL A   1      38.906  31.434  31.188  1.00  0.00     0.074 A 
ATOM     68  C   UNL A   1      38.680  30.919  29.853  1.00  0.00     0.031 C 
ATOM     69  C   UNL A   1      38.128  32.373  31.785  1.00  0.00     0.031 A 
BRANCH  56  70
ATOM     70  C   UNL A   1      39.876  33.815  37.537  1.00  0.00    -0.014 A 
ATOM     71  C   UNL A   1      40.522  35.040  37.781  1.00  0.00     0.010 A 
ATOM     72  C   UNL A   1      38.935  33.341  38.469  1.00  0.00     0.010 A 
ATOM     73  C   UNL A   1      40.260  35.757  38.951  1.00  0.00     0.020 A 
ATOM     74  C   UNL A   1      38.650  34.067  39.629  1.00  0.00     0.020 A 
ATOM     75  C   UNL A   1      39.328  35.263  39.870  1.00  0.00     0.054 A 
BRANCH  75  76
ATOM     76  S   UNL A   1      38.991  36.224  41.372  1.00  0.00     0.124 S 
ATOM     77  O   UNL A   1      38.686  37.544  40.823  1.00  0.00    -0.237 OA
ATOM     78  O   UNL A   1      37.860  35.512  41.962  1.00  0.00    -0.237 OA
ATOM     79  O   UNL A   1      40.240  36.138  42.126  1.00  0.00    -0.744 OA
ENDBRANCH  75  76
ENDBRANCH  56  70
BRANCH  57  80
ATOM     80  C   UNL A   1      41.895  28.202  29.514  1.00  0.00    -0.014 A 
ATOM     81  C   UNL A   1      41.494  26.856  29.474  1.00  0.00     0.010 A 
ATOM     82  C   UNL A   1      42.572  28.747  28.406  1.00  0.00     0.010 A 
ATOM     83  C   UNL A   1      41.774  26.066  28.353  1.00  0.00     0.020 A 
ATOM     84  C   UNL A   1      42.830  27.969  27.275  1.00  0.00     0.020 A 
ATOM     85  C   UNL A   1      42.439  26.629  27.260  1.00  0.00     0.054 A 
BRANCH  85  86
ATOM     86  S   UNL A   1      42.744  25.602  25.796  1.00  0.00     0.124 S 
ATOM     87  O   UNL A   1      44.047  26.087  25.351  1.00  0.00    -0.237 OA
ATOM     88  O   UNL A   1      42.727  24.250  26.348  1.00  0.00    -0.237 OA
ATOM     89  O   UNL A   1      41.622  25.921  24.915  1.00  0.00    -0.744 OA
ENDBRANCH  85  86
ENDBRANCH  57  80
BRANCH  69  90
ATOM     90  C   UNL A   1      36.979  32.932  30.988  1.00  0.00    -0.014 A 
ATOM     91  C   UNL A   1      37.187  33.876  29.968  1.00  0.00     0.010 A 
ATOM     92  C   UNL A   1      35.675  32.459  31.228  1.00  0.00     0.010 A 
ATOM     93  C   UNL A   1      36.110  34.360  29.222  1.00  0.00     0.020 A 
ATOM     94  C   UNL A   1      34.599  32.920  30.466  1.00  0.00     0.020 A 
ATOM     95  C   UNL A   1      34.821  33.880  29.477  1.00  0.00     0.054 A 
BRANCH  95  96
ATOM     96  S   UNL A   1      33.444  34.491  28.467  1.00  0.00     0.124 S 
ATOM     97  O   UNL A   1      34.089  35.538  27.678  1.00  0.00    -0.237 OA
ATOM     98  O   UNL A   1      33.038  33.302  27.722  1.00  0.00    -0.237 OA
ATOM     99  O   UNL A   1      32.473  34.963  29.452  1.00  0.00    -0.744 OA
ENDBRANCH  95  96
ENDBRANCH  69  90
ENDBRANCH  43  44
ENDBRANCH  36  38
ENDBRANCH  35  36
ENDBRANCH  34  35
ENDBRANCH  33  34
ENDBRANCH  32  33
ENDBRANCH   1  32
TORSDOF 22
ENDMDL
