MODEL 1
REMARK VINA RESULT:     -11.6      0.000      0.000
REMARK SMILES Cc1noc2c1-c1c(c(C(=O)OCCOCCOC(=O)c3ccc(-c4c5nc(c(-c6ccc(S(=O)(=O)[O-])cc6)c6ccc([nH]6)c(-c6ccc(S(=O)(=O)[O-])cc6)c6nc(c(-c7ccc(S(=O)(=O)[O-])cc7)c7ccc4[nH]7)C=C6)C=C5)cc3)nn1C)CC2
REMARK SMILES IDX 16 1 15 2 14 3 13 4 12 5 10 6 11 7 9 8 1 9 2 10 3 11 6 12
REMARK SMILES IDX 4 13 5 14 7 15 85 16 8 17 82 18 84 19 81 20 83 21 17 22
REMARK SMILES IDX 18 23 19 24 20 25 21 26 22 27 80 28 23 29 79 30 24 31 25 32
REMARK SMILES IDX 26 33 73 34 27 35 78 36 72 37 74 38 28 39 77 40 71 41 70 42
REMARK SMILES IDX 29 44 59 45 40 46 58 47 41 48 44 49 57 50 75 51 42 52 43 53
REMARK SMILES IDX 56 55 76 56 45 57 30 58 31 59 39 60 32 61 38 62 33 63 34 64
REMARK SMILES IDX 35 65 36 66 37 67 60 68 61 69 69 70 62 71 68 72 63 73 64 74
REMARK SMILES IDX 65 75 66 76 67 77 46 78 47 79 55 80 48 81 54 82 49 83 50 84
REMARK SMILES IDX 51 85 52 86 53 87
REMARK H PARENT 74 43 44 54
REMARK Flexibility Score: inf
ROOT
ATOM      1  C   UNL A   1      36.689  20.817  25.257  1.00  0.00     0.202 C 
ENDROOT
BRANCH   1   2
ATOM      2  O   UNL A   1      35.535  21.457  25.791  1.00  0.00    -0.374 OA
BRANCH   2   3
ATOM      3  C   UNL A   1      34.392  21.657  24.962  1.00  0.00     0.202 C 
BRANCH   3   4
ATOM      4  C   UNL A   1      34.580  22.495  23.695  1.00  0.00     0.261 C 
BRANCH   4   5
ATOM      5  O   UNL A   1      33.348  22.665  22.979  1.00  0.00    -0.458 OA
BRANCH   5   6
ATOM      6  C   UNL A   1      33.346  23.686  22.068  1.00  0.00     0.359 C 
ATOM      7  O   UNL A   1      33.430  23.523  20.856  1.00  0.00    -0.244 OA
BRANCH   6   8
ATOM      8  C   UNL A   1      33.127  25.001  22.696  1.00  0.00     0.174 A 
ATOM      9  C   UNL A   1      32.691  29.853  25.521  1.00  0.00     0.071 C 
ATOM     10  C   UNL A   1      32.126  28.553  25.940  1.00  0.00     0.090 A 
ATOM     11  N   UNL A   1      31.554  28.459  27.155  1.00  0.00    -0.084 NA
ATOM     12  C   UNL A   1      32.085  27.314  25.277  1.00  0.00     0.066 A 
ATOM     13  O   UNL A   1      31.138  27.140  27.292  1.00  0.00    -0.360 OA
ATOM     14  C   UNL A   1      31.456  26.474  26.164  1.00  0.00     0.146 A 
ATOM     15  C   UNL A   1      32.576  26.691  24.032  1.00  0.00     0.077 A 
ATOM     16  C   UNL A   1      31.224  25.009  26.056  1.00  0.00     0.084 C 
ATOM     17  C   UNL A   1      32.262  25.364  23.766  1.00  0.00     0.014 A 
ATOM     18  N   UNL A   1      33.384  27.104  23.024  1.00  0.00    -0.267 N 
ATOM     19  C   UNL A   1      31.258  24.576  24.569  1.00  0.00     0.048 C 
ATOM     20  N   UNL A   1      33.791  26.086  22.243  1.00  0.00    -0.165 NA
ATOM     21  C   UNL A   1      33.885  28.422  22.735  1.00  0.00     0.174 C 
ENDBRANCH   6   8
ENDBRANCH   5   6
ENDBRANCH   4   5
ENDBRANCH   3   4
ENDBRANCH   2   3
ENDBRANCH   1   2
BRANCH   1  22
ATOM     22  C   UNL A   1      37.956  21.639  25.072  1.00  0.00     0.261 C 
BRANCH  22  23
ATOM     23  O   UNL A   1      38.216  22.504  26.166  1.00  0.00    -0.460 OA
BRANCH  23  24
ATOM     24  C   UNL A   1      39.459  22.351  26.685  1.00  0.00     0.338 C 
ATOM     25  O   UNL A   1      39.989  21.314  27.031  1.00  0.00    -0.246 OA
BRANCH  24  26
ATOM     26  C   UNL A   1      40.036  23.679  26.911  1.00  0.00     0.060 A 
ATOM     27  C   UNL A   1      41.148  23.746  27.753  1.00  0.00     0.016 A 
ATOM     28  C   UNL A   1      39.320  24.821  26.528  1.00  0.00     0.016 A 
ATOM     29  C   UNL A   1      41.424  24.943  28.375  1.00  0.00     0.010 A 
ATOM     30  C   UNL A   1      39.584  26.010  27.162  1.00  0.00     0.010 A 
ATOM     31  C   UNL A   1      40.578  26.032  28.136  1.00  0.00    -0.014 A 
BRANCH  31  32
ATOM     32  C   UNL A   1      40.833  27.267  28.842  1.00  0.00     0.031 A 
ATOM     33  C   UNL A   1      41.976  28.006  28.265  1.00  0.00     0.074 A 
ATOM     34  C   UNL A   1      40.030  27.721  29.823  1.00  0.00     0.049 A 
ATOM     35  N   UNL A   1      43.157  28.127  28.769  1.00  0.00    -0.248 NA
ATOM     36  C   UNL A   1      41.867  28.459  26.866  1.00  0.00     0.031 C 
ATOM     37  C   UNL A   1      38.740  27.181  30.262  1.00  0.00     0.029 A 
ATOM     38  N   UNL A   1      40.152  28.849  30.570  1.00  0.00    -0.354 N 
ATOM     39  C   UNL A   1      43.856  28.912  27.863  1.00  0.00     0.074 A 
ATOM     40  C   UNL A   1      43.115  28.863  26.630  1.00  0.00     0.031 C 
ATOM     41  C   UNL A   1      38.097  28.113  31.002  1.00  0.00     0.029 A 
ATOM     42  C   UNL A   1      38.977  29.255  31.196  1.00  0.00     0.049 A 
ATOM     43  H   UNL A   1      41.000  29.339  30.661  1.00  0.00     0.167 HD
ATOM     44  C   UNL A   1      44.794  29.802  28.289  1.00  0.00     0.031 A 
ATOM     45  C   UNL A   1      38.737  30.473  31.752  1.00  0.00     0.031 A 
ATOM     46  C   UNL A   1      45.194  29.536  29.648  1.00  0.00     0.049 A 
ATOM     47  C   UNL A   1      40.059  31.099  32.012  1.00  0.00     0.074 A 
ATOM     48  C   UNL A   1      45.745  28.454  30.307  1.00  0.00     0.029 A 
ATOM     49  N   UNL A   1      44.641  30.336  30.622  1.00  0.00    -0.354 N 
ATOM     50  N   UNL A   1      40.908  30.633  32.883  1.00  0.00    -0.248 NA
ATOM     51  C   UNL A   1      40.635  31.937  30.970  1.00  0.00     0.031 C 
ATOM     52  C   UNL A   1      45.099  28.426  31.576  1.00  0.00     0.029 A 
ATOM     53  C   UNL A   1      44.254  29.535  31.663  1.00  0.00     0.049 A 
ATOM     54  H   UNL A   1      44.541  31.314  30.578  1.00  0.00     0.167 HD
ATOM     55  C   UNL A   1      42.143  30.721  32.255  1.00  0.00     0.074 A 
ATOM     56  C   UNL A   1      41.925  31.619  31.120  1.00  0.00     0.031 C 
ATOM     57  C   UNL A   1      43.142  29.832  32.541  1.00  0.00     0.031 A 
BRANCH  44  58
ATOM     58  C   UNL A   1      44.978  31.157  27.650  1.00  0.00    -0.014 A 
ATOM     59  C   UNL A   1      46.227  31.468  27.079  1.00  0.00     0.010 A 
ATOM     60  C   UNL A   1      44.077  32.228  27.835  1.00  0.00     0.010 A 
ATOM     61  C   UNL A   1      46.579  32.790  26.780  1.00  0.00     0.020 A 
ATOM     62  C   UNL A   1      44.399  33.542  27.498  1.00  0.00     0.020 A 
ATOM     63  C   UNL A   1      45.663  33.818  27.002  1.00  0.00     0.054 A 
BRANCH  63  64
ATOM     64  S   UNL A   1      46.155  35.528  26.688  1.00  0.00     0.124 S 
ATOM     65  O   UNL A   1      44.870  36.162  26.407  1.00  0.00    -0.237 OA
ATOM     66  O   UNL A   1      46.785  35.901  27.952  1.00  0.00    -0.237 OA
ATOM     67  O   UNL A   1      47.065  35.418  25.552  1.00  0.00    -0.744 OA
ENDBRANCH  63  64
ENDBRANCH  44  58
BRANCH  45  68
ATOM     68  C   UNL A   1      37.478  31.269  31.704  1.00  0.00    -0.014 A 
ATOM     69  C   UNL A   1      36.662  31.409  32.846  1.00  0.00     0.010 A 
ATOM     70  C   UNL A   1      37.236  32.142  30.624  1.00  0.00     0.010 A 
ATOM     71  C   UNL A   1      35.704  32.436  32.934  1.00  0.00     0.020 A 
ATOM     72  C   UNL A   1      36.279  33.161  30.701  1.00  0.00     0.020 A 
ATOM     73  C   UNL A   1      35.537  33.324  31.868  1.00  0.00     0.054 A 
BRANCH  73  74
ATOM     74  S   UNL A   1      34.460  34.778  32.062  1.00  0.00     0.124 S 
ATOM     75  O   UNL A   1      35.304  35.690  32.829  1.00  0.00    -0.237 OA
ATOM     76  O   UNL A   1      34.200  35.169  30.679  1.00  0.00    -0.237 OA
ATOM     77  O   UNL A   1      33.301  34.253  32.782  1.00  0.00    -0.744 OA
ENDBRANCH  73  74
ENDBRANCH  45  68
BRANCH  57  78
ATOM     78  C   UNL A   1      42.988  28.953  33.763  1.00  0.00    -0.014 A 
ATOM     79  C   UNL A   1      43.384  29.318  35.065  1.00  0.00     0.010 A 
ATOM     80  C   UNL A   1      42.298  27.741  33.591  1.00  0.00     0.010 A 
ATOM     81  C   UNL A   1      43.140  28.465  36.155  1.00  0.00     0.020 A 
ATOM     82  C   UNL A   1      42.035  26.897  34.672  1.00  0.00     0.020 A 
ATOM     83  C   UNL A   1      42.473  27.254  35.947  1.00  0.00     0.054 A 
BRANCH  83  84
ATOM     84  S   UNL A   1      42.167  26.143  37.349  1.00  0.00     0.124 S 
ATOM     85  O   UNL A   1      43.188  26.553  38.308  1.00  0.00    -0.237 OA
ATOM     86  O   UNL A   1      40.790  26.460  37.720  1.00  0.00    -0.237 OA
ATOM     87  O   UNL A   1      42.354  24.807  36.782  1.00  0.00    -0.744 OA
ENDBRANCH  83  84
ENDBRANCH  57  78
ENDBRANCH  31  32
ENDBRANCH  24  26
ENDBRANCH  23  24
ENDBRANCH  22  23
ENDBRANCH   1  22
TORSDOF 17
ENDMDL
MODEL 2
REMARK VINA RESULT:     -11.6      2.747      4.957
REMARK SMILES Cc1noc2c1-c1c(c(C(=O)OCCOCCOC(=O)c3ccc(-c4c5nc(c(-c6ccc(S(=O)(=O)[O-])cc6)c6ccc([nH]6)c(-c6ccc(S(=O)(=O)[O-])cc6)c6nc(c(-c7ccc(S(=O)(=O)[O-])cc7)c7ccc4[nH]7)C=C6)C=C5)cc3)nn1C)CC2
REMARK SMILES IDX 16 1 15 2 14 3 13 4 12 5 10 6 11 7 9 8 1 9 2 10 3 11 6 12
REMARK SMILES IDX 4 13 5 14 7 15 85 16 8 17 82 18 84 19 81 20 83 21 17 22
REMARK SMILES IDX 18 23 19 24 20 25 21 26 22 27 80 28 23 29 79 30 24 31 25 32
REMARK SMILES IDX 26 33 73 34 27 35 78 36 72 37 74 38 28 39 77 40 71 41 70 42
REMARK SMILES IDX 29 44 59 45 40 46 58 47 41 48 44 49 57 50 75 51 42 52 43 53
REMARK SMILES IDX 56 55 76 56 45 57 30 58 31 59 39 60 32 61 38 62 33 63 34 64
REMARK SMILES IDX 35 65 36 66 37 67 60 68 61 69 69 70 62 71 68 72 63 73 64 74
REMARK SMILES IDX 65 75 66 76 67 77 46 78 47 79 55 80 48 81 54 82 49 83 50 84
REMARK SMILES IDX 51 85 52 86 53 87
REMARK H PARENT 74 43 44 54
REMARK Flexibility Score: inf
ROOT
ATOM      1  C   UNL A   1      46.177  19.193  25.289  1.00  0.00     0.202 C 
ENDROOT
BRANCH   1   2
ATOM      2  O   UNL A   1      45.089  18.290  25.123  1.00  0.00    -0.374 OA
BRANCH   2   3
ATOM      3  C   UNL A   1      43.786  18.798  24.844  1.00  0.00     0.202 C 
BRANCH   3   4
ATOM      4  C   UNL A   1      42.843  19.006  26.031  1.00  0.00     0.261 C 
BRANCH   4   5
ATOM      5  O   UNL A   1      41.773  19.907  25.713  1.00  0.00    -0.458 OA
BRANCH   5   6
ATOM      6  C   UNL A   1      40.936  20.200  26.755  1.00  0.00     0.359 C 
ATOM      7  O   UNL A   1      41.112  19.814  27.905  1.00  0.00    -0.244 OA
BRANCH   6   8
ATOM      8  C   UNL A   1      39.852  21.119  26.365  1.00  0.00     0.174 A 
ATOM      9  C   UNL A   1      35.400  24.415  25.353  1.00  0.00     0.071 C 
ATOM     10  C   UNL A   1      35.476  22.961  25.101  1.00  0.00     0.090 A 
ATOM     11  N   UNL A   1      34.363  22.314  24.706  1.00  0.00    -0.084 NA
ATOM     12  C   UNL A   1      36.553  22.064  25.218  1.00  0.00     0.066 A 
ATOM     13  O   UNL A   1      34.713  20.977  24.569  1.00  0.00    -0.360 OA
ATOM     14  C   UNL A   1      36.021  20.846  24.872  1.00  0.00     0.146 A 
ATOM     15  C   UNL A   1      37.959  22.053  25.666  1.00  0.00     0.077 A 
ATOM     16  C   UNL A   1      36.660  19.504  24.912  1.00  0.00     0.084 C 
ATOM     17  C   UNL A   1      38.690  20.875  25.581  1.00  0.00     0.014 A 
ATOM     18  N   UNL A   1      38.771  22.967  26.255  1.00  0.00    -0.267 N 
ATOM     19  C   UNL A   1      38.201  19.650  24.850  1.00  0.00     0.048 C 
ATOM     20  N   UNL A   1      39.892  22.413  26.751  1.00  0.00    -0.165 NA
ATOM     21  C   UNL A   1      38.564  24.378  26.457  1.00  0.00     0.174 C 
ENDBRANCH   6   8
ENDBRANCH   5   6
ENDBRANCH   4   5
ENDBRANCH   3   4
ENDBRANCH   2   3
ENDBRANCH   1   2
BRANCH   1  22
ATOM     22  C   UNL A   1      46.065  20.585  24.686  1.00  0.00     0.261 C 
BRANCH  22  23
ATOM     23  O   UNL A   1      45.432  21.512  25.554  1.00  0.00    -0.460 OA
BRANCH  23  24
ATOM     24  C   UNL A   1      44.470  22.245  24.944  1.00  0.00     0.338 C 
ATOM     25  O   UNL A   1      44.227  22.295  23.755  1.00  0.00    -0.246 OA
BRANCH  24  26
ATOM     26  C   UNL A   1      43.838  23.110  25.945  1.00  0.00     0.060 A 
ATOM     27  C   UNL A   1      42.857  23.991  25.484  1.00  0.00     0.016 A 
ATOM     28  C   UNL A   1      44.409  23.227  27.219  1.00  0.00     0.016 A 
ATOM     29  C   UNL A   1      42.590  25.116  26.231  1.00  0.00     0.010 A 
ATOM     30  C   UNL A   1      44.155  24.358  27.955  1.00  0.00     0.010 A 
ATOM     31  C   UNL A   1      43.313  25.325  27.411  1.00  0.00    -0.014 A 
BRANCH  31  32
ATOM     32  C   UNL A   1      43.075  26.539  28.157  1.00  0.00     0.031 A 
ATOM     33  C   UNL A   1      44.141  27.538  27.938  1.00  0.00     0.074 A 
ATOM     34  C   UNL A   1      41.945  26.749  28.859  1.00  0.00     0.049 A 
ATOM     35  N   UNL A   1      45.071  27.877  28.766  1.00  0.00    -0.248 NA
ATOM     36  C   UNL A   1      44.340  28.045  26.567  1.00  0.00     0.031 C 
ATOM     37  C   UNL A   1      40.736  25.921  28.902  1.00  0.00     0.029 A 
ATOM     38  N   UNL A   1      41.594  27.828  29.605  1.00  0.00    -0.354 N 
ATOM     39  C   UNL A   1      45.808  28.847  28.102  1.00  0.00     0.074 A 
ATOM     40  C   UNL A   1      45.481  28.718  26.706  1.00  0.00     0.031 C 
ATOM     41  C   UNL A   1      39.718  26.647  29.419  1.00  0.00     0.029 A 
ATOM     42  C   UNL A   1      40.230  27.936  29.859  1.00  0.00     0.049 A 
ATOM     43  H   UNL A   1      42.250  28.482  29.939  1.00  0.00     0.167 HD
ATOM     44  C   UNL A   1      46.363  29.888  28.781  1.00  0.00     0.031 A 
ATOM     45  C   UNL A   1      39.576  29.038  30.317  1.00  0.00     0.031 A 
ATOM     46  C   UNL A   1      46.406  29.629  30.199  1.00  0.00     0.049 A 
ATOM     47  C   UNL A   1      40.596  29.913  30.951  1.00  0.00     0.074 A 
ATOM     48  C   UNL A   1      46.971  28.650  30.993  1.00  0.00     0.029 A 
ATOM     49  N   UNL A   1      45.435  30.231  30.966  1.00  0.00    -0.354 N 
ATOM     50  N   UNL A   1      41.242  29.585  32.034  1.00  0.00    -0.248 NA
ATOM     51  C   UNL A   1      41.246  30.918  30.121  1.00  0.00     0.031 C 
ATOM     52  C   UNL A   1      46.012  28.406  32.018  1.00  0.00     0.029 A 
ATOM     53  C   UNL A   1      44.953  29.302  31.850  1.00  0.00     0.049 A 
ATOM     54  H   UNL A   1      45.137  31.166  30.892  1.00  0.00     0.167 HD
ATOM     55  C   UNL A   1      42.553  29.973  31.795  1.00  0.00     0.074 A 
ATOM     56  C   UNL A   1      42.476  30.873  30.643  1.00  0.00     0.031 C 
ATOM     57  C   UNL A   1      43.599  29.301  32.363  1.00  0.00     0.031 A 
BRANCH  44  58
ATOM     58  C   UNL A   1      46.417  31.288  28.220  1.00  0.00    -0.014 A 
ATOM     59  C   UNL A   1      45.313  32.138  28.426  1.00  0.00     0.010 A 
ATOM     60  C   UNL A   1      47.373  31.705  27.269  1.00  0.00     0.010 A 
ATOM     61  C   UNL A   1      45.143  33.302  27.667  1.00  0.00     0.020 A 
ATOM     62  C   UNL A   1      47.238  32.885  26.541  1.00  0.00     0.020 A 
ATOM     63  C   UNL A   1      46.104  33.661  26.722  1.00  0.00     0.054 A 
BRANCH  63  64
ATOM     64  S   UNL A   1      45.836  35.121  25.692  1.00  0.00     0.124 S 
ATOM     65  O   UNL A   1      47.095  35.839  25.858  1.00  0.00    -0.237 OA
ATOM     66  O   UNL A   1      45.610  34.529  24.376  1.00  0.00    -0.237 OA
ATOM     67  O   UNL A   1      44.666  35.753  26.295  1.00  0.00    -0.744 OA
ENDBRANCH  63  64
ENDBRANCH  44  58
BRANCH  45  68
ATOM     68  C   UNL A   1      38.241  29.549  29.900  1.00  0.00    -0.014 A 
ATOM     69  C   UNL A   1      37.408  30.233  30.810  1.00  0.00     0.010 A 
ATOM     70  C   UNL A   1      37.913  29.634  28.532  1.00  0.00     0.010 A 
ATOM     71  C   UNL A   1      36.345  31.038  30.359  1.00  0.00     0.020 A 
ATOM     72  C   UNL A   1      36.852  30.427  28.077  1.00  0.00     0.020 A 
ATOM     73  C   UNL A   1      36.090  31.151  28.990  1.00  0.00     0.054 A 
BRANCH  73  74
ATOM     74  S   UNL A   1      34.864  32.355  28.394  1.00  0.00     0.124 S 
ATOM     75  O   UNL A   1      34.389  32.957  29.636  1.00  0.00    -0.237 OA
ATOM     76  O   UNL A   1      35.662  33.225  27.534  1.00  0.00    -0.237 OA
ATOM     77  O   UNL A   1      33.883  31.528  27.692  1.00  0.00    -0.744 OA
ENDBRANCH  73  74
ENDBRANCH  45  68
BRANCH  57  78
ATOM     78  C   UNL A   1      43.301  28.335  33.489  1.00  0.00    -0.014 A 
ATOM     79  C   UNL A   1      42.750  27.049  33.315  1.00  0.00     0.010 A 
ATOM     80  C   UNL A   1      43.710  28.715  34.778  1.00  0.00     0.010 A 
ATOM     81  C   UNL A   1      42.569  26.192  34.413  1.00  0.00     0.020 A 
ATOM     82  C   UNL A   1      43.552  27.861  35.871  1.00  0.00     0.020 A 
ATOM     83  C   UNL A   1      42.965  26.610  35.687  1.00  0.00     0.054 A 
BRANCH  83  84
ATOM     84  S   UNL A   1      42.722  25.511  37.110  1.00  0.00     0.124 S 
ATOM     85  O   UNL A   1      41.490  24.809  36.764  1.00  0.00    -0.237 OA
ATOM     86  O   UNL A   1      43.934  24.695  37.103  1.00  0.00    -0.237 OA
ATOM     87  O   UNL A   1      42.612  26.428  38.244  1.00  0.00    -0.744 OA
ENDBRANCH  83  84
ENDBRANCH  57  78
ENDBRANCH  31  32
ENDBRANCH  24  26
ENDBRANCH  23  24
ENDBRANCH  22  23
ENDBRANCH   1  22
TORSDOF 17
ENDMDL
MODEL 3
REMARK VINA RESULT:     -11.5      2.398      3.601
REMARK SMILES Cc1noc2c1-c1c(c(C(=O)OCCOCCOC(=O)c3ccc(-c4c5nc(c(-c6ccc(S(=O)(=O)[O-])cc6)c6ccc([nH]6)c(-c6ccc(S(=O)(=O)[O-])cc6)c6nc(c(-c7ccc(S(=O)(=O)[O-])cc7)c7ccc4[nH]7)C=C6)C=C5)cc3)nn1C)CC2
REMARK SMILES IDX 16 1 15 2 14 3 13 4 12 5 10 6 11 7 9 8 1 9 2 10 3 11 6 12
REMARK SMILES IDX 4 13 5 14 7 15 85 16 8 17 82 18 84 19 81 20 83 21 17 22
REMARK SMILES IDX 18 23 19 24 20 25 21 26 22 27 80 28 23 29 79 30 24 31 25 32
REMARK SMILES IDX 26 33 73 34 27 35 78 36 72 37 74 38 28 39 77 40 71 41 70 42
REMARK SMILES IDX 29 44 59 45 40 46 58 47 41 48 44 49 57 50 75 51 42 52 43 53
REMARK SMILES IDX 56 55 76 56 45 57 30 58 31 59 39 60 32 61 38 62 33 63 34 64
REMARK SMILES IDX 35 65 36 66 37 67 60 68 61 69 69 70 62 71 68 72 63 73 64 74
REMARK SMILES IDX 65 75 66 76 67 77 46 78 47 79 55 80 48 81 54 82 49 83 50 84
REMARK SMILES IDX 51 85 52 86 53 87
REMARK H PARENT 74 43 44 54
REMARK Flexibility Score: inf
ROOT
ATOM      1  C   UNL A   1      40.921  20.350  27.351  1.00  0.00     0.202 C 
ENDROOT
BRANCH   1   2
ATOM      2  O   UNL A   1      40.614  21.733  27.483  1.00  0.00    -0.374 OA
BRANCH   2   3
ATOM      3  C   UNL A   1      39.752  22.359  26.534  1.00  0.00     0.202 C 
BRANCH   3   4
ATOM      4  C   UNL A   1      38.824  21.453  25.722  1.00  0.00     0.261 C 
BRANCH   4   5
ATOM      5  O   UNL A   1      37.462  21.902  25.771  1.00  0.00    -0.458 OA
BRANCH   5   6
ATOM      6  C   UNL A   1      36.562  21.083  25.145  1.00  0.00     0.359 C 
ATOM      7  O   UNL A   1      36.757  19.894  24.922  1.00  0.00    -0.244 OA
BRANCH   6   8
ATOM      8  C   UNL A   1      35.285  21.762  24.862  1.00  0.00     0.174 A 
ATOM      9  C   UNL A   1      30.637  24.843  24.073  1.00  0.00     0.071 C 
ATOM     10  C   UNL A   1      31.062  24.227  25.348  1.00  0.00     0.090 A 
ATOM     11  N   UNL A   1      30.363  24.504  26.464  1.00  0.00    -0.084 NA
ATOM     12  C   UNL A   1      32.135  23.364  25.638  1.00  0.00     0.066 A 
ATOM     13  O   UNL A   1      30.989  23.821  27.499  1.00  0.00    -0.360 OA
ATOM     14  C   UNL A   1      32.037  23.143  26.990  1.00  0.00     0.146 A 
ATOM     15  C   UNL A   1      33.299  22.757  24.964  1.00  0.00     0.077 A 
ATOM     16  C   UNL A   1      32.963  22.396  27.881  1.00  0.00     0.084 C 
ATOM     17  C   UNL A   1      34.130  21.904  25.680  1.00  0.00     0.014 A 
ATOM     18  N   UNL A   1      33.851  22.885  23.731  1.00  0.00    -0.267 N 
ATOM     19  C   UNL A   1      33.791  21.381  27.053  1.00  0.00     0.048 C 
ATOM     20  N   UNL A   1      35.085  22.354  23.664  1.00  0.00    -0.165 NA
ATOM     21  C   UNL A   1      33.329  23.539  22.560  1.00  0.00     0.174 C 
ENDBRANCH   6   8
ENDBRANCH   5   6
ENDBRANCH   4   5
ENDBRANCH   3   4
ENDBRANCH   2   3
ENDBRANCH   1   2
BRANCH   1  22
ATOM     22  C   UNL A   1      42.267  19.956  26.762  1.00  0.00     0.261 C 
BRANCH  22  23
ATOM     23  O   UNL A   1      42.503  20.539  25.490  1.00  0.00    -0.460 OA
BRANCH  23  24
ATOM     24  C   UNL A   1      43.798  20.885  25.291  1.00  0.00     0.338 C 
ATOM     25  O   UNL A   1      44.724  20.145  25.024  1.00  0.00    -0.246 OA
BRANCH  24  26
ATOM     26  C   UNL A   1      43.953  22.310  25.599  1.00  0.00     0.060 A 
ATOM     27  C   UNL A   1      44.789  22.634  26.670  1.00  0.00     0.016 A 
ATOM     28  C   UNL A   1      43.077  23.242  25.026  1.00  0.00     0.016 A 
ATOM     29  C   UNL A   1      44.602  23.844  27.298  1.00  0.00     0.010 A 
ATOM     30  C   UNL A   1      42.879  24.441  25.665  1.00  0.00     0.010 A 
ATOM     31  C   UNL A   1      43.586  24.689  26.839  1.00  0.00    -0.014 A 
BRANCH  31  32
ATOM     32  C   UNL A   1      43.351  25.929  27.543  1.00  0.00     0.031 A 
ATOM     33  C   UNL A   1      44.404  26.928  27.265  1.00  0.00     0.074 A 
ATOM     34  C   UNL A   1      42.234  26.156  28.259  1.00  0.00     0.049 A 
ATOM     35  N   UNL A   1      45.347  27.305  28.061  1.00  0.00    -0.248 NA
ATOM     36  C   UNL A   1      44.571  27.384  25.873  1.00  0.00     0.031 C 
ATOM     37  C   UNL A   1      41.034  25.319  28.358  1.00  0.00     0.029 A 
ATOM     38  N   UNL A   1      41.888  27.259  28.972  1.00  0.00    -0.354 N 
ATOM     39  C   UNL A   1      46.062  28.256  27.347  1.00  0.00     0.074 A 
ATOM     40  C   UNL A   1      45.709  28.072  25.963  1.00  0.00     0.031 C 
ATOM     41  C   UNL A   1      40.020  26.056  28.868  1.00  0.00     0.029 A 
ATOM     42  C   UNL A   1      40.528  27.364  29.248  1.00  0.00     0.049 A 
ATOM     43  H   UNL A   1      42.545  27.930  29.268  1.00  0.00     0.167 HD
ATOM     44  C   UNL A   1      46.621  29.326  27.975  1.00  0.00     0.031 A 
ATOM     45  C   UNL A   1      39.874  28.477  29.678  1.00  0.00     0.031 A 
ATOM     46  C   UNL A   1      46.694  29.122  29.401  1.00  0.00     0.049 A 
ATOM     47  C   UNL A   1      40.898  29.384  30.258  1.00  0.00     0.074 A 
ATOM     48  C   UNL A   1      47.284  28.178  30.219  1.00  0.00     0.029 A 
ATOM     49  N   UNL A   1      45.733  29.743  30.164  1.00  0.00    -0.354 N 
ATOM     50  N   UNL A   1      41.568  29.102  31.339  1.00  0.00    -0.248 NA
ATOM     51  C   UNL A   1      41.522  30.362  29.379  1.00  0.00     0.031 C 
ATOM     52  C   UNL A   1      46.348  27.964  31.271  1.00  0.00     0.029 A 
ATOM     53  C   UNL A   1      45.277  28.844  31.092  1.00  0.00     0.049 A 
ATOM     54  H   UNL A   1      45.425  30.672  30.061  1.00  0.00     0.167 HD
ATOM     55  C   UNL A   1      42.870  29.492  31.059  1.00  0.00     0.074 A 
ATOM     56  C   UNL A   1      42.762  30.347  29.877  1.00  0.00     0.031 C 
ATOM     57  C   UNL A   1      43.934  28.850  31.631  1.00  0.00     0.031 A 
BRANCH  44  58
ATOM     58  C   UNL A   1      46.650  30.705  27.361  1.00  0.00    -0.014 A 
ATOM     59  C   UNL A   1      47.731  31.554  27.667  1.00  0.00     0.010 A 
ATOM     60  C   UNL A   1      45.533  31.295  26.731  1.00  0.00     0.010 A 
ATOM     61  C   UNL A   1      47.663  32.931  27.421  1.00  0.00     0.020 A 
ATOM     62  C   UNL A   1      45.474  32.657  26.439  1.00  0.00     0.020 A 
ATOM     63  C   UNL A   1      46.528  33.473  26.817  1.00  0.00     0.054 A 
BRANCH  63  64
ATOM     64  S   UNL A   1      46.417  35.260  26.577  1.00  0.00     0.124 S 
ATOM     65  O   UNL A   1      47.057  35.764  27.788  1.00  0.00    -0.237 OA
ATOM     66  O   UNL A   1      47.164  35.449  25.337  1.00  0.00    -0.237 OA
ATOM     67  O   UNL A   1      44.980  35.501  26.476  1.00  0.00    -0.744 OA
ENDBRANCH  63  64
ENDBRANCH  44  58
BRANCH  45  68
ATOM     68  C   UNL A   1      38.526  28.961  29.270  1.00  0.00    -0.014 A 
ATOM     69  C   UNL A   1      37.573  29.356  30.231  1.00  0.00     0.010 A 
ATOM     70  C   UNL A   1      38.282  29.324  27.930  1.00  0.00     0.010 A 
ATOM     71  C   UNL A   1      36.469  30.155  29.877  1.00  0.00     0.020 A 
ATOM     72  C   UNL A   1      37.182  30.112  27.568  1.00  0.00     0.020 A 
ATOM     73  C   UNL A   1      36.296  30.550  28.548  1.00  0.00     0.054 A 
BRANCH  73  74
ATOM     74  S   UNL A   1      35.001  31.756  28.125  1.00  0.00     0.124 S 
ATOM     75  O   UNL A   1      34.143  30.990  27.227  1.00  0.00    -0.237 OA
ATOM     76  O   UNL A   1      34.426  32.078  29.428  1.00  0.00    -0.237 OA
ATOM     77  O   UNL A   1      35.741  32.847  27.492  1.00  0.00    -0.744 OA
ENDBRANCH  73  74
ENDBRANCH  45  68
BRANCH  57  78
ATOM     78  C   UNL A   1      43.667  27.925  32.798  1.00  0.00    -0.014 A 
ATOM     79  C   UNL A   1      43.776  26.521  32.747  1.00  0.00     0.010 A 
ATOM     80  C   UNL A   1      43.403  28.528  34.040  1.00  0.00     0.010 A 
ATOM     81  C   UNL A   1      43.575  25.743  33.900  1.00  0.00     0.020 A 
ATOM     82  C   UNL A   1      43.222  27.763  35.193  1.00  0.00     0.020 A 
ATOM     83  C   UNL A   1      43.290  26.372  35.115  1.00  0.00     0.054 A 
BRANCH  83  84
ATOM     84  S   UNL A   1      43.017  25.371  36.604  1.00  0.00     0.124 S 
ATOM     85  O   UNL A   1      44.373  25.175  37.108  1.00  0.00    -0.237 OA
ATOM     86  O   UNL A   1      42.159  26.228  37.419  1.00  0.00    -0.237 OA
ATOM     87  O   UNL A   1      42.366  24.163  36.097  1.00  0.00    -0.744 OA
ENDBRANCH  83  84
ENDBRANCH  57  78
ENDBRANCH  31  32
ENDBRANCH  24  26
ENDBRANCH  23  24
ENDBRANCH  22  23
ENDBRANCH   1  22
TORSDOF 17
ENDMDL
