MODEL 1
REMARK VINA RESULT:      -8.6      0.000      0.000
REMARK SMILES Cc1c(CC(=O)N[C@H](CO)C(=O)OCCOCCOC(=O)c2ccc(-c3c4nc(c(-c5ccc(S(=O)(=O)[O-])cc5)c5ccc([nH]5)c(-c5ccc(S(=O)(=O)[O-])cc5)c5nc(c(-c6ccc(S(=O)(=O)[O-])cc6)c6ccc3[nH]6)C=C5)C=C4)cc2)cc(-c2ccc(S(C)(=O)=O)cc2)n1-c1ccc(F)cc1
REMARK SMILES IDX 15 1 14 2 13 3 11 4 12 5 8 6 7 7 5 8 6 9 4 11 3 12 1 13 2 14
REMARK SMILES IDX 94 15 82 16 83 17 95 18 96 19 101 20 97 21 100 22 98 23
REMARK SMILES IDX 99 24 84 25 85 26 93 27 86 28 92 29 87 30 88 31 89 32 90 33
REMARK SMILES IDX 91 34 9 35 10 36 16 38 17 39 18 40 19 41 20 42 21 43 22 44
REMARK SMILES IDX 23 45 81 46 24 47 80 48 25 49 26 50 27 51 74 52 28 53 79 54
REMARK SMILES IDX 73 55 75 56 29 57 78 58 72 59 71 60 30 62 60 63 41 64 59 65
REMARK SMILES IDX 42 66 45 67 58 68 76 69 43 70 44 71 57 73 77 74 46 75 31 76
REMARK SMILES IDX 32 77 40 78 33 79 39 80 34 81 35 82 36 83 37 84 38 85 61 86
REMARK SMILES IDX 62 87 70 88 63 89 69 90 64 91 65 92 66 93 67 94 68 95 47 96
REMARK SMILES IDX 48 97 56 98 49 99 55 100 50 101 51 102 52 103 53 104 54 105
REMARK H PARENT 7 10 10 37 75 61 45 72
REMARK Flexibility Score: inf
ROOT
ATOM      1  C   UNL A   1      46.039  36.217  33.794  1.00  0.00     0.202 C 
ENDROOT
BRANCH   1   2
ATOM      2  C   UNL A   1      44.712  36.819  34.269  1.00  0.00     0.261 C 
BRANCH   2   3
ATOM      3  O   UNL A   1      44.740  38.265  34.489  1.00  0.00    -0.462 OA
BRANCH   3   4
ATOM      4  C   UNL A   1      43.851  39.042  33.812  1.00  0.00     0.331 C 
ATOM      5  O   UNL A   1      42.637  38.879  33.893  1.00  0.00    -0.250 OA
BRANCH   4   6
ATOM      6  C   UNL A   1      44.480  39.954  32.706  1.00  0.00     0.218 C 
BRANCH   6   7
ATOM      7  N   UNL A   1      45.826  39.527  32.307  1.00  0.00    -0.341 N 
ATOM      8  C   UNL A   1      46.175  38.805  31.204  1.00  0.00     0.225 C 
ATOM      9  O   UNL A   1      47.298  38.298  31.173  1.00  0.00    -0.275 OA
ATOM     10  H   UNL A   1      46.562  39.793  32.904  1.00  0.00     0.164 HD
BRANCH   8  11
ATOM     11  C   UNL A   1      45.239  38.756  30.018  1.00  0.00     0.137 C 
BRANCH  11  12
ATOM     12  C   UNL A   1      44.458  37.471  29.765  1.00  0.00    -0.017 A 
ATOM     13  C   UNL A   1      45.356  37.394  27.346  1.00  0.00     0.065 C 
ATOM     14  C   UNL A   1      44.509  36.912  28.524  1.00  0.00     0.024 A 
ATOM     15  N   UNL A   1      43.649  35.811  28.456  1.00  0.00    -0.314 N 
ATOM     16  C   UNL A   1      43.505  36.623  30.502  1.00  0.00     0.033 A 
ATOM     17  C   UNL A   1      42.902  35.550  29.760  1.00  0.00     0.053 A 
BRANCH  15  18
ATOM     18  C   UNL A   1      43.772  35.112  27.225  1.00  0.00     0.046 A 
ATOM     19  C   UNL A   1      44.606  33.969  27.137  1.00  0.00     0.029 A 
ATOM     20  C   UNL A   1      42.875  35.408  26.206  1.00  0.00     0.029 A 
ATOM     21  C   UNL A   1      44.753  33.312  25.925  1.00  0.00     0.041 A 
ATOM     22  C   UNL A   1      42.980  34.697  25.013  1.00  0.00     0.041 A 
ATOM     23  C   UNL A   1      43.947  33.700  24.868  1.00  0.00     0.123 A 
ATOM     24  F   UNL A   1      44.092  33.098  23.683  1.00  0.00    -0.207 F 
ENDBRANCH  15  18
BRANCH  17  25
ATOM     25  C   UNL A   1      41.336  34.782  30.179  1.00  0.00    -0.001 A 
ATOM     26  C   UNL A   1      40.895  34.248  31.398  1.00  0.00     0.011 A 
ATOM     27  C   UNL A   1      40.163  34.680  29.293  1.00  0.00     0.011 A 
ATOM     28  C   UNL A   1      39.501  33.698  31.590  1.00  0.00     0.021 A 
ATOM     29  C   UNL A   1      38.825  34.406  29.481  1.00  0.00     0.021 A 
ATOM     30  C   UNL A   1      38.482  33.809  30.619  1.00  0.00     0.067 A 
BRANCH  30  31
ATOM     31  S   UNL A   1      36.822  33.161  30.470  1.00  0.00     0.175 S 
ATOM     32  C   UNL A   1      37.032  32.058  29.029  1.00  0.00     0.163 C 
ATOM     33  O   UNL A   1      36.493  32.542  31.714  1.00  0.00    -0.224 OA
ATOM     34  O   UNL A   1      36.011  34.292  29.982  1.00  0.00    -0.224 OA
ENDBRANCH  30  31
ENDBRANCH  17  25
ENDBRANCH  11  12
ENDBRANCH   8  11
ENDBRANCH   6   7
BRANCH   6  35
ATOM     35  C   UNL A   1      44.407  41.484  32.723  1.00  0.00     0.193 C 
BRANCH  35  36
ATOM     36  O   UNL A   1      43.233  41.918  33.435  1.00  0.00    -0.394 OA
ATOM     37  H   UNL A   1      42.544  42.166  32.800  1.00  0.00     0.210 HD
ENDBRANCH  35  36
ENDBRANCH   6  35
ENDBRANCH   4   6
ENDBRANCH   3   4
ENDBRANCH   2   3
ENDBRANCH   1   2
BRANCH   1  38
ATOM     38  O   UNL A   1      46.532  35.215  34.646  1.00  0.00    -0.374 OA
BRANCH  38  39
ATOM     39  C   UNL A   1      45.955  35.316  35.934  1.00  0.00     0.202 C 
BRANCH  39  40
ATOM     40  C   UNL A   1      46.426  34.296  37.055  1.00  0.00     0.261 C 
BRANCH  40  41
ATOM     41  O   UNL A   1      46.428  32.583  37.349  1.00  0.00    -0.460 OA
BRANCH  41  42
ATOM     42  C   UNL A   1      47.496  31.327  37.162  1.00  0.00     0.338 C 
ATOM     43  O   UNL A   1      48.246  31.283  38.154  1.00  0.00    -0.246 OA
BRANCH  42  44
ATOM     44  C   UNL A   1      47.915  30.021  35.894  1.00  0.00     0.060 A 
ATOM     45  C   UNL A   1      46.917  29.149  35.498  1.00  0.00     0.016 A 
ATOM     46  C   UNL A   1      48.992  29.693  34.920  1.00  0.00     0.016 A 
ATOM     47  C   UNL A   1      46.964  28.243  34.233  1.00  0.00     0.010 A 
ATOM     48  C   UNL A   1      49.002  28.784  33.577  1.00  0.00     0.010 A 
ATOM     49  C   UNL A   1      47.917  28.046  33.112  1.00  0.00    -0.014 A 
BRANCH  49  50
ATOM     50  C   UNL A   1      47.463  27.245  31.552  1.00  0.00     0.031 A 
ATOM     51  C   UNL A   1      47.782  28.333  30.638  1.00  0.00     0.074 A 
ATOM     52  C   UNL A   1      46.744  26.303  30.660  1.00  0.00     0.049 A 
ATOM     53  N   UNL A   1      46.856  29.219  30.688  1.00  0.00    -0.248 NA
ATOM     54  C   UNL A   1      49.044  28.787  30.089  1.00  0.00     0.031 C 
ATOM     55  C   UNL A   1      45.679  25.290  30.939  1.00  0.00     0.029 A 
ATOM     56  N   UNL A   1      46.690  26.141  29.138  1.00  0.00    -0.354 N 
ATOM     57  C   UNL A   1      47.381  30.406  30.298  1.00  0.00     0.074 A 
ATOM     58  C   UNL A   1      48.742  30.081  29.871  1.00  0.00     0.031 C 
ATOM     59  C   UNL A   1      45.251  24.581  29.829  1.00  0.00     0.029 A 
ATOM     60  C   UNL A   1      45.897  24.995  28.563  1.00  0.00     0.049 A 
ATOM     61  H   UNL A   1      47.162  26.773  28.548  1.00  0.00     0.167 HD
ATOM     62  C   UNL A   1      46.409  31.284  29.954  1.00  0.00     0.031 A 
ATOM     63  C   UNL A   1      45.644  24.539  27.208  1.00  0.00     0.031 A 
ATOM     64  C   UNL A   1      46.090  30.971  28.578  1.00  0.00     0.049 A 
ATOM     65  C   UNL A   1      45.252  25.785  26.530  1.00  0.00     0.074 A 
ATOM     66  C   UNL A   1      46.932  30.645  27.526  1.00  0.00     0.029 A 
ATOM     67  N   UNL A   1      44.869  30.388  28.315  1.00  0.00    -0.354 N 
ATOM     68  N   UNL A   1      44.073  26.298  26.702  1.00  0.00    -0.248 NA
ATOM     69  C   UNL A   1      46.036  26.368  25.449  1.00  0.00     0.031 C 
ATOM     70  C   UNL A   1      46.337  29.524  26.922  1.00  0.00     0.029 A 
ATOM     71  C   UNL A   1      45.002  29.466  27.298  1.00  0.00     0.049 A 
ATOM     72  H   UNL A   1      44.028  30.597  28.783  1.00  0.00     0.167 HD
ATOM     73  C   UNL A   1      44.188  27.544  26.162  1.00  0.00     0.074 A 
ATOM     74  C   UNL A   1      45.282  27.442  25.208  1.00  0.00     0.031 C 
ATOM     75  C   UNL A   1      43.917  28.553  27.028  1.00  0.00     0.031 A 
BRANCH  62  76
ATOM     76  C   UNL A   1      45.354  31.373  31.101  1.00  0.00    -0.014 A 
ATOM     77  C   UNL A   1      43.996  31.548  30.791  1.00  0.00     0.010 A 
ATOM     78  C   UNL A   1      45.707  31.476  32.479  1.00  0.00     0.010 A 
ATOM     79  C   UNL A   1      43.041  31.768  31.810  1.00  0.00     0.020 A 
ATOM     80  C   UNL A   1      44.778  31.757  33.486  1.00  0.00     0.020 A 
ATOM     81  C   UNL A   1      43.440  31.866  33.152  1.00  0.00     0.054 A 
BRANCH  81  82
ATOM     82  S   UNL A   1      42.209  32.012  34.485  1.00  0.00     0.124 S 
ATOM     83  O   UNL A   1      41.075  31.291  33.927  1.00  0.00    -0.237 OA
ATOM     84  O   UNL A   1      42.879  31.348  35.599  1.00  0.00    -0.237 OA
ATOM     85  O   UNL A   1      41.993  33.445  34.619  1.00  0.00    -0.744 OA
ENDBRANCH  81  82
ENDBRANCH  62  76
BRANCH  63  86
ATOM     86  C   UNL A   1      45.134  23.383  26.068  1.00  0.00    -0.014 A 
ATOM     87  C   UNL A   1      46.075  22.710  25.168  1.00  0.00     0.010 A 
ATOM     88  C   UNL A   1      43.954  22.616  26.206  1.00  0.00     0.010 A 
ATOM     89  C   UNL A   1      45.935  21.381  24.625  1.00  0.00     0.020 A 
ATOM     90  C   UNL A   1      43.784  21.283  25.627  1.00  0.00     0.020 A 
ATOM     91  C   UNL A   1      44.795  20.647  24.895  1.00  0.00     0.054 A 
BRANCH  91  92
ATOM     92  S   UNL A   1      44.715  18.851  24.431  1.00  0.00     0.124 S 
ATOM     93  O   UNL A   1      45.974  18.309  24.934  1.00  0.00    -0.237 OA
ATOM     94  O   UNL A   1      43.518  18.385  25.129  1.00  0.00    -0.237 OA
ATOM     95  O   UNL A   1      44.595  18.875  22.974  1.00  0.00    -0.744 OA
ENDBRANCH  91  92
ENDBRANCH  63  86
BRANCH  75  96
ATOM     96  C   UNL A   1      42.593  28.505  27.772  1.00  0.00    -0.014 A 
ATOM     97  C   UNL A   1      41.386  29.114  27.350  1.00  0.00     0.010 A 
ATOM     98  C   UNL A   1      42.585  27.882  29.031  1.00  0.00     0.010 A 
ATOM     99  C   UNL A   1      40.261  29.176  28.183  1.00  0.00     0.020 A 
ATOM    100  C   UNL A   1      41.452  27.895  29.849  1.00  0.00     0.020 A 
ATOM    101  C   UNL A   1      40.312  28.584  29.442  1.00  0.00     0.054 A 
BRANCH 101 102
ATOM    102  S   UNL A   1      38.912  28.793  30.572  1.00  0.00     0.124 S 
ATOM    103  O   UNL A   1      39.144  27.725  31.543  1.00  0.00    -0.237 OA
ATOM    104  O   UNL A   1      39.100  30.147  31.082  1.00  0.00    -0.237 OA
ATOM    105  O   UNL A   1      37.744  28.595  29.717  1.00  0.00    -0.744 OA
ENDBRANCH 101 102
ENDBRANCH  75  96
ENDBRANCH  49  50
ENDBRANCH  42  44
ENDBRANCH  41  42
ENDBRANCH  40  41
ENDBRANCH  39  40
ENDBRANCH  38  39
ENDBRANCH   1  38
TORSDOF 25
ENDMDL
MODEL 2
REMARK VINA RESULT:      -8.5      7.077     12.691
REMARK SMILES Cc1c(CC(=O)N[C@H](CO)C(=O)OCCOCCOC(=O)c2ccc(-c3c4nc(c(-c5ccc(S(=O)(=O)[O-])cc5)c5ccc([nH]5)c(-c5ccc(S(=O)(=O)[O-])cc5)c5nc(c(-c6ccc(S(=O)(=O)[O-])cc6)c6ccc3[nH]6)C=C5)C=C4)cc2)cc(-c2ccc(S(C)(=O)=O)cc2)n1-c1ccc(F)cc1
REMARK SMILES IDX 15 1 14 2 13 3 11 4 12 5 8 6 7 7 5 8 6 9 4 11 3 12 1 13 2 14
REMARK SMILES IDX 94 15 82 16 83 17 95 18 96 19 101 20 97 21 100 22 98 23
REMARK SMILES IDX 99 24 84 25 85 26 93 27 86 28 92 29 87 30 88 31 89 32 90 33
REMARK SMILES IDX 91 34 9 35 10 36 16 38 17 39 18 40 19 41 20 42 21 43 22 44
REMARK SMILES IDX 23 45 81 46 24 47 80 48 25 49 26 50 27 51 74 52 28 53 79 54
REMARK SMILES IDX 73 55 75 56 29 57 78 58 72 59 71 60 30 62 60 63 41 64 59 65
REMARK SMILES IDX 42 66 45 67 58 68 76 69 43 70 44 71 57 73 77 74 46 75 31 76
REMARK SMILES IDX 32 77 40 78 33 79 39 80 34 81 35 82 36 83 37 84 38 85 61 86
REMARK SMILES IDX 62 87 70 88 63 89 69 90 64 91 65 92 66 93 67 94 68 95 47 96
REMARK SMILES IDX 48 97 56 98 49 99 55 100 50 101 51 102 52 103 53 104 54 105
REMARK H PARENT 7 10 10 37 75 61 45 72
REMARK Flexibility Score: inf
ROOT
ATOM      1  C   UNL A   1      34.604  29.638  28.028  1.00  0.00     0.202 C 
ENDROOT
BRANCH   1   2
ATOM      2  C   UNL A   1      33.425  29.368  27.087  1.00  0.00     0.261 C 
BRANCH   2   3
ATOM      3  O   UNL A   1      33.706  28.414  26.013  1.00  0.00    -0.462 OA
BRANCH   3   4
ATOM      4  C   UNL A   1      33.158  28.636  24.787  1.00  0.00     0.331 C 
ATOM      5  O   UNL A   1      33.842  28.831  23.786  1.00  0.00    -0.250 OA
BRANCH   4   6
ATOM      6  C   UNL A   1      31.619  28.920  24.791  1.00  0.00     0.218 C 
BRANCH   6   7
ATOM      7  N   UNL A   1      30.848  27.912  24.054  1.00  0.00    -0.341 N 
ATOM      8  C   UNL A   1      30.968  26.556  24.131  1.00  0.00     0.225 C 
ATOM      9  O   UNL A   1      30.446  25.875  23.246  1.00  0.00    -0.275 OA
ATOM     10  H   UNL A   1      30.166  28.254  23.432  1.00  0.00     0.164 HD
BRANCH   8  11
ATOM     11  C   UNL A   1      31.613  25.932  25.348  1.00  0.00     0.137 C 
BRANCH  11  12
ATOM     12  C   UNL A   1      32.721  24.907  25.133  1.00  0.00    -0.017 A 
ATOM     13  C   UNL A   1      30.972  23.008  25.128  1.00  0.00     0.065 C 
ATOM     14  C   UNL A   1      32.386  23.588  25.081  1.00  0.00     0.024 A 
ATOM     15  N   UNL A   1      33.538  22.801  24.990  1.00  0.00    -0.314 N 
ATOM     16  C   UNL A   1      34.192  24.906  25.047  1.00  0.00     0.033 A 
ATOM     17  C   UNL A   1      34.826  23.619  24.982  1.00  0.00     0.053 A 
BRANCH  15  18
ATOM     18  C   UNL A   1      33.234  21.427  24.794  1.00  0.00     0.046 A 
ATOM     19  C   UNL A   1      33.263  20.529  25.892  1.00  0.00     0.029 A 
ATOM     20  C   UNL A   1      32.666  21.042  23.587  1.00  0.00     0.029 A 
ATOM     21  C   UNL A   1      33.004  19.182  25.690  1.00  0.00     0.041 A 
ATOM     22  C   UNL A   1      32.341  19.699  23.412  1.00  0.00     0.041 A 
ATOM     23  C   UNL A   1      32.562  18.780  24.441  1.00  0.00     0.123 A 
ATOM     24  F   UNL A   1      32.333  17.483  24.217  1.00  0.00    -0.207 F 
ENDBRANCH  15  18
BRANCH  17  25
ATOM     25  C   UNL A   1      36.522  23.297  25.469  1.00  0.00    -0.001 A 
ATOM     26  C   UNL A   1      37.427  24.113  26.164  1.00  0.00     0.011 A 
ATOM     27  C   UNL A   1      37.238  22.021  25.304  1.00  0.00     0.011 A 
ATOM     28  C   UNL A   1      38.810  23.647  26.555  1.00  0.00     0.021 A 
ATOM     29  C   UNL A   1      38.389  21.477  25.834  1.00  0.00     0.021 A 
ATOM     30  C   UNL A   1      39.255  22.317  26.394  1.00  0.00     0.067 A 
BRANCH  30  31
ATOM     31  S   UNL A   1      40.826  21.490  26.608  1.00  0.00     0.175 S 
ATOM     32  C   UNL A   1      41.965  22.809  26.059  1.00  0.00     0.163 C 
ATOM     33  O   UNL A   1      40.915  21.090  27.976  1.00  0.00    -0.224 OA
ATOM     34  O   UNL A   1      40.870  20.469  25.546  1.00  0.00    -0.224 OA
ENDBRANCH  30  31
ENDBRANCH  17  25
ENDBRANCH  11  12
ENDBRANCH   8  11
ENDBRANCH   6   7
BRANCH   6  35
ATOM     35  C   UNL A   1      31.010  30.307  24.562  1.00  0.00     0.193 C 
BRANCH  35  36
ATOM     36  O   UNL A   1      31.222  31.140  25.716  1.00  0.00    -0.394 OA
ATOM     37  H   UNL A   1      31.942  30.772  26.252  1.00  0.00     0.210 HD
ENDBRANCH  35  36
ENDBRANCH   6  35
ENDBRANCH   4   6
ENDBRANCH   3   4
ENDBRANCH   2   3
ENDBRANCH   1   2
BRANCH   1  38
ATOM     38  O   UNL A   1      35.845  29.273  27.483  1.00  0.00    -0.374 OA
BRANCH  38  39
ATOM     39  C   UNL A   1      36.895  30.023  28.065  1.00  0.00     0.202 C 
BRANCH  39  40
ATOM     40  C   UNL A   1      38.076  29.241  28.780  1.00  0.00     0.261 C 
BRANCH  40  41
ATOM     41  O   UNL A   1      39.647  28.606  28.395  1.00  0.00    -0.460 OA
BRANCH  41  42
ATOM     42  C   UNL A   1      40.633  28.546  27.062  1.00  0.00     0.338 C 
ATOM     43  O   UNL A   1      40.104  29.193  26.140  1.00  0.00    -0.246 OA
BRANCH  42  44
ATOM     44  C   UNL A   1      42.247  27.761  26.547  1.00  0.00     0.060 A 
ATOM     45  C   UNL A   1      43.347  28.581  26.371  1.00  0.00     0.016 A 
ATOM     46  C   UNL A   1      42.871  26.412  26.452  1.00  0.00     0.016 A 
ATOM     47  C   UNL A   1      44.825  28.098  26.290  1.00  0.00     0.010 A 
ATOM     48  C   UNL A   1      44.418  25.931  26.420  1.00  0.00     0.010 A 
ATOM     49  C   UNL A   1      45.515  26.789  26.414  1.00  0.00    -0.014 A 
BRANCH  49  50
ATOM     50  C   UNL A   1      47.293  26.630  26.727  1.00  0.00     0.031 A 
ATOM     51  C   UNL A   1      47.287  26.836  28.169  1.00  0.00     0.074 A 
ATOM     52  C   UNL A   1      48.742  26.683  26.419  1.00  0.00     0.049 A 
ATOM     53  N   UNL A   1      47.148  28.085  28.422  1.00  0.00    -0.248 NA
ATOM     54  C   UNL A   1      46.969  25.942  29.265  1.00  0.00     0.031 C 
ATOM     55  C   UNL A   1      49.480  27.096  25.186  1.00  0.00     0.029 A 
ATOM     56  N   UNL A   1      49.998  26.513  27.279  1.00  0.00    -0.354 N 
ATOM     57  C   UNL A   1      46.614  28.211  29.662  1.00  0.00     0.074 A 
ATOM     58  C   UNL A   1      46.574  26.846  30.183  1.00  0.00     0.031 C 
ATOM     59  C   UNL A   1      50.859  27.001  25.279  1.00  0.00     0.029 A 
ATOM     60  C   UNL A   1      51.345  26.551  26.602  1.00  0.00     0.049 A 
ATOM     61  H   UNL A   1      49.928  26.382  28.253  1.00  0.00     0.167 HD
ATOM     62  C   UNL A   1      46.795  29.462  30.149  1.00  0.00     0.031 A 
ATOM     63  C   UNL A   1      52.707  26.416  27.086  1.00  0.00     0.031 A 
ATOM     64  C   UNL A   1      48.125  29.454  30.720  1.00  0.00     0.049 A 
ATOM     65  C   UNL A   1      52.721  27.330  28.239  1.00  0.00     0.074 A 
ATOM     66  C   UNL A   1      48.760  28.476  31.469  1.00  0.00     0.029 A 
ATOM     67  N   UNL A   1      49.108  30.174  30.077  1.00  0.00    -0.354 N 
ATOM     68  N   UNL A   1      52.784  28.615  28.073  1.00  0.00    -0.248 NA
ATOM     69  C   UNL A   1      52.924  26.865  29.604  1.00  0.00     0.031 C 
ATOM     70  C   UNL A   1      50.038  28.356  30.896  1.00  0.00     0.029 A 
ATOM     71  C   UNL A   1      50.308  29.498  30.156  1.00  0.00     0.049 A 
ATOM     72  H   UNL A   1      48.974  31.040  29.628  1.00  0.00     0.167 HD
ATOM     73  C   UNL A   1      52.493  29.109  29.309  1.00  0.00     0.074 A 
ATOM     74  C   UNL A   1      52.839  28.039  30.234  1.00  0.00     0.031 C 
ATOM     75  C   UNL A   1      51.417  29.934  29.340  1.00  0.00     0.031 A 
BRANCH  62  76
ATOM     76  C   UNL A   1      46.296  30.509  29.104  1.00  0.00    -0.014 A 
ATOM     77  C   UNL A   1      44.949  30.904  29.099  1.00  0.00     0.010 A 
ATOM     78  C   UNL A   1      47.092  30.962  28.011  1.00  0.00     0.010 A 
ATOM     79  C   UNL A   1      44.442  31.744  28.081  1.00  0.00     0.020 A 
ATOM     80  C   UNL A   1      46.584  31.740  26.967  1.00  0.00     0.020 A 
ATOM     81  C   UNL A   1      45.267  32.159  27.023  1.00  0.00     0.054 A 
BRANCH  81  82
ATOM     82  S   UNL A   1      44.667  33.348  25.782  1.00  0.00     0.124 S 
ATOM     83  O   UNL A   1      43.695  34.115  26.546  1.00  0.00    -0.237 OA
ATOM     84  O   UNL A   1      45.887  34.069  25.429  1.00  0.00    -0.237 OA
ATOM     85  O   UNL A   1      44.081  32.516  24.741  1.00  0.00    -0.744 OA
ENDBRANCH  81  82
ENDBRANCH  62  76
BRANCH  63  86
ATOM     86  C   UNL A   1      54.376  26.159  26.866  1.00  0.00    -0.014 A 
ATOM     87  C   UNL A   1      55.088  25.062  27.528  1.00  0.00     0.010 A 
ATOM     88  C   UNL A   1      55.089  26.585  25.722  1.00  0.00     0.010 A 
ATOM     89  C   UNL A   1      56.250  24.371  27.025  1.00  0.00     0.020 A 
ATOM     90  C   UNL A   1      56.291  25.918  25.223  1.00  0.00     0.020 A 
ATOM     91  C   UNL A   1      56.829  24.781  25.838  1.00  0.00     0.054 A 
BRANCH  91  92
ATOM     92  S   UNL A   1      58.151  23.746  25.046  1.00  0.00     0.124 S 
ATOM     93  O   UNL A   1      57.669  22.378  25.219  1.00  0.00    -0.237 OA
ATOM     94  O   UNL A   1      58.161  24.227  23.665  1.00  0.00    -0.237 OA
ATOM     95  O   UNL A   1      59.354  24.075  25.810  1.00  0.00    -0.744 OA
ENDBRANCH  91  92
ENDBRANCH  63  86
BRANCH  75  96
ATOM     96  C   UNL A   1      51.398  31.105  28.372  1.00  0.00    -0.014 A 
ATOM     97  C   UNL A   1      50.833  31.095  27.074  1.00  0.00     0.010 A 
ATOM     98  C   UNL A   1      52.079  32.271  28.761  1.00  0.00     0.010 A 
ATOM     99  C   UNL A   1      51.020  32.157  26.180  1.00  0.00     0.020 A 
ATOM    100  C   UNL A   1      52.228  33.357  27.893  1.00  0.00     0.020 A 
ATOM    101  C   UNL A   1      51.740  33.274  26.591  1.00  0.00     0.054 A 
BRANCH 101 102
ATOM    102  S   UNL A   1      52.106  34.579  25.389  1.00  0.00     0.124 S 
ATOM    103  O   UNL A   1      50.904  34.571  24.557  1.00  0.00    -0.237 OA
ATOM    104  O   UNL A   1      52.274  35.761  26.226  1.00  0.00    -0.237 OA
ATOM    105  O   UNL A   1      53.313  34.102  24.718  1.00  0.00    -0.744 OA
ENDBRANCH 101 102
ENDBRANCH  75  96
ENDBRANCH  49  50
ENDBRANCH  42  44
ENDBRANCH  41  42
ENDBRANCH  40  41
ENDBRANCH  39  40
ENDBRANCH  38  39
ENDBRANCH   1  38
TORSDOF 25
ENDMDL
MODEL 3
REMARK VINA RESULT:      -8.0      5.659     10.949
REMARK SMILES Cc1c(CC(=O)N[C@H](CO)C(=O)OCCOCCOC(=O)c2ccc(-c3c4nc(c(-c5ccc(S(=O)(=O)[O-])cc5)c5ccc([nH]5)c(-c5ccc(S(=O)(=O)[O-])cc5)c5nc(c(-c6ccc(S(=O)(=O)[O-])cc6)c6ccc3[nH]6)C=C5)C=C4)cc2)cc(-c2ccc(S(C)(=O)=O)cc2)n1-c1ccc(F)cc1
REMARK SMILES IDX 15 1 14 2 13 3 11 4 12 5 8 6 7 7 5 8 6 9 4 11 3 12 1 13 2 14
REMARK SMILES IDX 94 15 82 16 83 17 95 18 96 19 101 20 97 21 100 22 98 23
REMARK SMILES IDX 99 24 84 25 85 26 93 27 86 28 92 29 87 30 88 31 89 32 90 33
REMARK SMILES IDX 91 34 9 35 10 36 16 38 17 39 18 40 19 41 20 42 21 43 22 44
REMARK SMILES IDX 23 45 81 46 24 47 80 48 25 49 26 50 27 51 74 52 28 53 79 54
REMARK SMILES IDX 73 55 75 56 29 57 78 58 72 59 71 60 30 62 60 63 41 64 59 65
REMARK SMILES IDX 42 66 45 67 58 68 76 69 43 70 44 71 57 73 77 74 46 75 31 76
REMARK SMILES IDX 32 77 40 78 33 79 39 80 34 81 35 82 36 83 37 84 38 85 61 86
REMARK SMILES IDX 62 87 70 88 63 89 69 90 64 91 65 92 66 93 67 94 68 95 47 96
REMARK SMILES IDX 48 97 56 98 49 99 55 100 50 101 51 102 52 103 53 104 54 105
REMARK H PARENT 7 10 10 37 75 61 45 72
REMARK Flexibility Score: inf
ROOT
ATOM      1  C   UNL A   1      48.781  40.650  28.119  1.00  0.00     0.202 C 
ENDROOT
BRANCH   1   2
ATOM      2  C   UNL A   1      47.823  40.134  27.041  1.00  0.00     0.261 C 
BRANCH   2   3
ATOM      3  O   UNL A   1      46.607  39.503  27.555  1.00  0.00    -0.462 OA
BRANCH   3   4
ATOM      4  C   UNL A   1      46.015  38.530  26.810  1.00  0.00     0.331 C 
ATOM      5  O   UNL A   1      46.460  38.170  25.724  1.00  0.00    -0.250 OA
BRANCH   4   6
ATOM      6  C   UNL A   1      44.582  38.114  27.284  1.00  0.00     0.218 C 
BRANCH   6   7
ATOM      7  N   UNL A   1      44.260  38.598  28.631  1.00  0.00    -0.341 N 
ATOM      8  C   UNL A   1      43.752  39.816  28.975  1.00  0.00     0.225 C 
ATOM      9  O   UNL A   1      43.808  40.156  30.158  1.00  0.00    -0.275 OA
ATOM     10  H   UNL A   1      44.430  37.973  29.372  1.00  0.00     0.164 HD
BRANCH   8  11
ATOM     11  C   UNL A   1      43.030  40.643  27.936  1.00  0.00     0.137 C 
BRANCH  11  12
ATOM     12  C   UNL A   1      43.864  41.469  26.962  1.00  0.00    -0.017 A 
ATOM     13  C   UNL A   1      44.733  42.912  28.917  1.00  0.00     0.065 C 
ATOM     14  C   UNL A   1      44.589  42.514  27.448  1.00  0.00     0.024 A 
ATOM     15  N   UNL A   1      45.194  43.211  26.398  1.00  0.00    -0.314 N 
ATOM     16  C   UNL A   1      44.070  41.537  25.505  1.00  0.00     0.033 A 
ATOM     17  C   UNL A   1      44.877  42.626  25.026  1.00  0.00     0.053 A 
BRANCH  15  18
ATOM     18  C   UNL A   1      46.071  44.226  26.865  1.00  0.00     0.046 A 
ATOM     19  C   UNL A   1      45.551  45.472  27.297  1.00  0.00     0.029 A 
ATOM     20  C   UNL A   1      47.392  43.887  27.129  1.00  0.00     0.029 A 
ATOM     21  C   UNL A   1      46.412  46.474  27.716  1.00  0.00     0.041 A 
ATOM     22  C   UNL A   1      48.240  44.878  27.616  1.00  0.00     0.041 A 
ATOM     23  C   UNL A   1      47.756  46.168  27.852  1.00  0.00     0.123 A 
ATOM     24  F   UNL A   1      48.608  47.126  28.228  1.00  0.00    -0.207 F 
ENDBRANCH  15  18
BRANCH  17  25
ATOM     25  C   UNL A   1      44.796  43.293  23.362  1.00  0.00    -0.001 A 
ATOM     26  C   UNL A   1      43.961  42.940  22.293  1.00  0.00     0.011 A 
ATOM     27  C   UNL A   1      45.559  44.448  22.861  1.00  0.00     0.011 A 
ATOM     28  C   UNL A   1      43.983  43.666  20.968  1.00  0.00     0.021 A 
ATOM     29  C   UNL A   1      45.456  45.279  21.765  1.00  0.00     0.021 A 
ATOM     30  C   UNL A   1      44.727  44.844  20.740  1.00  0.00     0.067 A 
BRANCH  30  31
ATOM     31  S   UNL A   1      45.082  45.840  19.298  1.00  0.00     0.175 S 
ATOM     32  C   UNL A   1      46.760  45.241  18.894  1.00  0.00     0.163 C 
ATOM     33  O   UNL A   1      44.056  45.581  18.339  1.00  0.00    -0.224 OA
ATOM     34  O   UNL A   1      45.269  47.208  19.813  1.00  0.00    -0.224 OA
ENDBRANCH  30  31
ENDBRANCH  17  25
ENDBRANCH  11  12
ENDBRANCH   8  11
ENDBRANCH   6   7
BRANCH   6  35
ATOM     35  C   UNL A   1      43.995  36.713  27.084  1.00  0.00     0.193 C 
BRANCH  35  36
ATOM     36  O   UNL A   1      44.716  36.014  26.052  1.00  0.00    -0.394 OA
ATOM     37  H   UNL A   1      44.775  36.575  25.264  1.00  0.00     0.210 HD
ENDBRANCH  35  36
ENDBRANCH   6  35
ENDBRANCH   4   6
ENDBRANCH   3   4
ENDBRANCH   2   3
ENDBRANCH   1   2
BRANCH   1  38
ATOM     38  O   UNL A   1      49.518  39.631  28.744  1.00  0.00    -0.374 OA
BRANCH  38  39
ATOM     39  C   UNL A   1      50.792  39.487  28.146  1.00  0.00     0.202 C 
BRANCH  39  40
ATOM     40  C   UNL A   1      51.009  38.313  27.100  1.00  0.00     0.261 C 
BRANCH  40  41
ATOM     41  O   UNL A   1      50.565  36.646  26.894  1.00  0.00    -0.460 OA
BRANCH  41  42
ATOM     42  C   UNL A   1      49.173  35.747  26.977  1.00  0.00     0.338 C 
ATOM     43  O   UNL A   1      48.766  35.524  25.822  1.00  0.00    -0.246 OA
BRANCH  42  44
ATOM     44  C   UNL A   1      48.042  35.033  28.280  1.00  0.00     0.060 A 
ATOM     45  C   UNL A   1      47.211  35.897  28.971  1.00  0.00     0.016 A 
ATOM     46  C   UNL A   1      47.528  33.711  28.733  1.00  0.00     0.016 A 
ATOM     47  C   UNL A   1      45.980  35.472  29.823  1.00  0.00     0.010 A 
ATOM     48  C   UNL A   1      46.210  33.289  29.578  1.00  0.00     0.010 A 
ATOM     49  C   UNL A   1      45.296  34.188  30.120  1.00  0.00    -0.014 A 
BRANCH  49  50
ATOM     50  C   UNL A   1      43.610  34.091  30.779  1.00  0.00     0.031 A 
ATOM     51  C   UNL A   1      43.896  33.402  32.030  1.00  0.00     0.074 A 
ATOM     52  C   UNL A   1      42.129  34.035  30.734  1.00  0.00     0.049 A 
ATOM     53  N   UNL A   1      44.095  32.157  31.796  1.00  0.00    -0.248 NA
ATOM     54  C   UNL A   1      44.411  33.885  33.295  1.00  0.00     0.031 C 
ATOM     55  C   UNL A   1      41.171  34.015  29.586  1.00  0.00     0.029 A 
ATOM     56  N   UNL A   1      41.061  33.800  31.807  1.00  0.00    -0.354 N 
ATOM     57  C   UNL A   1      44.859  31.653  32.796  1.00  0.00     0.074 A 
ATOM     58  C   UNL A   1      44.985  32.754  33.749  1.00  0.00     0.031 C 
ATOM     59  C   UNL A   1      39.835  33.965  29.949  1.00  0.00     0.029 A 
ATOM     60  C   UNL A   1      39.609  33.892  31.410  1.00  0.00     0.049 A 
ATOM     61  H   UNL A   1      41.317  33.592  32.735  1.00  0.00     0.167 HD
ATOM     62  C   UNL A   1      44.789  30.301  32.834  1.00  0.00     0.031 A 
ATOM     63  C   UNL A   1      38.365  33.747  32.143  1.00  0.00     0.031 A 
ATOM     64  C   UNL A   1      43.595  30.008  33.597  1.00  0.00     0.049 A 
ATOM     65  C   UNL A   1      38.584  32.493  32.882  1.00  0.00     0.074 A 
ATOM     66  C   UNL A   1      43.106  30.616  34.743  1.00  0.00     0.029 A 
ATOM     67  N   UNL A   1      42.514  29.480  32.926  1.00  0.00    -0.354 N 
ATOM     68  N   UNL A   1      38.503  31.343  32.287  1.00  0.00    -0.248 NA
ATOM     69  C   UNL A   1      38.644  32.441  34.337  1.00  0.00     0.031 C 
ATOM     70  C   UNL A   1      41.741  30.826  34.486  1.00  0.00     0.029 A 
ATOM     71  C   UNL A   1      41.345  29.991  33.450  1.00  0.00     0.049 A 
ATOM     72  H   UNL A   1      42.567  28.835  32.184  1.00  0.00     0.167 HD
ATOM     73  C   UNL A   1      39.033  30.478  33.197  1.00  0.00     0.074 A 
ATOM     74  C   UNL A   1      38.861  31.133  34.485  1.00  0.00     0.031 C 
ATOM     75  C   UNL A   1      40.103  29.779  32.743  1.00  0.00     0.031 A 
BRANCH  62  76
ATOM     76  C   UNL A   1      45.088  29.721  31.416  1.00  0.00    -0.014 A 
ATOM     77  C   UNL A   1      46.368  29.865  30.857  1.00  0.00     0.010 A 
ATOM     78  C   UNL A   1      44.076  29.204  30.555  1.00  0.00     0.010 A 
ATOM     79  C   UNL A   1      46.626  29.471  29.523  1.00  0.00     0.020 A 
ATOM     80  C   UNL A   1      44.307  28.872  29.216  1.00  0.00     0.020 A 
ATOM     81  C   UNL A   1      45.593  28.973  28.714  1.00  0.00     0.054 A 
BRANCH  81  82
ATOM     82  S   UNL A   1      45.938  28.336  27.045  1.00  0.00     0.124 S 
ATOM     83  O   UNL A   1      45.058  29.151  26.223  1.00  0.00    -0.237 OA
ATOM     84  O   UNL A   1      47.363  28.618  26.895  1.00  0.00    -0.237 OA
ATOM     85  O   UNL A   1      45.559  26.932  27.109  1.00  0.00    -0.744 OA
ENDBRANCH  81  82
ENDBRANCH  62  76
BRANCH  63  86
ATOM     86  C   UNL A   1      36.683  33.933  32.328  1.00  0.00    -0.014 A 
ATOM     87  C   UNL A   1      36.106  34.880  33.287  1.00  0.00     0.010 A 
ATOM     88  C   UNL A   1      35.747  33.632  31.312  1.00  0.00     0.010 A 
ATOM     89  C   UNL A   1      34.843  35.565  33.156  1.00  0.00     0.020 A 
ATOM     90  C   UNL A   1      34.447  34.292  31.190  1.00  0.00     0.020 A 
ATOM     91  C   UNL A   1      34.027  35.296  32.072  1.00  0.00     0.054 A 
BRANCH  91  92
ATOM     92  S   UNL A   1      32.536  36.353  31.749  1.00  0.00     0.124 S 
ATOM     93  O   UNL A   1      31.442  35.602  32.358  1.00  0.00    -0.237 OA
ATOM     94  O   UNL A   1      32.873  37.609  32.419  1.00  0.00    -0.237 OA
ATOM     95  O   UNL A   1      32.484  36.441  30.290  1.00  0.00    -0.744 OA
ENDBRANCH  91  92
ENDBRANCH  63  86
BRANCH  75  96
ATOM     96  C   UNL A   1      39.946  29.018  31.437  1.00  0.00    -0.014 A 
ATOM     97  C   UNL A   1      39.267  27.787  31.276  1.00  0.00     0.010 A 
ATOM     98  C   UNL A   1      40.608  29.533  30.310  1.00  0.00     0.010 A 
ATOM     99  C   UNL A   1      39.326  27.064  30.077  1.00  0.00     0.020 A 
ATOM    100  C   UNL A   1      40.630  28.844  29.094  1.00  0.00     0.020 A 
ATOM    101  C   UNL A   1      40.031  27.590  28.998  1.00  0.00     0.054 A 
BRANCH 101 102
ATOM    102  S   UNL A   1      40.230  26.589  27.502  1.00  0.00     0.124 S 
ATOM    103  O   UNL A   1      40.430  27.612  26.476  1.00  0.00    -0.237 OA
ATOM    104  O   UNL A   1      41.403  25.776  27.803  1.00  0.00    -0.237 OA
ATOM    105  O   UNL A   1      38.965  25.865  27.400  1.00  0.00    -0.744 OA
ENDBRANCH 101 102
ENDBRANCH  75  96
ENDBRANCH  49  50
ENDBRANCH  42  44
ENDBRANCH  41  42
ENDBRANCH  40  41
ENDBRANCH  39  40
ENDBRANCH  38  39
ENDBRANCH   1  38
TORSDOF 25
ENDMDL
