MODEL 1
REMARK VINA RESULT:      -9.8      0.000      0.000
REMARK SMILES CCOC(=O)[C@H](C)NC(=O)N1CC[C@H](C(=O)OCCOCCOC(=O)c2ccc(-c3c4nc(c(-c5ccc(S(=O)(=O)[O-])cc5)c5ccc([nH]5)c(-c5ccc(S(=O)(=O)[O-])cc5)c5nc(c(-c6ccc(S(=O)(=O)[O-])cc6)c6ccc3[nH]6)C=C5)C=C4)cc2)[C@@H]1C
REMARK SMILES IDX 19 1 18 2 17 3 15 4 16 5 14 6 11 7 12 8 86 9 13 10 87 11
REMARK SMILES IDX 9 12 8 13 10 15 6 16 7 17 4 18 5 19 3 20 2 21 1 22 20 23
REMARK SMILES IDX 21 24 22 25 23 26 24 27 25 28 26 29 27 30 85 31 28 32 84 33
REMARK SMILES IDX 29 34 30 35 31 36 78 37 32 38 83 39 77 40 79 41 33 42 82 43
REMARK SMILES IDX 76 44 75 45 34 47 64 48 45 49 63 50 46 51 49 52 62 53 80 54
REMARK SMILES IDX 47 55 48 56 61 58 81 59 50 60 35 61 36 62 44 63 37 64 43 65
REMARK SMILES IDX 38 66 39 67 40 68 41 69 42 70 65 71 66 72 74 73 67 74 73 75
REMARK SMILES IDX 68 76 69 77 70 78 71 79 72 80 51 81 52 82 60 83 53 84 59 85
REMARK SMILES IDX 54 86 55 87 56 88 57 89 58 90
REMARK H PARENT 8 14 79 46 49 57
REMARK Flexibility Score: inf
ROOT
ATOM      1  C   UNL A   1      30.746  28.721  23.778  1.00  0.00     0.202 C 
ENDROOT
BRANCH   1   2
ATOM      2  C   UNL A   1      30.556  27.202  23.696  1.00  0.00     0.261 C 
BRANCH   2   3
ATOM      3  O   UNL A   1      29.978  26.706  24.911  1.00  0.00    -0.463 OA
BRANCH   3   4
ATOM      4  C   UNL A   1      30.827  26.050  25.750  1.00  0.00     0.311 C 
ATOM      5  O   UNL A   1      31.031  26.343  26.918  1.00  0.00    -0.252 OA
BRANCH   4   6
ATOM      6  C   UNL A   1      31.467  24.890  25.011  1.00  0.00     0.123 C 
ATOM      7  N   UNL A   1      32.644  23.237  26.271  1.00  0.00    -0.321 N 
ATOM      8  C   UNL A   1      33.487  24.413  26.165  1.00  0.00     0.122 C 
ATOM      9  C   UNL A   1      31.323  23.502  25.680  1.00  0.00     0.098 C 
ATOM     10  C   UNL A   1      32.973  25.110  24.919  1.00  0.00     0.039 C 
ATOM     11  C   UNL A   1      30.176  23.352  26.680  1.00  0.00     0.032 C 
BRANCH   7  12
ATOM     12  C   UNL A   1      33.033  22.208  27.071  1.00  0.00     0.318 C 
ATOM     13  N   UNL A   1      33.050  20.947  26.593  1.00  0.00    -0.325 N 
ATOM     14  H   UNL A   1      32.715  20.253  27.206  1.00  0.00     0.166 HD
ATOM     15  O   UNL A   1      33.383  22.374  28.240  1.00  0.00    -0.249 OA
BRANCH  13  16
ATOM     16  C   UNL A   1      33.503  20.471  25.282  1.00  0.00     0.190 C 
ATOM     17  C   UNL A   1      34.989  20.770  25.108  1.00  0.00     0.043 C 
BRANCH  16  18
ATOM     18  C   UNL A   1      33.227  18.974  25.069  1.00  0.00     0.328 C 
ATOM     19  O   UNL A   1      32.229  18.394  25.480  1.00  0.00    -0.250 OA
BRANCH  18  20
ATOM     20  O   UNL A   1      34.284  18.355  24.470  1.00  0.00    -0.464 OA
BRANCH  20  21
ATOM     21  C   UNL A   1      33.979  17.361  23.482  1.00  0.00     0.229 C 
ATOM     22  C   UNL A   1      33.671  16.016  24.117  1.00  0.00     0.049 C 
ENDBRANCH  20  21
ENDBRANCH  18  20
ENDBRANCH  16  18
ENDBRANCH  13  16
ENDBRANCH   7  12
ENDBRANCH   4   6
ENDBRANCH   3   4
ENDBRANCH   2   3
ENDBRANCH   1   2
BRANCH   1  23
ATOM     23  O   UNL A   1      31.107  29.256  25.052  1.00  0.00    -0.374 OA
BRANCH  23  24
ATOM     24  C   UNL A   1      32.481  29.227  25.431  1.00  0.00     0.202 C 
BRANCH  24  25
ATOM     25  C   UNL A   1      32.887  29.899  26.748  1.00  0.00     0.261 C 
BRANCH  25  26
ATOM     26  O   UNL A   1      34.187  30.508  26.692  1.00  0.00    -0.460 OA
BRANCH  26  27
ATOM     27  C   UNL A   1      34.694  30.869  27.896  1.00  0.00     0.338 C 
ATOM     28  O   UNL A   1      34.134  31.525  28.765  1.00  0.00    -0.246 OA
BRANCH  27  29
ATOM     29  C   UNL A   1      35.985  30.201  28.120  1.00  0.00     0.060 A 
ATOM     30  C   UNL A   1      36.250  29.713  29.406  1.00  0.00     0.016 A 
ATOM     31  C   UNL A   1      36.954  30.134  27.118  1.00  0.00     0.016 A 
ATOM     32  C   UNL A   1      37.501  29.179  29.703  1.00  0.00     0.010 A 
ATOM     33  C   UNL A   1      38.213  29.609  27.423  1.00  0.00     0.010 A 
ATOM     34  C   UNL A   1      38.501  29.156  28.723  1.00  0.00    -0.014 A 
BRANCH  34  35
ATOM     35  C   UNL A   1      39.881  28.770  29.098  1.00  0.00     0.031 A 
ATOM     36  C   UNL A   1      40.749  29.765  29.818  1.00  0.00     0.074 A 
ATOM     37  C   UNL A   1      40.340  27.536  28.826  1.00  0.00     0.049 A 
ATOM     38  N   UNL A   1      41.986  29.640  30.222  1.00  0.00    -0.248 NA
ATOM     39  C   UNL A   1      40.142  31.070  30.126  1.00  0.00     0.031 C 
ATOM     40  C   UNL A   1      39.575  26.474  28.174  1.00  0.00     0.029 A 
ATOM     41  N   UNL A   1      41.568  26.971  29.064  1.00  0.00    -0.354 N 
ATOM     42  C   UNL A   1      42.310  30.851  30.825  1.00  0.00     0.074 A 
ATOM     43  C   UNL A   1      41.148  31.704  30.711  1.00  0.00     0.031 C 
ATOM     44  C   UNL A   1      40.354  25.385  28.057  1.00  0.00     0.029 A 
ATOM     45  C   UNL A   1      41.680  25.684  28.594  1.00  0.00     0.049 A 
ATOM     46  H   UNL A   1      42.298  27.442  29.526  1.00  0.00     0.167 HD
ATOM     47  C   UNL A   1      43.470  31.215  31.422  1.00  0.00     0.031 A 
ATOM     48  C   UNL A   1      42.739  24.851  28.579  1.00  0.00     0.031 A 
ATOM     49  C   UNL A   1      44.629  30.368  31.516  1.00  0.00     0.049 A 
ATOM     50  C   UNL A   1      44.044  25.308  29.178  1.00  0.00     0.074 A 
ATOM     51  C   UNL A   1      45.848  30.640  32.114  1.00  0.00     0.029 A 
ATOM     52  N   UNL A   1      44.719  29.089  30.988  1.00  0.00    -0.354 N 
ATOM     53  N   UNL A   1      44.325  26.446  29.767  1.00  0.00    -0.248 NA
ATOM     54  C   UNL A   1      45.170  24.367  29.112  1.00  0.00     0.031 C 
ATOM     55  C   UNL A   1      46.692  29.546  31.898  1.00  0.00     0.029 A 
ATOM     56  C   UNL A   1      45.982  28.569  31.217  1.00  0.00     0.049 A 
ATOM     57  H   UNL A   1      43.993  28.619  30.519  1.00  0.00     0.167 HD
ATOM     58  C   UNL A   1      45.656  26.349  30.161  1.00  0.00     0.074 A 
ATOM     59  C   UNL A   1      46.116  25.036  29.758  1.00  0.00     0.031 C 
ATOM     60  C   UNL A   1      46.426  27.264  30.800  1.00  0.00     0.031 A 
BRANCH  47  61
ATOM     61  C   UNL A   1      43.552  32.609  31.987  1.00  0.00    -0.014 A 
ATOM     62  C   UNL A   1      43.265  32.867  33.339  1.00  0.00     0.010 A 
ATOM     63  C   UNL A   1      43.956  33.672  31.158  1.00  0.00     0.010 A 
ATOM     64  C   UNL A   1      43.344  34.168  33.843  1.00  0.00     0.020 A 
ATOM     65  C   UNL A   1      44.060  34.970  31.664  1.00  0.00     0.020 A 
ATOM     66  C   UNL A   1      43.736  35.212  33.001  1.00  0.00     0.054 A 
BRANCH  66  67
ATOM     67  S   UNL A   1      43.846  36.889  33.685  1.00  0.00     0.124 S 
ATOM     68  O   UNL A   1      44.015  37.695  32.478  1.00  0.00    -0.237 OA
ATOM     69  O   UNL A   1      42.564  37.042  34.367  1.00  0.00    -0.237 OA
ATOM     70  O   UNL A   1      45.012  36.831  34.563  1.00  0.00    -0.744 OA
ENDBRANCH  66  67
ENDBRANCH  47  61
BRANCH  48  71
ATOM     71  C   UNL A   1      42.616  23.507  27.953  1.00  0.00    -0.014 A 
ATOM     72  C   UNL A   1      42.002  22.446  28.639  1.00  0.00     0.010 A 
ATOM     73  C   UNL A   1      43.111  23.286  26.654  1.00  0.00     0.010 A 
ATOM     74  C   UNL A   1      41.896  21.186  28.044  1.00  0.00     0.020 A 
ATOM     75  C   UNL A   1      42.983  22.035  26.046  1.00  0.00     0.020 A 
ATOM     76  C   UNL A   1      42.384  20.989  26.749  1.00  0.00     0.054 A 
BRANCH  76  77
ATOM     77  S   UNL A   1      42.183  19.360  25.974  1.00  0.00     0.124 S 
ATOM     78  O   UNL A   1      40.736  19.282  25.806  1.00  0.00    -0.237 OA
ATOM     79  O   UNL A   1      42.959  19.498  24.744  1.00  0.00    -0.237 OA
ATOM     80  O   UNL A   1      42.752  18.442  26.960  1.00  0.00    -0.744 OA
ENDBRANCH  76  77
ENDBRANCH  48  71
BRANCH  60  81
ATOM     81  C   UNL A   1      47.844  26.871  31.122  1.00  0.00    -0.014 A 
ATOM     82  C   UNL A   1      48.150  26.138  32.283  1.00  0.00     0.010 A 
ATOM     83  C   UNL A   1      48.877  27.192  30.222  1.00  0.00     0.010 A 
ATOM     84  C   UNL A   1      49.469  25.761  32.552  1.00  0.00     0.020 A 
ATOM     85  C   UNL A   1      50.192  26.793  30.475  1.00  0.00     0.020 A 
ATOM     86  C   UNL A   1      50.482  26.091  31.646  1.00  0.00     0.054 A 
BRANCH  86  87
ATOM     87  S   UNL A   1      52.177  25.553  31.997  1.00  0.00     0.124 S 
ATOM     88  O   UNL A   1      51.989  24.140  32.314  1.00  0.00    -0.237 OA
ATOM     89  O   UNL A   1      52.868  25.827  30.738  1.00  0.00    -0.237 OA
ATOM     90  O   UNL A   1      52.584  26.395  33.119  1.00  0.00    -0.744 OA
ENDBRANCH  86  87
ENDBRANCH  60  81
ENDBRANCH  34  35
ENDBRANCH  27  29
ENDBRANCH  26  27
ENDBRANCH  25  26
ENDBRANCH  24  25
ENDBRANCH  23  24
ENDBRANCH   1  23
TORSDOF 22
ENDMDL
MODEL 2
REMARK VINA RESULT:      -9.3      4.121      9.367
REMARK SMILES CCOC(=O)[C@H](C)NC(=O)N1CC[C@H](C(=O)OCCOCCOC(=O)c2ccc(-c3c4nc(c(-c5ccc(S(=O)(=O)[O-])cc5)c5ccc([nH]5)c(-c5ccc(S(=O)(=O)[O-])cc5)c5nc(c(-c6ccc(S(=O)(=O)[O-])cc6)c6ccc3[nH]6)C=C5)C=C4)cc2)[C@@H]1C
REMARK SMILES IDX 19 1 18 2 17 3 15 4 16 5 14 6 11 7 12 8 86 9 13 10 87 11
REMARK SMILES IDX 9 12 8 13 10 15 6 16 7 17 4 18 5 19 3 20 2 21 1 22 20 23
REMARK SMILES IDX 21 24 22 25 23 26 24 27 25 28 26 29 27 30 85 31 28 32 84 33
REMARK SMILES IDX 29 34 30 35 31 36 78 37 32 38 83 39 77 40 79 41 33 42 82 43
REMARK SMILES IDX 76 44 75 45 34 47 64 48 45 49 63 50 46 51 49 52 62 53 80 54
REMARK SMILES IDX 47 55 48 56 61 58 81 59 50 60 35 61 36 62 44 63 37 64 43 65
REMARK SMILES IDX 38 66 39 67 40 68 41 69 42 70 65 71 66 72 74 73 67 74 73 75
REMARK SMILES IDX 68 76 69 77 70 78 71 79 72 80 51 81 52 82 60 83 53 84 59 85
REMARK SMILES IDX 54 86 55 87 56 88 57 89 58 90
REMARK H PARENT 8 14 79 46 49 57
REMARK Flexibility Score: inf
ROOT
ATOM      1  C   UNL A   1      32.895  29.249  25.067  1.00  0.00     0.202 C 
ENDROOT
BRANCH   1   2
ATOM      2  C   UNL A   1      31.816  28.732  24.110  1.00  0.00     0.261 C 
BRANCH   2   3
ATOM      3  O   UNL A   1      32.357  27.721  23.248  1.00  0.00    -0.463 OA
BRANCH   3   4
ATOM      4  C   UNL A   1      32.371  26.455  23.752  1.00  0.00     0.311 C 
ATOM      5  O   UNL A   1      33.364  25.754  23.869  1.00  0.00    -0.252 OA
BRANCH   4   6
ATOM      6  C   UNL A   1      30.965  26.062  24.162  1.00  0.00     0.123 C 
ATOM      7  N   UNL A   1      30.672  24.153  25.568  1.00  0.00    -0.321 N 
ATOM      8  C   UNL A   1      30.940  23.688  24.221  1.00  0.00     0.122 C 
ATOM      9  C   UNL A   1      30.790  25.619  25.634  1.00  0.00     0.098 C 
ATOM     10  C   UNL A   1      30.514  24.854  23.348  1.00  0.00     0.039 C 
ATOM     11  C   UNL A   1      31.866  26.091  26.613  1.00  0.00     0.032 C 
BRANCH   7  12
ATOM     12  C   UNL A   1      30.615  23.252  26.585  1.00  0.00     0.318 C 
ATOM     13  N   UNL A   1      31.565  22.301  26.702  1.00  0.00    -0.325 N 
ATOM     14  H   UNL A   1      31.243  21.403  26.945  1.00  0.00     0.166 HD
ATOM     15  O   UNL A   1      29.719  23.262  27.429  1.00  0.00    -0.249 OA
BRANCH  13  16
ATOM     16  C   UNL A   1      33.014  22.428  26.519  1.00  0.00     0.190 C 
ATOM     17  C   UNL A   1      33.700  22.545  27.878  1.00  0.00     0.043 C 
BRANCH  16  18
ATOM     18  C   UNL A   1      33.612  21.262  25.715  1.00  0.00     0.328 C 
ATOM     19  O   UNL A   1      33.228  20.102  25.797  1.00  0.00    -0.250 OA
BRANCH  18  20
ATOM     20  O   UNL A   1      34.696  21.663  24.991  1.00  0.00    -0.464 OA
BRANCH  20  21
ATOM     21  C   UNL A   1      35.987  21.436  25.574  1.00  0.00     0.229 C 
ATOM     22  C   UNL A   1      36.719  20.297  24.886  1.00  0.00     0.049 C 
ENDBRANCH  20  21
ENDBRANCH  18  20
ENDBRANCH  16  18
ENDBRANCH  13  16
ENDBRANCH   7  12
ENDBRANCH   4   6
ENDBRANCH   3   4
ENDBRANCH   2   3
ENDBRANCH   1   2
BRANCH   1  23
ATOM     23  O   UNL A   1      32.447  30.001  26.196  1.00  0.00    -0.374 OA
BRANCH  23  24
ATOM     24  C   UNL A   1      33.385  30.846  26.859  1.00  0.00     0.202 C 
BRANCH  24  25
ATOM     25  C   UNL A   1      32.856  32.084  27.594  1.00  0.00     0.261 C 
BRANCH  25  26
ATOM     26  O   UNL A   1      33.667  33.252  27.383  1.00  0.00    -0.460 OA
BRANCH  26  27
ATOM     27  C   UNL A   1      33.636  34.151  28.396  1.00  0.00     0.338 C 
ATOM     28  O   UNL A   1      32.779  35.002  28.600  1.00  0.00    -0.246 OA
BRANCH  27  29
ATOM     29  C   UNL A   1      34.702  33.857  29.365  1.00  0.00     0.060 A 
ATOM     30  C   UNL A   1      36.012  34.210  29.018  1.00  0.00     0.016 A 
ATOM     31  C   UNL A   1      34.439  33.170  30.551  1.00  0.00     0.016 A 
ATOM     32  C   UNL A   1      37.073  33.850  29.845  1.00  0.00     0.010 A 
ATOM     33  C   UNL A   1      35.507  32.797  31.373  1.00  0.00     0.010 A 
ATOM     34  C   UNL A   1      36.829  33.111  31.009  1.00  0.00    -0.014 A 
BRANCH  34  35
ATOM     35  C   UNL A   1      37.972  32.565  31.778  1.00  0.00     0.031 A 
ATOM     36  C   UNL A   1      38.739  31.398  31.219  1.00  0.00     0.074 A 
ATOM     37  C   UNL A   1      38.337  33.124  32.945  1.00  0.00     0.049 A 
ATOM     38  N   UNL A   1      39.756  30.758  31.733  1.00  0.00    -0.248 NA
ATOM     39  C   UNL A   1      38.304  30.889  29.909  1.00  0.00     0.031 C 
ATOM     40  C   UNL A   1      37.697  34.286  33.562  1.00  0.00     0.029 A 
ATOM     41  N   UNL A   1      39.337  32.784  33.820  1.00  0.00    -0.354 N 
ATOM     42  C   UNL A   1      40.081  29.766  30.814  1.00  0.00     0.074 A 
ATOM     43  C   UNL A   1      39.136  29.873  29.724  1.00  0.00     0.031 C 
ATOM     44  C   UNL A   1      38.317  34.559  34.723  1.00  0.00     0.029 A 
ATOM     45  C   UNL A   1      39.373  33.573  34.946  1.00  0.00     0.049 A 
ATOM     46  H   UNL A   1      39.968  32.047  33.658  1.00  0.00     0.167 HD
ATOM     47  C   UNL A   1      41.077  28.851  30.872  1.00  0.00     0.031 A 
ATOM     48  C   UNL A   1      40.155  33.493  36.041  1.00  0.00     0.031 A 
ATOM     49  C   UNL A   1      42.003  28.737  31.968  1.00  0.00     0.049 A 
ATOM     50  C   UNL A   1      41.204  32.416  36.119  1.00  0.00     0.074 A 
ATOM     51  C   UNL A   1      43.058  27.852  32.115  1.00  0.00     0.029 A 
ATOM     52  N   UNL A   1      41.979  29.524  33.110  1.00  0.00    -0.354 N 
ATOM     53  N   UNL A   1      41.515  31.503  35.230  1.00  0.00    -0.248 NA
ATOM     54  C   UNL A   1      42.010  32.364  37.346  1.00  0.00     0.031 C 
ATOM     55  C   UNL A   1      43.635  28.067  33.371  1.00  0.00     0.029 A 
ATOM     56  C   UNL A   1      42.979  29.125  33.981  1.00  0.00     0.049 A 
ATOM     57  H   UNL A   1      41.345  30.257  33.277  1.00  0.00     0.167 HD
ATOM     58  C   UNL A   1      42.567  30.779  35.783  1.00  0.00     0.074 A 
ATOM     59  C   UNL A   1      42.849  31.373  37.074  1.00  0.00     0.031 C 
ATOM     60  C   UNL A   1      43.239  29.721  35.267  1.00  0.00     0.031 A 
BRANCH  47  61
ATOM     61  C   UNL A   1      41.192  27.875  29.732  1.00  0.00    -0.014 A 
ATOM     62  C   UNL A   1      40.249  26.847  29.551  1.00  0.00     0.010 A 
ATOM     63  C   UNL A   1      42.243  28.009  28.806  1.00  0.00     0.010 A 
ATOM     64  C   UNL A   1      40.376  25.949  28.489  1.00  0.00     0.020 A 
ATOM     65  C   UNL A   1      42.360  27.128  27.727  1.00  0.00     0.020 A 
ATOM     66  C   UNL A   1      41.433  26.092  27.586  1.00  0.00     0.054 A 
BRANCH  66  67
ATOM     67  S   UNL A   1      41.565  24.923  26.205  1.00  0.00     0.124 S 
ATOM     68  O   UNL A   1      40.455  24.013  26.476  1.00  0.00    -0.237 OA
ATOM     69  O   UNL A   1      41.399  25.785  25.037  1.00  0.00    -0.237 OA
ATOM     70  O   UNL A   1      42.897  24.344  26.365  1.00  0.00    -0.744 OA
ENDBRANCH  66  67
ENDBRANCH  47  61
BRANCH  48  71
ATOM     71  C   UNL A   1      39.955  34.449  37.164  1.00  0.00    -0.014 A 
ATOM     72  C   UNL A   1      40.571  35.712  37.153  1.00  0.00     0.010 A 
ATOM     73  C   UNL A   1      39.136  34.097  38.253  1.00  0.00     0.010 A 
ATOM     74  C   UNL A   1      40.382  36.600  38.215  1.00  0.00     0.020 A 
ATOM     75  C   UNL A   1      38.923  34.992  39.304  1.00  0.00     0.020 A 
ATOM     76  C   UNL A   1      39.556  36.236  39.283  1.00  0.00     0.054 A 
BRANCH  76  77
ATOM     77  S   UNL A   1      39.279  37.428  40.623  1.00  0.00     0.124 S 
ATOM     78  O   UNL A   1      40.604  38.019  40.782  1.00  0.00    -0.237 OA
ATOM     79  O   UNL A   1      38.256  38.305  40.058  1.00  0.00    -0.237 OA
ATOM     80  O   UNL A   1      38.827  36.591  41.734  1.00  0.00    -0.744 OA
ENDBRANCH  76  77
ENDBRANCH  48  71
BRANCH  60  81
ATOM     81  C   UNL A   1      44.361  29.145  36.091  1.00  0.00    -0.014 A 
ATOM     82  C   UNL A   1      44.140  28.075  36.975  1.00  0.00     0.010 A 
ATOM     83  C   UNL A   1      45.667  29.648  35.936  1.00  0.00     0.010 A 
ATOM     84  C   UNL A   1      45.199  27.537  37.712  1.00  0.00     0.020 A 
ATOM     85  C   UNL A   1      46.732  29.095  36.651  1.00  0.00     0.020 A 
ATOM     86  C   UNL A   1      46.488  28.052  37.546  1.00  0.00     0.054 A 
BRANCH  86  87
ATOM     87  S   UNL A   1      47.853  27.309  38.482  1.00  0.00     0.124 S 
ATOM     88  O   UNL A   1      47.719  25.894  38.143  1.00  0.00    -0.237 OA
ATOM     89  O   UNL A   1      49.026  27.979  37.926  1.00  0.00    -0.237 OA
ATOM     90  O   UNL A   1      47.548  27.649  39.869  1.00  0.00    -0.744 OA
ENDBRANCH  86  87
ENDBRANCH  60  81
ENDBRANCH  34  35
ENDBRANCH  27  29
ENDBRANCH  26  27
ENDBRANCH  25  26
ENDBRANCH  24  25
ENDBRANCH  23  24
ENDBRANCH   1  23
TORSDOF 22
ENDMDL
MODEL 3
REMARK VINA RESULT:      -9.3      3.527      9.200
REMARK SMILES CCOC(=O)[C@H](C)NC(=O)N1CC[C@H](C(=O)OCCOCCOC(=O)c2ccc(-c3c4nc(c(-c5ccc(S(=O)(=O)[O-])cc5)c5ccc([nH]5)c(-c5ccc(S(=O)(=O)[O-])cc5)c5nc(c(-c6ccc(S(=O)(=O)[O-])cc6)c6ccc3[nH]6)C=C5)C=C4)cc2)[C@@H]1C
REMARK SMILES IDX 19 1 18 2 17 3 15 4 16 5 14 6 11 7 12 8 86 9 13 10 87 11
REMARK SMILES IDX 9 12 8 13 10 15 6 16 7 17 4 18 5 19 3 20 2 21 1 22 20 23
REMARK SMILES IDX 21 24 22 25 23 26 24 27 25 28 26 29 27 30 85 31 28 32 84 33
REMARK SMILES IDX 29 34 30 35 31 36 78 37 32 38 83 39 77 40 79 41 33 42 82 43
REMARK SMILES IDX 76 44 75 45 34 47 64 48 45 49 63 50 46 51 49 52 62 53 80 54
REMARK SMILES IDX 47 55 48 56 61 58 81 59 50 60 35 61 36 62 44 63 37 64 43 65
REMARK SMILES IDX 38 66 39 67 40 68 41 69 42 70 65 71 66 72 74 73 67 74 73 75
REMARK SMILES IDX 68 76 69 77 70 78 71 79 72 80 51 81 52 82 60 83 53 84 59 85
REMARK SMILES IDX 54 86 55 87 56 88 57 89 58 90
REMARK H PARENT 8 14 79 46 49 57
REMARK Flexibility Score: inf
ROOT
ATOM      1  C   UNL A   1      33.220  29.629  26.383  1.00  0.00     0.202 C 
ENDROOT
BRANCH   1   2
ATOM      2  C   UNL A   1      31.977  29.899  25.529  1.00  0.00     0.261 C 
BRANCH   2   3
ATOM      3  O   UNL A   1      31.349  28.663  25.157  1.00  0.00    -0.463 OA
BRANCH   3   4
ATOM      4  C   UNL A   1      31.534  27.620  26.013  1.00  0.00     0.311 C 
ATOM      5  O   UNL A   1      31.329  27.650  27.216  1.00  0.00    -0.252 OA
BRANCH   4   6
ATOM      6  C   UNL A   1      32.016  26.411  25.235  1.00  0.00     0.123 C 
ATOM      7  N   UNL A   1      31.551  24.232  26.095  1.00  0.00    -0.321 N 
ATOM      8  C   UNL A   1      32.648  24.796  26.858  1.00  0.00     0.122 C 
ATOM      9  C   UNL A   1      31.025  25.226  25.145  1.00  0.00     0.098 C 
ATOM     10  C   UNL A   1      33.248  25.823  25.915  1.00  0.00     0.039 C 
ATOM     11  C   UNL A   1      29.552  25.561  25.380  1.00  0.00     0.032 C 
BRANCH   7  12
ATOM     12  C   UNL A   1      31.001  23.053  26.492  1.00  0.00     0.318 C 
ATOM     13  N   UNL A   1      31.223  21.929  25.780  1.00  0.00    -0.325 N 
ATOM     14  H   UNL A   1      30.444  21.340  25.657  1.00  0.00     0.166 HD
ATOM     15  O   UNL A   1      30.294  22.957  27.495  1.00  0.00    -0.249 OA
BRANCH  13  16
ATOM     16  C   UNL A   1      32.471  21.465  25.167  1.00  0.00     0.190 C 
ATOM     17  C   UNL A   1      32.550  19.943  25.240  1.00  0.00     0.043 C 
BRANCH  16  18
ATOM     18  C   UNL A   1      32.629  21.942  23.714  1.00  0.00     0.328 C 
ATOM     19  O   UNL A   1      32.139  21.371  22.747  1.00  0.00    -0.250 OA
BRANCH  18  20
ATOM     20  O   UNL A   1      33.477  23.007  23.630  1.00  0.00    -0.464 OA
BRANCH  20  21
ATOM     21  C   UNL A   1      34.727  22.898  24.325  1.00  0.00     0.229 C 
ATOM     22  C   UNL A   1      35.906  22.956  23.368  1.00  0.00     0.049 C 
ENDBRANCH  20  21
ENDBRANCH  18  20
ENDBRANCH  16  18
ENDBRANCH  13  16
ENDBRANCH   7  12
ENDBRANCH   4   6
ENDBRANCH   3   4
ENDBRANCH   2   3
ENDBRANCH   1   2
BRANCH   1  23
ATOM     23  O   UNL A   1      33.465  30.529  27.465  1.00  0.00    -0.374 OA
BRANCH  23  24
ATOM     24  C   UNL A   1      34.764  31.108  27.579  1.00  0.00     0.202 C 
BRANCH  24  25
ATOM     25  C   UNL A   1      35.630  30.717  28.783  1.00  0.00     0.261 C 
BRANCH  25  26
ATOM     26  O   UNL A   1      36.384  29.513  28.565  1.00  0.00    -0.460 OA
BRANCH  26  27
ATOM     27  C   UNL A   1      37.195  29.162  29.593  1.00  0.00     0.338 C 
ATOM     28  O   UNL A   1      36.866  28.951  30.754  1.00  0.00    -0.246 OA
BRANCH  27  29
ATOM     29  C   UNL A   1      38.548  28.878  29.093  1.00  0.00     0.060 A 
ATOM     30  C   UNL A   1      39.505  28.438  30.017  1.00  0.00     0.016 A 
ATOM     31  C   UNL A   1      38.900  29.122  27.764  1.00  0.00     0.016 A 
ATOM     32  C   UNL A   1      40.829  28.268  29.620  1.00  0.00     0.010 A 
ATOM     33  C   UNL A   1      40.233  28.963  27.372  1.00  0.00     0.010 A 
ATOM     34  C   UNL A   1      41.207  28.563  28.305  1.00  0.00    -0.014 A 
BRANCH  34  35
ATOM     35  C   UNL A   1      42.643  28.568  27.943  1.00  0.00     0.031 A 
ATOM     36  C   UNL A   1      43.253  27.326  27.352  1.00  0.00     0.074 A 
ATOM     37  C   UNL A   1      43.385  29.676  28.113  1.00  0.00     0.049 A 
ATOM     38  N   UNL A   1      44.488  27.109  26.982  1.00  0.00    -0.248 NA
ATOM     39  C   UNL A   1      42.351  26.181  27.149  1.00  0.00     0.031 C 
ATOM     40  C   UNL A   1      42.892  30.950  28.635  1.00  0.00     0.029 A 
ATOM     41  N   UNL A   1      44.715  29.903  27.866  1.00  0.00    -0.354 N 
ATOM     42  C   UNL A   1      44.515  25.802  26.508  1.00  0.00     0.074 A 
ATOM     43  C   UNL A   1      43.180  25.268  26.662  1.00  0.00     0.031 C 
ATOM     44  C   UNL A   1      43.910  31.827  28.675  1.00  0.00     0.029 A 
ATOM     45  C   UNL A   1      45.130  31.166  28.216  1.00  0.00     0.049 A 
ATOM     46  H   UNL A   1      45.314  29.227  27.477  1.00  0.00     0.167 HD
ATOM     47  C   UNL A   1      45.559  25.112  25.990  1.00  0.00     0.031 A 
ATOM     48  C   UNL A   1      46.359  31.718  28.189  1.00  0.00     0.031 A 
ATOM     49  C   UNL A   1      46.890  25.642  25.857  1.00  0.00     0.049 A 
ATOM     50  C   UNL A   1      47.521  30.904  27.683  1.00  0.00     0.074 A 
ATOM     51  C   UNL A   1      48.013  25.028  25.330  1.00  0.00     0.029 A 
ATOM     52  N   UNL A   1      47.281  26.909  26.264  1.00  0.00    -0.354 N 
ATOM     53  N   UNL A   1      47.525  29.678  27.214  1.00  0.00    -0.248 NA
ATOM     54  C   UNL A   1      48.840  31.549  27.698  1.00  0.00     0.031 C 
ATOM     55  C   UNL A   1      49.095  25.903  25.472  1.00  0.00     0.029 A 
ATOM     56  C   UNL A   1      48.635  27.085  26.031  1.00  0.00     0.049 A 
ATOM     57  H   UNL A   1      46.685  27.584  26.660  1.00  0.00     0.167 HD
ATOM     58  C   UNL A   1      48.844  29.413  26.860  1.00  0.00     0.074 A 
ATOM     59  C   UNL A   1      49.603  30.611  27.153  1.00  0.00     0.031 C 
ATOM     60  C   UNL A   1      49.377  28.281  26.338  1.00  0.00     0.031 A 
BRANCH  47  61
ATOM     61  C   UNL A   1      45.308  23.690  25.563  1.00  0.00    -0.014 A 
ATOM     62  C   UNL A   1      45.528  22.614  26.441  1.00  0.00     0.010 A 
ATOM     63  C   UNL A   1      44.811  23.430  24.272  1.00  0.00     0.010 A 
ATOM     64  C   UNL A   1      45.293  21.301  26.024  1.00  0.00     0.020 A 
ATOM     65  C   UNL A   1      44.551  22.120  23.859  1.00  0.00     0.020 A 
ATOM     66  C   UNL A   1      44.810  21.062  24.734  1.00  0.00     0.054 A 
BRANCH  66  67
ATOM     67  S   UNL A   1      44.496  19.349  24.223  1.00  0.00     0.124 S 
ATOM     68  O   UNL A   1      43.184  19.096  24.813  1.00  0.00    -0.237 OA
ATOM     69  O   UNL A   1      44.521  19.440  22.765  1.00  0.00    -0.237 OA
ATOM     70  O   UNL A   1      45.602  18.602  24.817  1.00  0.00    -0.744 OA
ENDBRANCH  66  67
ENDBRANCH  47  61
BRANCH  48  71
ATOM     71  C   UNL A   1      46.558  33.108  28.680  1.00  0.00    -0.014 A 
ATOM     72  C   UNL A   1      47.073  33.352  29.965  1.00  0.00     0.010 A 
ATOM     73  C   UNL A   1      46.238  34.201  27.854  1.00  0.00     0.010 A 
ATOM     74  C   UNL A   1      47.251  34.661  30.419  1.00  0.00     0.020 A 
ATOM     75  C   UNL A   1      46.440  35.512  28.294  1.00  0.00     0.020 A 
ATOM     76  C   UNL A   1      46.936  35.734  29.579  1.00  0.00     0.054 A 
BRANCH  76  77
ATOM     77  S   UNL A   1      47.230  37.425  30.169  1.00  0.00     0.124 S 
ATOM     78  O   UNL A   1      46.687  37.372  31.522  1.00  0.00    -0.237 OA
ATOM     79  O   UNL A   1      48.683  37.544  30.072  1.00  0.00    -0.237 OA
ATOM     80  O   UNL A   1      46.481  38.249  29.222  1.00  0.00    -0.744 OA
ENDBRANCH  76  77
ENDBRANCH  48  71
BRANCH  60  81
ATOM     81  C   UNL A   1      50.852  28.288  26.030  1.00  0.00    -0.014 A 
ATOM     82  C   UNL A   1      51.797  27.889  26.991  1.00  0.00     0.010 A 
ATOM     83  C   UNL A   1      51.292  28.647  24.743  1.00  0.00     0.010 A 
ATOM     84  C   UNL A   1      53.160  27.878  26.679  1.00  0.00     0.020 A 
ATOM     85  C   UNL A   1      52.651  28.611  24.419  1.00  0.00     0.020 A 
ATOM     86  C   UNL A   1      53.578  28.240  25.394  1.00  0.00     0.054 A 
BRANCH  86  87
ATOM     87  S   UNL A   1      55.347  28.175  25.001  1.00  0.00     0.124 S 
ATOM     88  O   UNL A   1      55.351  27.444  23.737  1.00  0.00    -0.237 OA
ATOM     89  O   UNL A   1      55.707  29.589  24.909  1.00  0.00    -0.237 OA
ATOM     90  O   UNL A   1      55.930  27.464  26.136  1.00  0.00    -0.744 OA
ENDBRANCH  86  87
ENDBRANCH  60  81
ENDBRANCH  34  35
ENDBRANCH  27  29
ENDBRANCH  26  27
ENDBRANCH  25  26
ENDBRANCH  24  25
ENDBRANCH  23  24
ENDBRANCH   1  23
TORSDOF 22
ENDMDL
