MODEL 1
REMARK VINA RESULT:      -9.3      0.000      0.000
REMARK SMILES CC(C)[NH2+][C@](C)(C[N@@H+]1CCC(C)(C)C1)C(=O)OCCOCCOC(=O)c1ccc(-c2c3nc(c(-c4ccc(S(=O)(=O)[O-])cc4)c4ccc([nH]4)c(-c4ccc(S(=O)(=O)[O-])cc4)c4nc(c(-c5ccc(S(=O)(=O)[O-])cc5)c5ccc2[nH]5)C=C4)C=C3)cc1
REMARK SMILES IDX 21 1 20 2 19 3 18 4 17 5 15 6 16 7 5 8 6 9 4 10 2 13 1 14
REMARK SMILES IDX 3 15 7 16 8 17 9 18 14 19 10 21 11 22 12 23 13 24 22 25
REMARK SMILES IDX 23 26 24 27 25 28 26 29 27 30 85 31 28 32 84 33 29 34 30 35
REMARK SMILES IDX 31 36 78 37 32 38 83 39 77 40 79 41 33 42 82 43 76 44 75 45
REMARK SMILES IDX 34 47 64 48 45 49 63 50 46 51 49 52 62 53 80 54 47 55 48 56
REMARK SMILES IDX 61 58 81 59 50 60 35 61 36 62 44 63 37 64 43 65 38 66 39 67
REMARK SMILES IDX 40 68 41 69 42 70 65 71 66 72 74 73 67 74 73 75 68 76 69 77
REMARK SMILES IDX 70 78 71 79 72 80 51 81 52 82 60 83 53 84 59 85 54 86 55 87
REMARK SMILES IDX 56 88 57 89 58 90
REMARK H PARENT 4 11 4 12 8 20 79 46 49 57
REMARK Flexibility Score: inf
ROOT
ATOM      1  C   UNL A   1      38.745  20.626  25.442  1.00  0.00     0.202 C 
ENDROOT
BRANCH   1   2
ATOM      2  O   UNL A   1      38.828  22.006  25.789  1.00  0.00    -0.374 OA
BRANCH   2   3
ATOM      3  C   UNL A   1      37.653  22.796  25.840  1.00  0.00     0.202 C 
BRANCH   3   4
ATOM      4  C   UNL A   1      37.063  23.153  24.468  1.00  0.00     0.261 C 
BRANCH   4   5
ATOM      5  O   UNL A   1      36.210  22.155  23.873  1.00  0.00    -0.458 OA
BRANCH   5   6
ATOM      6  C   UNL A   1      34.945  22.585  23.592  1.00  0.00     0.373 C 
ATOM      7  O   UNL A   1      34.699  23.440  22.740  1.00  0.00    -0.244 OA
BRANCH   6   8
ATOM      8  C   UNL A   1      33.856  22.105  24.625  1.00  0.00     0.240 C 
ATOM      9  C   UNL A   1      32.594  21.897  23.764  1.00  0.00     0.099 C 
BRANCH   8  10
ATOM     10  N   UNL A   1      33.680  23.316  25.486  1.00  0.00    -0.326 N 
ATOM     11  H   UNL A   1      33.552  22.966  26.435  1.00  0.00     0.347 HD
ATOM     12  H   UNL A   1      34.509  23.856  25.239  1.00  0.00     0.347 HD
BRANCH  10  13
ATOM     13  C   UNL A   1      32.629  24.309  25.285  1.00  0.00     0.177 C 
ATOM     14  C   UNL A   1      31.736  24.245  26.540  1.00  0.00     0.075 C 
ATOM     15  C   UNL A   1      33.079  25.757  25.105  1.00  0.00     0.075 C 
ENDBRANCH  10  13
ENDBRANCH   8  10
BRANCH   8  16
ATOM     16  C   UNL A   1      34.262  20.779  25.404  1.00  0.00     0.343 C 
BRANCH  16  17
ATOM     17  N   UNL A   1      33.801  19.471  24.845  1.00  0.00    -0.329 N 
ATOM     18  C   UNL A   1      32.904  18.715  25.731  1.00  0.00     0.263 C 
ATOM     19  C   UNL A   1      34.893  18.486  24.626  1.00  0.00     0.269 C 
ATOM     20  H   UNL A   1      33.353  19.786  23.985  1.00  0.00     0.348 HD
ATOM     21  C   UNL A   1      32.751  17.410  24.965  1.00  0.00     0.073 C 
ATOM     22  C   UNL A   1      34.152  17.133  24.399  1.00  0.00     0.019 C 
ATOM     23  C   UNL A   1      34.844  15.989  25.151  1.00  0.00     0.017 C 
ATOM     24  C   UNL A   1      34.027  16.698  22.930  1.00  0.00     0.017 C 
ENDBRANCH  16  17
ENDBRANCH   8  16
ENDBRANCH   6   8
ENDBRANCH   5   6
ENDBRANCH   4   5
ENDBRANCH   3   4
ENDBRANCH   2   3
ENDBRANCH   1   2
BRANCH   1  25
ATOM     25  C   UNL A   1      39.663  19.591  26.079  1.00  0.00     0.261 C 
BRANCH  25  26
ATOM     26  O   UNL A   1      41.007  19.670  25.618  1.00  0.00    -0.460 OA
BRANCH  26  27
ATOM     27  C   UNL A   1      41.937  19.726  26.588  1.00  0.00     0.338 C 
ATOM     28  O   UNL A   1      42.264  18.850  27.375  1.00  0.00    -0.246 OA
BRANCH  27  29
ATOM     29  C   UNL A   1      42.351  21.122  26.712  1.00  0.00     0.060 A 
ATOM     30  C   UNL A   1      42.401  21.949  25.588  1.00  0.00     0.016 A 
ATOM     31  C   UNL A   1      42.666  21.600  27.989  1.00  0.00     0.016 A 
ATOM     32  C   UNL A   1      42.831  23.260  25.739  1.00  0.00     0.010 A 
ATOM     33  C   UNL A   1      43.058  22.923  28.142  1.00  0.00     0.010 A 
ATOM     34  C   UNL A   1      43.178  23.742  27.011  1.00  0.00    -0.014 A 
BRANCH  34  35
ATOM     35  C   UNL A   1      43.760  25.090  27.128  1.00  0.00     0.031 A 
ATOM     36  C   UNL A   1      42.891  26.215  27.606  1.00  0.00     0.074 A 
ATOM     37  C   UNL A   1      45.065  25.265  26.863  1.00  0.00     0.049 A 
ATOM     38  N   UNL A   1      43.220  27.450  27.874  1.00  0.00    -0.248 NA
ATOM     39  C   UNL A   1      41.465  25.911  27.814  1.00  0.00     0.031 C 
ATOM     40  C   UNL A   1      45.980  24.217  26.405  1.00  0.00     0.029 A 
ATOM     41  N   UNL A   1      45.853  26.379  26.964  1.00  0.00    -0.354 N 
ATOM     42  C   UNL A   1      42.047  28.069  28.289  1.00  0.00     0.074 A 
ATOM     43  C   UNL A   1      40.990  27.087  28.197  1.00  0.00     0.031 C 
ATOM     44  C   UNL A   1      47.215  24.734  26.292  1.00  0.00     0.029 A 
ATOM     45  C   UNL A   1      47.169  26.150  26.643  1.00  0.00     0.049 A 
ATOM     46  H   UNL A   1      45.511  27.259  27.241  1.00  0.00     0.167 HD
ATOM     47  C   UNL A   1      41.875  29.340  28.718  1.00  0.00     0.031 A 
ATOM     48  C   UNL A   1      48.217  26.995  26.635  1.00  0.00     0.031 A 
ATOM     49  C   UNL A   1      42.940  30.305  28.777  1.00  0.00     0.049 A 
ATOM     50  C   UNL A   1      47.989  28.417  27.072  1.00  0.00     0.074 A 
ATOM     51  C   UNL A   1      42.889  31.623  29.190  1.00  0.00     0.029 A 
ATOM     52  N   UNL A   1      44.251  30.051  28.398  1.00  0.00    -0.354 N 
ATOM     53  N   UNL A   1      46.881  28.980  27.493  1.00  0.00    -0.248 NA
ATOM     54  C   UNL A   1      49.151  29.312  27.042  1.00  0.00     0.031 C 
ATOM     55  C   UNL A   1      44.161  32.180  29.015  1.00  0.00     0.029 A 
ATOM     56  C   UNL A   1      45.017  31.193  28.546  1.00  0.00     0.049 A 
ATOM     57  H   UNL A   1      44.587  29.185  28.072  1.00  0.00     0.167 HD
ATOM     58  C   UNL A   1      47.215  30.293  27.797  1.00  0.00     0.074 A 
ATOM     59  C   UNL A   1      48.634  30.433  27.529  1.00  0.00     0.031 C 
ATOM     60  C   UNL A   1      46.426  31.295  28.258  1.00  0.00     0.031 A 
BRANCH  47  61
ATOM     61  C   UNL A   1      40.485  29.753  29.122  1.00  0.00    -0.014 A 
ATOM     62  C   UNL A   1      40.160  30.000  30.469  1.00  0.00     0.010 A 
ATOM     63  C   UNL A   1      39.489  29.903  28.141  1.00  0.00     0.010 A 
ATOM     64  C   UNL A   1      38.856  30.349  30.831  1.00  0.00     0.020 A 
ATOM     65  C   UNL A   1      38.189  30.277  28.496  1.00  0.00     0.020 A 
ATOM     66  C   UNL A   1      37.876  30.479  29.843  1.00  0.00     0.054 A 
BRANCH  66  67
ATOM     67  S   UNL A   1      36.193  30.940  30.337  1.00  0.00     0.124 S 
ATOM     68  O   UNL A   1      35.908  29.962  31.384  1.00  0.00    -0.237 OA
ATOM     69  O   UNL A   1      36.358  32.318  30.793  1.00  0.00    -0.237 OA
ATOM     70  O   UNL A   1      35.415  30.783  29.110  1.00  0.00    -0.744 OA
ENDBRANCH  66  67
ENDBRANCH  47  61
BRANCH  48  71
ATOM     71  C   UNL A   1      49.557  26.511  26.210  1.00  0.00    -0.014 A 
ATOM     72  C   UNL A   1      50.042  26.771  24.918  1.00  0.00     0.010 A 
ATOM     73  C   UNL A   1      50.374  25.811  27.118  1.00  0.00     0.010 A 
ATOM     74  C   UNL A   1      51.313  26.330  24.536  1.00  0.00     0.020 A 
ATOM     75  C   UNL A   1      51.655  25.391  26.749  1.00  0.00     0.020 A 
ATOM     76  C   UNL A   1      52.113  25.645  25.455  1.00  0.00     0.054 A 
BRANCH  76  77
ATOM     77  S   UNL A   1      53.781  25.131  24.958  1.00  0.00     0.124 S 
ATOM     78  O   UNL A   1      53.675  23.676  24.995  1.00  0.00    -0.237 OA
ATOM     79  O   UNL A   1      53.910  25.723  23.628  1.00  0.00    -0.237 OA
ATOM     80  O   UNL A   1      54.639  25.724  25.981  1.00  0.00    -0.744 OA
ENDBRANCH  76  77
ENDBRANCH  48  71
BRANCH  60  81
ATOM     81  C   UNL A   1      47.088  32.621  28.513  1.00  0.00    -0.014 A 
ATOM     82  C   UNL A   1      47.690  32.903  29.752  1.00  0.00     0.010 A 
ATOM     83  C   UNL A   1      47.154  33.572  27.479  1.00  0.00     0.010 A 
ATOM     84  C   UNL A   1      48.320  34.131  29.962  1.00  0.00     0.020 A 
ATOM     85  C   UNL A   1      47.806  34.790  27.679  1.00  0.00     0.020 A 
ATOM     86  C   UNL A   1      48.373  35.068  28.924  1.00  0.00     0.054 A 
BRANCH  86  87
ATOM     87  S   UNL A   1      49.234  36.637  29.209  1.00  0.00     0.124 S 
ATOM     88  O   UNL A   1      48.819  36.967  30.569  1.00  0.00    -0.237 OA
ATOM     89  O   UNL A   1      50.639  36.267  29.052  1.00  0.00    -0.237 OA
ATOM     90  O   UNL A   1      48.707  37.515  28.166  1.00  0.00    -0.744 OA
ENDBRANCH  86  87
ENDBRANCH  60  81
ENDBRANCH  34  35
ENDBRANCH  27  29
ENDBRANCH  26  27
ENDBRANCH  25  26
ENDBRANCH   1  25
TORSDOF 21
ENDMDL
MODEL 2
REMARK VINA RESULT:      -9.2      6.585      9.172
REMARK SMILES CC(C)[NH2+][C@](C)(C[N@@H+]1CCC(C)(C)C1)C(=O)OCCOCCOC(=O)c1ccc(-c2c3nc(c(-c4ccc(S(=O)(=O)[O-])cc4)c4ccc([nH]4)c(-c4ccc(S(=O)(=O)[O-])cc4)c4nc(c(-c5ccc(S(=O)(=O)[O-])cc5)c5ccc2[nH]5)C=C4)C=C3)cc1
REMARK SMILES IDX 21 1 20 2 19 3 18 4 17 5 15 6 16 7 5 8 6 9 4 10 2 13 1 14
REMARK SMILES IDX 3 15 7 16 8 17 9 18 14 19 10 21 11 22 12 23 13 24 22 25
REMARK SMILES IDX 23 26 24 27 25 28 26 29 27 30 85 31 28 32 84 33 29 34 30 35
REMARK SMILES IDX 31 36 78 37 32 38 83 39 77 40 79 41 33 42 82 43 76 44 75 45
REMARK SMILES IDX 34 47 64 48 45 49 63 50 46 51 49 52 62 53 80 54 47 55 48 56
REMARK SMILES IDX 61 58 81 59 50 60 35 61 36 62 44 63 37 64 43 65 38 66 39 67
REMARK SMILES IDX 40 68 41 69 42 70 65 71 66 72 74 73 67 74 73 75 68 76 69 77
REMARK SMILES IDX 70 78 71 79 72 80 51 81 52 82 60 83 53 84 59 85 54 86 55 87
REMARK SMILES IDX 56 88 57 89 58 90
REMARK H PARENT 4 11 4 12 8 20 79 46 49 57
REMARK Flexibility Score: inf
ROOT
ATOM      1  C   UNL A   1      37.854  22.629  25.872  1.00  0.00     0.202 C 
ENDROOT
BRANCH   1   2
ATOM      2  O   UNL A   1      36.554  22.270  25.410  1.00  0.00    -0.374 OA
BRANCH   2   3
ATOM      3  C   UNL A   1      36.221  20.906  25.221  1.00  0.00     0.202 C 
BRANCH   3   4
ATOM      4  C   UNL A   1      34.718  20.631  25.067  1.00  0.00     0.261 C 
BRANCH   4   5
ATOM      5  O   UNL A   1      33.851  21.374  25.948  1.00  0.00    -0.458 OA
BRANCH   5   6
ATOM      6  C   UNL A   1      32.531  21.349  25.596  1.00  0.00     0.373 C 
ATOM      7  O   UNL A   1      31.914  20.308  25.374  1.00  0.00    -0.244 OA
BRANCH   6   8
ATOM      8  C   UNL A   1      31.936  22.762  25.234  1.00  0.00     0.240 C 
ATOM      9  C   UNL A   1      30.631  22.836  26.054  1.00  0.00     0.099 C 
BRANCH   8  10
ATOM     10  N   UNL A   1      31.605  22.604  23.783  1.00  0.00    -0.326 N 
ATOM     11  H   UNL A   1      30.933  21.839  23.733  1.00  0.00     0.347 HD
ATOM     12  H   UNL A   1      31.329  23.555  23.540  1.00  0.00     0.347 HD
BRANCH  10  13
ATOM     13  C   UNL A   1      32.598  22.328  22.750  1.00  0.00     0.177 C 
ATOM     14  C   UNL A   1      32.036  21.158  21.919  1.00  0.00     0.075 C 
ATOM     15  C   UNL A   1      32.923  23.469  21.789  1.00  0.00     0.075 C 
ENDBRANCH  10  13
ENDBRANCH   8  10
BRANCH   8  16
ATOM     16  C   UNL A   1      32.913  23.970  25.574  1.00  0.00     0.343 C 
BRANCH  16  17
ATOM     17  N   UNL A   1      32.306  25.313  25.818  1.00  0.00    -0.329 N 
ATOM     18  C   UNL A   1      31.903  26.028  24.598  1.00  0.00     0.263 C 
ATOM     19  C   UNL A   1      33.234  26.295  26.438  1.00  0.00     0.269 C 
ATOM     20  H   UNL A   1      31.521  25.056  26.416  1.00  0.00     0.348 HD
ATOM     21  C   UNL A   1      31.485  27.378  25.161  1.00  0.00     0.073 C 
ATOM     22  C   UNL A   1      32.518  27.669  26.261  1.00  0.00     0.019 C 
ATOM     23  C   UNL A   1      33.507  28.758  25.826  1.00  0.00     0.017 C 
ATOM     24  C   UNL A   1      31.792  28.191  27.511  1.00  0.00     0.017 C 
ENDBRANCH  16  17
ENDBRANCH   8  16
ENDBRANCH   6   8
ENDBRANCH   5   6
ENDBRANCH   4   5
ENDBRANCH   3   4
ENDBRANCH   2   3
ENDBRANCH   1   2
BRANCH   1  25
ATOM     25  C   UNL A   1      38.309  24.081  25.907  1.00  0.00     0.261 C 
BRANCH  25  26
ATOM     26  O   UNL A   1      39.385  24.313  26.810  1.00  0.00    -0.460 OA
BRANCH  26  27
ATOM     27  C   UNL A   1      40.177  25.354  26.493  1.00  0.00     0.338 C 
ATOM     28  O   UNL A   1      40.864  25.504  25.494  1.00  0.00    -0.246 OA
BRANCH  27  29
ATOM     29  C   UNL A   1      40.270  26.205  27.677  1.00  0.00     0.060 A 
ATOM     30  C   UNL A   1      39.380  26.042  28.741  1.00  0.00     0.016 A 
ATOM     31  C   UNL A   1      41.290  27.163  27.715  1.00  0.00     0.016 A 
ATOM     32  C   UNL A   1      39.478  26.890  29.833  1.00  0.00     0.010 A 
ATOM     33  C   UNL A   1      41.410  27.984  28.828  1.00  0.00     0.010 A 
ATOM     34  C   UNL A   1      40.479  27.874  29.870  1.00  0.00    -0.014 A 
BRANCH  34  35
ATOM     35  C   UNL A   1      40.479  28.850  30.973  1.00  0.00     0.031 A 
ATOM     36  C   UNL A   1      39.483  29.971  30.950  1.00  0.00     0.074 A 
ATOM     37  C   UNL A   1      41.329  28.678  32.000  1.00  0.00     0.049 A 
ATOM     38  N   UNL A   1      39.244  30.877  31.860  1.00  0.00    -0.248 NA
ATOM     39  C   UNL A   1      38.640  30.085  29.747  1.00  0.00     0.031 C 
ATOM     40  C   UNL A   1      42.320  27.604  32.102  1.00  0.00     0.029 A 
ATOM     41  N   UNL A   1      41.477  29.385  33.161  1.00  0.00    -0.354 N 
ATOM     42  C   UNL A   1      38.221  31.664  31.345  1.00  0.00     0.074 A 
ATOM     43  C   UNL A   1      37.912  31.156  30.027  1.00  0.00     0.031 C 
ATOM     44  C   UNL A   1      42.957  27.709  33.279  1.00  0.00     0.029 A 
ATOM     45  C   UNL A   1      42.437  28.868  33.997  1.00  0.00     0.049 A 
ATOM     46  H   UNL A   1      40.949  30.186  33.377  1.00  0.00     0.167 HD
ATOM     47  C   UNL A   1      37.591  32.709  31.929  1.00  0.00     0.031 A 
ATOM     48  C   UNL A   1      42.845  29.289  35.209  1.00  0.00     0.031 A 
ATOM     49  C   UNL A   1      37.934  33.209  33.233  1.00  0.00     0.049 A 
ATOM     50  C   UNL A   1      42.160  30.483  35.817  1.00  0.00     0.074 A 
ATOM     51  C   UNL A   1      37.372  34.262  33.929  1.00  0.00     0.029 A 
ATOM     52  N   UNL A   1      38.944  32.691  34.033  1.00  0.00    -0.354 N 
ATOM     53  N   UNL A   1      41.171  31.199  35.333  1.00  0.00    -0.248 NA
ATOM     54  C   UNL A   1      42.638  30.920  37.134  1.00  0.00     0.031 C 
ATOM     55  C   UNL A   1      38.074  34.411  35.130  1.00  0.00     0.029 A 
ATOM     56  C   UNL A   1      39.038  33.415  35.206  1.00  0.00     0.049 A 
ATOM     57  H   UNL A   1      39.510  31.920  33.798  1.00  0.00     0.167 HD
ATOM     58  C   UNL A   1      40.894  32.160  36.296  1.00  0.00     0.074 A 
ATOM     59  C   UNL A   1      41.808  31.922  37.396  1.00  0.00     0.031 C 
ATOM     60  C   UNL A   1      39.969  33.152  36.276  1.00  0.00     0.031 A 
BRANCH  47  61
ATOM     61  C   UNL A   1      36.499  33.386  31.145  1.00  0.00    -0.014 A 
ATOM     62  C   UNL A   1      36.775  34.054  29.938  1.00  0.00     0.010 A 
ATOM     63  C   UNL A   1      35.175  33.349  31.617  1.00  0.00     0.010 A 
ATOM     64  C   UNL A   1      35.756  34.706  29.239  1.00  0.00     0.020 A 
ATOM     65  C   UNL A   1      34.148  33.979  30.909  1.00  0.00     0.020 A 
ATOM     66  C   UNL A   1      34.448  34.671  29.733  1.00  0.00     0.054 A 
BRANCH  66  67
ATOM     67  S   UNL A   1      33.141  35.520  28.805  1.00  0.00     0.124 S 
ATOM     68  O   UNL A   1      32.313  36.063  29.879  1.00  0.00    -0.237 OA
ATOM     69  O   UNL A   1      33.888  36.506  28.029  1.00  0.00    -0.237 OA
ATOM     70  O   UNL A   1      32.522  34.454  28.021  1.00  0.00    -0.744 OA
ENDBRANCH  66  67
ENDBRANCH  47  61
BRANCH  48  71
ATOM     71  C   UNL A   1      43.941  28.572  35.914  1.00  0.00    -0.014 A 
ATOM     72  C   UNL A   1      45.280  28.965  35.754  1.00  0.00     0.010 A 
ATOM     73  C   UNL A   1      43.641  27.505  36.781  1.00  0.00     0.010 A 
ATOM     74  C   UNL A   1      46.301  28.297  36.438  1.00  0.00     0.020 A 
ATOM     75  C   UNL A   1      44.655  26.851  37.487  1.00  0.00     0.020 A 
ATOM     76  C   UNL A   1      45.981  27.245  37.303  1.00  0.00     0.054 A 
BRANCH  76  77
ATOM     77  S   UNL A   1      47.315  26.430  38.225  1.00  0.00     0.124 S 
ATOM     78  O   UNL A   1      48.159  25.920  37.150  1.00  0.00    -0.237 OA
ATOM     79  O   UNL A   1      47.878  27.530  39.006  1.00  0.00    -0.237 OA
ATOM     80  O   UNL A   1      46.615  25.415  39.009  1.00  0.00    -0.744 OA
ENDBRANCH  76  77
ENDBRANCH  48  71
BRANCH  60  81
ATOM     81  C   UNL A   1      39.894  34.037  37.489  1.00  0.00    -0.014 A 
ATOM     82  C   UNL A   1      40.632  35.231  37.562  1.00  0.00     0.010 A 
ATOM     83  C   UNL A   1      39.029  33.693  38.544  1.00  0.00     0.010 A 
ATOM     84  C   UNL A   1      40.531  36.051  38.687  1.00  0.00     0.020 A 
ATOM     85  C   UNL A   1      38.907  34.524  39.659  1.00  0.00     0.020 A 
ATOM     86  C   UNL A   1      39.670  35.691  39.730  1.00  0.00     0.054 A 
BRANCH  86  87
ATOM     87  S   UNL A   1      39.524  36.794  41.161  1.00  0.00     0.124 S 
ATOM     88  O   UNL A   1      40.917  36.941  41.573  1.00  0.00    -0.237 OA
ATOM     89  O   UNL A   1      38.910  37.989  40.585  1.00  0.00    -0.237 OA
ATOM     90  O   UNL A   1      38.675  36.049  42.087  1.00  0.00    -0.744 OA
ENDBRANCH  86  87
ENDBRANCH  60  81
ENDBRANCH  34  35
ENDBRANCH  27  29
ENDBRANCH  26  27
ENDBRANCH  25  26
ENDBRANCH   1  25
TORSDOF 21
ENDMDL
MODEL 3
REMARK VINA RESULT:      -8.8      3.258      9.152
REMARK SMILES CC(C)[NH2+][C@](C)(C[N@@H+]1CCC(C)(C)C1)C(=O)OCCOCCOC(=O)c1ccc(-c2c3nc(c(-c4ccc(S(=O)(=O)[O-])cc4)c4ccc([nH]4)c(-c4ccc(S(=O)(=O)[O-])cc4)c4nc(c(-c5ccc(S(=O)(=O)[O-])cc5)c5ccc2[nH]5)C=C4)C=C3)cc1
REMARK SMILES IDX 21 1 20 2 19 3 18 4 17 5 15 6 16 7 5 8 6 9 4 10 2 13 1 14
REMARK SMILES IDX 3 15 7 16 8 17 9 18 14 19 10 21 11 22 12 23 13 24 22 25
REMARK SMILES IDX 23 26 24 27 25 28 26 29 27 30 85 31 28 32 84 33 29 34 30 35
REMARK SMILES IDX 31 36 78 37 32 38 83 39 77 40 79 41 33 42 82 43 76 44 75 45
REMARK SMILES IDX 34 47 64 48 45 49 63 50 46 51 49 52 62 53 80 54 47 55 48 56
REMARK SMILES IDX 61 58 81 59 50 60 35 61 36 62 44 63 37 64 43 65 38 66 39 67
REMARK SMILES IDX 40 68 41 69 42 70 65 71 66 72 74 73 67 74 73 75 68 76 69 77
REMARK SMILES IDX 70 78 71 79 72 80 51 81 52 82 60 83 53 84 59 85 54 86 55 87
REMARK SMILES IDX 56 88 57 89 58 90
REMARK H PARENT 4 11 4 12 8 20 79 46 49 57
REMARK Flexibility Score: inf
ROOT
ATOM      1  C   UNL A   1      34.015  31.210  27.553  1.00  0.00     0.202 C 
ENDROOT
BRANCH   1   2
ATOM      2  O   UNL A   1      33.564  30.027  26.899  1.00  0.00    -0.374 OA
BRANCH   2   3
ATOM      3  C   UNL A   1      32.664  29.152  27.556  1.00  0.00     0.202 C 
BRANCH   3   4
ATOM      4  C   UNL A   1      32.363  27.854  26.794  1.00  0.00     0.261 C 
BRANCH   4   5
ATOM      5  O   UNL A   1      31.364  27.952  25.759  1.00  0.00    -0.458 OA
BRANCH   5   6
ATOM      6  C   UNL A   1      30.814  26.758  25.387  1.00  0.00     0.373 C 
ATOM      7  O   UNL A   1      30.381  25.937  26.196  1.00  0.00    -0.244 OA
BRANCH   6   8
ATOM      8  C   UNL A   1      31.025  26.397  23.868  1.00  0.00     0.240 C 
ATOM      9  C   UNL A   1      31.032  24.855  23.851  1.00  0.00     0.099 C 
BRANCH   8  10
ATOM     10  N   UNL A   1      32.409  26.905  23.610  1.00  0.00    -0.326 N 
ATOM     11  H   UNL A   1      32.298  27.876  23.318  1.00  0.00     0.347 HD
ATOM     12  H   UNL A   1      32.869  26.677  24.491  1.00  0.00     0.347 HD
BRANCH  10  13
ATOM     13  C   UNL A   1      33.328  26.304  22.650  1.00  0.00     0.177 C 
ATOM     14  C   UNL A   1      33.810  24.986  23.288  1.00  0.00     0.075 C 
ATOM     15  C   UNL A   1      32.761  25.976  21.271  1.00  0.00     0.075 C 
ENDBRANCH  10  13
ENDBRANCH   8  10
BRANCH   8  16
ATOM     16  C   UNL A   1      29.901  26.991  22.913  1.00  0.00     0.343 C 
BRANCH  16  17
ATOM     17  N   UNL A   1      29.274  28.293  23.296  1.00  0.00    -0.329 N 
ATOM     18  C   UNL A   1      27.851  28.409  22.943  1.00  0.00     0.263 C 
ATOM     19  C   UNL A   1      29.846  29.472  22.594  1.00  0.00     0.269 C 
ATOM     20  H   UNL A   1      29.444  28.291  24.302  1.00  0.00     0.348 HD
ATOM     21  C   UNL A   1      27.565  29.857  23.310  1.00  0.00     0.073 C 
ATOM     22  C   UNL A   1      28.826  30.618  22.871  1.00  0.00     0.019 C 
ATOM     23  C   UNL A   1      28.567  31.447  21.607  1.00  0.00     0.017 C 
ATOM     24  C   UNL A   1      29.235  31.600  23.980  1.00  0.00     0.017 C 
ENDBRANCH  16  17
ENDBRANCH   8  16
ENDBRANCH   6   8
ENDBRANCH   5   6
ENDBRANCH   4   5
ENDBRANCH   3   4
ENDBRANCH   2   3
ENDBRANCH   1   2
BRANCH   1  25
ATOM     25  C   UNL A   1      35.307  31.227  28.358  1.00  0.00     0.261 C 
BRANCH  25  26
ATOM     26  O   UNL A   1      35.905  29.943  28.494  1.00  0.00    -0.460 OA
BRANCH  26  27
ATOM     27  C   UNL A   1      36.649  29.778  29.603  1.00  0.00     0.338 C 
ATOM     28  O   UNL A   1      36.323  29.962  30.767  1.00  0.00    -0.246 OA
BRANCH  27  29
ATOM     29  C   UNL A   1      38.027  29.556  29.173  1.00  0.00     0.060 A 
ATOM     30  C   UNL A   1      38.358  29.567  27.816  1.00  0.00     0.016 A 
ATOM     31  C   UNL A   1      38.998  29.362  30.162  1.00  0.00     0.016 A 
ATOM     32  C   UNL A   1      39.671  29.320  27.444  1.00  0.00     0.010 A 
ATOM     33  C   UNL A   1      40.318  29.154  29.788  1.00  0.00     0.010 A 
ATOM     34  C   UNL A   1      40.648  29.094  28.426  1.00  0.00    -0.014 A 
BRANCH  34  35
ATOM     35  C   UNL A   1      42.004  28.700  28.006  1.00  0.00     0.031 A 
ATOM     36  C   UNL A   1      43.085  29.739  27.981  1.00  0.00     0.074 A 
ATOM     37  C   UNL A   1      42.251  27.411  27.717  1.00  0.00     0.049 A 
ATOM     38  N   UNL A   1      44.360  29.591  27.740  1.00  0.00    -0.248 NA
ATOM     39  C   UNL A   1      42.680  31.126  28.268  1.00  0.00     0.031 C 
ATOM     40  C   UNL A   1      41.254  26.338  27.731  1.00  0.00     0.029 A 
ATOM     41  N   UNL A   1      43.418  26.783  27.379  1.00  0.00    -0.354 N 
ATOM     42  C   UNL A   1      44.912  30.861  27.854  1.00  0.00     0.074 A 
ATOM     43  C   UNL A   1      43.829  31.774  28.143  1.00  0.00     0.031 C 
ATOM     44  C   UNL A   1      41.860  25.176  27.442  1.00  0.00     0.029 A 
ATOM     45  C   UNL A   1      43.277  25.428  27.198  1.00  0.00     0.049 A 
ATOM     46  H   UNL A   1      44.275  27.254  27.275  1.00  0.00     0.167 HD
ATOM     47  C   UNL A   1      46.210  31.226  27.738  1.00  0.00     0.031 A 
ATOM     48  C   UNL A   1      44.195  24.499  26.873  1.00  0.00     0.031 A 
ATOM     49  C   UNL A   1      47.265  30.301  27.425  1.00  0.00     0.049 A 
ATOM     50  C   UNL A   1      45.624  24.938  26.703  1.00  0.00     0.074 A 
ATOM     51  C   UNL A   1      48.616  30.550  27.278  1.00  0.00     0.029 A 
ATOM     52  N   UNL A   1      47.079  28.943  27.202  1.00  0.00    -0.354 N 
ATOM     53  N   UNL A   1      46.138  26.138  26.845  1.00  0.00    -0.248 NA
ATOM     54  C   UNL A   1      46.596  23.902  26.338  1.00  0.00     0.031 C 
ATOM     55  C   UNL A   1      49.241  29.351  26.918  1.00  0.00     0.029 A 
ATOM     56  C   UNL A   1      48.286  28.343  26.896  1.00  0.00     0.049 A 
ATOM     57  H   UNL A   1      46.214  28.476  27.254  1.00  0.00     0.167 HD
ATOM     58  C   UNL A   1      47.499  25.998  26.607  1.00  0.00     0.074 A 
ATOM     59  C   UNL A   1      47.729  24.593  26.329  1.00  0.00     0.031 C 
ATOM     60  C   UNL A   1      48.474  26.941  26.615  1.00  0.00     0.031 A 
BRANCH  47  61
ATOM     61  C   UNL A   1      46.538  32.684  27.919  1.00  0.00    -0.014 A 
ATOM     62  C   UNL A   1      46.855  33.207  29.187  1.00  0.00     0.010 A 
ATOM     63  C   UNL A   1      46.538  33.543  26.806  1.00  0.00     0.010 A 
ATOM     64  C   UNL A   1      47.124  34.570  29.343  1.00  0.00     0.020 A 
ATOM     65  C   UNL A   1      46.831  34.902  26.955  1.00  0.00     0.020 A 
ATOM     66  C   UNL A   1      47.104  35.411  28.227  1.00  0.00     0.054 A 
BRANCH  66  67
ATOM     67  S   UNL A   1      47.464  37.174  28.455  1.00  0.00     0.124 S 
ATOM     68  O   UNL A   1      46.255  37.799  27.925  1.00  0.00    -0.237 OA
ATOM     69  O   UNL A   1      47.643  37.280  29.901  1.00  0.00    -0.237 OA
ATOM     70  O   UNL A   1      48.674  37.388  27.664  1.00  0.00    -0.744 OA
ENDBRANCH  66  67
ENDBRANCH  47  61
BRANCH  48  71
ATOM     71  C   UNL A   1      43.786  23.080  26.699  1.00  0.00    -0.014 A 
ATOM     72  C   UNL A   1      42.971  22.443  27.649  1.00  0.00     0.010 A 
ATOM     73  C   UNL A   1      44.188  22.366  25.555  1.00  0.00     0.010 A 
ATOM     74  C   UNL A   1      42.574  21.115  27.465  1.00  0.00     0.020 A 
ATOM     75  C   UNL A   1      43.772  21.046  25.354  1.00  0.00     0.020 A 
ATOM     76  C   UNL A   1      42.975  20.425  26.317  1.00  0.00     0.054 A 
BRANCH  76  77
ATOM     77  S   UNL A   1      42.402  18.721  26.069  1.00  0.00     0.124 S 
ATOM     78  O   UNL A   1      43.271  18.262  24.990  1.00  0.00    -0.237 OA
ATOM     79  O   UNL A   1      42.641  18.114  27.377  1.00  0.00    -0.237 OA
ATOM     80  O   UNL A   1      40.994  18.883  25.715  1.00  0.00    -0.744 OA
ENDBRANCH  76  77
ENDBRANCH  48  71
BRANCH  60  81
ATOM     81  C   UNL A   1      49.875  26.475  26.333  1.00  0.00    -0.014 A 
ATOM     82  C   UNL A   1      50.393  26.487  25.026  1.00  0.00     0.010 A 
ATOM     83  C   UNL A   1      50.698  26.072  27.400  1.00  0.00     0.010 A 
ATOM     84  C   UNL A   1      51.704  26.072  24.787  1.00  0.00     0.020 A 
ATOM     85  C   UNL A   1      52.018  25.682  27.166  1.00  0.00     0.020 A 
ATOM     86  C   UNL A   1      52.508  25.670  25.859  1.00  0.00     0.054 A 
BRANCH  86  87
ATOM     87  S   UNL A   1      54.220  25.177  25.528  1.00  0.00     0.124 S 
ATOM     88  O   UNL A   1      54.843  25.347  26.838  1.00  0.00    -0.237 OA
ATOM     89  O   UNL A   1      54.076  23.795  25.076  1.00  0.00    -0.237 OA
ATOM     90  O   UNL A   1      54.660  26.120  24.502  1.00  0.00    -0.744 OA
ENDBRANCH  86  87
ENDBRANCH  60  81
ENDBRANCH  34  35
ENDBRANCH  27  29
ENDBRANCH  26  27
ENDBRANCH  25  26
ENDBRANCH   1  25
TORSDOF 21
ENDMDL
